MODEL 1
REMARK VINA RESULT: -7.749499482      0.000      0.000
REMARK  5 active torsions:
REMARK  status: ('A' for Active; 'I' for Inactive)
REMARK    1  A    between atoms: N1_1  and  C1_4 
REMARK    2  A    between atoms: C3_6  and  C4_7 
REMARK    3  A    between atoms: C4_7  and  C5_8 
REMARK    4  A    between atoms: C5_8  and  C6_9 
REMARK    5  A    between atoms: C6_9  and  C7_10 
ROOT
HETATM    1  C1  UNL     1      29.434 -17.502  19.281  1.00  0.00     0.042 A 
HETATM    2  C2  UNL     1      29.912 -18.646  18.642  1.00  0.00     0.055 A 
HETATM    3  C3  UNL     1      30.915 -19.411  19.197  1.00  0.00     0.011 A 
HETATM    4  N2  UNL     1      31.403 -18.999  20.376  1.00  0.00    -0.359 N 
ATOM      5  H2  UNL     1      32.146 -19.554  20.801  1.00  0.00     0.166 HD
HETATM    6  C11 UNL     1      30.980 -17.901  21.043  1.00  0.00     0.046 A 
HETATM    7  C12 UNL     1      31.544 -17.548  22.265  1.00  0.00     0.030 A 
HETATM    8  C13 UNL     1      31.124 -16.438  22.948  1.00  0.00     0.004 A 
HETATM    9  C14 UNL     1      30.123 -15.669  22.401  1.00  0.00     0.027 A 
HETATM   10  C15 UNL     1      29.559 -16.021  21.180  1.00  0.00     0.061 A 
HETATM   11  N3  UNL     1      28.530 -15.244  20.602  1.00  0.00    -0.101 NA
HETATM   12  C16 UNL     1      29.979 -17.137  20.490  1.00  0.00     0.041 A 
ENDROOT
BRANCH   3  13
HETATM   13  C4  UNL     1      31.434 -20.639  18.517  1.00  0.00     0.057 C 
BRANCH  13  14
HETATM   14  C5  UNL     1      32.921 -20.673  18.663  1.00  0.00     0.012 C 
BRANCH  14  15
HETATM   15  C6  UNL     1      33.621 -20.253  17.398  1.00  0.00     0.065 C 
BRANCH  15  16
HETATM   16  C7  UNL     1      33.409 -18.780  17.206  1.00  0.00     0.052 A 
HETATM   17  C8  UNL     1      34.004 -17.796  17.973  1.00  0.00     0.034 A 
HETATM   18  C9  UNL     1      33.560 -16.585  17.485  1.00  0.00     0.027 A 
HETATM   19  C10 UNL     1      32.716 -16.905  16.443  1.00  0.00     0.142 A 
HETATM   20  O1  UNL     1      32.659 -18.198  16.317  1.00  0.00    -0.327 OA
ENDBRANCH  15  16
ENDBRANCH  14  15
ENDBRANCH  13  14
ENDBRANCH   3  13
BRANCH   1  21
HETATM   21  N1  UNL     1      28.494 -16.782  18.766  1.00  0.00    -0.398 N 
ATOM     22  H12 UNL     1      28.716 -16.134  18.011  1.00  0.00     0.156 HD
ATOM     23  H11 UNL     1      27.531 -16.844  19.097  1.00  0.00     0.156 HD
ENDBRANCH   1  21
TORSDOF 5
ENDMDL
MODEL 2
REMARK VINA RESULT: -7.717272013      1.450      2.788
REMARK  5 active torsions:
REMARK  status: ('A' for Active; 'I' for Inactive)
REMARK    1  A    between atoms: N1_1  and  C1_4 
REMARK    2  A    between atoms: C3_6  and  C4_7 
REMARK    3  A    between atoms: C4_7  and  C5_8 
REMARK    4  A    between atoms: C5_8  and  C6_9 
REMARK    5  A    between atoms: C6_9  and  C7_10 
ROOT
HETATM    1  C1  UNL     1      31.034 -15.438  19.264  1.00  0.00     0.042 A 
HETATM    2  C2  UNL     1      31.996 -15.580  18.265  1.00  0.00     0.055 A 
HETATM    3  C3  UNL     1      32.967 -16.556  18.338  1.00  0.00     0.011 A 
HETATM    4  N2  UNL     1      32.936 -17.356  19.414  1.00  0.00    -0.359 N 
ATOM      5  H2  UNL     1      33.647 -18.083  19.484  1.00  0.00     0.166 HD
HETATM    6  C11 UNL     1      32.028 -17.266  20.413  1.00  0.00     0.046 A 
HETATM    7  C12 UNL     1      32.071 -18.141  21.494  1.00  0.00     0.030 A 
HETATM    8  C13 UNL     1      31.157 -18.060  22.511  1.00  0.00     0.004 A 
HETATM    9  C14 UNL     1      30.185 -17.088  22.446  1.00  0.00     0.027 A 
HETATM   10  C15 UNL     1      30.142 -16.213  21.365  1.00  0.00     0.061 A 
HETATM   11  N3  UNL     1      29.151 -15.209  21.280  1.00  0.00    -0.101 NA
HETATM   12  C16 UNL     1      31.060 -16.293  20.340  1.00  0.00     0.041 A 
ENDROOT
BRANCH   3  13
HETATM   13  C4  UNL     1      34.004 -16.715  17.270  1.00  0.00     0.057 C 
BRANCH  13  14
HETATM   14  C5  UNL     1      33.369 -17.364  16.083  1.00  0.00     0.012 C 
BRANCH  14  15
HETATM   15  C6  UNL     1      33.745 -18.818  15.968  1.00  0.00     0.065 C 
BRANCH  15  16
HETATM   16  C7  UNL     1      32.951 -19.594  16.977  1.00  0.00     0.052 A 
HETATM   17  C8  UNL     1      33.480 -20.549  17.824  1.00  0.00     0.034 A 
HETATM   18  C9  UNL     1      32.438 -21.026  18.590  1.00  0.00     0.027 A 
HETATM   19  C10 UNL     1      31.328 -20.329  18.163  1.00  0.00     0.142 A 
HETATM   20  O1  UNL     1      31.677 -19.504  17.220  1.00  0.00    -0.327 OA
ENDBRANCH  15  16
ENDBRANCH  14  15
ENDBRANCH  13  14
ENDBRANCH   3  13
BRANCH   1  21
HETATM   21  N1  UNL     1      30.122 -14.525  19.200  1.00  0.00    -0.398 N 
ATOM     22  H12 UNL     1      29.674 -14.327  18.306  1.00  0.00     0.156 HD
ATOM     23  H11 UNL     1      29.839 -13.995  20.024  1.00  0.00     0.156 HD
ENDBRANCH   1  21
TORSDOF 5
ENDMDL
MODEL 3
REMARK VINA RESULT: -7.691950820      2.646      3.304
REMARK  5 active torsions:
REMARK  status: ('A' for Active; 'I' for Inactive)
REMARK    1  A    between atoms: N1_1  and  C1_4 
REMARK    2  A    between atoms: C3_6  and  C4_7 
REMARK    3  A    between atoms: C4_7  and  C5_8 
REMARK    4  A    between atoms: C5_8  and  C6_9 
REMARK    5  A    between atoms: C6_9  and  C7_10 
ROOT
HETATM    1  C1  UNL     1      30.245 -17.662  18.820  1.00  0.00     0.042 A 
HETATM    2  C2  UNL     1      30.910 -18.690  18.154  1.00  0.00     0.055 A 
HETATM    3  C3  UNL     1      32.044 -18.445  17.410  1.00  0.00     0.011 A 
HETATM    4  N2  UNL     1      32.471 -17.175  17.363  1.00  0.00    -0.359 N 
ATOM      5  H2  UNL     1      33.309 -16.976  16.816  1.00  0.00     0.166 HD
HETATM    6  C11 UNL     1      31.868 -16.137  17.989  1.00  0.00     0.046 A 
HETATM    7  C12 UNL     1      32.382 -14.849  17.885  1.00  0.00     0.030 A 
HETATM    8  C13 UNL     1      31.780 -13.791  18.514  1.00  0.00     0.004 A 
HETATM    9  C14 UNL     1      30.647 -14.026  19.259  1.00  0.00     0.027 A 
HETATM   10  C15 UNL     1      30.133 -15.315  19.362  1.00  0.00     0.061 A 
HETATM   11  N3  UNL     1      28.971 -15.577  20.122  1.00  0.00    -0.101 NA
HETATM   12  C16 UNL     1      30.736 -16.381  18.731  1.00  0.00     0.041 A 
ENDROOT
BRANCH   3  13
HETATM   13  C4  UNL     1      32.764 -19.543  16.690  1.00  0.00     0.057 C 
BRANCH  13  14
HETATM   14  C5  UNL     1      33.729 -18.929  15.728  1.00  0.00     0.012 C 
BRANCH  14  15
HETATM   15  C6  UNL     1      35.080 -19.592  15.786  1.00  0.00     0.065 C 
BRANCH  15  16
HETATM   16  C7  UNL     1      36.131 -18.522  15.841  1.00  0.00     0.052 A 
HETATM   17  C8  UNL     1      35.946 -17.270  16.397  1.00  0.00     0.034 A 
HETATM   18  C9  UNL     1      37.135 -16.588  16.252  1.00  0.00     0.027 A 
HETATM   19  C10 UNL     1      37.981 -17.470  15.613  1.00  0.00     0.142 A 
HETATM   20  O1  UNL     1      37.350 -18.586  15.393  1.00  0.00    -0.327 OA
ENDBRANCH  15  16
ENDBRANCH  14  15
ENDBRANCH  13  14
ENDBRANCH   3  13
BRANCH   1  21
HETATM   21  N1  UNL     1      29.181 -17.886  19.519  1.00  0.00    -0.398 N 
ATOM     22  H12 UNL     1      28.301 -18.079  19.043  1.00  0.00     0.156 HD
ATOM     23  H11 UNL     1      29.200 -17.872  20.539  1.00  0.00     0.156 HD
ENDBRANCH   1  21
TORSDOF 5
ENDMDL
MODEL 4
REMARK VINA RESULT: -7.663981315      1.541      1.733
REMARK  5 active torsions:
REMARK  status: ('A' for Active; 'I' for Inactive)
REMARK    1  A    between atoms: N1_1  and  C1_4 
REMARK    2  A    between atoms: C3_6  and  C4_7 
REMARK    3  A    between atoms: C4_7  and  C5_8 
REMARK    4  A    between atoms: C5_8  and  C6_9 
REMARK    5  A    between atoms: C6_9  and  C7_10 
ROOT
HETATM    1  C1  UNL     1      29.567 -17.318  19.140  1.00  0.00     0.042 A 
HETATM    2  C2  UNL     1      30.087 -18.262  18.256  1.00  0.00     0.055 A 
HETATM    3  C3  UNL     1      31.216 -18.989  18.567  1.00  0.00     0.011 A 
HETATM    4  N2  UNL     1      31.783 -18.741  19.756  1.00  0.00    -0.359 N 
ATOM      5  H2  UNL     1      32.620 -19.271  20.001  1.00  0.00     0.166 HD
HETATM    6  C11 UNL     1      31.325 -17.839  20.654  1.00  0.00     0.046 A 
HETATM    7  C12 UNL     1      31.978 -17.648  21.867  1.00  0.00     0.030 A 
HETATM    8  C13 UNL     1      31.523 -16.737  22.784  1.00  0.00     0.004 A 
HETATM    9  C14 UNL     1      30.396 -16.007  22.481  1.00  0.00     0.027 A 
HETATM   10  C15 UNL     1      29.743 -16.198  21.268  1.00  0.00     0.061 A 
HETATM   11  N3  UNL     1      28.585 -15.459  20.940  1.00  0.00    -0.101 NA
HETATM   12  C16 UNL     1      30.198 -17.114  20.344  1.00  0.00     0.041 A 
ENDROOT
BRANCH   3  13
HETATM   13  C4  UNL     1      31.781 -20.005  17.623  1.00  0.00     0.057 C 
BRANCH  13  14
HETATM   14  C5  UNL     1      33.211 -19.662  17.355  1.00  0.00     0.012 C 
BRANCH  14  15
HETATM   15  C6  UNL     1      33.355 -18.707  16.199  1.00  0.00     0.065 C 
BRANCH  15  16
HETATM   16  C7  UNL     1      34.784 -18.257  16.131  1.00  0.00     0.052 A 
HETATM   17  C8  UNL     1      35.230 -17.003  16.501  1.00  0.00     0.034 A 
HETATM   18  C9  UNL     1      36.592 -16.983  16.292  1.00  0.00     0.027 A 
HETATM   19  C10 UNL     1      36.899 -18.235  15.803  1.00  0.00     0.142 A 
HETATM   20  O1  UNL     1      35.811 -18.945  15.726  1.00  0.00    -0.327 OA
ENDBRANCH  15  16
ENDBRANCH  14  15
ENDBRANCH  13  14
ENDBRANCH   3  13
BRANCH   1  21
HETATM   21  N1  UNL     1      28.509 -16.634  18.854  1.00  0.00    -0.398 N 
ATOM     22  H12 UNL     1      28.154 -15.956  19.527  1.00  0.00     0.156 HD
ATOM     23  H11 UNL     1      28.016 -16.757  17.969  1.00  0.00     0.156 HD
ENDBRANCH   1  21
TORSDOF 5
ENDMDL
MODEL 5
REMARK VINA RESULT: -7.638795307      2.393      5.468
REMARK  5 active torsions:
REMARK  status: ('A' for Active; 'I' for Inactive)
REMARK    1  A    between atoms: N1_1  and  C1_4 
REMARK    2  A    between atoms: C3_6  and  C4_7 
REMARK    3  A    between atoms: C4_7  and  C5_8 
REMARK    4  A    between atoms: C5_8  and  C6_9 
REMARK    5  A    between atoms: C6_9  and  C7_10 
ROOT
HETATM    1  C1  UNL     1      30.149 -18.625  18.908  1.00  0.00     0.042 A 
HETATM    2  C2  UNL     1      29.630 -17.660  19.770  1.00  0.00     0.055 A 
HETATM    3  C3  UNL     1      30.088 -16.360  19.749  1.00  0.00     0.011 A 
HETATM    4  N2  UNL     1      31.051 -16.076  18.861  1.00  0.00    -0.359 N 
ATOM      5  H2  UNL     1      31.401 -15.118  18.833  1.00  0.00     0.166 HD
HETATM    6  C11 UNL     1      31.593 -16.969  18.001  1.00  0.00     0.046 A 
HETATM    7  C12 UNL     1      32.591 -16.584  17.111  1.00  0.00     0.030 A 
HETATM    8  C13 UNL     1      33.146 -17.480  16.236  1.00  0.00     0.004 A 
HETATM    9  C14 UNL     1      32.696 -18.780  16.251  1.00  0.00     0.027 A 
HETATM   10  C15 UNL     1      31.697 -19.164  17.140  1.00  0.00     0.061 A 
HETATM   11  N3  UNL     1      31.221 -20.494  17.170  1.00  0.00    -0.101 NA
HETATM   12  C16 UNL     1      31.137 -18.266  18.022  1.00  0.00     0.041 A 
ENDROOT
BRANCH   3  13
HETATM   13  C4  UNL     1      29.536 -15.318  20.671  1.00  0.00     0.057 C 
BRANCH  13  14
HETATM   14  C5  UNL     1      30.564 -15.009  21.711  1.00  0.00     0.012 C 
BRANCH  14  15
HETATM   15  C6  UNL     1      30.599 -16.052  22.796  1.00  0.00     0.065 C 
BRANCH  15  16
HETATM   16  C7  UNL     1      31.987 -16.616  22.868  1.00  0.00     0.052 A 
HETATM   17  C8  UNL     1      32.542 -17.455  21.921  1.00  0.00     0.034 A 
HETATM   18  C9  UNL     1      33.820 -17.749  22.345  1.00  0.00     0.027 A 
HETATM   19  C10 UNL     1      33.970 -17.067  23.534  1.00  0.00     0.142 A 
HETATM   20  O1  UNL     1      32.873 -16.420  23.799  1.00  0.00    -0.327 OA
ENDBRANCH  15  16
ENDBRANCH  14  15
ENDBRANCH  13  14
ENDBRANCH   3  13
BRANCH   1  21
HETATM   21  N1  UNL     1      29.724 -19.845  18.924  1.00  0.00    -0.398 N 
ATOM     22  H12 UNL     1      29.094 -20.165  18.189  1.00  0.00     0.156 HD
ATOM     23  H11 UNL     1      30.003 -20.499  19.656  1.00  0.00     0.156 HD
ENDBRANCH   1  21
TORSDOF 5
ENDMDL
