MODEL 1
REMARK VINA RESULT: -7.944082212      0.000      0.000
REMARK  5 active torsions:
REMARK  status: ('A' for Active; 'I' for Inactive)
REMARK    1  A    between atoms: C9_11  and  N2_12 
REMARK    2  A    between atoms: C11_17  and  C12_18 
REMARK    3  A    between atoms: C13_21  and  C14_22 
REMARK    4  A    between atoms: C14_22  and  N4_23 
REMARK    5  A    between atoms: C21_32  and  N5_33 
ROOT
HETATM    1  C1  UNL     1     -44.762  25.900 -11.807  1.00  0.00     0.046 C 
HETATM    2  C2  UNL     1     -44.413  24.694 -12.683  1.00  0.00     0.061 C 
HETATM    3  C3  UNL     1     -42.957  24.374 -12.388  1.00  0.00     0.046 C 
HETATM    4  C4  UNL     1     -45.292  23.563 -12.256  1.00  0.00     0.044 C 
HETATM    5  C5  UNL     1     -45.479  22.500 -13.283  1.00  0.00     0.063 C 
HETATM    6  C6  UNL     1     -45.702  23.042 -14.648  1.00  0.00     0.045 A 
HETATM    7  N1  UNL     1     -46.366  22.371 -15.599  1.00  0.00    -0.359 N 
ATOM      8  H1  UNL     1     -46.741  21.448 -15.384  1.00  0.00     0.165 HD
HETATM    9  C7  UNL     1     -46.553  22.886 -16.840  1.00  0.00     0.037 A 
HETATM   10  C8  UNL     1     -46.093  24.110 -17.227  1.00  0.00     0.032 A 
HETATM   11  C9  UNL     1     -45.408  24.810 -16.258  1.00  0.00     0.075 A 
HETATM   12  C10 UNL     1     -45.217  24.279 -14.984  1.00  0.00     0.119 A 
HETATM   13  O1  UNL     1     -44.524  25.014 -14.041  1.00  0.00    -0.337 OA
HETATM   14  C11 UNL     1     -46.481  24.352 -18.638  1.00  0.00     0.036 A 
HETATM   15  C21 UNL     1     -47.150  23.300 -19.074  1.00  0.00     0.035 A 
HETATM   16  C26 UNL     1     -47.235  22.259 -18.009  1.00  0.00     0.039 A 
HETATM   17  C27 UNL     1     -46.409  21.031 -18.315  1.00  0.00     0.028 C 
HETATM   18  C28 UNL     1     -48.624  21.957 -17.558  1.00  0.00     0.028 C 
ENDROOT
BRANCH  14  19
HETATM   19  C12 UNL     1     -46.059  25.583 -19.319  1.00  0.00     0.087 A 
HETATM   20  N3  UNL     1     -45.048  25.863 -20.087  1.00  0.00    -0.348 N 
HETATM   21  C13 UNL     1     -44.906  27.036 -20.608  1.00  0.00     0.055 A 
ATOM     22  H3  UNL     1     -44.354  25.142 -20.282  1.00  0.00     0.166 HD
HETATM   23  C20 UNL     1     -45.859  27.979 -20.324  1.00  0.00     0.082 A 
HETATM   24  S1  UNL     1     -46.919  27.088 -19.301  1.00  0.00    -0.081 SA
BRANCH  21  25
HETATM   25  C14 UNL     1     -43.713  27.336 -21.488  1.00  0.00     0.120 C 
BRANCH  25  26
HETATM   26  N4  UNL     1     -42.499  27.070 -20.869  1.00  0.00    -0.366 N 
HETATM   27  C15 UNL     1     -41.566  26.196 -21.443  1.00  0.00     0.065 C 
HETATM   28  C16 UNL     1     -41.621  24.864 -20.712  1.00  0.00     0.071 C 
HETATM   29  C17 UNL     1     -40.896  25.053 -19.393  1.00  0.00     0.172 C 
HETATM   30  O2  UNL     1     -41.531  26.032 -18.642  1.00  0.00    -0.389 OA
HETATM   31  C18 UNL     1     -41.036  27.285 -18.970  1.00  0.00     0.187 C 
HETATM   32  C19 UNL     1     -42.013  28.004 -19.911  1.00  0.00     0.153 C 
ENDBRANCH  25  26
ENDBRANCH  21  25
ENDBRANCH  14  19
BRANCH  15  33
HETATM   33  N5  UNL     1     -47.710  23.131 -20.382  1.00  0.00    -0.378 N 
HETATM   34  C22 UNL     1     -49.055  23.459 -20.756  1.00  0.00     0.149 C 
HETATM   35  C23 UNL     1     -49.011  24.619 -21.764  1.00  0.00     0.187 C 
HETATM   36  O3  UNL     1     -47.795  24.645 -22.456  1.00  0.00    -0.388 OA
HETATM   37  C24 UNL     1     -47.429  23.340 -22.763  1.00  0.00     0.187 C 
HETATM   38  C25 UNL     1     -46.924  22.601 -21.512  1.00  0.00     0.149 C 
ENDBRANCH  15  33
BRANCH  11  39
HETATM   39  N2  UNL     1     -44.915  25.948 -16.487  1.00  0.00    -0.396 N 
ATOM     40  H22 UNL     1     -44.175  26.004 -17.188  1.00  0.00     0.156 HD
ATOM     41  H21 UNL     1     -45.246  26.783 -16.003  1.00  0.00     0.156 HD
ENDBRANCH  11  39
TORSDOF 5
ENDMDL
MODEL 2
REMARK VINA RESULT: -7.714162803      2.145      2.915
REMARK  5 active torsions:
REMARK  status: ('A' for Active; 'I' for Inactive)
REMARK    1  A    between atoms: C9_11  and  N2_12 
REMARK    2  A    between atoms: C11_17  and  C12_18 
REMARK    3  A    between atoms: C13_21  and  C14_22 
REMARK    4  A    between atoms: C14_22  and  N4_23 
REMARK    5  A    between atoms: C21_32  and  N5_33 
ROOT
HETATM    1  C1  UNL     1     -42.740  26.683 -11.274  1.00  0.00     0.046 C 
HETATM    2  C2  UNL     1     -43.222  25.316 -11.764  1.00  0.00     0.061 C 
HETATM    3  C3  UNL     1     -42.404  24.289 -10.998  1.00  0.00     0.046 C 
HETATM    4  C4  UNL     1     -44.669  25.199 -11.406  1.00  0.00     0.044 C 
HETATM    5  C5  UNL     1     -45.432  24.213 -12.222  1.00  0.00     0.063 C 
HETATM    6  C6  UNL     1     -45.103  24.274 -13.668  1.00  0.00     0.045 A 
HETATM    7  N1  UNL     1     -45.955  23.886 -14.627  1.00  0.00    -0.359 N 
ATOM      8  H1  UNL     1     -46.874  23.535 -14.360  1.00  0.00     0.165 HD
HETATM    9  C7  UNL     1     -45.629  23.949 -15.943  1.00  0.00     0.037 A 
HETATM   10  C8  UNL     1     -44.428  24.403 -16.403  1.00  0.00     0.032 A 
HETATM   11  C9  UNL     1     -43.543  24.804 -15.427  1.00  0.00     0.075 A 
HETATM   12  C10 UNL     1     -43.880  24.740 -14.076  1.00  0.00     0.119 A 
HETATM   13  O1  UNL     1     -42.962  25.152 -13.129  1.00  0.00    -0.337 OA
HETATM   14  C11 UNL     1     -44.418  24.338 -17.884  1.00  0.00     0.036 A 
HETATM   15  C21 UNL     1     -45.580  23.856 -18.290  1.00  0.00     0.035 A 
HETATM   16  C26 UNL     1     -46.444  23.529 -17.119  1.00  0.00     0.039 A 
HETATM   17  C27 UNL     1     -46.646  22.043 -16.929  1.00  0.00     0.028 C 
HETATM   18  C28 UNL     1     -47.703  24.325 -17.047  1.00  0.00     0.028 C 
ENDROOT
BRANCH  14  19
HETATM   19  C12 UNL     1     -43.214  24.721 -18.632  1.00  0.00     0.087 A 
HETATM   20  N3  UNL     1     -42.631  25.865 -18.837  1.00  0.00    -0.348 N 
HETATM   21  C13 UNL     1     -41.535  25.947 -19.516  1.00  0.00     0.055 A 
ATOM     22  H3  UNL     1     -43.047  26.714 -18.455  1.00  0.00     0.166 HD
HETATM   23  C20 UNL     1     -41.004  24.786 -20.013  1.00  0.00     0.082 A 
HETATM   24  S1  UNL     1     -42.150  23.628 -19.456  1.00  0.00    -0.081 SA
BRANCH  21  25
HETATM   25  C14 UNL     1     -40.886  27.294 -19.748  1.00  0.00     0.120 C 
BRANCH  25  26
HETATM   26  N4  UNL     1     -40.883  27.674 -21.083  1.00  0.00    -0.366 N 
HETATM   27  C15 UNL     1     -41.939  28.416 -21.630  1.00  0.00     0.065 C 
HETATM   28  C16 UNL     1     -42.822  27.490 -22.450  1.00  0.00     0.071 C 
HETATM   29  C17 UNL     1     -42.097  27.228 -23.755  1.00  0.00     0.172 C 
HETATM   30  O2  UNL     1     -40.876  26.618 -23.503  1.00  0.00    -0.389 OA
HETATM   31  C18 UNL     1     -39.899  27.576 -23.277  1.00  0.00     0.187 C 
HETATM   32  C19 UNL     1     -39.638  27.711 -21.770  1.00  0.00     0.153 C 
ENDBRANCH  25  26
ENDBRANCH  21  25
ENDBRANCH  14  19
BRANCH  15  33
HETATM   33  N5  UNL     1     -45.983  23.640 -19.647  1.00  0.00    -0.378 N 
HETATM   34  C22 UNL     1     -46.787  24.537 -20.426  1.00  0.00     0.149 C 
HETATM   35  C23 UNL     1     -45.928  25.086 -21.576  1.00  0.00     0.187 C 
HETATM   36  O3  UNL     1     -44.894  24.203 -21.905  1.00  0.00    -0.388 OA
HETATM   37  C24 UNL     1     -45.386  22.904 -21.860  1.00  0.00     0.187 C 
HETATM   38  C25 UNL     1     -45.582  22.440 -20.405  1.00  0.00     0.149 C 
ENDBRANCH  15  33
BRANCH  11  39
HETATM   39  N2  UNL     1     -42.390  25.231 -15.712  1.00  0.00    -0.396 N 
ATOM     40  H22 UNL     1     -41.670  25.145 -14.994  1.00  0.00     0.156 HD
ATOM     41  H21 UNL     1     -42.179  25.635 -16.625  1.00  0.00     0.156 HD
ENDBRANCH  11  39
TORSDOF 5
ENDMDL
MODEL 3
REMARK VINA RESULT: -7.647175798      2.802      6.755
REMARK  5 active torsions:
REMARK  status: ('A' for Active; 'I' for Inactive)
REMARK    1  A    between atoms: C9_11  and  N2_12 
REMARK    2  A    between atoms: C11_17  and  C12_18 
REMARK    3  A    between atoms: C13_21  and  C14_22 
REMARK    4  A    between atoms: C14_22  and  N4_23 
REMARK    5  A    between atoms: C21_32  and  N5_33 
ROOT
HETATM    1  C1  UNL     1     -39.919  27.292 -20.383  1.00  0.00     0.046 C 
HETATM    2  C2  UNL     1     -41.402  27.209 -20.752  1.00  0.00     0.061 C 
HETATM    3  C3  UNL     1     -41.800  28.610 -21.188  1.00  0.00     0.046 C 
HETATM    4  C4  UNL     1     -41.525  26.253 -21.895  1.00  0.00     0.044 C 
HETATM    5  C5  UNL     1     -42.878  25.650 -22.057  1.00  0.00     0.063 C 
HETATM    6  C6  UNL     1     -43.488  25.235 -20.768  1.00  0.00     0.045 A 
HETATM    7  N1  UNL     1     -44.408  24.264 -20.676  1.00  0.00    -0.359 N 
ATOM      8  H1  UNL     1     -44.705  23.782 -21.524  1.00  0.00     0.165 HD
HETATM    9  C7  UNL     1     -44.953  23.905 -19.487  1.00  0.00     0.037 A 
HETATM   10  C8  UNL     1     -44.624  24.486 -18.299  1.00  0.00     0.032 A 
HETATM   11  C9  UNL     1     -43.679  25.486 -18.379  1.00  0.00     0.075 A 
HETATM   12  C10 UNL     1     -43.120  25.853 -19.602  1.00  0.00     0.119 A 
HETATM   13  O1  UNL     1     -42.175  26.862 -19.638  1.00  0.00    -0.337 OA
HETATM   14  C11 UNL     1     -45.404  23.847 -17.211  1.00  0.00     0.036 A 
HETATM   15  C21 UNL     1     -46.175  22.916 -17.742  1.00  0.00     0.035 A 
HETATM   16  C26 UNL     1     -46.002  22.878 -19.223  1.00  0.00     0.039 A 
HETATM   17  C27 UNL     1     -47.216  23.375 -19.973  1.00  0.00     0.028 C 
HETATM   18  C28 UNL     1     -45.453  21.592 -19.742  1.00  0.00     0.028 C 
ENDROOT
BRANCH  14  19
HETATM   19  C12 UNL     1     -45.275  24.328 -15.829  1.00  0.00     0.087 A 
HETATM   20  N3  UNL     1     -46.001  25.123 -15.101  1.00  0.00    -0.348 N 
HETATM   21  C13 UNL     1     -45.696  25.373 -13.872  1.00  0.00     0.055 A 
ATOM     22  H3  UNL     1     -46.829  25.557 -15.509  1.00  0.00     0.166 HD
HETATM   23  C20 UNL     1     -44.578  24.771 -13.357  1.00  0.00     0.082 A 
HETATM   24  S1  UNL     1     -44.030  23.865 -14.715  1.00  0.00    -0.081 SA
BRANCH  21  25
HETATM   25  C14 UNL     1     -46.555  26.312 -13.053  1.00  0.00     0.120 C 
BRANCH  25  26
HETATM   26  N4  UNL     1     -47.531  26.951 -13.805  1.00  0.00    -0.366 N 
HETATM   27  C15 UNL     1     -48.893  26.699 -13.592  1.00  0.00     0.065 C 
HETATM   28  C16 UNL     1     -49.405  25.782 -14.692  1.00  0.00     0.071 C 
HETATM   29  C17 UNL     1     -49.576  26.634 -15.934  1.00  0.00     0.172 C 
HETATM   30  O2  UNL     1     -48.355  27.182 -16.303  1.00  0.00    -0.389 OA
HETATM   31  C18 UNL     1     -48.147  28.382 -15.639  1.00  0.00     0.187 C 
HETATM   32  C19 UNL     1     -47.189  28.168 -14.459  1.00  0.00     0.153 C 
ENDBRANCH  25  26
ENDBRANCH  21  25
ENDBRANCH  14  19
BRANCH  15  33
HETATM   33  N5  UNL     1     -47.081  22.059 -17.036  1.00  0.00    -0.378 N 
HETATM   34  C22 UNL     1     -48.386  22.434 -16.574  1.00  0.00     0.149 C 
HETATM   35  C23 UNL     1     -49.431  21.618 -17.352  1.00  0.00     0.187 C 
HETATM   36  O3  UNL     1     -48.893  20.411 -17.813  1.00  0.00    -0.388 OA
HETATM   37  C24 UNL     1     -48.078  19.879 -16.822  1.00  0.00     0.187 C 
HETATM   38  C25 UNL     1     -46.753  20.656 -16.721  1.00  0.00     0.149 C 
ENDBRANCH  15  33
BRANCH  11  39
HETATM   39  N2  UNL     1     -43.294  26.118 -17.357  1.00  0.00    -0.396 N 
ATOM     40  H22 UNL     1     -43.815  26.959 -17.106  1.00  0.00     0.156 HD
ATOM     41  H21 UNL     1     -42.504  25.800 -16.797  1.00  0.00     0.156 HD
ENDBRANCH  11  39
TORSDOF 5
ENDMDL
MODEL 4
REMARK VINA RESULT: -7.576053069      2.112      5.817
REMARK  5 active torsions:
REMARK  status: ('A' for Active; 'I' for Inactive)
REMARK    1  A    between atoms: C9_11  and  N2_12 
REMARK    2  A    between atoms: C11_17  and  C12_18 
REMARK    3  A    between atoms: C13_21  and  C14_22 
REMARK    4  A    between atoms: C14_22  and  N4_23 
REMARK    5  A    between atoms: C21_32  and  N5_33 
ROOT
HETATM    1  C1  UNL     1     -44.652  21.752 -12.978  1.00  0.00     0.046 C 
HETATM    2  C2  UNL     1     -44.668  23.242 -13.330  1.00  0.00     0.061 C 
HETATM    3  C3  UNL     1     -45.777  23.854 -12.490  1.00  0.00     0.046 C 
HETATM    4  C4  UNL     1     -43.342  23.807 -12.934  1.00  0.00     0.044 C 
HETATM    5  C5  UNL     1     -42.969  25.066 -13.639  1.00  0.00     0.063 C 
HETATM    6  C6  UNL     1     -43.275  25.032 -15.092  1.00  0.00     0.045 A 
HETATM    7  N1  UNL     1     -42.616  25.773 -15.993  1.00  0.00    -0.359 N 
ATOM      8  H1  UNL     1     -41.868  26.389 -15.677  1.00  0.00     0.165 HD
HETATM    9  C7  UNL     1     -42.917  25.727 -17.316  1.00  0.00     0.037 A 
HETATM   10  C8  UNL     1     -43.898  24.938 -17.840  1.00  0.00     0.032 A 
HETATM   11  C9  UNL     1     -44.583  24.171 -16.923  1.00  0.00     0.075 A 
HETATM   12  C10 UNL     1     -44.272  24.220 -15.566  1.00  0.00     0.119 A 
HETATM   13  O1  UNL     1     -44.984  23.434 -14.679  1.00  0.00    -0.337 OA
HETATM   14  C11 UNL     1     -43.947  25.134 -19.309  1.00  0.00     0.036 A 
HETATM   15  C21 UNL     1     -43.023  26.016 -19.645  1.00  0.00     0.035 A 
HETATM   16  C26 UNL     1     -42.307  26.506 -18.431  1.00  0.00     0.039 A 
HETATM   17  C27 UNL     1     -42.619  27.947 -18.102  1.00  0.00     0.028 C 
HETATM   18  C28 UNL     1     -40.851  26.181 -18.407  1.00  0.00     0.028 C 
ENDROOT
BRANCH  14  19
HETATM   19  C12 UNL     1     -44.959  24.436 -20.113  1.00  0.00     0.087 A 
HETATM   20  N3  UNL     1     -46.257  24.499 -20.144  1.00  0.00    -0.348 N 
HETATM   21  C13 UNL     1     -46.943  23.796 -20.983  1.00  0.00     0.055 A 
ATOM     22  H3  UNL     1     -46.743  25.115 -19.492  1.00  0.00     0.166 HD
HETATM   23  C20 UNL     1     -46.256  22.981 -21.844  1.00  0.00     0.082 A 
HETATM   24  S1  UNL     1     -44.629  23.290 -21.371  1.00  0.00    -0.081 SA
BRANCH  21  25
HETATM   25  C14 UNL     1     -48.453  23.882 -20.987  1.00  0.00     0.120 C 
BRANCH  25  26
HETATM   26  N4  UNL     1     -49.020  23.552 -19.763  1.00  0.00    -0.366 N 
HETATM   27  C15 UNL     1     -49.974  24.381 -19.157  1.00  0.00     0.065 C 
HETATM   28  C16 UNL     1     -49.309  25.161 -18.034  1.00  0.00     0.071 C 
HETATM   29  C17 UNL     1     -49.142  24.205 -16.869  1.00  0.00     0.172 C 
HETATM   30  O2  UNL     1     -48.338  23.138 -17.246  1.00  0.00    -0.389 OA
HETATM   31  C18 UNL     1     -49.107  22.137 -17.819  1.00  0.00     0.187 C 
HETATM   32  C19 UNL     1     -48.983  22.191 -19.348  1.00  0.00     0.153 C 
ENDBRANCH  25  26
ENDBRANCH  21  25
ENDBRANCH  14  19
BRANCH  15  33
HETATM   33  N5  UNL     1     -42.733  26.482 -20.968  1.00  0.00    -0.378 N 
HETATM   34  C22 UNL     1     -43.430  27.536 -21.646  1.00  0.00     0.149 C 
HETATM   35  C23 UNL     1     -42.457  28.710 -21.849  1.00  0.00     0.187 C 
HETATM   36  O3  UNL     1     -41.130  28.270 -21.880  1.00  0.00    -0.388 OA
HETATM   37  C24 UNL     1     -41.070  27.084 -22.600  1.00  0.00     0.187 C 
HETATM   38  C25 UNL     1     -41.642  25.913 -21.781  1.00  0.00     0.149 C 
ENDBRANCH  15  33
BRANCH  11  39
HETATM   39  N2  UNL     1     -45.526  23.408 -17.271  1.00  0.00    -0.396 N 
ATOM     40  H22 UNL     1     -46.469  23.671 -16.982  1.00  0.00     0.156 HD
ATOM     41  H21 UNL     1     -45.359  22.568 -17.825  1.00  0.00     0.156 HD
ENDBRANCH  11  39
TORSDOF 5
ENDMDL
MODEL 5
REMARK VINA RESULT: -7.559276928      1.970      5.560
REMARK  5 active torsions:
REMARK  status: ('A' for Active; 'I' for Inactive)
REMARK    1  A    between atoms: C9_11  and  N2_12 
REMARK    2  A    between atoms: C11_17  and  C12_18 
REMARK    3  A    between atoms: C13_21  and  C14_22 
REMARK    4  A    between atoms: C14_22  and  N4_23 
REMARK    5  A    between atoms: C21_32  and  N5_33 
ROOT
HETATM    1  C1  UNL     1     -45.398  22.610 -13.870  1.00  0.00     0.046 C 
HETATM    2  C2  UNL     1     -44.824  24.026 -13.960  1.00  0.00     0.061 C 
HETATM    3  C3  UNL     1     -45.596  24.853 -12.945  1.00  0.00     0.046 C 
HETATM    4  C4  UNL     1     -43.380  23.947 -13.578  1.00  0.00     0.044 C 
HETATM    5  C5  UNL     1     -42.542  25.069 -14.086  1.00  0.00     0.063 C 
HETATM    6  C6  UNL     1     -42.843  25.429 -15.495  1.00  0.00     0.045 A 
HETATM    7  N1  UNL     1     -41.948  26.010 -16.306  1.00  0.00    -0.359 N 
ATOM      8  H1  UNL     1     -41.015  26.216 -15.949  1.00  0.00     0.165 HD
HETATM    9  C7  UNL     1     -42.248  26.333 -17.589  1.00  0.00     0.037 A 
HETATM   10  C8  UNL     1     -43.463  26.101 -18.162  1.00  0.00     0.032 A 
HETATM   11  C9  UNL     1     -44.393  25.504 -17.338  1.00  0.00     0.075 A 
HETATM   12  C10 UNL     1     -44.082  25.173 -16.021  1.00  0.00     0.119 A 
HETATM   13  O1  UNL     1     -45.044  24.575 -15.229  1.00  0.00    -0.337 OA
HETATM   14  C11 UNL     1     -43.437  26.572 -19.568  1.00  0.00     0.036 A 
HETATM   15  C21 UNL     1     -42.240  27.071 -19.820  1.00  0.00     0.035 A 
HETATM   16  C26 UNL     1     -41.383  27.007 -18.600  1.00  0.00     0.039 A 
HETATM   17  C27 UNL     1     -41.097  28.367 -18.007  1.00  0.00     0.028 C 
HETATM   18  C28 UNL     1     -40.176  26.144 -18.745  1.00  0.00     0.028 C 
ENDROOT
BRANCH  14  19
HETATM   19  C12 UNL     1     -44.646  26.486 -20.398  1.00  0.00     0.087 A 
HETATM   20  N3  UNL     1     -45.279  25.484 -20.933  1.00  0.00    -0.348 N 
HETATM   21  C13 UNL     1     -46.366  25.661 -21.607  1.00  0.00     0.055 A 
ATOM     22  H3  UNL     1     -44.909  24.541 -20.817  1.00  0.00     0.166 HD
HETATM   23  C20 UNL     1     -46.833  26.942 -21.741  1.00  0.00     0.082 A 
HETATM   24  S1  UNL     1     -45.643  27.826 -20.864  1.00  0.00    -0.081 SA
BRANCH  21  25
HETATM   25  C14 UNL     1     -47.073  24.476 -22.228  1.00  0.00     0.120 C 
BRANCH  25  26
HETATM   26  N4  UNL     1     -47.044  23.343 -21.426  1.00  0.00    -0.366 N 
HETATM   27  C15 UNL     1     -48.210  22.841 -20.833  1.00  0.00     0.065 C 
HETATM   28  C16 UNL     1     -48.223  23.228 -19.363  1.00  0.00     0.071 C 
HETATM   29  C17 UNL     1     -47.253  22.303 -18.653  1.00  0.00     0.172 C 
HETATM   30  O2  UNL     1     -45.977  22.466 -19.175  1.00  0.00    -0.389 OA
HETATM   31  C18 UNL     1     -45.798  21.637 -20.272  1.00  0.00     0.187 C 
HETATM   32  C19 UNL     1     -45.948  22.446 -21.569  1.00  0.00     0.153 C 
ENDBRANCH  25  26
ENDBRANCH  21  25
ENDBRANCH  14  19
BRANCH  15  33
HETATM   33  N5  UNL     1     -41.795  27.626 -21.063  1.00  0.00    -0.378 N 
HETATM   34  C22 UNL     1     -41.107  26.904 -22.094  1.00  0.00     0.149 C 
HETATM   35  C23 UNL     1     -42.017  26.837 -23.331  1.00  0.00     0.187 C 
HETATM   36  O3  UNL     1     -42.920  27.905 -23.356  1.00  0.00    -0.388 OA
HETATM   37  C24 UNL     1     -42.262  29.056 -22.942  1.00  0.00     0.187 C 
HETATM   38  C25 UNL     1     -42.025  29.038 -21.421  1.00  0.00     0.149 C 
ENDBRANCH  15  33
BRANCH  11  39
HETATM   39  N2  UNL     1     -45.562  25.247 -17.736  1.00  0.00    -0.396 N 
ATOM     40  H22 UNL     1     -45.949  25.846 -18.465  1.00  0.00     0.156 HD
ATOM     41  H21 UNL     1     -46.098  24.467 -17.356  1.00  0.00     0.156 HD
ENDBRANCH  11  39
TORSDOF 5
ENDMDL
