MODEL 1
REMARK VINA RESULT: -9.348751384      0.000      0.000
REMARK  4 active torsions:
REMARK  status: ('A' for Active; 'I' for Inactive)
REMARK    1  A    between atoms: C4_4  and  C5_5 
REMARK    2  A    between atoms: C5_5  and  C6_6 
REMARK    3  A    between atoms: C12_12  and  O1_13 
REMARK    4  A    between atoms: C16_18  and  C17_19 
ROOT
HETATM    1  C6  UNL     1      15.188  -9.463  33.399  1.00  0.00     0.033 C 
HETATM    2  C7  UNL     1      14.913 -10.691  34.238  1.00  0.00    -0.007 C 
HETATM    3  C8  UNL     1      15.794 -10.740  35.478  1.00  0.00     0.011 C 
HETATM    4  C9  UNL     1      13.505 -10.885  34.653  1.00  0.00    -0.012 C 
HETATM    5  C10 UNL     1      12.548 -11.098  33.526  1.00  0.00     0.010 C 
HETATM    6  C11 UNL     1      13.148  -9.646  35.482  1.00  0.00     0.039 C 
HETATM    7  C12 UNL     1      13.157  -8.521  34.512  1.00  0.00     0.156 C 
HETATM    8  C13 UNL     1      14.505  -8.238  33.873  1.00  0.00     0.126 C 
HETATM    9  C14 UNL     1      14.176  -7.272  32.742  1.00  0.00     0.047 C 
HETATM   10  C15 UNL     1      14.258  -5.833  33.112  1.00  0.00     0.039 C 
HETATM   11  C16 UNL     1      14.974  -5.519  34.383  1.00  0.00     0.168 C 
HETATM   12  O2  UNL     1      14.753  -6.510  35.305  1.00  0.00    -0.234 OA
HETATM   13  O3  UNL     1      15.286  -7.620  34.846  1.00  0.00    -0.226 OA
ENDROOT
BRANCH   1  14
HETATM   14  C5  UNL     1      16.695  -9.392  33.309  1.00  0.00     0.035 C 
BRANCH  14  15
HETATM   15  C4  UNL     1      17.238  -9.318  31.941  1.00  0.00    -0.024 C 
HETATM   16  C2  UNL     1      17.692 -10.401  31.340  1.00  0.00    -0.091 C 
HETATM   17  C1  UNL     1      18.237 -10.299  29.953  1.00  0.00     0.042 C 
HETATM   18  C3  UNL     1      17.660 -11.702  32.029  1.00  0.00     0.042 C 
ENDBRANCH  14  15
ENDBRANCH   1  14
BRANCH   7  19
HETATM   19  O1  UNL     1      12.613  -7.404  35.084  1.00  0.00    -0.392 OA
ATOM     20  H1  UNL     1      13.272  -6.724  35.162  1.00  0.00     0.210 HD
ENDBRANCH   7  19
BRANCH  11  21
HETATM   21  C17 UNL     1      14.773  -4.145  34.919  1.00  0.00    -0.022 C 
HETATM   22  C18 UNL     1      14.017  -4.153  36.226  1.00  0.00     0.017 C 
HETATM   23  C19 UNL     1      16.026  -3.353  35.046  1.00  0.00     0.017 C 
HETATM   24  C20 UNL     1      13.834  -3.435  33.924  1.00  0.00     0.017 C 
ENDBRANCH  11  21
TORSDOF 4
ENDMDL
MODEL 2
REMARK VINA RESULT: -9.178729172      1.963      5.298
REMARK  4 active torsions:
REMARK  status: ('A' for Active; 'I' for Inactive)
REMARK    1  A    between atoms: C4_4  and  C5_5 
REMARK    2  A    between atoms: C5_5  and  C6_6 
REMARK    3  A    between atoms: C12_12  and  O1_13 
REMARK    4  A    between atoms: C16_18  and  C17_19 
ROOT
HETATM    1  C6  UNL     1      14.640  -5.067  33.423  1.00  0.00     0.033 C 
HETATM    2  C7  UNL     1      13.411  -4.238  33.726  1.00  0.00    -0.007 C 
HETATM    3  C8  UNL     1      12.312  -4.456  32.694  1.00  0.00     0.011 C 
HETATM    4  C9  UNL     1      12.831  -4.417  35.076  1.00  0.00    -0.012 C 
HETATM    5  C10 UNL     1      13.728  -4.005  36.197  1.00  0.00     0.010 C 
HETATM    6  C11 UNL     1      12.446  -5.899  35.164  1.00  0.00     0.039 C 
HETATM    7  C12 UNL     1      13.739  -6.630  35.154  1.00  0.00     0.156 C 
HETATM    8  C13 UNL     1      14.554  -6.471  33.882  1.00  0.00     0.126 C 
HETATM    9  C14 UNL     1      15.912  -7.057  34.245  1.00  0.00     0.047 C 
HETATM   10  C15 UNL     1      16.065  -8.505  33.941  1.00  0.00     0.039 C 
HETATM   11  C16 UNL     1      15.047  -9.097  33.025  1.00  0.00     0.168 C 
HETATM   12  O2  UNL     1      13.826  -8.509  33.234  1.00  0.00    -0.234 OA
HETATM   13  O3  UNL     1      13.925  -7.240  32.906  1.00  0.00    -0.226 OA
ENDROOT
BRANCH   1  14
HETATM   14  C5  UNL     1      14.883  -4.863  31.945  1.00  0.00     0.035 C 
BRANCH  14  15
HETATM   15  C4  UNL     1      16.272  -5.078  31.503  1.00  0.00    -0.024 C 
HETATM   16  C2  UNL     1      16.558  -6.017  30.621  1.00  0.00    -0.091 C 
HETATM   17  C1  UNL     1      17.974  -6.214  30.190  1.00  0.00     0.042 C 
HETATM   18  C3  UNL     1      15.489  -6.864  30.065  1.00  0.00     0.042 C 
ENDBRANCH  14  15
ENDBRANCH   1  14
BRANCH   7  19
HETATM   19  O1  UNL     1      13.538  -7.944  35.476  1.00  0.00    -0.392 OA
ATOM     20  H1  UNL     1      13.971  -8.505  34.844  1.00  0.00     0.210 HD
ENDBRANCH   7  19
BRANCH  11  21
HETATM   21  C17 UNL     1      14.997 -10.585  32.983  1.00  0.00    -0.022 C 
HETATM   22  C18 UNL     1      13.609 -11.095  32.678  1.00  0.00     0.017 C 
HETATM   23  C19 UNL     1      15.993 -11.201  32.068  1.00  0.00     0.017 C 
HETATM   24  C20 UNL     1      15.284 -11.058  34.422  1.00  0.00     0.017 C 
ENDBRANCH  11  21
TORSDOF 4
ENDMDL
MODEL 3
REMARK VINA RESULT: -9.015986162      0.946      1.422
REMARK  4 active torsions:
REMARK  status: ('A' for Active; 'I' for Inactive)
REMARK    1  A    between atoms: C4_4  and  C5_5 
REMARK    2  A    between atoms: C5_5  and  C6_6 
REMARK    3  A    between atoms: C12_12  and  O1_13 
REMARK    4  A    between atoms: C16_18  and  C17_19 
ROOT
HETATM    1  C6  UNL     1      14.943  -8.973  32.528  1.00  0.00     0.033 C 
HETATM    2  C7  UNL     1      15.191 -10.302  33.207  1.00  0.00    -0.007 C 
HETATM    3  C8  UNL     1      16.431 -10.265  34.089  1.00  0.00     0.011 C 
HETATM    4  C9  UNL     1      14.063 -10.839  34.002  1.00  0.00    -0.012 C 
HETATM    5  C10 UNL     1      12.839 -11.156  33.208  1.00  0.00     0.010 C 
HETATM    6  C11 UNL     1      13.789  -9.788  35.085  1.00  0.00     0.039 C 
HETATM    7  C12 UNL     1      13.269  -8.608  34.349  1.00  0.00     0.156 C 
HETATM    8  C13 UNL     1      14.250  -7.977  33.376  1.00  0.00     0.126 C 
HETATM    9  C14 UNL     1      13.393  -7.010  32.569  1.00  0.00     0.047 C 
HETATM   10  C15 UNL     1      13.333  -5.628  33.117  1.00  0.00     0.039 C 
HETATM   11  C16 UNL     1      14.365  -5.279  34.136  1.00  0.00     0.168 C 
HETATM   12  O2  UNL     1      14.649  -6.372  34.913  1.00  0.00    -0.234 OA
HETATM   13  O3  UNL     1      15.188  -7.291  34.143  1.00  0.00    -0.226 OA
ENDROOT
BRANCH   1  14
HETATM   14  C5  UNL     1      16.293  -8.563  31.987  1.00  0.00     0.035 C 
BRANCH  14  15
HETATM   15  C4  UNL     1      16.461  -8.724  30.532  1.00  0.00    -0.024 C 
HETATM   16  C2  UNL     1      17.493  -9.387  30.045  1.00  0.00    -0.091 C 
HETATM   17  C1  UNL     1      17.640  -9.537  28.566  1.00  0.00     0.042 C 
HETATM   18  C3  UNL     1      18.492  -9.977  30.952  1.00  0.00     0.042 C 
ENDBRANCH  14  15
ENDBRANCH   1  14
BRANCH   7  19
HETATM   19  O1  UNL     1      12.757  -7.694  35.229  1.00  0.00    -0.392 OA
ATOM     20  H1  UNL     1      12.041  -7.218  34.825  1.00  0.00     0.210 HD
ENDBRANCH   7  19
BRANCH  11  21
HETATM   21  C17 UNL     1      14.113  -4.036  34.917  1.00  0.00    -0.022 C 
HETATM   22  C18 UNL     1      13.468  -2.962  34.076  1.00  0.00     0.017 C 
HETATM   23  C19 UNL     1      13.342  -4.253  36.169  1.00  0.00     0.017 C 
HETATM   24  C20 UNL     1      15.502  -3.474  35.278  1.00  0.00     0.017 C 
ENDBRANCH  11  21
TORSDOF 4
ENDMDL
MODEL 4
REMARK VINA RESULT: -8.979998059      1.530      2.158
REMARK  4 active torsions:
REMARK  status: ('A' for Active; 'I' for Inactive)
REMARK    1  A    between atoms: C4_4  and  C5_5 
REMARK    2  A    between atoms: C5_5  and  C6_6 
REMARK    3  A    between atoms: C12_12  and  O1_13 
REMARK    4  A    between atoms: C16_18  and  C17_19 
ROOT
HETATM    1  C6  UNL     1      14.845  -9.022  32.492  1.00  0.00     0.033 C 
HETATM    2  C7  UNL     1      15.118 -10.346  33.170  1.00  0.00    -0.007 C 
HETATM    3  C8  UNL     1      16.390 -10.304  34.004  1.00  0.00     0.011 C 
HETATM    4  C9  UNL     1      14.021 -10.879  34.009  1.00  0.00    -0.012 C 
HETATM    5  C10 UNL     1      12.768 -11.201  33.264  1.00  0.00     0.010 C 
HETATM    6  C11 UNL     1      13.787  -9.822  35.095  1.00  0.00     0.039 C 
HETATM    7  C12 UNL     1      13.240  -8.646  34.373  1.00  0.00     0.156 C 
HETATM    8  C13 UNL     1      14.185  -8.021  33.360  1.00  0.00     0.126 C 
HETATM    9  C14 UNL     1      13.297  -7.059  32.581  1.00  0.00     0.047 C 
HETATM   10  C15 UNL     1      13.258  -5.673  33.122  1.00  0.00     0.039 C 
HETATM   11  C16 UNL     1      14.328  -5.318  34.100  1.00  0.00     0.168 C 
HETATM   12  O2  UNL     1      14.641  -6.407  34.873  1.00  0.00    -0.234 OA
HETATM   13  O3  UNL     1      15.150  -7.330  34.088  1.00  0.00    -0.226 OA
ENDROOT
BRANCH   1  14
HETATM   14  C5  UNL     1      16.174  -8.614  31.899  1.00  0.00     0.035 C 
BRANCH  14  15
HETATM   15  C4  UNL     1      16.145  -8.282  30.464  1.00  0.00    -0.024 C 
HETATM   16  C2  UNL     1      16.295  -7.035  30.061  1.00  0.00    -0.091 C 
HETATM   17  C1  UNL     1      16.261  -6.724  28.601  1.00  0.00     0.042 C 
HETATM   18  C3  UNL     1      16.495  -5.956  31.043  1.00  0.00     0.042 C 
ENDBRANCH  14  15
ENDBRANCH   1  14
BRANCH   7  19
HETATM   19  O1  UNL     1      12.761  -7.727  35.266  1.00  0.00    -0.392 OA
ATOM     20  H1  UNL     1      12.845  -8.059  36.151  1.00  0.00     0.210 HD
ENDBRANCH   7  19
BRANCH  11  21
HETATM   21  C17 UNL     1      14.104  -4.071  34.882  1.00  0.00    -0.022 C 
HETATM   22  C18 UNL     1      13.464  -2.988  34.049  1.00  0.00     0.017 C 
HETATM   23  C19 UNL     1      13.347  -4.274  36.146  1.00  0.00     0.017 C 
HETATM   24  C20 UNL     1      15.507  -3.529  35.224  1.00  0.00     0.017 C 
ENDBRANCH  11  21
TORSDOF 4
ENDMDL
MODEL 5
REMARK VINA RESULT: -8.767238069      1.263      1.676
REMARK  4 active torsions:
REMARK  status: ('A' for Active; 'I' for Inactive)
REMARK    1  A    between atoms: C4_4  and  C5_5 
REMARK    2  A    between atoms: C5_5  and  C6_6 
REMARK    3  A    between atoms: C12_12  and  O1_13 
REMARK    4  A    between atoms: C16_18  and  C17_19 
ROOT
HETATM    1  C6  UNL     1      14.988 -10.523  33.493  1.00  0.00     0.033 C 
HETATM    2  C7  UNL     1      14.517 -11.258  34.728  1.00  0.00    -0.007 C 
HETATM    3  C8  UNL     1      15.408 -10.978  35.929  1.00  0.00     0.011 C 
HETATM    4  C9  UNL     1      13.109 -11.021  35.119  1.00  0.00    -0.012 C 
HETATM    5  C10 UNL     1      12.099 -11.481  34.119  1.00  0.00     0.010 C 
HETATM    6  C11 UNL     1      13.007  -9.515  35.388  1.00  0.00     0.039 C 
HETATM    7  C12 UNL     1      13.194  -8.877  34.060  1.00  0.00     0.156 C 
HETATM    8  C13 UNL     1      14.553  -9.110  33.424  1.00  0.00     0.126 C 
HETATM    9  C14 UNL     1      14.376  -8.617  31.994  1.00  0.00     0.047 C 
HETATM   10  C15 UNL     1      14.728  -7.187  31.782  1.00  0.00     0.039 C 
HETATM   11  C16 UNL     1      15.523  -6.537  32.864  1.00  0.00     0.168 C 
HETATM   12  O2  UNL     1      15.151  -7.035  34.086  1.00  0.00    -0.234 OA
HETATM   13  O3  UNL     1      15.460  -8.312  34.117  1.00  0.00    -0.226 OA
ENDROOT
BRANCH   1  14
HETATM   14  C5  UNL     1      16.480 -10.763  33.452  1.00  0.00     0.035 C 
BRANCH  14  15
HETATM   15  C4  UNL     1      16.968 -11.476  32.258  1.00  0.00    -0.024 C 
HETATM   16  C2  UNL     1      17.656 -10.838  31.331  1.00  0.00    -0.091 C 
HETATM   17  C1  UNL     1      18.139 -11.583  30.130  1.00  0.00     0.042 C 
HETATM   18  C3  UNL     1      17.948  -9.402  31.478  1.00  0.00     0.042 C 
ENDBRANCH  14  15
ENDBRANCH   1  14
BRANCH   7  19
HETATM   19  O1  UNL     1      12.879  -7.548  34.129  1.00  0.00    -0.392 OA
ATOM     20  H1  UNL     1      13.226  -7.091  33.372  1.00  0.00     0.210 HD
ENDBRANCH   7  19
BRANCH  11  21
HETATM   21  C17 UNL     1      15.591  -5.051  32.817  1.00  0.00    -0.022 C 
HETATM   22  C18 UNL     1      16.278  -4.478  34.033  1.00  0.00     0.017 C 
HETATM   23  C19 UNL     1      16.197  -4.509  31.572  1.00  0.00     0.017 C 
HETATM   24  C20 UNL     1      14.134  -4.558  32.917  1.00  0.00     0.017 C 
ENDBRANCH  11  21
TORSDOF 4
ENDMDL
