MODEL 1
REMARK VINA RESULT: -6.057645626      0.000      0.000
REMARK  6 active torsions:
REMARK  status: ('A' for Active; 'I' for Inactive)
REMARK    1  A    between atoms: C2_2  and  C4_4 
REMARK    2  A    between atoms: C2_2  and  C11_13 
REMARK    3  A    between atoms: C5_5  and  C6_6 
REMARK    4  A    between atoms: C6_6  and  C9_9 
REMARK    5  A    between atoms: C13_16  and  C14_17 
REMARK    6  A    between atoms: C14_17  and  C15_19 
ROOT
HETATM    1  C1  UNL     1      24.444  -8.118  23.952  1.00  0.00     0.034 C 
HETATM    2  C2  UNL     1      25.815  -7.918  24.485  1.00  0.00     0.044 C 
HETATM    3  C3  UNL     1      26.771  -8.734  23.629  1.00  0.00     0.034 C 
ENDROOT
BRANCH   2   4
HETATM    4  C4  UNL     1      26.242  -6.527  24.369  1.00  0.00    -0.091 C 
HETATM    5  C5  UNL     1      26.591  -5.360  24.235  1.00  0.00    -0.093 C 
BRANCH   5   6
HETATM    6  C6  UNL     1      26.994  -3.965  24.031  1.00  0.00     0.051 C 
HETATM    7  C7  UNL     1      27.280  -3.690  22.559  1.00  0.00     0.032 C 
HETATM    8  C8  UNL     1      25.851  -3.025  24.419  1.00  0.00     0.032 C 
BRANCH   6   9
HETATM    9  C9  UNL     1      28.177  -3.659  24.890  1.00  0.00     0.127 C 
HETATM   10  C10 UNL     1      28.037  -2.238  25.427  1.00  0.00     0.052 C 
HETATM   11 CL1  UNL     1      28.302  -4.847  26.200  1.00  0.00    -0.100 Cl
HETATM   12 CL2  UNL     1      29.663  -3.723  23.924  1.00  0.00    -0.100 Cl
ENDBRANCH   6   9
ENDBRANCH   5   6
ENDBRANCH   2   4
BRANCH   2  13
HETATM   13  C11 UNL     1      25.932  -8.367  25.942  1.00  0.00    -0.030 A 
HETATM   14  C12 UNL     1      25.072  -9.316  26.414  1.00  0.00     0.059 A 
HETATM   15  S1  UNL     1      25.521  -9.489  28.044  1.00  0.00    -0.097 SA
HETATM   16  C13 UNL     1      26.812  -8.331  28.090  1.00  0.00     0.056 A 
HETATM   17  C16 UNL     1      26.833  -7.863  26.820  1.00  0.00     0.032 A 
BRANCH  16  18
HETATM   18  C14 UNL     1      27.617  -7.975  29.277  1.00  0.00     0.202 C 
HETATM   19  O1  UNL     1      28.396  -6.958  29.126  1.00  0.00    -0.286 OA
BRANCH  18  20
HETATM   20  C15 UNL     1      27.596  -8.661  30.547  1.00  0.00     0.156 C 
HETATM   21  N1  UNL     1      26.556  -8.318  31.459  1.00  0.00    -0.111 NA
ENDBRANCH  18  20
ENDBRANCH  16  18
ENDBRANCH   2  13
TORSDOF 6
ENDMDL
MODEL 2
REMARK VINA RESULT: -6.019708533      3.877      4.577
REMARK  6 active torsions:
REMARK  status: ('A' for Active; 'I' for Inactive)
REMARK    1  A    between atoms: C2_2  and  C4_4 
REMARK    2  A    between atoms: C2_2  and  C11_13 
REMARK    3  A    between atoms: C5_5  and  C6_6 
REMARK    4  A    between atoms: C6_6  and  C9_9 
REMARK    5  A    between atoms: C13_16  and  C14_17 
REMARK    6  A    between atoms: C14_17  and  C15_19 
ROOT
HETATM    1  C1  UNL     1      27.966  -7.342  28.603  1.00  0.00     0.034 C 
HETATM    2  C2  UNL     1      28.388  -7.411  27.182  1.00  0.00     0.044 C 
HETATM    3  C3  UNL     1      27.640  -8.563  26.530  1.00  0.00     0.034 C 
ENDROOT
BRANCH   2   4
HETATM    4  C4  UNL     1      28.011  -6.206  26.448  1.00  0.00    -0.091 C 
HETATM    5  C5  UNL     1      27.703  -5.214  25.800  1.00  0.00    -0.093 C 
BRANCH   5   6
HETATM    6  C6  UNL     1      27.340  -4.050  24.984  1.00  0.00     0.051 C 
HETATM    7  C7  UNL     1      25.826  -3.906  24.884  1.00  0.00     0.032 C 
HETATM    8  C8  UNL     1      27.840  -2.765  25.648  1.00  0.00     0.032 C 
BRANCH   6   9
HETATM    9  C9  UNL     1      27.974  -4.171  23.637  1.00  0.00     0.127 C 
HETATM   10  C10 UNL     1      27.199  -3.299  22.653  1.00  0.00     0.052 C 
HETATM   11 CL1  UNL     1      29.681  -3.703  23.724  1.00  0.00    -0.100 Cl
HETATM   12 CL2  UNL     1      27.873  -5.846  23.065  1.00  0.00    -0.100 Cl
ENDBRANCH   6   9
ENDBRANCH   5   6
ENDBRANCH   2   4
BRANCH   2  13
HETATM   13  C11 UNL     1      29.893  -7.641  27.044  1.00  0.00    -0.030 A 
HETATM   14  C12 UNL     1      30.342  -8.865  26.639  1.00  0.00     0.059 A 
HETATM   15  S1  UNL     1      32.033  -8.696  26.651  1.00  0.00    -0.097 SA
HETATM   16  C13 UNL     1      32.134  -7.047  27.181  1.00  0.00     0.056 A 
HETATM   17  C16 UNL     1      30.832  -6.704  27.321  1.00  0.00     0.032 A 
BRANCH  16  18
HETATM   18  C14 UNL     1      33.377  -6.289  27.430  1.00  0.00     0.202 C 
HETATM   19  O1  UNL     1      34.094  -6.052  26.384  1.00  0.00    -0.286 OA
BRANCH  18  20
HETATM   20  C15 UNL     1      33.831  -5.814  28.715  1.00  0.00     0.156 C 
HETATM   21  N1  UNL     1      33.814  -6.739  29.799  1.00  0.00    -0.111 NA
ENDBRANCH  18  20
ENDBRANCH  16  18
ENDBRANCH   2  13
TORSDOF 6
ENDMDL
MODEL 3
REMARK VINA RESULT: -5.977136183      4.041      4.709
REMARK  6 active torsions:
REMARK  status: ('A' for Active; 'I' for Inactive)
REMARK    1  A    between atoms: C2_2  and  C4_4 
REMARK    2  A    between atoms: C2_2  and  C11_13 
REMARK    3  A    between atoms: C5_5  and  C6_6 
REMARK    4  A    between atoms: C6_6  and  C9_9 
REMARK    5  A    between atoms: C13_16  and  C14_17 
REMARK    6  A    between atoms: C14_17  and  C15_19 
ROOT
HETATM    1  C1  UNL     1      27.248  -7.808  28.266  1.00  0.00     0.034 C 
HETATM    2  C2  UNL     1      28.313  -7.515  27.276  1.00  0.00     0.044 C 
HETATM    3  C3  UNL     1      28.361  -8.669  26.288  1.00  0.00     0.034 C 
ENDROOT
BRANCH   2   4
HETATM    4  C4  UNL     1      28.013  -6.317  26.498  1.00  0.00    -0.091 C 
HETATM    5  C5  UNL     1      27.737  -5.332  25.824  1.00  0.00    -0.093 C 
BRANCH   5   6
HETATM    6  C6  UNL     1      27.374  -4.178  24.994  1.00  0.00     0.051 C 
HETATM    7  C7  UNL     1      25.861  -4.060  24.856  1.00  0.00     0.032 C 
HETATM    8  C8  UNL     1      27.836  -2.882  25.664  1.00  0.00     0.032 C 
BRANCH   6   9
HETATM    9  C9  UNL     1      28.043  -4.294  23.664  1.00  0.00     0.127 C 
HETATM   10  C10 UNL     1      29.468  -3.758  23.785  1.00  0.00     0.052 C 
HETATM   11 CL1  UNL     1      28.020  -5.979  23.114  1.00  0.00    -0.100 Cl
HETATM   12 CL2  UNL     1      27.196  -3.296  22.468  1.00  0.00    -0.100 Cl
ENDBRANCH   6   9
ENDBRANCH   5   6
ENDBRANCH   2   4
BRANCH   2  13
HETATM   13  C11 UNL     1      29.682  -7.360  27.940  1.00  0.00    -0.030 A 
HETATM   14  C12 UNL     1      29.821  -7.690  29.258  1.00  0.00     0.059 A 
HETATM   15  S1  UNL     1      31.451  -7.345  29.588  1.00  0.00    -0.097 SA
HETATM   16  C13 UNL     1      31.928  -6.779  28.019  1.00  0.00     0.056 A 
HETATM   17  C16 UNL     1      30.783  -6.890  27.306  1.00  0.00     0.032 A 
BRANCH  16  18
HETATM   18  C14 UNL     1      33.268  -6.279  27.646  1.00  0.00     0.202 C 
HETATM   19  O1  UNL     1      33.401  -5.935  26.410  1.00  0.00    -0.286 OA
BRANCH  18  20
HETATM   20  C15 UNL     1      34.399  -6.156  28.536  1.00  0.00     0.156 C 
HETATM   21  N1  UNL     1      35.579  -6.880  28.199  1.00  0.00    -0.111 NA
ENDBRANCH  18  20
ENDBRANCH  16  18
ENDBRANCH   2  13
TORSDOF 6
ENDMDL
MODEL 4
REMARK VINA RESULT: -5.972468796      1.111      1.121
REMARK  6 active torsions:
REMARK  status: ('A' for Active; 'I' for Inactive)
REMARK    1  A    between atoms: C2_2  and  C4_4 
REMARK    2  A    between atoms: C2_2  and  C11_13 
REMARK    3  A    between atoms: C5_5  and  C6_6 
REMARK    4  A    between atoms: C6_6  and  C9_9 
REMARK    5  A    between atoms: C13_16  and  C14_17 
REMARK    6  A    between atoms: C14_17  and  C15_19 
ROOT
HETATM    1  C1  UNL     1      23.970  -7.953  23.973  1.00  0.00     0.034 C 
HETATM    2  C2  UNL     1      25.385  -7.905  24.416  1.00  0.00     0.044 C 
HETATM    3  C3  UNL     1      26.207  -8.734  23.442  1.00  0.00     0.034 C 
ENDROOT
BRANCH   2   4
HETATM    4  C4  UNL     1      25.923  -6.548  24.359  1.00  0.00    -0.091 C 
HETATM    5  C5  UNL     1      26.349  -5.402  24.283  1.00  0.00    -0.093 C 
BRANCH   5   6
HETATM    6  C6  UNL     1      26.827  -4.021  24.161  1.00  0.00     0.051 C 
HETATM    7  C7  UNL     1      27.139  -3.679  22.708  1.00  0.00     0.032 C 
HETATM    8  C8  UNL     1      25.732  -3.045  24.596  1.00  0.00     0.032 C 
BRANCH   6   9
HETATM    9  C9  UNL     1      28.017  -3.828  25.042  1.00  0.00     0.127 C 
HETATM   10  C10 UNL     1      27.966  -2.421  25.630  1.00  0.00     0.052 C 
HETATM   11 CL1  UNL     1      28.046  -5.068  26.307  1.00  0.00    -0.100 Cl
HETATM   12 CL2  UNL     1      29.507  -3.956  24.089  1.00  0.00    -0.100 Cl
ENDBRANCH   6   9
ENDBRANCH   5   6
ENDBRANCH   2   4
BRANCH   2  13
HETATM   13  C11 UNL     1      25.561  -8.462  25.829  1.00  0.00    -0.030 A 
HETATM   14  C12 UNL     1      24.524  -9.135  26.410  1.00  0.00     0.059 A 
HETATM   15  S1  UNL     1      25.122  -9.543  27.947  1.00  0.00    -0.097 SA
HETATM   16  C13 UNL     1      26.701  -8.836  27.817  1.00  0.00     0.056 A 
HETATM   17  C16 UNL     1      26.687  -8.315  26.568  1.00  0.00     0.032 A 
BRANCH  16  18
HETATM   18  C14 UNL     1      27.735  -8.820  28.872  1.00  0.00     0.202 C 
HETATM   19  O1  UNL     1      28.443  -9.894  28.963  1.00  0.00    -0.286 OA
BRANCH  18  20
HETATM   20  C15 UNL     1      27.998  -7.726  29.777  1.00  0.00     0.156 C 
HETATM   21  N1  UNL     1      29.141  -6.918  29.513  1.00  0.00    -0.111 NA
ENDBRANCH  18  20
ENDBRANCH  16  18
ENDBRANCH   2  13
TORSDOF 6
ENDMDL
MODEL 5
REMARK VINA RESULT: -5.958033241      3.856      4.540
REMARK  6 active torsions:
REMARK  status: ('A' for Active; 'I' for Inactive)
REMARK    1  A    between atoms: C2_2  and  C4_4 
REMARK    2  A    between atoms: C2_2  and  C11_13 
REMARK    3  A    between atoms: C5_5  and  C6_6 
REMARK    4  A    between atoms: C6_6  and  C9_9 
REMARK    5  A    between atoms: C13_16  and  C14_17 
REMARK    6  A    between atoms: C14_17  and  C15_19 
ROOT
HETATM    1  C1  UNL     1      27.115  -7.900  27.893  1.00  0.00     0.034 C 
HETATM    2  C2  UNL     1      28.228  -7.579  26.966  1.00  0.00     0.044 C 
HETATM    3  C3  UNL     1      28.321  -8.701  25.944  1.00  0.00     0.034 C 
ENDROOT
BRANCH   2   4
HETATM    4  C4  UNL     1      27.968  -6.355  26.213  1.00  0.00    -0.091 C 
HETATM    5  C5  UNL     1      27.713  -5.338  25.580  1.00  0.00    -0.093 C 
BRANCH   5   6
HETATM    6  C6  UNL     1      27.362  -4.129  24.828  1.00  0.00     0.051 C 
HETATM    7  C7  UNL     1      25.850  -3.988  24.697  1.00  0.00     0.032 C 
HETATM    8  C8  UNL     1      27.836  -2.884  25.580  1.00  0.00     0.032 C 
BRANCH   6   9
HETATM    9  C9  UNL     1      28.032  -4.164  23.493  1.00  0.00     0.127 C 
HETATM   10  C10 UNL     1      27.208  -3.334  22.511  1.00  0.00     0.052 C 
HETATM   11 CL1  UNL     1      29.693  -3.562  23.629  1.00  0.00    -0.100 Cl
HETATM   12 CL2  UNL     1      28.080  -5.827  22.880  1.00  0.00    -0.100 Cl
ENDBRANCH   6   9
ENDBRANCH   5   6
ENDBRANCH   2   4
BRANCH   2  13
HETATM   13  C11 UNL     1      29.563  -7.451  27.699  1.00  0.00    -0.030 A 
HETATM   14  C12 UNL     1      29.669  -7.934  28.972  1.00  0.00     0.059 A 
HETATM   15  S1  UNL     1      31.269  -7.565  29.409  1.00  0.00    -0.097 SA
HETATM   16  C13 UNL     1      31.776  -6.792  27.941  1.00  0.00     0.056 A 
HETATM   17  C16 UNL     1      30.664  -6.861  27.173  1.00  0.00     0.032 A 
BRANCH  16  18
HETATM   18  C14 UNL     1      33.104  -6.195  27.687  1.00  0.00     0.202 C 
HETATM   19  O1  UNL     1      33.384  -5.987  26.446  1.00  0.00    -0.286 OA
BRANCH  18  20
HETATM   20  C15 UNL     1      34.077  -5.844  28.695  1.00  0.00     0.156 C 
HETATM   21  N1  UNL     1      35.295  -6.582  28.714  1.00  0.00    -0.111 NA
ENDBRANCH  18  20
ENDBRANCH  16  18
ENDBRANCH   2  13
TORSDOF 6
ENDMDL
