MODEL 1
REMARK VINA RESULT: -6.845158336      0.000      0.000
REMARK  4 active torsions:
REMARK  status: ('A' for Active; 'I' for Inactive)
REMARK    1  A    between atoms: C2_2  and  C3_3 
REMARK    2  A    between atoms: C4_4  and  C5_5 
REMARK    3  A    between atoms: C14_19  and  O2_20 
REMARK    4  A    between atoms: C15_22  and  C16_23 
ROOT
HETATM    1  C3  UNL     1      26.969  -7.773  26.414  1.00  0.00    -0.012 A 
HETATM    2  C4  UNL     1      27.596  -6.609  26.108  1.00  0.00     0.101 A 
HETATM    3  O1  UNL     1      28.192  -6.213  27.272  1.00  0.00    -0.286 OA
HETATM    4  C14 UNL     1      27.964  -7.043  28.225  1.00  0.00     0.191 A 
HETATM    5  C15 UNL     1      27.188  -8.084  27.790  1.00  0.00     0.013 A 
ENDROOT
BRANCH   2   6
HETATM    6  C5  UNL     1      27.768  -5.776  24.922  1.00  0.00     0.079 A 
HETATM    7  C6  UNL     1      27.000  -4.724  24.554  1.00  0.00     0.139 A 
HETATM    8  F1  UNL     1      26.059  -4.149  25.350  1.00  0.00    -0.204 F 
HETATM    9  C7  UNL     1      27.175  -4.056  23.325  1.00  0.00    -0.010 A 
HETATM   10  C8  UNL     1      26.316  -2.908  22.946  1.00  0.00     0.052 C 
HETATM   11  C9  UNL     1      28.167  -4.511  22.500  1.00  0.00     0.004 A 
HETATM   12  C10 UNL     1      28.589  -4.076  21.243  1.00  0.00     0.031 A 
HETATM   13  C12 UNL     1      28.964  -5.572  22.847  1.00  0.00     0.083 A 
HETATM   14  C11 UNL     1      29.630  -4.905  20.890  1.00  0.00     0.089 A 
HETATM   15  N1  UNL     1      29.860  -5.808  21.853  1.00  0.00    -0.363 N 
ATOM     16  H1  UNL     1      30.574  -6.536  21.842  1.00  0.00     0.165 HD
HETATM   17  C13 UNL     1      28.790  -6.216  24.036  1.00  0.00     0.160 A 
HETATM   18  F2  UNL     1      29.574  -7.269  24.383  1.00  0.00    -0.203 F 
ENDBRANCH   2   6
BRANCH   1  19
HETATM   19  C2  UNL     1      26.217  -8.654  25.506  1.00  0.00     0.037 C 
HETATM   20  C1  UNL     1      24.893  -8.065  25.056  1.00  0.00     0.010 C 
ENDBRANCH   1  19
BRANCH   5  21
HETATM   21  C16 UNL     1      26.650  -9.250  28.455  1.00  0.00     0.024 C 
HETATM   22  C17 UNL     1      27.640  -9.860  29.456  1.00  0.00     0.009 C 
HETATM   23  C18 UNL     1      26.742 -10.953  30.049  1.00  0.00     0.001 C 
HETATM   24  C19 UNL     1      25.345 -10.373  30.017  1.00  0.00     0.001 C 
HETATM   25  C20 UNL     1      25.509  -8.969  29.413  1.00  0.00     0.009 C 
ENDBRANCH   5  21
BRANCH   4  26
HETATM   26  O2  UNL     1      28.443  -6.905  29.535  1.00  0.00    -0.340 OA
ATOM     27  H2  UNL     1      29.362  -6.893  29.777  1.00  0.00     0.220 HD
ENDBRANCH   4  26
TORSDOF 4
ENDMDL
MODEL 2
REMARK VINA RESULT: -6.719700776      2.712      7.161
REMARK  4 active torsions:
REMARK  status: ('A' for Active; 'I' for Inactive)
REMARK    1  A    between atoms: C2_2  and  C3_3 
REMARK    2  A    between atoms: C4_4  and  C5_5 
REMARK    3  A    between atoms: C14_19  and  O2_20 
REMARK    4  A    between atoms: C15_22  and  C16_23 
ROOT
HETATM    1  C3  UNL     1      28.154  -6.712  25.367  1.00  0.00    -0.012 A 
HETATM    2  C4  UNL     1      27.980  -6.532  26.701  1.00  0.00     0.101 A 
HETATM    3  O1  UNL     1      28.119  -5.187  26.896  1.00  0.00    -0.286 OA
HETATM    4  C14 UNL     1      28.361  -4.573  25.794  1.00  0.00     0.191 A 
HETATM    5  C15 UNL     1      28.407  -5.453  24.746  1.00  0.00     0.013 A 
ENDROOT
BRANCH   2   6
HETATM    6  C5  UNL     1      27.690  -7.374  27.857  1.00  0.00     0.079 A 
HETATM    7  C6  UNL     1      26.582  -8.126  28.053  1.00  0.00     0.139 A 
HETATM    8  F1  UNL     1      25.648  -8.373  27.095  1.00  0.00    -0.204 F 
HETATM    9  C7  UNL     1      26.339  -8.813  29.259  1.00  0.00    -0.010 A 
HETATM   10  C8  UNL     1      25.115  -9.628  29.447  1.00  0.00     0.052 C 
HETATM   11  C9  UNL     1      27.279  -8.696  30.246  1.00  0.00     0.004 A 
HETATM   12  C10 UNL     1      27.337  -9.240  31.530  1.00  0.00     0.031 A 
HETATM   13  C12 UNL     1      28.413  -7.944  30.077  1.00  0.00     0.083 A 
HETATM   14  C11 UNL     1      28.515  -8.784  32.078  1.00  0.00     0.089 A 
HETATM   15  N1  UNL     1      29.168  -8.004  31.207  1.00  0.00    -0.363 N 
ATOM     16  H1  UNL     1      30.063  -7.541  31.362  1.00  0.00     0.165 HD
HETATM   17  C13 UNL     1      28.643  -7.280  28.908  1.00  0.00     0.160 A 
HETATM   18  F2  UNL     1      29.764  -6.532  28.737  1.00  0.00    -0.203 F 
ENDBRANCH   2   6
BRANCH   1  19
HETATM   19  C2  UNL     1      28.053  -7.970  24.610  1.00  0.00     0.037 C 
HETATM   20  C1  UNL     1      26.683  -8.198  24.001  1.00  0.00     0.010 C 
ENDBRANCH   1  19
BRANCH   5  21
HETATM   21  C16 UNL     1      28.653  -5.279  23.331  1.00  0.00     0.024 C 
HETATM   22  C17 UNL     1      27.840  -4.122  22.734  1.00  0.00     0.009 C 
HETATM   23  C18 UNL     1      28.412  -4.135  21.312  1.00  0.00     0.001 C 
HETATM   24  C19 UNL     1      29.851  -4.570  21.470  1.00  0.00     0.001 C 
HETATM   25  C20 UNL     1      30.041  -4.780  22.981  1.00  0.00     0.009 C 
ENDBRANCH   5  21
BRANCH   4  26
HETATM   26  O2  UNL     1      28.552  -3.189  25.677  1.00  0.00    -0.340 OA
ATOM     27  H2  UNL     1      28.845  -2.621  26.380  1.00  0.00     0.220 HD
ENDBRANCH   4  26
TORSDOF 4
ENDMDL
MODEL 3
REMARK VINA RESULT: -6.551393425      1.409      2.169
REMARK  4 active torsions:
REMARK  status: ('A' for Active; 'I' for Inactive)
REMARK    1  A    between atoms: C2_2  and  C3_3 
REMARK    2  A    between atoms: C4_4  and  C5_5 
REMARK    3  A    between atoms: C14_19  and  O2_20 
REMARK    4  A    between atoms: C15_22  and  C16_23 
ROOT
HETATM    1  C3  UNL     1      27.949  -7.170  27.143  1.00  0.00    -0.012 A 
HETATM    2  C4  UNL     1      27.353  -6.915  25.951  1.00  0.00     0.101 A 
HETATM    3  O1  UNL     1      26.284  -7.765  25.904  1.00  0.00    -0.286 OA
HETATM    4  C14 UNL     1      26.210  -8.490  26.962  1.00  0.00     0.191 A 
HETATM    5  C15 UNL     1      27.230  -8.194  27.827  1.00  0.00     0.013 A 
ENDROOT
BRANCH   2   6
HETATM    6  C5  UNL     1      27.571  -6.013  24.825  1.00  0.00     0.079 A 
HETATM    7  C6  UNL     1      26.857  -4.901  24.530  1.00  0.00     0.139 A 
HETATM    8  F1  UNL     1      25.942  -4.337  25.363  1.00  0.00    -0.204 F 
HETATM    9  C7  UNL     1      27.070  -4.159  23.350  1.00  0.00    -0.010 A 
HETATM   10  C8  UNL     1      26.271  -2.947  23.050  1.00  0.00     0.052 C 
HETATM   11  C9  UNL     1      28.042  -4.605  22.497  1.00  0.00     0.004 A 
HETATM   12  C10 UNL     1      28.491  -4.106  21.274  1.00  0.00     0.031 A 
HETATM   13  C12 UNL     1      28.784  -5.725  22.771  1.00  0.00     0.083 A 
HETATM   14  C11 UNL     1      29.491  -4.959  20.865  1.00  0.00     0.089 A 
HETATM   15  N1  UNL     1      29.673  -5.936  21.764  1.00  0.00    -0.363 N 
ATOM     16  H1  UNL     1      30.350  -6.696  21.703  1.00  0.00     0.165 HD
HETATM   17  C13 UNL     1      28.574  -6.441  23.913  1.00  0.00     0.160 A 
HETATM   18  F2  UNL     1      29.304  -7.552  24.186  1.00  0.00    -0.203 F 
ENDBRANCH   2   6
BRANCH   1  19
HETATM   19  C2  UNL     1      29.120  -6.492  27.724  1.00  0.00     0.037 C 
HETATM   20  C1  UNL     1      30.443  -7.079  27.268  1.00  0.00     0.010 C 
ENDBRANCH   1  19
BRANCH   5  21
HETATM   21  C16 UNL     1      27.599  -8.722  29.122  1.00  0.00     0.024 C 
HETATM   22  C17 UNL     1      26.559  -8.401  30.203  1.00  0.00     0.009 C 
HETATM   23  C18 UNL     1      27.174  -9.181  31.370  1.00  0.00     0.001 C 
HETATM   24  C19 UNL     1      27.842 -10.379  30.734  1.00  0.00     0.001 C 
HETATM   25  C20 UNL     1      27.571 -10.234  29.228  1.00  0.00     0.009 C 
ENDBRANCH   5  21
BRANCH   4  26
HETATM   26  O2  UNL     1      25.221  -9.454  27.202  1.00  0.00    -0.340 OA
ATOM     27  H2  UNL     1      24.757  -9.933  26.525  1.00  0.00     0.220 HD
ENDBRANCH   4  26
TORSDOF 4
ENDMDL
MODEL 4
REMARK VINA RESULT: -6.524477960      2.122      2.657
REMARK  4 active torsions:
REMARK  status: ('A' for Active; 'I' for Inactive)
REMARK    1  A    between atoms: C2_2  and  C3_3 
REMARK    2  A    between atoms: C4_4  and  C5_5 
REMARK    3  A    between atoms: C14_19  and  O2_20 
REMARK    4  A    between atoms: C15_22  and  C16_23 
ROOT
HETATM    1  C3  UNL     1      29.031  -6.894  27.569  1.00  0.00    -0.012 A 
HETATM    2  C4  UNL     1      29.603  -6.129  26.605  1.00  0.00     0.101 A 
HETATM    3  O1  UNL     1      30.942  -6.166  26.874  1.00  0.00    -0.286 OA
HETATM    4  C14 UNL     1      31.196  -6.883  27.909  1.00  0.00     0.191 A 
HETATM    5  C15 UNL     1      30.044  -7.400  28.438  1.00  0.00     0.013 A 
ENDROOT
BRANCH   2   6
HETATM    6  C5  UNL     1      29.148  -5.362  25.449  1.00  0.00     0.079 A 
HETATM    7  C6  UNL     1      28.193  -4.403  25.440  1.00  0.00     0.139 A 
HETATM    8  F1  UNL     1      27.647  -3.858  26.561  1.00  0.00    -0.204 F 
HETATM    9  C7  UNL     1      27.739  -3.802  24.249  1.00  0.00    -0.010 A 
HETATM   10  C8  UNL     1      26.689  -2.756  24.268  1.00  0.00     0.052 C 
HETATM   11  C9  UNL     1      28.306  -4.226  23.078  1.00  0.00     0.004 A 
HETATM   12  C10 UNL     1      28.083  -3.839  21.756  1.00  0.00     0.031 A 
HETATM   13  C12 UNL     1      29.278  -5.193  23.056  1.00  0.00     0.083 A 
HETATM   14  C11 UNL     1      28.940  -4.600  20.993  1.00  0.00     0.089 A 
HETATM   15  N1  UNL     1      29.662  -5.418  21.771  1.00  0.00    -0.363 N 
ATOM     16  H1  UNL     1      30.369  -6.084  21.458  1.00  0.00     0.165 HD
HETATM   17  C13 UNL     1      29.713  -5.773  24.211  1.00  0.00     0.160 A 
HETATM   18  F2  UNL     1      30.673  -6.733  24.193  1.00  0.00    -0.203 F 
ENDBRANCH   2   6
BRANCH   1  19
HETATM   19  C2  UNL     1      27.607  -7.237  27.717  1.00  0.00     0.037 C 
HETATM   20  C1  UNL     1      27.092  -8.153  26.624  1.00  0.00     0.010 C 
ENDBRANCH   1  19
BRANCH   5  21
HETATM   21  C16 UNL     1      29.784  -8.242  29.585  1.00  0.00     0.024 C 
HETATM   22  C17 UNL     1      30.578  -9.555  29.538  1.00  0.00     0.009 C 
HETATM   23  C18 UNL     1      30.182 -10.125  30.905  1.00  0.00     0.001 C 
HETATM   24  C19 UNL     1      30.003  -8.918  31.798  1.00  0.00     0.001 C 
HETATM   25  C20 UNL     1      30.313  -7.709  30.902  1.00  0.00     0.009 C 
ENDBRANCH   5  21
BRANCH   4  26
HETATM   26  O2  UNL     1      32.478  -7.108  28.429  1.00  0.00    -0.340 OA
ATOM     27  H2  UNL     1      33.100  -7.737  28.083  1.00  0.00     0.220 HD
ENDBRANCH   4  26
TORSDOF 4
ENDMDL
MODEL 5
REMARK VINA RESULT: -6.357028427      3.829      6.740
REMARK  4 active torsions:
REMARK  status: ('A' for Active; 'I' for Inactive)
REMARK    1  A    between atoms: C2_2  and  C3_3 
REMARK    2  A    between atoms: C4_4  and  C5_5 
REMARK    3  A    between atoms: C14_19  and  O2_20 
REMARK    4  A    between atoms: C15_22  and  C16_23 
ROOT
HETATM    1  C3  UNL     1      29.014  -5.885  24.800  1.00  0.00    -0.012 A 
HETATM    2  C4  UNL     1      30.352  -6.107  24.766  1.00  0.00     0.101 A 
HETATM    3  O1  UNL     1      30.852  -5.126  23.956  1.00  0.00    -0.286 OA
HETATM    4  C14 UNL     1      29.921  -4.358  23.517  1.00  0.00     0.191 A 
HETATM    5  C15 UNL     1      28.699  -4.750  23.994  1.00  0.00     0.013 A 
ENDROOT
BRANCH   2   6
HETATM    6  C5  UNL     1      31.286  -7.061  25.356  1.00  0.00     0.079 A 
HETATM    7  C6  UNL     1      31.769  -7.042  26.621  1.00  0.00     0.139 A 
HETATM    8  F1  UNL     1      31.294  -6.236  27.608  1.00  0.00    -0.204 F 
HETATM    9  C7  UNL     1      32.761  -7.940  27.063  1.00  0.00    -0.010 A 
HETATM   10  C8  UNL     1      33.274  -7.895  28.453  1.00  0.00     0.052 C 
HETATM   11  C9  UNL     1      33.229  -8.852  26.156  1.00  0.00     0.004 A 
HETATM   12  C10 UNL     1      34.189  -9.857  26.275  1.00  0.00     0.031 A 
HETATM   13  C12 UNL     1      32.757  -8.898  24.869  1.00  0.00     0.083 A 
HETATM   14  C11 UNL     1      34.250 -10.466  25.042  1.00  0.00     0.089 A 
HETATM   15  N1  UNL     1      33.389  -9.892  24.191  1.00  0.00    -0.363 N 
ATOM     16  H1  UNL     1      33.236 -10.153  23.217  1.00  0.00     0.165 HD
HETATM   17  C13 UNL     1      31.797  -8.026  24.446  1.00  0.00     0.160 A 
HETATM   18  F2  UNL     1      31.329  -8.065  23.172  1.00  0.00    -0.203 F 
ENDBRANCH   2   6
BRANCH   1  19
HETATM   19  C2  UNL     1      28.000  -6.622  25.573  1.00  0.00     0.037 C 
HETATM   20  C1  UNL     1      28.025  -6.303  27.056  1.00  0.00     0.010 C 
ENDBRANCH   1  19
BRANCH   5  21
HETATM   21  C16 UNL     1      27.360  -4.241  23.794  1.00  0.00     0.024 C 
HETATM   22  C17 UNL     1      26.940  -3.255  24.893  1.00  0.00     0.009 C 
HETATM   23  C18 UNL     1      25.578  -2.832  24.329  1.00  0.00     0.001 C 
HETATM   24  C19 UNL     1      25.742  -2.882  22.827  1.00  0.00     0.001 C 
HETATM   25  C20 UNL     1      27.196  -3.325  22.598  1.00  0.00     0.009 C 
ENDBRANCH   5  21
BRANCH   4  26
HETATM   26  O2  UNL     1      30.125  -3.263  22.666  1.00  0.00    -0.340 OA
ATOM     27  H2  UNL     1      30.206  -3.320  21.721  1.00  0.00     0.220 HD
ENDBRANCH   4  26
TORSDOF 4
ENDMDL
