MODEL 1
REMARK VINA RESULT: -7.443862218      0.000      0.000
REMARK  6 active torsions:
REMARK  status: ('A' for Active; 'I' for Inactive)
REMARK    1  A    between atoms: C2_2  and  C3_3 
REMARK    2  A    between atoms: C2_2  and  C4_6 
REMARK    3  A    between atoms: C3_3  and  O1_4 
REMARK    4  A    between atoms: C7_9  and  C8_10 
REMARK    5  A    between atoms: C13_15  and  O2_17 
REMARK    6  A    between atoms: C15_19  and  O3_20 
ROOT
HETATM    1  C8  UNL     1      25.149  -7.761  25.322  1.00  0.00    -0.018 C 
HETATM    2  C9  UNL     1      25.977  -6.714  25.002  1.00  0.00    -0.066 C 
HETATM    3  C10 UNL     1      27.185  -6.595  25.809  1.00  0.00     0.036 C 
HETATM    4  C11 UNL     1      27.916  -5.303  25.698  1.00  0.00     0.013 C 
HETATM    5  C12 UNL     1      27.901  -4.680  24.340  1.00  0.00     0.031 C 
HETATM    6  C13 UNL     1      28.832  -5.338  23.344  1.00  0.00     0.084 C 
HETATM    7  C14 UNL     1      30.194  -5.559  23.967  1.00  0.00     0.049 C 
HETATM    8  C15 UNL     1      29.053  -4.313  22.223  1.00  0.00     0.152 C 
HETATM    9  C16 UNL     1      27.825  -3.495  21.952  1.00  0.00     0.035 C 
HETATM   10  C17 UNL     1      26.564  -4.218  22.308  1.00  0.00     0.013 C 
HETATM   11  C18 UNL     1      26.512  -4.577  23.786  1.00  0.00    -0.030 C 
HETATM   12  C19 UNL     1      25.864  -3.360  24.468  1.00  0.00     0.016 C 
HETATM   13  C20 UNL     1      25.680  -5.805  23.902  1.00  0.00     0.024 C 
HETATM   14  C21 UNL     1      24.219  -5.446  23.819  1.00  0.00     0.011 C 
HETATM   15  C22 UNL     1      23.278  -6.433  24.391  1.00  0.00     0.014 C 
HETATM   16  C23 UNL     1      23.902  -7.822  24.511  1.00  0.00    -0.018 C 
HETATM   17  C24 UNL     1      24.159  -8.392  23.130  1.00  0.00     0.020 C 
HETATM   18  C25 UNL     1      22.833  -8.681  25.127  1.00  0.00     0.020 C 
ENDROOT
BRANCH   1  19
HETATM   19  C7  UNL     1      25.426  -8.705  26.380  1.00  0.00     0.054 C 
HETATM   20  C6  UNL     1      25.490 -10.157  26.047  1.00  0.00     0.068 C 
HETATM   21  C5  UNL     1      25.673 -10.750  27.460  1.00  0.00     0.039 C 
HETATM   22  C4  UNL     1      24.924  -9.763  28.280  1.00  0.00     0.134 C 
HETATM   23  O4  UNL     1      24.763  -8.602  27.570  1.00  0.00    -0.349 OA
BRANCH  22  24
HETATM   24  C2  UNL     1      25.491  -9.547  29.659  1.00  0.00     0.035 C 
HETATM   25  C1  UNL     1      26.681  -8.615  29.618  1.00  0.00     0.015 C 
BRANCH  24  26
HETATM   26  C3  UNL     1      24.495  -9.041  30.647  1.00  0.00     0.170 C 
BRANCH  26  27
HETATM   27  O1  UNL     1      25.182  -8.673  31.802  1.00  0.00    -0.400 OA
ATOM     28  H1  UNL     1      26.034  -8.341  31.545  1.00  0.00     0.209 HD
ENDBRANCH  26  27
ENDBRANCH  24  26
ENDBRANCH  22  24
ENDBRANCH   1  19
BRANCH   6  29
HETATM   29  O2  UNL     1      28.345  -6.533  22.844  1.00  0.00    -0.387 OA
ATOM     30  H2  UNL     1      29.027  -7.123  22.543  1.00  0.00     0.210 HD
ENDBRANCH   6  29
BRANCH   8  31
HETATM   31  O3  UNL     1      30.013  -3.410  22.736  1.00  0.00    -0.393 OA
ATOM     32  H3  UNL     1      29.512  -2.657  23.028  1.00  0.00     0.210 HD
ENDBRANCH   8  31
TORSDOF 6
ENDMDL
MODEL 2
REMARK VINA RESULT: -7.308233003      2.141      7.380
REMARK  6 active torsions:
REMARK  status: ('A' for Active; 'I' for Inactive)
REMARK    1  A    between atoms: C2_2  and  C3_3 
REMARK    2  A    between atoms: C2_2  and  C4_6 
REMARK    3  A    between atoms: C3_3  and  O1_4 
REMARK    4  A    between atoms: C7_9  and  C8_10 
REMARK    5  A    between atoms: C13_15  and  O2_17 
REMARK    6  A    between atoms: C15_19  and  O3_20 
ROOT
HETATM    1  C8  UNL     1      26.469  -5.130  23.227  1.00  0.00    -0.018 C 
HETATM    2  C9  UNL     1      25.929  -6.332  23.608  1.00  0.00    -0.066 C 
HETATM    3  C10 UNL     1      26.764  -7.504  23.371  1.00  0.00     0.036 C 
HETATM    4  C11 UNL     1      26.080  -8.821  23.472  1.00  0.00     0.013 C 
HETATM    5  C12 UNL     1      25.013  -8.905  24.515  1.00  0.00     0.031 C 
HETATM    6  C13 UNL     1      25.536  -9.024  25.930  1.00  0.00     0.084 C 
HETATM    7  C14 UNL     1      26.626 -10.072  25.999  1.00  0.00     0.049 C 
HETATM    8  C15 UNL     1      24.377  -9.579  26.769  1.00  0.00     0.152 C 
HETATM    9  C16 UNL     1      23.045  -9.067  26.308  1.00  0.00     0.035 C 
HETATM   10  C17 UNL     1      23.145  -7.731  25.640  1.00  0.00     0.013 C 
HETATM   11  C18 UNL     1      24.029  -7.779  24.402  1.00  0.00    -0.030 C 
HETATM   12  C19 UNL     1      23.080  -8.149  23.250  1.00  0.00     0.016 C 
HETATM   13  C20 UNL     1      24.619  -6.422  24.240  1.00  0.00     0.024 C 
HETATM   14  C21 UNL     1      23.607  -5.492  23.624  1.00  0.00     0.011 C 
HETATM   15  C22 UNL     1      24.155  -4.289  22.960  1.00  0.00     0.014 C 
HETATM   16  C23 UNL     1      25.569  -3.963  23.436  1.00  0.00    -0.018 C 
HETATM   17  C24 UNL     1      25.536  -3.535  24.890  1.00  0.00     0.020 C 
HETATM   18  C25 UNL     1      25.978  -2.747  22.651  1.00  0.00     0.020 C 
ENDROOT
BRANCH   1  19
HETATM   19  C7  UNL     1      27.779  -4.994  22.630  1.00  0.00     0.054 C 
HETATM   20  C6  UNL     1      28.769  -4.084  23.274  1.00  0.00     0.068 C 
HETATM   21  C5  UNL     1      29.919  -4.169  22.248  1.00  0.00     0.039 C 
HETATM   22  C4  UNL     1      29.160  -4.380  20.989  1.00  0.00     0.134 C 
HETATM   23  O4  UNL     1      27.893  -4.812  21.281  1.00  0.00    -0.349 OA
BRANCH  22  24
HETATM   24  C2  UNL     1      29.868  -5.243  19.977  1.00  0.00     0.035 C 
HETATM   25  C1  UNL     1      29.375  -6.672  20.043  1.00  0.00     0.015 C 
BRANCH  24  26
HETATM   26  C3  UNL     1      29.759  -4.743  18.577  1.00  0.00     0.170 C 
BRANCH  26  27
HETATM   27  O1  UNL     1      29.117  -3.507  18.608  1.00  0.00    -0.400 OA
ATOM     28  H1  UNL     1      28.381  -3.542  18.009  1.00  0.00     0.209 HD
ENDBRANCH  26  27
ENDBRANCH  24  26
ENDBRANCH  22  24
ENDBRANCH   1  19
BRANCH   6  29
HETATM   29  O2  UNL     1      26.002  -7.827  26.447  1.00  0.00    -0.387 OA
ATOM     30  H2  UNL     1      26.157  -7.165  25.783  1.00  0.00     0.210 HD
ENDBRANCH   6  29
BRANCH   8  31
HETATM   31  O3  UNL     1      24.368 -10.970  26.506  1.00  0.00    -0.393 OA
ATOM     32  H3  UNL     1      23.682 -11.320  27.062  1.00  0.00     0.210 HD
ENDBRANCH   8  31
TORSDOF 6
ENDMDL
MODEL 3
REMARK VINA RESULT: -7.210594807      2.223      4.281
REMARK  6 active torsions:
REMARK  status: ('A' for Active; 'I' for Inactive)
REMARK    1  A    between atoms: C2_2  and  C3_3 
REMARK    2  A    between atoms: C2_2  and  C4_6 
REMARK    3  A    between atoms: C3_3  and  O1_4 
REMARK    4  A    between atoms: C7_9  and  C8_10 
REMARK    5  A    between atoms: C13_15  and  O2_17 
REMARK    6  A    between atoms: C15_19  and  O3_20 
ROOT
HETATM    1  C8  UNL     1      29.213  -6.961  26.428  1.00  0.00    -0.018 C 
HETATM    2  C9  UNL     1      28.399  -6.402  25.475  1.00  0.00    -0.066 C 
HETATM    3  C10 UNL     1      27.120  -5.894  25.956  1.00  0.00     0.036 C 
HETATM    4  C11 UNL     1      26.107  -5.588  24.909  1.00  0.00     0.013 C 
HETATM    5  C12 UNL     1      26.659  -5.040  23.633  1.00  0.00     0.031 C 
HETATM    6  C13 UNL     1      27.075  -3.587  23.710  1.00  0.00     0.084 C 
HETATM    7  C14 UNL     1      25.995  -2.767  24.382  1.00  0.00     0.049 C 
HETATM    8  C15 UNL     1      27.135  -3.082  22.262  1.00  0.00     0.152 C 
HETATM    9  C16 UNL     1      27.612  -4.139  21.310  1.00  0.00     0.035 C 
HETATM   10  C17 UNL     1      28.494  -5.152  21.974  1.00  0.00     0.013 C 
HETATM   11  C18 UNL     1      27.772  -5.887  23.093  1.00  0.00    -0.030 C 
HETATM   12  C19 UNL     1      27.105  -7.094  22.411  1.00  0.00     0.016 C 
HETATM   13  C20 UNL     1      28.808  -6.293  24.081  1.00  0.00     0.024 C 
HETATM   14  C21 UNL     1      29.536  -7.517  23.588  1.00  0.00     0.011 C 
HETATM   15  C22 UNL     1      30.226  -8.318  24.623  1.00  0.00     0.014 C 
HETATM   16  C23 UNL     1      30.487  -7.514  25.895  1.00  0.00    -0.018 C 
HETATM   17  C24 UNL     1      31.498  -6.420  25.613  1.00  0.00     0.020 C 
HETATM   18  C25 UNL     1      31.160  -8.474  26.835  1.00  0.00     0.020 C 
ENDROOT
BRANCH   1  19
HETATM   19  C7  UNL     1      28.860  -7.054  27.827  1.00  0.00     0.054 C 
HETATM   20  C6  UNL     1      29.913  -6.798  28.851  1.00  0.00     0.068 C 
HETATM   21  C5  UNL     1      29.125  -7.129  30.136  1.00  0.00     0.039 C 
HETATM   22  C4  UNL     1      28.198  -8.177  29.638  1.00  0.00     0.134 C 
HETATM   23  O4  UNL     1      28.127  -8.119  28.271  1.00  0.00    -0.349 OA
BRANCH  22  24
HETATM   24  C2  UNL     1      26.849  -8.180  30.307  1.00  0.00     0.035 C 
HETATM   25  C1  UNL     1      25.848  -8.987  29.511  1.00  0.00     0.015 C 
BRANCH  24  26
HETATM   26  C3  UNL     1      26.876  -8.670  31.716  1.00  0.00     0.170 C 
BRANCH  26  27
HETATM   27  O1  UNL     1      25.564  -8.708  32.184  1.00  0.00    -0.400 OA
ATOM     28  H1  UNL     1      25.329  -9.617  32.328  1.00  0.00     0.209 HD
ENDBRANCH  26  27
ENDBRANCH  24  26
ENDBRANCH  22  24
ENDBRANCH   1  19
BRANCH   6  29
HETATM   29  O2  UNL     1      28.283  -3.395  24.359  1.00  0.00    -0.387 OA
ATOM     30  H2  UNL     1      28.818  -2.715  23.967  1.00  0.00     0.210 HD
ENDBRANCH   6  29
BRANCH   8  31
HETATM   31  O3  UNL     1      25.790  -2.823  21.908  1.00  0.00    -0.393 OA
ATOM     32  H3  UNL     1      25.688  -1.883  22.001  1.00  0.00     0.210 HD
ENDBRANCH   8  31
TORSDOF 6
ENDMDL
MODEL 4
REMARK VINA RESULT: -7.187350665      3.364      5.699
REMARK  6 active torsions:
REMARK  status: ('A' for Active; 'I' for Inactive)
REMARK    1  A    between atoms: C2_2  and  C3_3 
REMARK    2  A    between atoms: C2_2  and  C4_6 
REMARK    3  A    between atoms: C3_3  and  O1_4 
REMARK    4  A    between atoms: C7_9  and  C8_10 
REMARK    5  A    between atoms: C13_15  and  O2_17 
REMARK    6  A    between atoms: C15_19  and  O3_20 
ROOT
HETATM    1  C8  UNL     1      29.803  -7.076  25.841  1.00  0.00    -0.018 C 
HETATM    2  C9  UNL     1      29.239  -5.997  25.210  1.00  0.00    -0.066 C 
HETATM    3  C10 UNL     1      30.112  -5.276  24.290  1.00  0.00     0.036 C 
HETATM    4  C11 UNL     1      29.632  -3.936  23.854  1.00  0.00     0.013 C 
HETATM    5  C12 UNL     1      28.153  -3.819  23.674  1.00  0.00     0.031 C 
HETATM    6  C13 UNL     1      27.629  -4.463  22.409  1.00  0.00     0.084 C 
HETATM    7  C14 UNL     1      28.483  -4.063  21.225  1.00  0.00     0.049 C 
HETATM    8  C15 UNL     1      26.250  -3.839  22.151  1.00  0.00     0.152 C 
HETATM    9  C16 UNL     1      25.512  -3.547  23.424  1.00  0.00     0.035 C 
HETATM   10  C17 UNL     1      25.923  -4.451  24.545  1.00  0.00     0.013 C 
HETATM   11  C18 UNL     1      27.402  -4.311  24.875  1.00  0.00    -0.030 C 
HETATM   12  C19 UNL     1      27.471  -3.183  25.919  1.00  0.00     0.016 C 
HETATM   13  C20 UNL     1      27.848  -5.621  25.421  1.00  0.00     0.024 C 
HETATM   14  C21 UNL     1      27.419  -5.749  26.860  1.00  0.00     0.011 C 
HETATM   15  C22 UNL     1      28.175  -6.727  27.674  1.00  0.00     0.014 C 
HETATM   16  C23 UNL     1      28.901  -7.757  26.810  1.00  0.00    -0.018 C 
HETATM   17  C24 UNL     1      27.891  -8.642  26.106  1.00  0.00     0.020 C 
HETATM   18  C25 UNL     1      29.629  -8.642  27.782  1.00  0.00     0.020 C 
ENDROOT
BRANCH   1  19
HETATM   19  C7  UNL     1      31.168  -7.503  25.631  1.00  0.00     0.054 C 
HETATM   20  C6  UNL     1      31.438  -8.571  24.627  1.00  0.00     0.068 C 
HETATM   21  C5  UNL     1      32.954  -8.767  24.843  1.00  0.00     0.039 C 
HETATM   22  C4  UNL     1      33.075  -8.455  26.291  1.00  0.00     0.134 C 
HETATM   23  O4  UNL     1      31.971  -7.760  26.707  1.00  0.00    -0.349 OA
BRANCH  22  24
HETATM   24  C2  UNL     1      34.376  -7.798  26.675  1.00  0.00     0.035 C 
HETATM   25  C1  UNL     1      35.147  -7.363  25.449  1.00  0.00     0.015 C 
BRANCH  24  26
HETATM   26  C3  UNL     1      34.215  -6.639  27.599  1.00  0.00     0.170 C 
BRANCH  26  27
HETATM   27  O1  UNL     1      33.588  -5.611  26.899  1.00  0.00    -0.400 OA
ATOM     28  H1  UNL     1      32.868  -5.290  27.429  1.00  0.00     0.209 HD
ENDBRANCH  26  27
ENDBRANCH  24  26
ENDBRANCH  22  24
ENDBRANCH   1  19
BRANCH   6  29
HETATM   29  O2  UNL     1      27.549  -5.843  22.486  1.00  0.00    -0.387 OA
ATOM     30  H2  UNL     1      27.897  -6.284  21.720  1.00  0.00     0.210 HD
ENDBRANCH   6  29
BRANCH   8  31
HETATM   31  O3  UNL     1      26.522  -2.580  21.565  1.00  0.00    -0.393 OA
ATOM     32  H3  UNL     1      26.097  -2.607  20.716  1.00  0.00     0.210 HD
ENDBRANCH   8  31
TORSDOF 6
ENDMDL
MODEL 5
REMARK VINA RESULT: -7.115567300      4.097      8.209
REMARK  6 active torsions:
REMARK  status: ('A' for Active; 'I' for Inactive)
REMARK    1  A    between atoms: C2_2  and  C3_3 
REMARK    2  A    between atoms: C2_2  and  C4_6 
REMARK    3  A    between atoms: C3_3  and  O1_4 
REMARK    4  A    between atoms: C7_9  and  C8_10 
REMARK    5  A    between atoms: C13_15  and  O2_17 
REMARK    6  A    between atoms: C15_19  and  O3_20 
ROOT
HETATM    1  C8  UNL     1      29.429  -6.686  20.983  1.00  0.00    -0.018 C 
HETATM    2  C9  UNL     1      28.841  -5.756  21.803  1.00  0.00    -0.066 C 
HETATM    3  C10 UNL     1      28.302  -4.577  21.136  1.00  0.00     0.036 C 
HETATM    4  C11 UNL     1      27.960  -3.429  22.020  1.00  0.00     0.013 C 
HETATM    5  C12 UNL     1      27.417  -3.801  23.362  1.00  0.00     0.031 C 
HETATM    6  C13 UNL     1      25.977  -4.266  23.341  1.00  0.00     0.084 C 
HETATM    7  C14 UNL     1      25.133  -3.320  22.514  1.00  0.00     0.049 C 
HETATM    8  C15 UNL     1      25.462  -4.125  24.780  1.00  0.00     0.152 C 
HETATM    9  C16 UNL     1      26.524  -4.426  25.796  1.00  0.00     0.035 C 
HETATM   10  C17 UNL     1      27.565  -5.367  25.275  1.00  0.00     0.013 C 
HETATM   11  C18 UNL     1      28.290  -4.798  24.063  1.00  0.00    -0.030 C 
HETATM   12  C19 UNL     1      29.472  -4.003  24.644  1.00  0.00     0.016 C 
HETATM   13  C20 UNL     1      28.732  -5.957  23.242  1.00  0.00     0.024 C 
HETATM   14  C21 UNL     1      29.971  -6.569  23.842  1.00  0.00     0.011 C 
HETATM   15  C22 UNL     1      30.799  -7.382  22.924  1.00  0.00     0.014 C 
HETATM   16  C23 UNL     1      30.013  -7.851  21.701  1.00  0.00    -0.018 C 
HETATM   17  C24 UNL     1      28.944  -8.840  22.125  1.00  0.00     0.020 C 
HETATM   18  C25 UNL     1      30.999  -8.628  20.874  1.00  0.00     0.020 C 
ENDROOT
BRANCH   1  19
HETATM   19  C7  UNL     1      29.524  -6.541  19.547  1.00  0.00     0.054 C 
HETATM   20  C6  UNL     1      29.165  -7.703  18.685  1.00  0.00     0.068 C 
HETATM   21  C5  UNL     1      29.534  -7.132  17.298  1.00  0.00     0.039 C 
HETATM   22  C4  UNL     1      30.663  -6.234  17.653  1.00  0.00     0.134 C 
HETATM   23  O4  UNL     1      30.635  -5.968  18.997  1.00  0.00    -0.349 OA
BRANCH  22  24
HETATM   24  C2  UNL     1      30.760  -4.996  16.800  1.00  0.00     0.035 C 
HETATM   25  C1  UNL     1      29.572  -4.882  15.870  1.00  0.00     0.015 C 
BRANCH  24  26
HETATM   26  C3  UNL     1      30.904  -3.735  17.582  1.00  0.00     0.170 C 
BRANCH  26  27
HETATM   27  O1  UNL     1      29.638  -3.349  18.016  1.00  0.00    -0.400 OA
ATOM     28  H1  UNL     1      29.722  -2.994  18.893  1.00  0.00     0.209 HD
ENDBRANCH  26  27
ENDBRANCH  24  26
ENDBRANCH  22  24
ENDBRANCH   1  19
BRANCH   6  29
HETATM   29  O2  UNL     1      25.823  -5.561  22.877  1.00  0.00    -0.387 OA
ATOM     30  H2  UNL     1      25.062  -6.002  23.236  1.00  0.00     0.210 HD
ENDBRANCH   6  29
BRANCH   8  31
HETATM   31  O3  UNL     1      25.163  -2.750  24.930  1.00  0.00    -0.393 OA
ATOM     32  H3  UNL     1      26.007  -2.323  25.019  1.00  0.00     0.210 HD
ENDBRANCH   8  31
TORSDOF 6
ENDMDL
