MODEL 1
REMARK VINA RESULT: -7.301150837      0.000      0.000
REMARK  6 active torsions:
REMARK  status: ('A' for Active; 'I' for Inactive)
REMARK    1  A    between atoms: C5_5  and  O1_6 
REMARK    2  A    between atoms: C8_10  and  O2_11 
REMARK    3  A    between atoms: C13_17  and  C14_18 
REMARK    4  A    between atoms: C14_18  and  C16_20 
REMARK    5  A    between atoms: C16_20  and  C17_21 
REMARK    6  A    between atoms: C17_21  and  C18_22 
ROOT
HETATM    1  C1  UNL     1      28.664  -8.250  31.495  1.00  0.00     0.043 C 
HETATM    2  C2  UNL     1      28.380  -7.905  30.059  1.00  0.00    -0.087 C 
HETATM    3  C3  UNL     1      27.249  -8.299  29.482  1.00  0.00    -0.021 C 
HETATM    4  C4  UNL     1      27.028  -7.917  28.037  1.00  0.00     0.066 C 
HETATM    5  C5  UNL     1      28.262  -8.342  27.314  1.00  0.00     0.071 C 
HETATM    6  C6  UNL     1      29.531  -7.830  27.933  1.00  0.00     0.054 C 
HETATM    7  C7  UNL     1      29.334  -7.119  29.231  1.00  0.00     0.043 C 
HETATM    8  C8  UNL     1      30.197  -6.913  26.888  1.00  0.00     0.130 C 
HETATM    9  C9  UNL     1      29.008  -6.508  26.097  1.00  0.00     0.026 C 
HETATM   10  C10 UNL     1      29.091  -5.649  24.960  1.00  0.00     0.001 C 
HETATM   11  C11 UNL     1      30.356  -5.189  24.361  1.00  0.00     0.006 C 
HETATM   12  C12 UNL     1      29.898  -4.569  23.029  1.00  0.00     0.006 C 
HETATM   13  C13 UNL     1      28.422  -4.892  22.941  1.00  0.00    -0.002 C 
HETATM   14  C21 UNL     1      28.361  -6.155  23.674  1.00  0.00    -0.036 C 
HETATM   15  C22 UNL     1      29.140  -7.261  23.079  1.00  0.00     0.016 C 
HETATM   16  C23 UNL     1      27.010  -6.540  24.211  1.00  0.00     0.010 C 
HETATM   17  C24 UNL     1      27.064  -7.661  25.197  1.00  0.00     0.009 C 
HETATM   18  C25 UNL     1      28.353  -7.885  25.881  1.00  0.00     0.028 C 
ENDROOT
BRANCH  13  19
HETATM   19  C14 UNL     1      27.746  -4.636  21.675  1.00  0.00    -0.014 C 
HETATM   20  C15 UNL     1      28.577  -4.521  20.441  1.00  0.00     0.010 C 
BRANCH  19  21
HETATM   21  C16 UNL     1      26.868  -3.427  21.856  1.00  0.00     0.009 C 
BRANCH  21  22
HETATM   22  C17 UNL     1      25.723  -3.507  22.765  1.00  0.00     0.061 C 
BRANCH  22  23
HETATM   23  C18 UNL     1      25.712  -2.552  23.929  1.00  0.00     0.259 C 
HETATM   24  O3  UNL     1      26.947  -2.145  24.381  1.00  0.00    -0.359 OA
HETATM   25  C19 UNL     1      27.207  -2.736  25.603  1.00  0.00     0.197 C 
HETATM   26  C20 UNL     1      26.077  -3.758  25.748  1.00  0.00     0.197 C 
HETATM   27  O4  UNL     1      25.073  -3.099  25.041  1.00  0.00    -0.359 OA
ENDBRANCH  22  23
ENDBRANCH  21  22
ENDBRANCH  19  21
ENDBRANCH  13  19
BRANCH   8  28
HETATM   28  O2  UNL     1      31.159  -7.646  26.271  1.00  0.00    -0.395 OA
ATOM     29  H2  UNL     1      31.462  -7.140  25.526  1.00  0.00     0.210 HD
ENDBRANCH   8  28
BRANCH   5  30
HETATM   30  O1  UNL     1      28.246  -9.757  27.291  1.00  0.00    -0.389 OA
ATOM     31  H1  UNL     1      29.153 -10.037  27.331  1.00  0.00     0.210 HD
ENDBRANCH   5  30
TORSDOF 6
ENDMDL
MODEL 2
REMARK VINA RESULT: -7.093679560      1.728      2.412
REMARK  6 active torsions:
REMARK  status: ('A' for Active; 'I' for Inactive)
REMARK    1  A    between atoms: C5_5  and  O1_6 
REMARK    2  A    between atoms: C8_10  and  O2_11 
REMARK    3  A    between atoms: C13_17  and  C14_18 
REMARK    4  A    between atoms: C14_18  and  C16_20 
REMARK    5  A    between atoms: C16_20  and  C17_21 
REMARK    6  A    between atoms: C17_21  and  C18_22 
ROOT
HETATM    1  C1  UNL     1      24.435 -10.104  29.962  1.00  0.00     0.043 C 
HETATM    2  C2  UNL     1      24.751  -9.453  28.643  1.00  0.00    -0.087 C 
HETATM    3  C3  UNL     1      23.839  -9.407  27.677  1.00  0.00    -0.021 C 
HETATM    4  C4  UNL     1      24.224  -8.738  26.378  1.00  0.00     0.066 C 
HETATM    5  C5  UNL     1      25.516  -9.364  25.970  1.00  0.00     0.071 C 
HETATM    6  C6  UNL     1      26.564  -9.343  27.045  1.00  0.00     0.054 C 
HETATM    7  C7  UNL     1      26.076  -8.837  28.364  1.00  0.00     0.043 C 
HETATM    8  C8  UNL     1      27.730  -8.487  26.514  1.00  0.00     0.130 C 
HETATM    9  C9  UNL     1      27.006  -7.635  25.537  1.00  0.00     0.026 C 
HETATM   10  C10 UNL     1      27.661  -6.653  24.733  1.00  0.00     0.001 C 
HETATM   11  C11 UNL     1      29.122  -6.473  24.673  1.00  0.00     0.006 C 
HETATM   12  C12 UNL     1      29.301  -5.531  23.468  1.00  0.00     0.006 C 
HETATM   13  C13 UNL     1      27.916  -5.406  22.869  1.00  0.00    -0.002 C 
HETATM   14  C21 UNL     1      27.340  -6.706  23.204  1.00  0.00    -0.036 C 
HETATM   15  C22 UNL     1      28.029  -7.868  22.606  1.00  0.00     0.016 C 
HETATM   16  C23 UNL     1      25.838  -6.781  23.201  1.00  0.00     0.010 C 
HETATM   17  C24 UNL     1      25.307  -8.023  23.840  1.00  0.00     0.009 C 
HETATM   18  C25 UNL     1      26.197  -8.713  24.794  1.00  0.00     0.028 C 
ENDROOT
BRANCH  13  19
HETATM   19  C14 UNL     1      27.797  -4.758  21.568  1.00  0.00    -0.014 C 
HETATM   20  C15 UNL     1      29.004  -4.703  20.692  1.00  0.00     0.010 C 
BRANCH  19  21
HETATM   21  C16 UNL     1      27.221  -3.385  21.787  1.00  0.00     0.009 C 
BRANCH  21  22
HETATM   22  C17 UNL     1      25.935  -3.254  22.475  1.00  0.00     0.061 C 
BRANCH  22  23
HETATM   23  C18 UNL     1      25.922  -2.439  23.742  1.00  0.00     0.259 C 
HETATM   24  O3  UNL     1      27.123  -2.353  24.409  1.00  0.00    -0.359 OA
HETATM   25  C19 UNL     1      27.060  -3.105  25.567  1.00  0.00     0.197 C 
HETATM   26  C20 UNL     1      25.743  -3.871  25.419  1.00  0.00     0.197 C 
HETATM   27  O4  UNL     1      25.016  -2.945  24.673  1.00  0.00    -0.359 OA
ENDBRANCH  22  23
ENDBRANCH  21  22
ENDBRANCH  19  21
ENDBRANCH  13  19
BRANCH   8  28
HETATM   28  O2  UNL     1      28.672  -9.345  26.043  1.00  0.00    -0.395 OA
ATOM     29  H2  UNL     1      29.448  -8.831  25.854  1.00  0.00     0.210 HD
ENDBRANCH   8  28
BRANCH   5  30
HETATM   30  O1  UNL     1      25.214 -10.692  25.584  1.00  0.00    -0.389 OA
ATOM     31  H1  UNL     1      24.650 -11.048  26.261  1.00  0.00     0.210 HD
ENDBRANCH   5  30
TORSDOF 6
ENDMDL
MODEL 3
REMARK VINA RESULT: -6.758191223      1.040      1.097
REMARK  6 active torsions:
REMARK  status: ('A' for Active; 'I' for Inactive)
REMARK    1  A    between atoms: C5_5  and  O1_6 
REMARK    2  A    between atoms: C8_10  and  O2_11 
REMARK    3  A    between atoms: C13_17  and  C14_18 
REMARK    4  A    between atoms: C14_18  and  C16_20 
REMARK    5  A    between atoms: C16_20  and  C17_21 
REMARK    6  A    between atoms: C17_21  and  C18_22 
ROOT
HETATM    1  C1  UNL     1      28.535 -10.222  30.298  1.00  0.00     0.043 C 
HETATM    2  C2  UNL     1      28.295  -9.582  28.958  1.00  0.00    -0.087 C 
HETATM    3  C3  UNL     1      27.269  -9.961  28.203  1.00  0.00    -0.021 C 
HETATM    4  C4  UNL     1      27.087  -9.276  26.869  1.00  0.00     0.066 C 
HETATM    5  C5  UNL     1      28.412  -9.363  26.188  1.00  0.00     0.071 C 
HETATM    6  C6  UNL     1      29.555  -8.862  27.023  1.00  0.00     0.054 C 
HETATM    7  C7  UNL     1      29.179  -8.510  28.425  1.00  0.00     0.043 C 
HETATM    8  C8  UNL     1      30.150  -7.649  26.282  1.00  0.00     0.130 C 
HETATM    9  C9  UNL     1      28.967  -7.215  25.496  1.00  0.00     0.026 C 
HETATM   10  C10 UNL     1      29.000  -6.106  24.597  1.00  0.00     0.001 C 
HETATM   11  C11 UNL     1      30.223  -5.366  24.241  1.00  0.00     0.006 C 
HETATM   12  C12 UNL     1      29.767  -4.507  23.048  1.00  0.00     0.006 C 
HETATM   13  C13 UNL     1      28.359  -4.977  22.751  1.00  0.00    -0.002 C 
HETATM   14  C21 UNL     1      28.429  -6.376  23.167  1.00  0.00    -0.036 C 
HETATM   15  C22 UNL     1      29.392  -7.205  22.412  1.00  0.00     0.016 C 
HETATM   16  C23 UNL     1      27.116  -7.039  23.473  1.00  0.00     0.010 C 
HETATM   17  C24 UNL     1      27.264  -8.348  24.179  1.00  0.00     0.009 C 
HETATM   18  C25 UNL     1      28.527  -8.569  24.912  1.00  0.00     0.028 C 
ENDROOT
BRANCH  13  19
HETATM   19  C14 UNL     1      27.734  -4.511  21.519  1.00  0.00    -0.014 C 
HETATM   20  C15 UNL     1      28.609  -4.244  20.339  1.00  0.00     0.010 C 
BRANCH  19  21
HETATM   21  C16 UNL     1      26.890  -3.311  21.853  1.00  0.00     0.009 C 
BRANCH  21  22
HETATM   22  C17 UNL     1      25.749  -3.472  22.757  1.00  0.00     0.061 C 
BRANCH  22  23
HETATM   23  C18 UNL     1      25.761  -2.650  24.019  1.00  0.00     0.259 C 
HETATM   24  O3  UNL     1      27.001  -2.252  24.462  1.00  0.00    -0.359 OA
HETATM   25  C19 UNL     1      27.333  -2.963  25.600  1.00  0.00     0.197 C 
HETATM   26  C20 UNL     1      26.242  -4.033  25.678  1.00  0.00     0.197 C 
HETATM   27  O4  UNL     1      25.188  -3.337  25.089  1.00  0.00    -0.359 OA
ENDBRANCH  22  23
ENDBRANCH  21  22
ENDBRANCH  19  21
ENDBRANCH  13  19
BRANCH   8  28
HETATM   28  O2  UNL     1      31.242  -8.091  25.606  1.00  0.00    -0.395 OA
ATOM     29  H2  UNL     1      31.308  -7.573  24.813  1.00  0.00     0.210 HD
ENDBRANCH   8  28
BRANCH   5  30
HETATM   30  O1  UNL     1      28.596 -10.723  25.841  1.00  0.00    -0.389 OA
ATOM     31  H1  UNL     1      29.534 -10.858  25.770  1.00  0.00     0.210 HD
ENDBRANCH   5  30
TORSDOF 6
ENDMDL
MODEL 4
REMARK VINA RESULT: -6.612402948      3.335      6.642
REMARK  6 active torsions:
REMARK  status: ('A' for Active; 'I' for Inactive)
REMARK    1  A    between atoms: C5_5  and  O1_6 
REMARK    2  A    between atoms: C8_10  and  O2_11 
REMARK    3  A    between atoms: C13_17  and  C14_18 
REMARK    4  A    between atoms: C14_18  and  C16_20 
REMARK    5  A    between atoms: C16_20  and  C17_21 
REMARK    6  A    between atoms: C17_21  and  C18_22 
ROOT
HETATM    1  C1  UNL     1      30.234 -10.135  17.033  1.00  0.00     0.043 C 
HETATM    2  C2  UNL     1      29.836  -8.964  17.889  1.00  0.00    -0.087 C 
HETATM    3  C3  UNL     1      29.647  -7.765  17.348  1.00  0.00    -0.021 C 
HETATM    4  C4  UNL     1      29.249  -6.634  18.266  1.00  0.00     0.066 C 
HETATM    5  C5  UNL     1      30.242  -6.651  19.380  1.00  0.00     0.071 C 
HETATM    6  C6  UNL     1      30.392  -7.994  20.034  1.00  0.00     0.054 C 
HETATM    7  C7  UNL     1      29.637  -9.091  19.358  1.00  0.00     0.043 C 
HETATM    8  C8  UNL     1      29.946  -7.828  21.500  1.00  0.00     0.130 C 
HETATM    9  C9  UNL     1      29.038  -6.661  21.368  1.00  0.00     0.026 C 
HETATM   10  C10 UNL     1      28.361  -6.077  22.481  1.00  0.00     0.001 C 
HETATM   11  C11 UNL     1      28.592  -6.463  23.884  1.00  0.00     0.006 C 
HETATM   12  C12 UNL     1      27.867  -5.353  24.667  1.00  0.00     0.006 C 
HETATM   13  C13 UNL     1      27.434  -4.357  23.612  1.00  0.00    -0.002 C 
HETATM   14  C21 UNL     1      28.486  -4.525  22.611  1.00  0.00    -0.036 C 
HETATM   15  C22 UNL     1      29.848  -4.187  23.074  1.00  0.00     0.016 C 
HETATM   16  C23 UNL     1      28.151  -4.065  21.220  1.00  0.00     0.010 C 
HETATM   17  C24 UNL     1      29.127  -4.534  20.191  1.00  0.00     0.009 C 
HETATM   18  C25 UNL     1      29.928  -5.727  20.529  1.00  0.00     0.028 C 
ENDROOT
BRANCH  13  19
HETATM   19  C14 UNL     1      26.919  -3.071  24.065  1.00  0.00    -0.014 C 
HETATM   20  C15 UNL     1      27.279  -2.609  25.438  1.00  0.00     0.010 C 
BRANCH  19  21
HETATM   21  C16 UNL     1      25.428  -3.073  23.864  1.00  0.00     0.009 C 
BRANCH  21  22
HETATM   22  C17 UNL     1      24.818  -4.143  23.073  1.00  0.00     0.061 C 
BRANCH  22  23
HETATM   23  C18 UNL     1      23.884  -5.076  23.798  1.00  0.00     0.259 C 
HETATM   24  O3  UNL     1      24.323  -5.531  25.020  1.00  0.00    -0.359 OA
HETATM   25  C19 UNL     1      24.663  -6.867  24.919  1.00  0.00     0.197 C 
HETATM   26  C20 UNL     1      24.607  -7.131  23.411  1.00  0.00     0.197 C 
HETATM   27  O4  UNL     1      23.614  -6.222  23.051  1.00  0.00    -0.359 OA
ENDBRANCH  22  23
ENDBRANCH  21  22
ENDBRANCH  19  21
ENDBRANCH  13  19
BRANCH   8  28
HETATM   28  O2  UNL     1      31.072  -7.684  22.246  1.00  0.00    -0.395 OA
ATOM     29  H2  UNL     1      30.963  -8.218  23.024  1.00  0.00     0.210 HD
ENDBRANCH   8  28
BRANCH   5  30
HETATM   30  O1  UNL     1      31.471  -6.216  18.830  1.00  0.00    -0.389 OA
ATOM     31  H1  UNL     1      31.894  -6.988  18.471  1.00  0.00     0.210 HD
ENDBRANCH   5  30
TORSDOF 6
ENDMDL
MODEL 5
REMARK VINA RESULT: -6.343694963      2.611      7.349
REMARK  6 active torsions:
REMARK  status: ('A' for Active; 'I' for Inactive)
REMARK    1  A    between atoms: C5_5  and  O1_6 
REMARK    2  A    between atoms: C8_10  and  O2_11 
REMARK    3  A    between atoms: C13_17  and  C14_18 
REMARK    4  A    between atoms: C14_18  and  C16_20 
REMARK    5  A    between atoms: C16_20  and  C17_21 
REMARK    6  A    between atoms: C17_21  and  C18_22 
ROOT
HETATM    1  C1  UNL     1      25.533  -2.619  22.050  1.00  0.00     0.043 C 
HETATM    2  C2  UNL     1      26.506  -3.429  22.862  1.00  0.00    -0.087 C 
HETATM    3  C3  UNL     1      27.741  -3.641  22.420  1.00  0.00    -0.021 C 
HETATM    4  C4  UNL     1      28.666  -4.463  23.286  1.00  0.00     0.066 C 
HETATM    5  C5  UNL     1      27.912  -5.709  23.612  1.00  0.00     0.071 C 
HETATM    6  C6  UNL     1      26.546  -5.456  24.180  1.00  0.00     0.054 C 
HETATM    7  C7  UNL     1      26.138  -4.019  24.177  1.00  0.00     0.043 C 
HETATM    8  C8  UNL     1      26.543  -6.036  25.608  1.00  0.00     0.130 C 
HETATM    9  C9  UNL     1      27.994  -5.975  25.919  1.00  0.00     0.026 C 
HETATM   10  C10 UNL     1      28.541  -6.431  27.157  1.00  0.00     0.001 C 
HETATM   11  C11 UNL     1      27.766  -7.135  28.193  1.00  0.00     0.006 C 
HETATM   12  C12 UNL     1      28.860  -7.658  29.141  1.00  0.00     0.006 C 
HETATM   13  C13 UNL     1      30.163  -7.326  28.445  1.00  0.00    -0.002 C 
HETATM   14  C21 UNL     1      29.764  -7.397  27.041  1.00  0.00    -0.036 C 
HETATM   15  C22 UNL     1      29.292  -8.723  26.592  1.00  0.00     0.016 C 
HETATM   16  C23 UNL     1      30.649  -6.669  26.068  1.00  0.00     0.010 C 
HETATM   17  C24 UNL     1      30.037  -6.516  24.714  1.00  0.00     0.009 C 
HETATM   18  C25 UNL     1      28.565  -6.602  24.634  1.00  0.00     0.028 C 
ENDROOT
BRANCH  13  19
HETATM   19  C14 UNL     1      31.387  -7.903  28.988  1.00  0.00    -0.014 C 
HETATM   20  C15 UNL     1      31.275  -9.113  29.855  1.00  0.00     0.010 C 
BRANCH  19  21
HETATM   21  C16 UNL     1      32.147  -6.805  29.683  1.00  0.00     0.009 C 
BRANCH  21  22
HETATM   22  C17 UNL     1      33.601  -6.916  29.810  1.00  0.00     0.061 C 
BRANCH  22  23
HETATM   23  C18 UNL     1      34.431  -6.162  28.804  1.00  0.00     0.259 C 
HETATM   24  O3  UNL     1      33.774  -5.770  27.660  1.00  0.00    -0.359 OA
HETATM   25  C19 UNL     1      34.209  -6.536  26.595  1.00  0.00     0.197 C 
HETATM   26  C20 UNL     1      35.053  -7.624  27.264  1.00  0.00     0.197 C 
HETATM   27  O4  UNL     1      35.522  -6.912  28.367  1.00  0.00    -0.359 OA
ENDBRANCH  22  23
ENDBRANCH  21  22
ENDBRANCH  19  21
ENDBRANCH  13  19
BRANCH   8  28
HETATM   28  O2  UNL     1      25.952  -7.256  25.543  1.00  0.00    -0.395 OA
ATOM     29  H2  UNL     1      25.021  -7.123  25.674  1.00  0.00     0.210 HD
ENDBRANCH   8  28
BRANCH   5  30
HETATM   30  O1  UNL     1      27.831  -6.454  22.411  1.00  0.00    -0.389 OA
ATOM     31  H1  UNL     1      26.965  -6.294  22.053  1.00  0.00     0.210 HD
ENDBRANCH   5  30
TORSDOF 6
ENDMDL
