MODEL 1
REMARK VINA RESULT: -5.897929778      0.000      0.000
REMARK  6 active torsions:
REMARK  status: ('A' for Active; 'I' for Inactive)
REMARK    1  A    between atoms: C1_2  and  C2_4 
REMARK    2  A    between atoms: N2_8  and  C6_9 
REMARK    3  A    between atoms: C6_9  and  N3_11 
REMARK    4  A    between atoms: C9_14  and  C10_15 
REMARK    5  A    between atoms: C10_15  and  O2_16 
REMARK    6  A    between atoms: N4_18  and  O3_20 
ROOT
HETATM    1  N3  UNL     1     -38.651  -2.740   5.086  1.00  0.00    -0.355 N 
HETATM    2  C7  UNL     1     -38.038  -2.199   6.299  1.00  0.00     0.126 C 
HETATM    3  C8  UNL     1     -38.858  -2.529   7.518  1.00  0.00     0.033 C 
HETATM    4  C9  UNL     1     -40.112  -3.296   7.159  1.00  0.00     0.066 C 
HETATM    5  C11 UNL     1     -39.820  -4.755   6.951  1.00  0.00     0.051 C 
HETATM    6  C12 UNL     1     -38.730  -5.048   5.983  1.00  0.00     0.189 C 
HETATM    7  F1  UNL     1     -37.476  -5.118   6.504  1.00  0.00    -0.248 F 
HETATM    8  C13 UNL     1     -38.850  -4.141   4.764  1.00  0.00     0.162 C 
ENDROOT
BRANCH   1   9
HETATM    9  C6  UNL     1     -39.112  -1.799   4.172  1.00  0.00     0.172 C 
HETATM   10  S1  UNL     1     -38.580  -0.223   4.510  1.00  0.00    -0.041 SA
BRANCH   9  11
HETATM   11  N2  UNL     1     -39.920  -1.951   3.030  1.00  0.00    -0.345 N 
HETATM   12  C2  UNL     1     -41.265  -1.385   2.981  1.00  0.00     0.176 C 
HETATM   13  C3  UNL     1     -41.827  -1.767   1.638  1.00  0.00     0.036 C 
HETATM   14  C4  UNL     1     -40.612  -1.880   0.774  1.00  0.00     0.022 C 
HETATM   15  C5  UNL     1     -39.654  -2.569   1.779  1.00  0.00     0.126 C 
BRANCH  12  16
HETATM   16  C1  UNL     1     -42.152  -2.036   3.990  1.00  0.00     0.254 C 
HETATM   17  N1  UNL     1     -42.729  -1.187   4.972  1.00  0.00    -0.060 NA
HETATM   18  O1  UNL     1     -42.419  -3.256   4.032  1.00  0.00    -0.275 OA
ENDBRANCH  12  16
ENDBRANCH   9  11
ENDBRANCH   1   9
BRANCH   4  19
HETATM   19  C10 UNL     1     -41.077  -3.172   8.283  1.00  0.00     0.139 C 
HETATM   20  N4  UNL     1     -42.332  -3.314   8.109  1.00  0.00    -0.251 N 
ATOM     21  H4  UNL     1     -42.944  -3.216   8.920  1.00  0.00     0.196 HD
BRANCH  19  22
HETATM   22  O2  UNL     1     -40.593  -2.897   9.540  1.00  0.00    -0.348 OA
ATOM     23  H2  UNL     1     -39.988  -2.173   9.647  1.00  0.00     0.219 HD
ENDBRANCH  19  22
BRANCH  20  24
HETATM   24  O3  UNL     1     -42.912  -3.590   6.893  1.00  0.00    -0.288 OA
ATOM     25  H3  UNL     1     -43.846  -3.543   6.728  1.00  0.00     0.244 HD
ENDBRANCH  20  24
ENDBRANCH   4  19
TORSDOF 6
ENDMDL
MODEL 2
REMARK VINA RESULT: -5.883856330      1.526      1.819
REMARK  6 active torsions:
REMARK  status: ('A' for Active; 'I' for Inactive)
REMARK    1  A    between atoms: C1_2  and  C2_4 
REMARK    2  A    between atoms: N2_8  and  C6_9 
REMARK    3  A    between atoms: C6_9  and  N3_11 
REMARK    4  A    between atoms: C9_14  and  C10_15 
REMARK    5  A    between atoms: C10_15  and  O2_16 
REMARK    6  A    between atoms: N4_18  and  O3_20 
ROOT
HETATM    1  N3  UNL     1     -39.873  -2.926   4.954  1.00  0.00    -0.355 N 
HETATM    2  C7  UNL     1     -38.784  -2.276   5.684  1.00  0.00     0.126 C 
HETATM    3  C8  UNL     1     -38.919  -2.488   7.169  1.00  0.00     0.033 C 
HETATM    4  C9  UNL     1     -40.161  -3.282   7.511  1.00  0.00     0.066 C 
HETATM    5  C11 UNL     1     -39.940  -4.754   7.312  1.00  0.00     0.051 C 
HETATM    6  C12 UNL     1     -39.423  -5.140   5.972  1.00  0.00     0.189 C 
HETATM    7  F1  UNL     1     -38.070  -5.164   5.842  1.00  0.00    -0.248 F 
HETATM    8  C13 UNL     1     -40.141  -4.351   4.883  1.00  0.00     0.162 C 
ENDROOT
BRANCH   1   9
HETATM    9  C6  UNL     1     -40.749  -2.074   4.292  1.00  0.00     0.172 C 
HETATM   10  S1  UNL     1     -40.166  -0.485   4.163  1.00  0.00    -0.041 SA
BRANCH   9  11
HETATM   11  N2  UNL     1     -42.007  -2.323   3.713  1.00  0.00    -0.345 N 
HETATM   12  C2  UNL     1     -43.227  -1.781   4.306  1.00  0.00     0.176 C 
HETATM   13  C3  UNL     1     -44.360  -2.272   3.445  1.00  0.00     0.036 C 
HETATM   14  C4  UNL     1     -43.726  -2.432   2.099  1.00  0.00     0.022 C 
HETATM   15  C5  UNL     1     -42.364  -3.030   2.534  1.00  0.00     0.126 C 
BRANCH  12  16
HETATM   16  C1  UNL     1     -43.465  -2.366   5.658  1.00  0.00     0.254 C 
HETATM   17  N1  UNL     1     -43.740  -1.450   6.708  1.00  0.00    -0.060 NA
HETATM   18  O1  UNL     1     -43.440  -3.586   5.928  1.00  0.00    -0.275 OA
ENDBRANCH  12  16
ENDBRANCH   9  11
ENDBRANCH   1   9
BRANCH   4  19
HETATM   19  C10 UNL     1     -40.488  -3.051   8.942  1.00  0.00     0.139 C 
HETATM   20  N4  UNL     1     -41.656  -3.262   9.407  1.00  0.00    -0.251 N 
ATOM     21  H4  UNL     1     -41.818  -3.083  10.398  1.00  0.00     0.196 HD
BRANCH  19  22
HETATM   22  O2  UNL     1     -39.496  -2.597   9.779  1.00  0.00    -0.348 OA
ATOM     23  H2  UNL     1     -38.859  -3.219  10.111  1.00  0.00     0.219 HD
ENDBRANCH  19  22
BRANCH  20  24
HETATM   24  O3  UNL     1     -42.712  -3.715   8.651  1.00  0.00    -0.288 OA
ATOM     25  H3  UNL     1     -43.613  -3.720   8.950  1.00  0.00     0.244 HD
ENDBRANCH  20  24
ENDBRANCH   4  19
TORSDOF 6
ENDMDL
MODEL 3
REMARK VINA RESULT: -5.820590787      2.816      4.189
REMARK  6 active torsions:
REMARK  status: ('A' for Active; 'I' for Inactive)
REMARK    1  A    between atoms: C1_2  and  C2_4 
REMARK    2  A    between atoms: N2_8  and  C6_9 
REMARK    3  A    between atoms: C6_9  and  N3_11 
REMARK    4  A    between atoms: C9_14  and  C10_15 
REMARK    5  A    between atoms: C10_15  and  O2_16 
REMARK    6  A    between atoms: N4_18  and  O3_20 
ROOT
HETATM    1  N3  UNL     1     -40.259  -2.931   4.458  1.00  0.00    -0.355 N 
HETATM    2  C7  UNL     1     -40.007  -4.365   4.610  1.00  0.00     0.126 C 
HETATM    3  C8  UNL     1     -39.843  -4.738   6.060  1.00  0.00     0.033 C 
HETATM    4  C9  UNL     1     -39.945  -3.531   6.965  1.00  0.00     0.066 C 
HETATM    5  C11 UNL     1     -41.377  -3.154   7.215  1.00  0.00     0.051 C 
HETATM    6  C12 UNL     1     -42.203  -2.965   5.994  1.00  0.00     0.189 C 
HETATM    7  F1  UNL     1     -42.829  -4.076   5.522  1.00  0.00    -0.248 F 
HETATM    8  C13 UNL     1     -41.415  -2.197   4.938  1.00  0.00     0.162 C 
ENDROOT
BRANCH   1   9
HETATM    9  C6  UNL     1     -39.263  -2.209   3.810  1.00  0.00     0.172 C 
HETATM   10  S1  UNL     1     -39.129  -2.587   2.161  1.00  0.00    -0.041 SA
BRANCH   9  11
HETATM   11  N2  UNL     1     -38.382  -1.226   4.296  1.00  0.00    -0.345 N 
HETATM   12  C2  UNL     1     -36.946  -1.478   4.375  1.00  0.00     0.176 C 
HETATM   13  C3  UNL     1     -36.338  -0.231   4.960  1.00  0.00     0.036 C 
HETATM   14  C4  UNL     1     -37.278   0.848   4.526  1.00  0.00     0.022 C 
HETATM   15  C5  UNL     1     -38.622   0.105   4.731  1.00  0.00     0.126 C 
BRANCH  12  16
HETATM   16  C1  UNL     1     -36.651  -2.567   5.352  1.00  0.00     0.254 C 
HETATM   17  N1  UNL     1     -36.363  -3.847   4.810  1.00  0.00    -0.060 NA
HETATM   18  O1  UNL     1     -36.641  -2.435   6.595  1.00  0.00    -0.275 OA
ENDBRANCH  12  16
ENDBRANCH   9  11
ENDBRANCH   1   9
BRANCH   4  19
HETATM   19  C10 UNL     1     -39.319  -3.867   8.270  1.00  0.00     0.139 C 
HETATM   20  N4  UNL     1     -38.697  -2.995   8.962  1.00  0.00    -0.251 N 
ATOM     21  H4  UNL     1     -38.288  -3.288   9.850  1.00  0.00     0.196 HD
BRANCH  19  22
HETATM   22  O2  UNL     1     -39.417  -5.157   8.735  1.00  0.00    -0.348 OA
ATOM     23  H2  UNL     1     -39.101  -5.351   9.610  1.00  0.00     0.219 HD
ENDBRANCH  19  22
BRANCH  20  24
HETATM   24  O3  UNL     1     -38.546  -1.681   8.583  1.00  0.00    -0.288 OA
ATOM     25  H3  UNL     1     -38.959  -1.301   7.817  1.00  0.00     0.244 HD
ENDBRANCH  20  24
ENDBRANCH   4  19
TORSDOF 6
ENDMDL
MODEL 4
REMARK VINA RESULT: -5.816107099      3.426      5.958
REMARK  6 active torsions:
REMARK  status: ('A' for Active; 'I' for Inactive)
REMARK    1  A    between atoms: C1_2  and  C2_4 
REMARK    2  A    between atoms: N2_8  and  C6_9 
REMARK    3  A    between atoms: C6_9  and  N3_11 
REMARK    4  A    between atoms: C9_14  and  C10_15 
REMARK    5  A    between atoms: C10_15  and  O2_16 
REMARK    6  A    between atoms: N4_18  and  O3_20 
ROOT
HETATM    1  N3  UNL     1     -38.473  -3.160   4.877  1.00  0.00    -0.355 N 
HETATM    2  C7  UNL     1     -39.590  -2.215   4.854  1.00  0.00     0.126 C 
HETATM    3  C8  UNL     1     -39.100  -0.794   4.762  1.00  0.00     0.033 C 
HETATM    4  C9  UNL     1     -37.588  -0.721   4.755  1.00  0.00     0.066 C 
HETATM    5  C11 UNL     1     -37.033  -1.011   3.390  1.00  0.00     0.051 C 
HETATM    6  C12 UNL     1     -37.500  -2.281   2.775  1.00  0.00     0.189 C 
HETATM    7  F1  UNL     1     -38.635  -2.199   2.032  1.00  0.00    -0.248 F 
HETATM    8  C13 UNL     1     -37.514  -3.396   3.814  1.00  0.00     0.162 C 
ENDROOT
BRANCH   1   9
HETATM    9  C6  UNL     1     -38.312  -3.874   6.059  1.00  0.00     0.172 C 
HETATM   10  S1  UNL     1     -39.415  -5.154   6.222  1.00  0.00    -0.041 SA
BRANCH   9  11
HETATM   11  N2  UNL     1     -37.387  -3.714   7.107  1.00  0.00    -0.345 N 
HETATM   12  C2  UNL     1     -37.820  -3.744   8.501  1.00  0.00     0.176 C 
HETATM   13  C3  UNL     1     -36.582  -3.514   9.325  1.00  0.00     0.036 C 
HETATM   14  C4  UNL     1     -35.487  -4.062   8.465  1.00  0.00     0.022 C 
HETATM   15  C5  UNL     1     -35.976  -3.552   7.085  1.00  0.00     0.126 C 
BRANCH  12  16
HETATM   16  C1  UNL     1     -38.724  -2.595   8.801  1.00  0.00     0.254 C 
HETATM   17  N1  UNL     1     -39.894  -2.884   9.552  1.00  0.00    -0.060 NA
HETATM   18  O1  UNL     1     -38.527  -1.413   8.443  1.00  0.00    -0.275 OA
ENDBRANCH  12  16
ENDBRANCH   9  11
ENDBRANCH   1   9
BRANCH   4  19
HETATM   19  C10 UNL     1     -37.182   0.656   5.139  1.00  0.00     0.139 C 
HETATM   20  N4  UNL     1     -36.166   0.875   5.877  1.00  0.00    -0.251 N 
ATOM     21  H4  UNL     1     -35.938   1.843   6.107  1.00  0.00     0.196 HD
BRANCH  19  22
HETATM   22  O2  UNL     1     -37.929   1.716   4.681  1.00  0.00    -0.348 OA
ATOM     23  H2  UNL     1     -37.636   2.598   4.877  1.00  0.00     0.219 HD
ENDBRANCH  19  22
BRANCH  20  24
HETATM   24  O3  UNL     1     -35.357  -0.116   6.383  1.00  0.00    -0.288 OA
ATOM     25  H3  UNL     1     -35.405  -0.433   7.277  1.00  0.00     0.244 HD
ENDBRANCH  20  24
ENDBRANCH   4  19
TORSDOF 6
ENDMDL
MODEL 5
REMARK VINA RESULT: -5.781095103      2.031      2.420
REMARK  6 active torsions:
REMARK  status: ('A' for Active; 'I' for Inactive)
REMARK    1  A    between atoms: C1_2  and  C2_4 
REMARK    2  A    between atoms: N2_8  and  C6_9 
REMARK    3  A    between atoms: C6_9  and  N3_11 
REMARK    4  A    between atoms: C9_14  and  C10_15 
REMARK    5  A    between atoms: C10_15  and  O2_16 
REMARK    6  A    between atoms: N4_18  and  O3_20 
ROOT
HETATM    1  N3  UNL     1     -38.543  -2.468   3.602  1.00  0.00    -0.355 N 
HETATM    2  C7  UNL     1     -37.677  -1.908   4.640  1.00  0.00     0.126 C 
HETATM    3  C8  UNL     1     -37.538  -2.855   5.803  1.00  0.00     0.033 C 
HETATM    4  C9  UNL     1     -38.357  -4.111   5.604  1.00  0.00     0.066 C 
HETATM    5  C11 UNL     1     -37.649  -5.090   4.711  1.00  0.00     0.051 C 
HETATM    6  C12 UNL     1     -37.202  -4.542   3.403  1.00  0.00     0.189 C 
HETATM    7  F1  UNL     1     -35.959  -3.992   3.383  1.00  0.00    -0.248 F 
HETATM    8  C13 UNL     1     -38.287  -3.654   2.805  1.00  0.00     0.162 C 
ENDROOT
BRANCH   1   9
HETATM    9  C6  UNL     1     -39.743  -1.800   3.391  1.00  0.00     0.172 C 
HETATM   10  S1  UNL     1     -39.812  -0.290   4.165  1.00  0.00    -0.041 SA
BRANCH   9  11
HETATM   11  N2  UNL     1     -40.876  -2.165   2.641  1.00  0.00    -0.345 N 
HETATM   12  C2  UNL     1     -42.152  -2.442   3.295  1.00  0.00     0.176 C 
HETATM   13  C3  UNL     1     -43.107  -2.823   2.196  1.00  0.00     0.036 C 
HETATM   14  C4  UNL     1     -42.578  -2.085   1.007  1.00  0.00     0.022 C 
HETATM   15  C5  UNL     1     -41.060  -2.296   1.238  1.00  0.00     0.126 C 
BRANCH  12  16
HETATM   16  C1  UNL     1     -42.048  -3.644   4.174  1.00  0.00     0.254 C 
HETATM   17  N1  UNL     1     -42.258  -3.436   5.563  1.00  0.00    -0.060 NA
HETATM   18  O1  UNL     1     -41.793  -4.802   3.781  1.00  0.00    -0.275 OA
ENDBRANCH  12  16
ENDBRANCH   9  11
ENDBRANCH   1   9
BRANCH   4  19
HETATM   19  C10 UNL     1     -38.561  -4.755   6.928  1.00  0.00     0.139 C 
HETATM   20  N4  UNL     1     -39.537  -5.545   7.148  1.00  0.00    -0.251 N 
ATOM     21  H4  UNL     1     -39.623  -5.954   8.079  1.00  0.00     0.196 HD
BRANCH  19  22
HETATM   22  O2  UNL     1     -37.667  -4.484   7.937  1.00  0.00    -0.348 OA
ATOM     23  H2  UNL     1     -37.689  -5.020   8.721  1.00  0.00     0.219 HD
ENDBRANCH  19  22
BRANCH  20  24
HETATM   24  O3  UNL     1     -40.481  -5.878   6.205  1.00  0.00    -0.288 OA
ATOM     25  H3  UNL     1     -40.787  -6.764   6.053  1.00  0.00     0.244 HD
ENDBRANCH  20  24
ENDBRANCH   4  19
TORSDOF 6
ENDMDL
