MODEL 1
REMARK VINA RESULT: -7.317171675      0.000      0.000
REMARK  1 active torsions:
REMARK  status: ('A' for Active; 'I' for Inactive)
REMARK    1  A    between atoms: N1_12  and  O2_14 
ROOT
HETATM    1  C1  UNL     1       5.414  82.536  -0.506  1.00  0.00     0.025 C 
HETATM    2  C2  UNL     1       4.826  82.422   0.682  1.00  0.00     0.013 C 
HETATM    3  C3  UNL     1       3.521  82.995   0.955  1.00  0.00     0.160 C 
HETATM    4  O1  UNL     1       2.690  83.132   0.023  1.00  0.00    -0.292 OA
HETATM    5  C4  UNL     1       3.156  83.415   2.296  1.00  0.00     0.129 C 
HETATM    6  C5  UNL     1       4.004  82.961   3.412  1.00  0.00     0.132 C 
HETATM    7  F1  UNL     1       4.162  84.047   4.270  1.00  0.00    -0.240 F 
HETATM    8  C6  UNL     1       3.272  81.944   4.254  1.00  0.00     0.030 C 
HETATM    9  C7  UNL     1       2.105  82.668   4.926  1.00  0.00     0.025 C 
HETATM   10  C8  UNL     1       2.727  80.793   3.501  1.00  0.00     0.025 C 
HETATM   11  C9  UNL     1       4.136  81.419   5.352  1.00  0.00     0.021 C 
HETATM   12  N1  UNL     1       3.799  81.470   6.587  1.00  0.00    -0.277 N 
ATOM     13  H1  UNL     1       2.910  81.878   6.876  1.00  0.00     0.193 HD
HETATM   14  C10 UNL     1       5.424  80.831   4.879  1.00  0.00     0.056 C 
HETATM   15  C11 UNL     1       6.149  81.874   4.113  1.00  0.00     0.021 C 
HETATM   16  C12 UNL     1       5.390  82.537   3.029  1.00  0.00     0.029 C 
HETATM   17  C13 UNL     1       6.158  83.827   2.699  1.00  0.00     0.022 C 
HETATM   18  C14 UNL     1       5.474  81.703   1.797  1.00  0.00     0.217 C 
HETATM   19  F2  UNL     1       6.824  81.576   1.474  1.00  0.00    -0.243 F 
ENDROOT
BRANCH  12  20
HETATM   20  O2  UNL     1       4.675  80.955   7.508  1.00  0.00    -0.290 OA
ATOM     21  H2  UNL     1       4.369  80.860   8.403  1.00  0.00     0.244 HD
ENDBRANCH  12  20
TORSDOF 1
ENDMDL
MODEL 2
REMARK VINA RESULT: -7.114832062      2.406      4.128
REMARK  1 active torsions:
REMARK  status: ('A' for Active; 'I' for Inactive)
REMARK    1  A    between atoms: N1_12  and  O2_14 
ROOT
HETATM    1  C1  UNL     1       3.028  83.435   2.793  1.00  0.00     0.025 C 
HETATM    2  C2  UNL     1       4.245  82.963   3.044  1.00  0.00     0.013 C 
HETATM    3  C3  UNL     1       5.029  82.274   2.035  1.00  0.00     0.160 C 
HETATM    4  O1  UNL     1       4.866  82.549   0.821  1.00  0.00    -0.292 OA
HETATM    5  C4  UNL     1       6.006  81.267   2.408  1.00  0.00     0.129 C 
HETATM    6  C5  UNL     1       6.406  81.190   3.824  1.00  0.00     0.132 C 
HETATM    7  F1  UNL     1       6.472  79.837   4.154  1.00  0.00    -0.240 F 
HETATM    8  C6  UNL     1       7.825  81.671   4.002  1.00  0.00     0.030 C 
HETATM    9  C7  UNL     1       8.735  80.670   3.289  1.00  0.00     0.025 C 
HETATM   10  C8  UNL     1       8.098  83.016   3.448  1.00  0.00     0.025 C 
HETATM   11  C9  UNL     1       8.229  81.665   5.438  1.00  0.00     0.021 C 
HETATM   12  N1  UNL     1       9.259  81.035   5.869  1.00  0.00    -0.277 N 
ATOM     13  H1  UNL     1       9.856  80.502   5.236  1.00  0.00     0.193 HD
HETATM   14  C10 UNL     1       7.326  82.457   6.325  1.00  0.00     0.056 C 
HETATM   15  C11 UNL     1       5.953  81.917   6.178  1.00  0.00     0.021 C 
HETATM   16  C12 UNL     1       5.439  81.800   4.795  1.00  0.00     0.029 C 
HETATM   17  C13 UNL     1       4.239  80.841   4.866  1.00  0.00     0.022 C 
HETATM   18  C14 UNL     1       4.871  83.111   4.373  1.00  0.00     0.217 C 
HETATM   19  F2  UNL     1       3.854  83.430   5.273  1.00  0.00    -0.243 F 
ENDROOT
BRANCH  12  20
HETATM   20  O2  UNL     1       9.531  81.102   7.212  1.00  0.00    -0.290 OA
ATOM     21  H2  UNL     1      10.421  80.920   7.491  1.00  0.00     0.244 HD
ENDBRANCH  12  20
TORSDOF 1
ENDMDL
MODEL 3
REMARK VINA RESULT: -6.893943590      3.072      5.292
REMARK  1 active torsions:
REMARK  status: ('A' for Active; 'I' for Inactive)
REMARK    1  A    between atoms: N1_12  and  O2_14 
ROOT
HETATM    1  C1  UNL     1       7.244  81.985   7.224  1.00  0.00     0.025 C 
HETATM    2  C2  UNL     1       6.948  82.106   5.934  1.00  0.00     0.013 C 
HETATM    3  C3  UNL     1       5.579  82.206   5.461  1.00  0.00     0.160 C 
HETATM    4  O1  UNL     1       4.697  82.706   6.202  1.00  0.00    -0.292 OA
HETATM    5  C4  UNL     1       5.210  81.734   4.139  1.00  0.00     0.129 C 
HETATM    6  C5  UNL     1       6.295  81.452   3.183  1.00  0.00     0.132 C 
HETATM    7  F1  UNL     1       5.960  80.269   2.527  1.00  0.00    -0.240 F 
HETATM    8  C6  UNL     1       6.310  82.482   2.079  1.00  0.00     0.030 C 
HETATM    9  C7  UNL     1       5.025  82.297   1.270  1.00  0.00     0.025 C 
HETATM   10  C8  UNL     1       6.364  83.886   2.542  1.00  0.00     0.025 C 
HETATM   11  C9  UNL     1       7.443  82.256   1.135  1.00  0.00     0.021 C 
HETATM   12  N1  UNL     1       7.278  82.105  -0.127  1.00  0.00    -0.277 N 
ATOM     13  H1  UNL     1       6.348  82.134  -0.545  1.00  0.00     0.193 HD
HETATM   14  C10 UNL     1       8.782  82.221   1.794  1.00  0.00     0.056 C 
HETATM   15  C11 UNL     1       8.756  81.157   2.826  1.00  0.00     0.021 C 
HETATM   16  C12 UNL     1       7.641  81.212   3.797  1.00  0.00     0.029 C 
HETATM   17  C13 UNL     1       7.574  79.821   4.449  1.00  0.00     0.022 C 
HETATM   18  C14 UNL     1       8.003  82.146   4.901  1.00  0.00     0.217 C 
HETATM   19  F2  UNL     1       9.171  81.661   5.488  1.00  0.00    -0.243 F 
ENDROOT
BRANCH  12  20
HETATM   20  O2  UNL     1       8.395  81.903  -0.896  1.00  0.00    -0.290 OA
ATOM     21  H2  UNL     1       8.398  82.266  -1.774  1.00  0.00     0.244 HD
ENDBRANCH  12  20
TORSDOF 1
ENDMDL
MODEL 4
REMARK VINA RESULT: -6.812334651      2.641      4.740
REMARK  1 active torsions:
REMARK  status: ('A' for Active; 'I' for Inactive)
REMARK    1  A    between atoms: N1_12  and  O2_14 
ROOT
HETATM    1  C1  UNL     1       2.087  81.362   4.895  1.00  0.00     0.025 C 
HETATM    2  C2  UNL     1       3.395  81.377   4.659  1.00  0.00     0.013 C 
HETATM    3  C3  UNL     1       4.371  81.516   5.726  1.00  0.00     0.160 C 
HETATM    4  O1  UNL     1       4.098  81.101   6.880  1.00  0.00    -0.292 OA
HETATM    5  C4  UNL     1       5.663  82.129   5.480  1.00  0.00     0.129 C 
HETATM    6  C5  UNL     1       6.080  82.312   4.079  1.00  0.00     0.132 C 
HETATM    7  F1  UNL     1       6.663  83.575   3.992  1.00  0.00    -0.240 F 
HETATM    8  C6  UNL     1       7.210  81.372   3.734  1.00  0.00     0.030 C 
HETATM    9  C7  UNL     1       8.424  81.802   4.559  1.00  0.00     0.025 C 
HETATM   10  C8  UNL     1       6.939  79.946   4.023  1.00  0.00     0.025 C 
HETATM   11  C9  UNL     1       7.604  81.493   2.300  1.00  0.00     0.021 C 
HETATM   12  N1  UNL     1       8.803  81.756   1.928  1.00  0.00    -0.277 N 
ATOM     13  H1  UNL     1       9.549  81.895   2.609  1.00  0.00     0.193 HD
HETATM   14  C10 UNL     1       6.478  81.282   1.343  1.00  0.00     0.056 C 
HETATM   15  C11 UNL     1       5.414  82.264   1.665  1.00  0.00     0.021 C 
HETATM   16  C12 UNL     1       4.967  82.306   3.075  1.00  0.00     0.029 C 
HETATM   17  C13 UNL     1       4.226  83.642   3.247  1.00  0.00     0.022 C 
HETATM   18  C14 UNL     1       3.934  81.254   3.290  1.00  0.00     0.217 C 
HETATM   19  F2  UNL     1       2.885  81.518   2.411  1.00  0.00    -0.243 F 
ENDROOT
BRANCH  12  20
HETATM   20  O2  UNL     1       9.045  81.843   0.581  1.00  0.00    -0.290 OA
ATOM     21  H2  UNL     1       8.307  82.026   0.011  1.00  0.00     0.244 HD
ENDBRANCH  12  20
TORSDOF 1
ENDMDL
MODEL 5
REMARK VINA RESULT: -6.776124373      2.987      4.881
REMARK  1 active torsions:
REMARK  status: ('A' for Active; 'I' for Inactive)
REMARK    1  A    between atoms: N1_12  and  O2_14 
ROOT
HETATM    1  C1  UNL     1       8.737  80.034   4.547  1.00  0.00     0.025 C 
HETATM    2  C2  UNL     1       8.076  80.635   3.562  1.00  0.00     0.013 C 
HETATM    3  C3  UNL     1       8.755  81.225   2.423  1.00  0.00     0.160 C 
HETATM    4  O1  UNL     1       9.857  80.759   2.042  1.00  0.00    -0.292 OA
HETATM    5  C4  UNL     1       8.178  82.351   1.711  1.00  0.00     0.129 C 
HETATM    6  C5  UNL     1       6.763  82.672   1.966  1.00  0.00     0.132 C 
HETATM    7  F1  UNL     1       6.672  84.060   2.058  1.00  0.00    -0.240 F 
HETATM    8  C6  UNL     1       5.919  82.338   0.760  1.00  0.00     0.030 C 
HETATM    9  C7  UNL     1       6.335  83.290  -0.362  1.00  0.00     0.025 C 
HETATM   10  C8  UNL     1       6.066  80.951   0.265  1.00  0.00     0.025 C 
HETATM   11  C9  UNL     1       4.471  82.591   1.018  1.00  0.00     0.021 C 
HETATM   12  N1  UNL     1       3.756  83.360   0.281  1.00  0.00    -0.277 N 
ATOM     13  H1  UNL     1       4.156  83.837  -0.527  1.00  0.00     0.193 HD
HETATM   14  C10 UNL     1       3.934  81.871   2.211  1.00  0.00     0.056 C 
HETATM   15  C11 UNL     1       4.741  82.271   3.389  1.00  0.00     0.021 C 
HETATM   16  C12 UNL     1       6.209  82.139   3.253  1.00  0.00     0.029 C 
HETATM   17  C13 UNL     1       6.820  82.998   4.372  1.00  0.00     0.022 C 
HETATM   18  C14 UNL     1       6.603  80.738   3.573  1.00  0.00     0.217 C 
HETATM   19  F2  UNL     1       6.183  80.478   4.877  1.00  0.00    -0.243 F 
ENDROOT
BRANCH  12  20
HETATM   20  O2  UNL     1       2.437  83.517   0.618  1.00  0.00    -0.290 OA
ATOM     21  H2  UNL     1       1.825  83.719  -0.081  1.00  0.00     0.244 HD
ENDBRANCH  12  20
TORSDOF 1
ENDMDL
