MODEL 1
REMARK VINA RESULT: -9.759926023      0.000      0.000
REMARK  11 active torsions:
REMARK  status: ('A' for Active; 'I' for Inactive)
REMARK    1  A    between atoms: C2_2  and  C3_3 
REMARK    2  A    between atoms: C2_2  and  N4_19 
REMARK    3  A    between atoms: C3_3  and  N2_7 
REMARK    4  A    between atoms: N2_7  and  C4_9 
REMARK    5  A    between atoms: C5_11  and  O2_12 
REMARK    6  A    between atoms: C7_16  and  O3_17 
REMARK       I    between atoms: N4_19  and  C8_20 
REMARK    7  A    between atoms: N4_19  and  C9_23 
REMARK    8  A    between atoms: C9_23  and  O5_24 
REMARK    9  A    between atoms: C9_23  and  C10_26 
REMARK   10  A    between atoms: N8_31  and  C11_32 
REMARK   11  A    between atoms: C12_38  and  N11_39 
ROOT
HETATM    1  N4  UNL     1     -31.329 -63.037 -10.857  1.00  0.00    -0.268 N 
HETATM    2  C8  UNL     1     -30.477 -62.613  -9.780  1.00  0.00     0.337 C 
HETATM    3  N5  UNL     1     -30.817 -61.566  -8.906  1.00  0.00    -0.039 NA
HETATM    4  O4  UNL     1     -29.385 -63.185  -9.595  1.00  0.00    -0.250 OA
ENDROOT
BRANCH   1   5
HETATM    5  C2  UNL     1     -30.942 -64.139 -11.694  1.00  0.00     0.159 C 
HETATM    6  C1  UNL     1     -31.924 -65.260 -11.498  1.00  0.00     0.041 C 
BRANCH   5   7
HETATM    7  C3  UNL     1     -30.772 -63.764 -13.144  1.00  0.00     0.100 C 
HETATM    8  N1  UNL     1     -31.592 -63.989 -14.076  1.00  0.00    -0.387 N 
ATOM      9  H12 UNL     1     -32.438 -64.516 -13.864  1.00  0.00     0.157 HD
ATOM     10  H11 UNL     1     -31.477 -63.735 -15.057  1.00  0.00     0.157 HD
BRANCH   7  11
HETATM   11  N2  UNL     1     -29.601 -63.034 -13.437  1.00  0.00    -0.323 N 
ATOM     12  H2  UNL     1     -29.738 -62.029 -13.545  1.00  0.00     0.169 HD
BRANCH  11  13
HETATM   13  C4  UNL     1     -28.285 -63.465 -13.602  1.00  0.00     0.187 A 
HETATM   14  O1  UNL     1     -27.737 -63.548 -14.830  1.00  0.00    -0.266 OA
HETATM   15  C5  UNL     1     -26.525 -63.962 -14.779  1.00  0.00     0.212 A 
HETATM   16  C6  UNL     1     -26.170 -64.190 -13.475  1.00  0.00     0.142 A 
HETATM   17  N3  UNL     1     -24.946 -64.647 -12.971  1.00  0.00    -0.094 NA
HETATM   18  C7  UNL     1     -27.327 -63.861 -12.734  1.00  0.00     0.147 A 
BRANCH  15  19
HETATM   19  O2  UNL     1     -25.730 -64.136 -15.924  1.00  0.00    -0.339 OA
ATOM     20  H2  UNL     1     -25.434 -64.988 -16.221  1.00  0.00     0.220 HD
ENDBRANCH  15  19
BRANCH  18  21
HETATM   21  O3  UNL     1     -27.397 -63.949 -11.375  1.00  0.00    -0.355 OA
ATOM     22  H3  UNL     1     -26.928 -64.537 -10.795  1.00  0.00     0.218 HD
ENDBRANCH  18  21
ENDBRANCH  11  13
ENDBRANCH   7  11
ENDBRANCH   5   7
ENDBRANCH   1   5
BRANCH   1  23
HETATM   23  C9  UNL     1     -32.525 -62.349 -11.029  1.00  0.00     0.195 C 
BRANCH  23  24
HETATM   24  O5  UNL     1     -32.437 -61.064 -11.215  1.00  0.00    -0.343 OA
ATOM     25  H5  UNL     1     -32.870 -60.510 -10.576  1.00  0.00     0.219 HD
ENDBRANCH  23  24
BRANCH  23  26
HETATM   26  C10 UNL     1     -33.867 -62.858 -11.028  1.00  0.00     0.190 A 
HETATM   27  N6  UNL     1     -34.826 -62.449 -11.938  1.00  0.00    -0.265 N 
HETATM   28  N7  UNL     1     -35.963 -63.060 -11.717  1.00  0.00    -0.218 N 
ATOM     29  H6  UNL     1     -34.670 -61.766 -12.680  1.00  0.00     0.190 HD
HETATM   30  N8  UNL     1     -35.782 -63.868 -10.678  1.00  0.00    -0.158 N 
ATOM     31  H7  UNL     1     -36.827 -62.938 -12.244  1.00  0.00     0.210 HD
HETATM   32  N12 UNL     1     -34.532 -63.734 -10.285  1.00  0.00    -0.256 N 
ATOM     33  H12 UNL     1     -34.122 -64.243  -9.502  1.00  0.00     0.191 HD
BRANCH  30  34
HETATM   34  C11 UNL     1     -36.773 -64.715 -10.114  1.00  0.00     0.214 A 
HETATM   35  N9  UNL     1     -36.854 -66.048 -10.219  1.00  0.00    -0.219 N 
HETATM   36  O6  UNL     1     -37.911 -66.451  -9.556  1.00  0.00    -0.153 OA
ATOM     37  H9  UNL     1     -36.204 -66.648 -10.728  1.00  0.00     0.198 HD
HETATM   38  N10 UNL     1     -38.537 -65.448  -9.015  1.00  0.00    -0.222 N 
HETATM   39  C12 UNL     1     -37.842 -64.325  -9.348  1.00  0.00     0.171 A 
ATOM     40  H10 UNL     1     -39.386 -65.494  -8.450  1.00  0.00     0.198 HD
BRANCH  39  41
HETATM   41  N11 UNL     1     -38.147 -63.145  -9.001  1.00  0.00    -0.381 N 
ATOM     42 2H11 UNL     1     -37.535 -62.333  -9.071  1.00  0.00     0.157 HD
ATOM     43 1H11 UNL     1     -39.032 -62.827  -8.606  1.00  0.00     0.157 HD
ENDBRANCH  39  41
ENDBRANCH  30  34
ENDBRANCH  23  26
ENDBRANCH   1  23
TORSDOF 11
ENDMDL
MODEL 2
REMARK VINA RESULT: -9.668265123      2.537      4.702
REMARK  11 active torsions:
REMARK  status: ('A' for Active; 'I' for Inactive)
REMARK    1  A    between atoms: C2_2  and  C3_3 
REMARK    2  A    between atoms: C2_2  and  N4_19 
REMARK    3  A    between atoms: C3_3  and  N2_7 
REMARK    4  A    between atoms: N2_7  and  C4_9 
REMARK    5  A    between atoms: C5_11  and  O2_12 
REMARK    6  A    between atoms: C7_16  and  O3_17 
REMARK       I    between atoms: N4_19  and  C8_20 
REMARK    7  A    between atoms: N4_19  and  C9_23 
REMARK    8  A    between atoms: C9_23  and  O5_24 
REMARK    9  A    between atoms: C9_23  and  C10_26 
REMARK   10  A    between atoms: N8_31  and  C11_32 
REMARK   11  A    between atoms: C12_38  and  N11_39 
ROOT
HETATM    1  N4  UNL     1     -31.298 -64.812 -15.000  1.00  0.00    -0.268 N 
HETATM    2  C8  UNL     1     -31.794 -65.897 -15.802  1.00  0.00     0.337 C 
HETATM    3  N5  UNL     1     -32.981 -65.813 -16.549  1.00  0.00    -0.039 NA
HETATM    4  O4  UNL     1     -31.157 -66.968 -15.852  1.00  0.00    -0.250 OA
ENDROOT
BRANCH   1   5
HETATM    5  C2  UNL     1     -30.058 -64.947 -14.287  1.00  0.00     0.159 C 
HETATM    6  C1  UNL     1     -29.251 -63.694 -14.486  1.00  0.00     0.041 C 
BRANCH   5   7
HETATM    7  C3  UNL     1     -30.233 -65.298 -12.833  1.00  0.00     0.100 C 
HETATM    8  N1  UNL     1     -30.935 -66.237 -12.369  1.00  0.00    -0.387 N 
ATOM      9  H12 UNL     1     -31.487 -66.799 -13.017  1.00  0.00     0.157 HD
ATOM     10  H11 UNL     1     -31.054 -66.474 -11.383  1.00  0.00     0.157 HD
BRANCH   7  11
HETATM   11  N2  UNL     1     -29.469 -64.520 -11.936  1.00  0.00    -0.323 N 
ATOM     12  H2  UNL     1     -28.480 -64.765 -11.892  1.00  0.00     0.169 HD
BRANCH  11  13
HETATM   13  C4  UNL     1     -29.849 -63.470 -11.101  1.00  0.00     0.187 A 
HETATM   14  O1  UNL     1     -30.871 -62.658 -11.438  1.00  0.00    -0.266 OA
HETATM   15  C5  UNL     1     -31.069 -61.757 -10.549  1.00  0.00     0.212 A 
HETATM   16  C6  UNL     1     -30.168 -61.909  -9.528  1.00  0.00     0.142 A 
HETATM   17  N3  UNL     1     -30.032 -61.144  -8.363  1.00  0.00    -0.094 NA
HETATM   18  C7  UNL     1     -29.390 -63.025  -9.910  1.00  0.00     0.147 A 
BRANCH  15  19
HETATM   19  O2  UNL     1     -32.077 -60.785 -10.661  1.00  0.00    -0.339 OA
ATOM     20  H2  UNL     1     -32.319 -60.208  -9.946  1.00  0.00     0.220 HD
ENDBRANCH  15  19
BRANCH  18  21
HETATM   21  O3  UNL     1     -28.366 -63.517  -9.157  1.00  0.00    -0.355 OA
ATOM     22  H3  UNL     1     -28.392 -63.850  -8.268  1.00  0.00     0.218 HD
ENDBRANCH  18  21
ENDBRANCH  11  13
ENDBRANCH   7  11
ENDBRANCH   5   7
ENDBRANCH   1   5
BRANCH   1  23
HETATM   23  C9  UNL     1     -32.060 -63.650 -14.965  1.00  0.00     0.195 C 
BRANCH  23  24
HETATM   24  O5  UNL     1     -31.987 -62.872 -16.006  1.00  0.00    -0.343 OA
ATOM     25  H5  UNL     1     -31.647 -61.997 -15.861  1.00  0.00     0.219 HD
ENDBRANCH  23  24
BRANCH  23  26
HETATM   26  C10 UNL     1     -32.930 -63.172 -13.928  1.00  0.00     0.190 A 
HETATM   27  N6  UNL     1     -33.538 -61.929 -13.969  1.00  0.00    -0.265 N 
HETATM   28  N7  UNL     1     -34.272 -61.739 -12.903  1.00  0.00    -0.218 N 
ATOM     29  H6  UNL     1     -33.429 -61.255 -14.727  1.00  0.00     0.190 HD
HETATM   30  N8  UNL     1     -34.167 -62.828 -12.150  1.00  0.00    -0.158 N 
ATOM     31  H7  UNL     1     -34.823 -60.907 -12.689  1.00  0.00     0.210 HD
HETATM   32  N12 UNL     1     -33.367 -63.667 -12.776  1.00  0.00    -0.256 N 
ATOM     33  H12 UNL     1     -33.114 -64.588 -12.419  1.00  0.00     0.191 HD
BRANCH  30  34
HETATM   34  C11 UNL     1     -34.813 -63.029 -10.900  1.00  0.00     0.214 A 
HETATM   35  N9  UNL     1     -34.310 -62.788  -9.682  1.00  0.00    -0.219 N 
HETATM   36  O6  UNL     1     -35.219 -63.104  -8.791  1.00  0.00    -0.153 OA
ATOM     37  H9  UNL     1     -33.379 -62.422  -9.482  1.00  0.00     0.198 HD
HETATM   38  N10 UNL     1     -36.303 -63.542  -9.360  1.00  0.00    -0.222 N 
HETATM   39  C12 UNL     1     -36.082 -63.510 -10.704  1.00  0.00     0.171 A 
ATOM     40  H10 UNL     1     -37.154 -63.852  -8.890  1.00  0.00     0.198 HD
BRANCH  39  41
HETATM   41  N11 UNL     1     -36.915 -63.863 -11.591  1.00  0.00    -0.381 N 
ATOM     42 2H11 UNL     1     -36.847 -63.642 -12.584  1.00  0.00     0.157 HD
ATOM     43 1H11 UNL     1     -37.764 -64.412 -11.457  1.00  0.00     0.157 HD
ENDBRANCH  39  41
ENDBRANCH  30  34
ENDBRANCH  23  26
ENDBRANCH   1  23
TORSDOF 11
ENDMDL
MODEL 3
REMARK VINA RESULT: -9.638920561      3.019      7.590
REMARK  11 active torsions:
REMARK  status: ('A' for Active; 'I' for Inactive)
REMARK    1  A    between atoms: C2_2  and  C3_3 
REMARK    2  A    between atoms: C2_2  and  N4_19 
REMARK    3  A    between atoms: C3_3  and  N2_7 
REMARK    4  A    between atoms: N2_7  and  C4_9 
REMARK    5  A    between atoms: C5_11  and  O2_12 
REMARK    6  A    between atoms: C7_16  and  O3_17 
REMARK       I    between atoms: N4_19  and  C8_20 
REMARK    7  A    between atoms: N4_19  and  C9_23 
REMARK    8  A    between atoms: C9_23  and  O5_24 
REMARK    9  A    between atoms: C9_23  and  C10_26 
REMARK   10  A    between atoms: N8_31  and  C11_32 
REMARK   11  A    between atoms: C12_38  and  N11_39 
ROOT
HETATM    1  N4  UNL     1     -30.896 -64.141 -16.453  1.00  0.00    -0.268 N 
HETATM    2  C8  UNL     1     -31.211 -63.417 -17.655  1.00  0.00     0.337 C 
HETATM    3  N5  UNL     1     -30.227 -62.870 -18.496  1.00  0.00    -0.039 NA
HETATM    4  O4  UNL     1     -32.403 -63.256 -17.983  1.00  0.00    -0.250 OA
ENDROOT
BRANCH   1   5
HETATM    5  C2  UNL     1     -31.947 -64.707 -15.654  1.00  0.00     0.159 C 
HETATM    6  C1  UNL     1     -31.455 -65.998 -15.059  1.00  0.00     0.041 C 
BRANCH   5   7
HETATM    7  C3  UNL     1     -32.491 -63.761 -14.615  1.00  0.00     0.100 C 
HETATM    8  N1  UNL     1     -32.945 -62.603 -14.822  1.00  0.00    -0.387 N 
ATOM      9  H12 UNL     1     -32.907 -62.227 -15.770  1.00  0.00     0.157 HD
ATOM     10  H11 UNL     1     -33.313 -61.963 -14.119  1.00  0.00     0.157 HD
BRANCH   7  11
HETATM   11  N2  UNL     1     -32.543 -64.282 -13.304  1.00  0.00    -0.323 N 
ATOM     12  H2  UNL     1     -32.557 -65.300 -13.248  1.00  0.00     0.169 HD
BRANCH  11  13
HETATM   13  C4  UNL     1     -32.577 -63.628 -12.073  1.00  0.00     0.187 A 
HETATM   14  O1  UNL     1     -31.663 -62.687 -11.768  1.00  0.00    -0.266 OA
HETATM   15  C5  UNL     1     -31.857 -62.202 -10.598  1.00  0.00     0.212 A 
HETATM   16  C6  UNL     1     -32.947 -62.804 -10.024  1.00  0.00     0.142 A 
HETATM   17  N3  UNL     1     -33.505 -62.575  -8.761  1.00  0.00    -0.094 NA
HETATM   18  C7  UNL     1     -33.394 -63.723 -11.000  1.00  0.00     0.147 A 
BRANCH  15  19
HETATM   19  O2  UNL     1     -31.041 -61.204 -10.041  1.00  0.00    -0.339 OA
ATOM     20  H2  UNL     1     -31.343 -60.316  -9.890  1.00  0.00     0.220 HD
ENDBRANCH  15  19
BRANCH  18  21
HETATM   21  O3  UNL     1     -34.474 -64.536 -10.825  1.00  0.00    -0.355 OA
ATOM     22  H3  UNL     1     -34.994 -64.669 -10.040  1.00  0.00     0.218 HD
ENDBRANCH  18  21
ENDBRANCH  11  13
ENDBRANCH   7  11
ENDBRANCH   5   7
ENDBRANCH   1   5
BRANCH   1  23
HETATM   23  C9  UNL     1     -29.551 -64.271 -16.126  1.00  0.00     0.195 C 
BRANCH  23  24
HETATM   24  O5  UNL     1     -28.806 -64.925 -16.968  1.00  0.00    -0.343 OA
ATOM     25  H5  UNL     1     -28.197 -65.554 -16.598  1.00  0.00     0.219 HD
ENDBRANCH  23  24
BRANCH  23  26
HETATM   26  C10 UNL     1     -28.853 -63.781 -14.971  1.00  0.00     0.190 A 
HETATM   27  N6  UNL     1     -27.490 -63.540 -14.964  1.00  0.00    -0.265 N 
HETATM   28  N7  UNL     1     -27.104 -63.105 -13.791  1.00  0.00    -0.218 N 
ATOM     29  H6  UNL     1     -26.870 -63.681 -15.762  1.00  0.00     0.190 HD
HETATM   30  N8  UNL     1     -28.182 -63.050 -13.015  1.00  0.00    -0.158 N 
ATOM     31  H7  UNL     1     -26.153 -62.854 -13.522  1.00  0.00     0.210 HD
HETATM   32  N12 UNL     1     -29.209 -63.455 -13.735  1.00  0.00    -0.256 N 
ATOM     33  H12 UNL     1     -30.164 -63.511 -13.383  1.00  0.00     0.191 HD
BRANCH  30  34
HETATM   34  C11 UNL     1     -28.197 -62.627 -11.659  1.00  0.00     0.214 A 
HETATM   35  N9  UNL     1     -28.059 -61.377 -11.200  1.00  0.00    -0.219 N 
HETATM   36  O6  UNL     1     -28.132 -61.407  -9.891  1.00  0.00    -0.153 OA
ATOM     37  H9  UNL     1     -27.921 -60.543 -11.771  1.00  0.00     0.198 HD
HETATM   38  N10 UNL     1     -28.312 -62.620  -9.458  1.00  0.00    -0.222 N 
HETATM   39  C12 UNL     1     -28.359 -63.426 -10.556  1.00  0.00     0.171 A 
ATOM     40  H10 UNL     1     -28.401 -62.912  -8.484  1.00  0.00     0.198 HD
BRANCH  39  41
HETATM   41  N11 UNL     1     -28.524 -64.682 -10.535  1.00  0.00    -0.381 N 
ATOM     42 2H11 UNL     1     -28.479 -65.268  -9.701  1.00  0.00     0.157 HD
ATOM     43 1H11 UNL     1     -28.723 -65.292 -11.327  1.00  0.00     0.157 HD
ENDBRANCH  39  41
ENDBRANCH  30  34
ENDBRANCH  23  26
ENDBRANCH   1  23
TORSDOF 11
ENDMDL
MODEL 4
REMARK VINA RESULT: -9.567297633      3.644      6.323
REMARK  11 active torsions:
REMARK  status: ('A' for Active; 'I' for Inactive)
REMARK    1  A    between atoms: C2_2  and  C3_3 
REMARK    2  A    between atoms: C2_2  and  N4_19 
REMARK    3  A    between atoms: C3_3  and  N2_7 
REMARK    4  A    between atoms: N2_7  and  C4_9 
REMARK    5  A    between atoms: C5_11  and  O2_12 
REMARK    6  A    between atoms: C7_16  and  O3_17 
REMARK       I    between atoms: N4_19  and  C8_20 
REMARK    7  A    between atoms: N4_19  and  C9_23 
REMARK    8  A    between atoms: C9_23  and  O5_24 
REMARK    9  A    between atoms: C9_23  and  C10_26 
REMARK   10  A    between atoms: N8_31  and  C11_32 
REMARK   11  A    between atoms: C12_38  and  N11_39 
ROOT
HETATM    1  N4  UNL     1     -36.887 -63.705 -10.300  1.00  0.00    -0.268 N 
HETATM    2  C8  UNL     1     -37.317 -65.049 -10.026  1.00  0.00     0.337 C 
HETATM    3  N5  UNL     1     -38.280 -65.358  -9.051  1.00  0.00    -0.039 NA
HETATM    4  O4  UNL     1     -36.827 -65.997 -10.672  1.00  0.00    -0.250 OA
ENDROOT
BRANCH   1   5
HETATM    5  C2  UNL     1     -35.924 -63.451 -11.337  1.00  0.00     0.159 C 
HETATM    6  C1  UNL     1     -36.127 -62.052 -11.847  1.00  0.00     0.041 C 
BRANCH   5   7
HETATM    7  C3  UNL     1     -34.502 -63.713 -10.916  1.00  0.00     0.100 C 
HETATM    8  N1  UNL     1     -33.931 -64.836 -10.866  1.00  0.00    -0.387 N 
ATOM      9  H12 UNL     1     -34.477 -65.671 -11.080  1.00  0.00     0.157 HD
ATOM     10  H11 UNL     1     -32.967 -65.013 -10.581  1.00  0.00     0.157 HD
BRANCH   7  11
HETATM   11  N2  UNL     1     -33.746 -62.558 -10.620  1.00  0.00    -0.323 N 
ATOM     12  H2  UNL     1     -34.291 -61.702 -10.525  1.00  0.00     0.169 HD
BRANCH  11  13
HETATM   13  C4  UNL     1     -32.372 -62.400 -10.436  1.00  0.00     0.187 A 
HETATM   14  O1  UNL     1     -31.890 -61.822  -9.319  1.00  0.00    -0.266 OA
HETATM   15  C5  UNL     1     -30.610 -61.766  -9.332  1.00  0.00     0.212 A 
HETATM   16  C6  UNL     1     -30.135 -62.319 -10.493  1.00  0.00     0.142 A 
HETATM   17  N3  UNL     1     -28.807 -62.462 -10.912  1.00  0.00    -0.094 NA
HETATM   18  C7  UNL     1     -31.297 -62.721 -11.190  1.00  0.00     0.147 A 
BRANCH  15  19
HETATM   19  O2  UNL     1     -29.860 -61.209  -8.282  1.00  0.00    -0.339 OA
ATOM     20  H2  UNL     1     -29.638 -61.692  -7.495  1.00  0.00     0.220 HD
ENDBRANCH  15  19
BRANCH  18  21
HETATM   21  O3  UNL     1     -31.267 -63.327 -12.411  1.00  0.00    -0.355 OA
ATOM     22  H3  UNL     1     -30.652 -63.193 -13.122  1.00  0.00     0.218 HD
ENDBRANCH  18  21
ENDBRANCH  11  13
ENDBRANCH   7  11
ENDBRANCH   5   7
ENDBRANCH   1   5
BRANCH   1  23
HETATM   23  C9  UNL     1     -37.451 -62.690  -9.535  1.00  0.00     0.195 C 
BRANCH  23  24
HETATM   24  O5  UNL     1     -38.671 -62.348  -9.828  1.00  0.00    -0.343 OA
ATOM     25  H5  UNL     1     -39.069 -61.680  -9.283  1.00  0.00     0.219 HD
ENDBRANCH  23  24
BRANCH  23  26
HETATM   26  C10 UNL     1     -36.871 -61.950  -8.451  1.00  0.00     0.190 A 
HETATM   27  N6  UNL     1     -35.756 -62.385  -7.755  1.00  0.00    -0.265 N 
HETATM   28  N7  UNL     1     -35.437 -61.531  -6.816  1.00  0.00    -0.218 N 
ATOM     29  H6  UNL     1     -35.253 -63.251  -7.947  1.00  0.00     0.190 HD
HETATM   30  N8  UNL     1     -36.314 -60.535  -6.870  1.00  0.00    -0.158 N 
ATOM     31  H7  UNL     1     -34.658 -61.615  -6.163  1.00  0.00     0.210 HD
HETATM   32  N12 UNL     1     -37.156 -60.802  -7.848  1.00  0.00    -0.256 N 
ATOM     33  H12 UNL     1     -37.935 -60.199  -8.110  1.00  0.00     0.191 HD
BRANCH  30  34
HETATM   34  C11 UNL     1     -36.321 -59.398  -6.018  1.00  0.00     0.214 A 
HETATM   35  N9  UNL     1     -35.978 -59.355  -4.724  1.00  0.00    -0.219 N 
HETATM   36  O6  UNL     1     -36.121 -58.122  -4.300  1.00  0.00    -0.153 OA
ATOM     37  H9  UNL     1     -35.660 -60.146  -4.164  1.00  0.00     0.198 HD
HETATM   38  N10 UNL     1     -36.543 -57.344  -5.252  1.00  0.00    -0.222 N 
HETATM   39  C12 UNL     1     -36.682 -58.121  -6.363  1.00  0.00     0.171 A 
ATOM     40  H10 UNL     1     -36.733 -56.344  -5.181  1.00  0.00     0.198 HD
BRANCH  39  41
HETATM   41  N11 UNL     1     -37.075 -57.714  -7.496  1.00  0.00    -0.381 N 
ATOM     42 2H11 UNL     1     -36.486 -57.262  -8.196  1.00  0.00     0.157 HD
ATOM     43 1H11 UNL     1     -38.018 -57.771  -7.881  1.00  0.00     0.157 HD
ENDBRANCH  39  41
ENDBRANCH  30  34
ENDBRANCH  23  26
ENDBRANCH   1  23
TORSDOF 11
ENDMDL
MODEL 5
REMARK VINA RESULT: -9.428467544      3.316      6.164
REMARK  11 active torsions:
REMARK  status: ('A' for Active; 'I' for Inactive)
REMARK    1  A    between atoms: C2_2  and  C3_3 
REMARK    2  A    between atoms: C2_2  and  N4_19 
REMARK    3  A    between atoms: C3_3  and  N2_7 
REMARK    4  A    between atoms: N2_7  and  C4_9 
REMARK    5  A    between atoms: C5_11  and  O2_12 
REMARK    6  A    between atoms: C7_16  and  O3_17 
REMARK       I    between atoms: N4_19  and  C8_20 
REMARK    7  A    between atoms: N4_19  and  C9_23 
REMARK    8  A    between atoms: C9_23  and  O5_24 
REMARK    9  A    between atoms: C9_23  and  C10_26 
REMARK   10  A    between atoms: N8_31  and  C11_32 
REMARK   11  A    between atoms: C12_38  and  N11_39 
ROOT
HETATM    1  N4  UNL     1     -36.581 -63.828 -10.487  1.00  0.00    -0.268 N 
HETATM    2  C8  UNL     1     -36.823 -65.188 -10.088  1.00  0.00     0.337 C 
HETATM    3  N5  UNL     1     -38.058 -65.627  -9.582  1.00  0.00    -0.039 NA
HETATM    4  O4  UNL     1     -35.910 -66.032 -10.188  1.00  0.00    -0.250 OA
ENDROOT
BRANCH   1   5
HETATM    5  C2  UNL     1     -35.307 -63.450 -11.031  1.00  0.00     0.159 C 
HETATM    6  C1  UNL     1     -35.487 -62.207 -11.857  1.00  0.00     0.041 C 
BRANCH   5   7
HETATM    7  C3  UNL     1     -34.227 -63.302  -9.991  1.00  0.00     0.100 C 
HETATM    8  N1  UNL     1     -34.392 -62.996  -8.778  1.00  0.00    -0.387 N 
ATOM      9  H12 UNL     1     -35.334 -62.775  -8.455  1.00  0.00     0.157 HD
ATOM     10  H11 UNL     1     -33.661 -62.896  -8.074  1.00  0.00     0.157 HD
BRANCH   7  11
HETATM   11  N2  UNL     1     -32.923 -63.607 -10.438  1.00  0.00    -0.323 N 
ATOM     12  H2  UNL     1     -32.846 -64.472 -10.971  1.00  0.00     0.169 HD
BRANCH  11  13
HETATM   13  C4  UNL     1     -31.725 -62.915 -10.268  1.00  0.00     0.187 A 
HETATM   14  O1  UNL     1     -31.477 -62.236  -9.131  1.00  0.00    -0.266 OA
HETATM   15  C5  UNL     1     -30.330 -61.667  -9.161  1.00  0.00     0.212 A 
HETATM   16  C6  UNL     1     -29.713 -61.934 -10.356  1.00  0.00     0.142 A 
HETATM   17  N3  UNL     1     -28.456 -61.511 -10.803  1.00  0.00    -0.094 NA
HETATM   18  C7  UNL     1     -30.638 -62.744 -11.053  1.00  0.00     0.147 A 
BRANCH  15  19
HETATM   19  O2  UNL     1     -29.832 -60.896  -8.097  1.00  0.00    -0.339 OA
ATOM     20  H2  UNL     1     -29.504 -61.280  -7.292  1.00  0.00     0.220 HD
ENDBRANCH  15  19
BRANCH  18  21
HETATM   21  O3  UNL     1     -30.408 -63.237 -12.304  1.00  0.00    -0.355 OA
ATOM     22  H3  UNL     1     -29.580 -63.474 -12.704  1.00  0.00     0.218 HD
ENDBRANCH  18  21
ENDBRANCH  11  13
ENDBRANCH   7  11
ENDBRANCH   5   7
ENDBRANCH   1   5
BRANCH   1  23
HETATM   23  C9  UNL     1     -37.629 -62.927 -10.334  1.00  0.00     0.195 C 
BRANCH  23  24
HETATM   24  O5  UNL     1     -38.580 -62.982 -11.219  1.00  0.00    -0.343 OA
ATOM     25  H5  UNL     1     -38.769 -62.179 -11.692  1.00  0.00     0.219 HD
ENDBRANCH  23  24
BRANCH  23  26
HETATM   26  C10 UNL     1     -37.816 -61.925  -9.323  1.00  0.00     0.190 A 
HETATM   27  N6  UNL     1     -39.030 -61.710  -8.694  1.00  0.00    -0.265 N 
HETATM   28  N7  UNL     1     -38.932 -60.739  -7.821  1.00  0.00    -0.218 N 
ATOM     29  H6  UNL     1     -39.884 -62.235  -8.884  1.00  0.00     0.190 HD
HETATM   30  N8  UNL     1     -37.678 -60.303  -7.854  1.00  0.00    -0.158 N 
ATOM     31  H7  UNL     1     -39.680 -60.384  -7.226  1.00  0.00     0.210 HD
HETATM   32  N12 UNL     1     -37.032 -61.020  -8.751  1.00  0.00    -0.256 N 
ATOM     33  H12 UNL     1     -36.046 -60.894  -8.979  1.00  0.00     0.191 HD
BRANCH  30  34
HETATM   34  C11 UNL     1     -37.153 -59.252  -7.055  1.00  0.00     0.214 A 
HETATM   35  N9  UNL     1     -37.389 -57.940  -7.186  1.00  0.00    -0.219 N 
HETATM   36  O6  UNL     1     -36.718 -57.304  -6.256  1.00  0.00    -0.153 OA
ATOM     37  H9  UNL     1     -37.988 -57.509  -7.890  1.00  0.00     0.198 HD
HETATM   38  N10 UNL     1     -36.047 -58.133  -5.511  1.00  0.00    -0.222 N 
HETATM   39  C12 UNL     1     -36.299 -59.384  -5.990  1.00  0.00     0.171 A 
ATOM     40  H10 UNL     1     -35.447 -57.892  -4.721  1.00  0.00     0.198 HD
BRANCH  39  41
HETATM   41  N11 UNL     1     -35.820 -60.457  -5.518  1.00  0.00    -0.381 N 
ATOM     42 2H11 UNL     1     -36.287 -61.364  -5.525  1.00  0.00     0.157 HD
ATOM     43 1H11 UNL     1     -34.913 -60.584  -5.068  1.00  0.00     0.157 HD
ENDBRANCH  39  41
ENDBRANCH  30  34
ENDBRANCH  23  26
ENDBRANCH   1  23
TORSDOF 11
ENDMDL
