MODEL 1
REMARK VINA RESULT: -7.222617054      0.000      0.000
REMARK  5 active torsions:
REMARK  status: ('A' for Active; 'I' for Inactive)
REMARK    1  A    between atoms: C6_9  and  O2_10 
REMARK    2  A    between atoms: O2_10  and  C7_11 
REMARK    3  A    between atoms: C7_11  and  C8_12 
REMARK    4  A    between atoms: C8_12  and  C9_13 
REMARK    5  A    between atoms: C9_13  and  C10_14 
ROOT
HETATM    1  C1  UNL     1      20.027  41.705  50.937  1.00  0.00     0.078 C 
HETATM    2  C2  UNL     1      20.030  42.476  52.203  1.00  0.00     0.075 A 
HETATM    3  O1  UNL     1      21.186  42.933  52.644  1.00  0.00    -0.311 OA
HETATM    4  C3  UNL     1      21.249  43.620  53.755  1.00  0.00     0.113 A 
HETATM    5  C4  UNL     1      22.472  44.076  54.177  1.00  0.00     0.093 A 
HETATM    6 CL1  UNL     1      23.903  43.727  53.217  1.00  0.00    -0.079 Cl
HETATM    7  C5  UNL     1      22.570  44.796  55.333  1.00  0.00     0.091 A 
HETATM    8 CL2  UNL     1      24.142  45.376  55.860  1.00  0.00    -0.079 Cl
HETATM    9  C6  UNL     1      21.473  45.111  56.146  1.00  0.00     0.093 A 
HETATM   10  C11 UNL     1      20.264  44.636  55.694  1.00  0.00     0.057 A 
HETATM   11  C12 UNL     1      20.132  43.897  54.512  1.00  0.00     0.054 A 
HETATM   12  C13 UNL     1      18.917  43.428  54.070  1.00  0.00     0.209 A 
HETATM   13  O5  UNL     1      17.868  43.656  54.727  1.00  0.00    -0.286 OA
HETATM   14  C14 UNL     1      18.864  42.713  52.908  1.00  0.00     0.114 A 
HETATM   15 CL3  UNL     1      17.374  42.070  52.254  1.00  0.00    -0.077 Cl
ENDROOT
BRANCH   9  16
HETATM   16  O2  UNL     1      21.704  45.827  57.267  1.00  0.00    -0.349 OA
BRANCH  16  17
HETATM   17  C7  UNL     1      21.506  45.523  58.594  1.00  0.00     0.176 C 
BRANCH  17  18
HETATM   18  C8  UNL     1      21.895  44.125  58.927  1.00  0.00     0.037 C 
BRANCH  18  19
HETATM   19  C9  UNL     1      20.684  43.315  59.269  1.00  0.00     0.115 C 
BRANCH  19  20
HETATM   20  C10 UNL     1      20.564  42.914  60.657  1.00  0.00     0.172 C 
HETATM   21  O3  UNL     1      21.465  42.558  61.441  1.00  0.00    -0.648 OA
HETATM   22  O4  UNL     1      19.268  42.920  61.218  1.00  0.00    -0.648 OA
ENDBRANCH  19  20
ENDBRANCH  18  19
ENDBRANCH  17  18
ENDBRANCH  16  17
ENDBRANCH   9  16
TORSDOF 5
ENDMDL
MODEL 2
REMARK VINA RESULT: -7.119888305      3.057      7.062
REMARK  5 active torsions:
REMARK  status: ('A' for Active; 'I' for Inactive)
REMARK    1  A    between atoms: C6_9  and  O2_10 
REMARK    2  A    between atoms: O2_10  and  C7_11 
REMARK    3  A    between atoms: C7_11  and  C8_12 
REMARK    4  A    between atoms: C8_12  and  C9_13 
REMARK    5  A    between atoms: C9_13  and  C10_14 
ROOT
HETATM    1  C1  UNL     1      25.578  44.909  57.299  1.00  0.00     0.078 C 
HETATM    2  C2  UNL     1      24.727  44.601  56.125  1.00  0.00     0.075 A 
HETATM    3  O1  UNL     1      23.428  44.480  56.319  1.00  0.00    -0.311 OA
HETATM    4  C3  UNL     1      22.629  44.208  55.320  1.00  0.00     0.113 A 
HETATM    5  C4  UNL     1      21.284  44.090  55.567  1.00  0.00     0.093 A 
HETATM    6 CL1  UNL     1      20.685  44.308  57.205  1.00  0.00    -0.079 Cl
HETATM    7  C5  UNL     1      20.425  43.807  54.545  1.00  0.00     0.091 A 
HETATM    8 CL2  UNL     1      18.706  43.661  54.875  1.00  0.00    -0.079 Cl
HETATM    9  C6  UNL     1      20.833  43.621  53.217  1.00  0.00     0.093 A 
HETATM   10  C11 UNL     1      22.187  43.745  53.007  1.00  0.00     0.057 A 
HETATM   11  C12 UNL     1      23.093  44.035  54.035  1.00  0.00     0.054 A 
HETATM   12  C13 UNL     1      24.444  44.157  53.811  1.00  0.00     0.209 A 
HETATM   13  O5  UNL     1      24.915  44.009  52.653  1.00  0.00    -0.286 OA
HETATM   14  C14 UNL     1      25.268  44.441  54.862  1.00  0.00     0.114 A 
HETATM   15 CL3  UNL     1      27.000  44.618  54.692  1.00  0.00    -0.077 Cl
ENDROOT
BRANCH   9  16
HETATM   16  O2  UNL     1      19.884  43.342  52.299  1.00  0.00    -0.349 OA
BRANCH  16  17
HETATM   17  C7  UNL     1      19.704  42.249  51.484  1.00  0.00     0.176 C 
BRANCH  17  18
HETATM   18  C8  UNL     1      18.959  41.148  52.155  1.00  0.00     0.037 C 
BRANCH  18  19
HETATM   19  C9  UNL     1      17.812  40.701  51.304  1.00  0.00     0.115 C 
BRANCH  19  20
HETATM   20  C10 UNL     1      17.460  39.298  51.406  1.00  0.00     0.172 C 
HETATM   21  O3  UNL     1      16.770  38.734  52.278  1.00  0.00    -0.648 OA
HETATM   22  O4  UNL     1      17.949  38.438  50.399  1.00  0.00    -0.648 OA
ENDBRANCH  19  20
ENDBRANCH  18  19
ENDBRANCH  17  18
ENDBRANCH  16  17
ENDBRANCH   9  16
TORSDOF 5
ENDMDL
MODEL 3
REMARK VINA RESULT: -7.061417421      1.021      1.093
REMARK  5 active torsions:
REMARK  status: ('A' for Active; 'I' for Inactive)
REMARK    1  A    between atoms: C6_9  and  O2_10 
REMARK    2  A    between atoms: O2_10  and  C7_11 
REMARK    3  A    between atoms: C7_11  and  C8_12 
REMARK    4  A    between atoms: C8_12  and  C9_13 
REMARK    5  A    between atoms: C9_13  and  C10_14 
ROOT
HETATM    1  C1  UNL     1      20.049  41.839  51.113  1.00  0.00     0.078 C 
HETATM    2  C2  UNL     1      20.113  42.624  52.368  1.00  0.00     0.075 A 
HETATM    3  O1  UNL     1      21.293  43.060  52.764  1.00  0.00    -0.311 OA
HETATM    4  C3  UNL     1      21.409  43.758  53.863  1.00  0.00     0.113 A 
HETATM    5  C4  UNL     1      22.656  44.192  54.238  1.00  0.00     0.093 A 
HETATM    6 CL1  UNL     1      24.045  43.799  53.234  1.00  0.00    -0.079 Cl
HETATM    7  C5  UNL     1      22.810  44.922  55.381  1.00  0.00     0.091 A 
HETATM    8 CL2  UNL     1      24.411  45.472  55.847  1.00  0.00    -0.079 Cl
HETATM    9  C6  UNL     1      21.749  45.271  56.227  1.00  0.00     0.093 A 
HETATM   10  C11 UNL     1      20.515  44.818  55.822  1.00  0.00     0.057 A 
HETATM   11  C12 UNL     1      20.326  44.068  54.655  1.00  0.00     0.054 A 
HETATM   12  C13 UNL     1      19.086  43.622  54.261  1.00  0.00     0.209 A 
HETATM   13  O5  UNL     1      18.065  43.880  54.950  1.00  0.00    -0.286 OA
HETATM   14  C14 UNL     1      18.977  42.895  53.110  1.00  0.00     0.114 A 
HETATM   15 CL3  UNL     1      17.452  42.278  52.515  1.00  0.00    -0.077 Cl
ENDROOT
BRANCH   9  16
HETATM   16  O2  UNL     1      22.034  45.994  57.331  1.00  0.00    -0.349 OA
BRANCH  16  17
HETATM   17  C7  UNL     1      21.219  46.524  58.304  1.00  0.00     0.176 C 
BRANCH  17  18
HETATM   18  C8  UNL     1      21.393  45.857  59.624  1.00  0.00     0.037 C 
BRANCH  18  19
HETATM   19  C9  UNL     1      20.106  45.241  60.071  1.00  0.00     0.115 C 
BRANCH  19  20
HETATM   20  C10 UNL     1      19.760  43.979  59.445  1.00  0.00     0.172 C 
HETATM   21  O3  UNL     1      20.524  43.112  58.976  1.00  0.00    -0.648 OA
HETATM   22  O4  UNL     1      18.387  43.667  59.343  1.00  0.00    -0.648 OA
ENDBRANCH  19  20
ENDBRANCH  18  19
ENDBRANCH  17  18
ENDBRANCH  16  17
ENDBRANCH   9  16
TORSDOF 5
ENDMDL
MODEL 4
REMARK VINA RESULT: -6.971142559      2.818      7.623
REMARK  5 active torsions:
REMARK  status: ('A' for Active; 'I' for Inactive)
REMARK    1  A    between atoms: C6_9  and  O2_10 
REMARK    2  A    between atoms: O2_10  and  C7_11 
REMARK    3  A    between atoms: C7_11  and  C8_12 
REMARK    4  A    between atoms: C8_12  and  C9_13 
REMARK    5  A    between atoms: C9_13  and  C10_14 
ROOT
HETATM    1  C1  UNL     1      22.154  45.350  57.819  1.00  0.00     0.078 C 
HETATM    2  C2  UNL     1      22.023  44.750  56.470  1.00  0.00     0.075 A 
HETATM    3  O1  UNL     1      20.812  44.450  56.043  1.00  0.00    -0.311 OA
HETATM    4  C3  UNL     1      20.636  43.917  54.862  1.00  0.00     0.113 A 
HETATM    5  C4  UNL     1      19.359  43.620  54.457  1.00  0.00     0.093 A 
HETATM    6 CL1  UNL     1      18.011  43.964  55.532  1.00  0.00    -0.079 Cl
HETATM    7  C5  UNL     1      19.144  43.065  53.229  1.00  0.00     0.091 A 
HETATM    8 CL2  UNL     1      17.504  42.692  52.724  1.00  0.00    -0.079 Cl
HETATM    9  C6  UNL     1      20.170  42.765  52.323  1.00  0.00     0.093 A 
HETATM   10  C11 UNL     1      21.436  43.074  52.762  1.00  0.00     0.057 A 
HETATM   11  C12 UNL     1      21.688  43.645  54.015  1.00  0.00     0.054 A 
HETATM   12  C13 UNL     1      22.960  43.950  54.441  1.00  0.00     0.209 A 
HETATM   13  O5  UNL     1      23.953  43.721  53.704  1.00  0.00    -0.286 OA
HETATM   14  C14 UNL     1      23.129  44.506  55.678  1.00  0.00     0.114 A 
HETATM   15 CL3  UNL     1      24.700  44.933  56.320  1.00  0.00    -0.077 Cl
ENDROOT
BRANCH   9  16
HETATM   16  O2  UNL     1      19.824  42.212  51.141  1.00  0.00    -0.349 OA
BRANCH  16  17
HETATM   17  C7  UNL     1      19.925  40.920  50.679  1.00  0.00     0.176 C 
BRANCH  17  18
HETATM   18  C8  UNL     1      18.750  40.085  51.051  1.00  0.00     0.037 C 
BRANCH  18  19
HETATM   19  C9  UNL     1      17.695  40.170  49.994  1.00  0.00     0.115 C 
BRANCH  19  20
HETATM   20  C10 UNL     1      17.147  38.904  49.546  1.00  0.00     0.172 C 
HETATM   21  O3  UNL     1      16.374  38.689  48.591  1.00  0.00    -0.648 OA
HETATM   22  O4  UNL     1      17.522  37.750  50.268  1.00  0.00    -0.648 OA
ENDBRANCH  19  20
ENDBRANCH  18  19
ENDBRANCH  17  18
ENDBRANCH  16  17
ENDBRANCH   9  16
TORSDOF 5
ENDMDL
MODEL 5
REMARK VINA RESULT: -6.754788970      3.702      7.032
REMARK  5 active torsions:
REMARK  status: ('A' for Active; 'I' for Inactive)
REMARK    1  A    between atoms: C6_9  and  O2_10 
REMARK    2  A    between atoms: O2_10  and  C7_11 
REMARK    3  A    between atoms: C7_11  and  C8_12 
REMARK    4  A    between atoms: C8_12  and  C9_13 
REMARK    5  A    between atoms: C9_13  and  C10_14 
ROOT
HETATM    1  C1  UNL     1      28.333  44.926  55.862  1.00  0.00     0.078 C 
HETATM    2  C2  UNL     1      27.060  44.735  55.128  1.00  0.00     0.075 A 
HETATM    3  O1  UNL     1      25.942  44.705  55.827  1.00  0.00    -0.311 OA
HETATM    4  C3  UNL     1      24.790  44.539  55.233  1.00  0.00     0.113 A 
HETATM    5  C4  UNL     1      23.652  44.515  56.000  1.00  0.00     0.093 A 
HETATM    6 CL1  UNL     1      23.781  44.706  57.743  1.00  0.00    -0.079 Cl
HETATM    7  C5  UNL     1      22.434  44.344  55.408  1.00  0.00     0.091 A 
HETATM    8 CL2  UNL     1      20.986  44.316  56.402  1.00  0.00    -0.079 Cl
HETATM    9  C6  UNL     1      22.257  44.185  54.027  1.00  0.00     0.093 A 
HETATM   10  C11 UNL     1      23.419  44.214  53.290  1.00  0.00     0.057 A 
HETATM   11  C12 UNL     1      24.682  44.389  53.868  1.00  0.00     0.054 A 
HETATM   12  C13 UNL     1      25.835  44.416  53.120  1.00  0.00     0.209 A 
HETATM   13  O5  UNL     1      25.789  44.283  51.869  1.00  0.00    -0.286 OA
HETATM   14  C14 UNL     1      27.033  44.590  53.753  1.00  0.00     0.114 A 
HETATM   15 CL3  UNL     1      28.560  44.640  52.900  1.00  0.00    -0.077 Cl
ENDROOT
BRANCH   9  16
HETATM   16  O2  UNL     1      20.999  44.020  53.567  1.00  0.00    -0.349 OA
BRANCH  16  17
HETATM   17  C7  UNL     1      20.304  42.887  53.214  1.00  0.00     0.176 C 
BRANCH  17  18
HETATM   18  C8  UNL     1      19.907  42.881  51.779  1.00  0.00     0.037 C 
BRANCH  18  19
HETATM   19  C9  UNL     1      19.741  41.477  51.290  1.00  0.00     0.115 C 
BRANCH  19  20
HETATM   20  C10 UNL     1      18.572  40.772  51.780  1.00  0.00     0.172 C 
HETATM   21  O3  UNL     1      18.504  39.618  52.248  1.00  0.00    -0.648 OA
HETATM   22  O4  UNL     1      17.340  41.459  51.732  1.00  0.00    -0.648 OA
ENDBRANCH  19  20
ENDBRANCH  18  19
ENDBRANCH  17  18
ENDBRANCH  16  17
ENDBRANCH   9  16
TORSDOF 5
ENDMDL
