MODEL 1
REMARK VINA RESULT: -7.149251919      0.000      0.000
REMARK  5 active torsions:
REMARK  status: ('A' for Active; 'I' for Inactive)
REMARK    1  A    between atoms: C2_2  and  C3_3 
REMARK    2  A    between atoms: C3_3  and  N1_4 
REMARK    3  A    between atoms: N1_4  and  C4_6 
REMARK    4  A    between atoms: C7_9  and  N2_10 
REMARK    5  A    between atoms: C13_19  and  C14_20 
ROOT
HETATM    1  C4  UNL     1      20.689  43.410  54.500  1.00  0.00     0.058 A 
HETATM    2  C5  UNL     1      21.686  43.628  53.579  1.00  0.00     0.034 A 
HETATM    3  C6  UNL     1      22.902  44.205  53.970  1.00  0.00     0.034 A 
HETATM    4  C7  UNL     1      23.136  44.561  55.265  1.00  0.00     0.067 A 
HETATM    5  C12 UNL     1      22.150  44.351  56.206  1.00  0.00     0.133 A 
HETATM    6  O1  UNL     1      22.095  44.587  57.498  1.00  0.00    -0.288 OA
HETATM    7  C13 UNL     1      20.932  44.205  57.960  1.00  0.00     0.180 A 
HETATM    8  N4  UNL     1      20.220  43.708  56.928  1.00  0.00    -0.332 N 
ATOM      9  H4  UNL     1      19.273  43.332  56.983  1.00  0.00     0.168 HD
HETATM   10  C15 UNL     1      20.964  43.790  55.820  1.00  0.00     0.097 A 
ENDROOT
BRANCH   4  11
HETATM   11  N2  UNL     1      24.397  45.118  55.641  1.00  0.00    -0.372 N 
HETATM   12  C8  UNL     1      25.418  44.382  56.304  1.00  0.00     0.143 C 
HETATM   13  C9  UNL     1      26.298  45.306  57.069  1.00  0.00     0.138 C 
HETATM   14  N3  UNL     1      26.824  46.417  56.322  1.00  0.00    -0.399 N 
HETATM   15  C10 UNL     1      25.968  47.004  55.377  1.00  0.00     0.075 C 
ATOM     16  H3  UNL     1      27.773  46.761  56.472  1.00  0.00     0.158 HD
HETATM   17  C11 UNL     1      24.581  46.516  55.336  1.00  0.00     0.167 C 
ENDBRANCH   4  11
BRANCH   1  18
HETATM   18  N1  UNL     1      19.448  42.879  54.144  1.00  0.00    -0.388 N 
ATOM     19  H1  UNL     1      18.965  42.404  54.906  1.00  0.00     0.159 HD
BRANCH  18  20
HETATM   20  C3  UNL     1      18.737  42.880  52.918  1.00  0.00     0.119 C 
BRANCH  20  21
HETATM   21  C2  UNL     1      18.789  41.656  52.101  1.00  0.00     0.015 C 
HETATM   22  C1  UNL     1      19.900  41.572  51.087  1.00  0.00     0.006 C 
ENDBRANCH  20  21
ENDBRANCH  18  20
ENDBRANCH   1  18
BRANCH   7  23
HETATM   23  C14 UNL     1      20.491  44.316  59.390  1.00  0.00     0.253 C 
HETATM   24 CL1  UNL     1      20.967  45.876  60.056  1.00  0.00    -0.075 Cl
HETATM   25 CL2  UNL     1      21.287  43.005  60.336  1.00  0.00    -0.075 Cl
HETATM   26 CL3  UNL     1      18.752  44.102  59.559  1.00  0.00    -0.075 Cl
ENDBRANCH   7  23
TORSDOF 5
ENDMDL
MODEL 2
REMARK VINA RESULT: -7.147899113      0.059      1.036
REMARK  5 active torsions:
REMARK  status: ('A' for Active; 'I' for Inactive)
REMARK    1  A    between atoms: C2_2  and  C3_3 
REMARK    2  A    between atoms: C3_3  and  N1_4 
REMARK    3  A    between atoms: N1_4  and  C4_6 
REMARK    4  A    between atoms: C7_9  and  N2_10 
REMARK    5  A    between atoms: C13_19  and  C14_20 
ROOT
HETATM    1  C4  UNL     1      20.674  43.424  54.509  1.00  0.00     0.058 A 
HETATM    2  C5  UNL     1      21.670  43.656  53.591  1.00  0.00     0.034 A 
HETATM    3  C6  UNL     1      22.887  44.224  53.989  1.00  0.00     0.034 A 
HETATM    4  C7  UNL     1      23.126  44.557  55.289  1.00  0.00     0.067 A 
HETATM    5  C12 UNL     1      22.141  44.332  56.229  1.00  0.00     0.133 A 
HETATM    6  O1  UNL     1      22.089  44.544  57.525  1.00  0.00    -0.288 OA
HETATM    7  C13 UNL     1      20.926  44.156  57.983  1.00  0.00     0.180 A 
HETATM    8  N4  UNL     1      20.211  43.679  56.943  1.00  0.00    -0.332 N 
ATOM      9  H4  UNL     1      19.264  43.305  56.993  1.00  0.00     0.168 HD
HETATM   10  C15 UNL     1      20.953  43.780  55.836  1.00  0.00     0.097 A 
ENDROOT
BRANCH   4  11
HETATM   11  N2  UNL     1      24.388  45.104  55.673  1.00  0.00    -0.372 N 
HETATM   12  C8  UNL     1      25.405  44.358  56.332  1.00  0.00     0.143 C 
HETATM   13  C9  UNL     1      26.288  45.271  57.106  1.00  0.00     0.138 C 
HETATM   14  N3  UNL     1      26.821  46.385  56.369  1.00  0.00    -0.399 N 
HETATM   15  C10 UNL     1      25.970  46.985  55.427  1.00  0.00     0.075 C 
ATOM     16  H3  UNL     1      27.771  46.723  56.523  1.00  0.00     0.158 HD
HETATM   17  C11 UNL     1      24.580  46.503  55.379  1.00  0.00     0.167 C 
ENDBRANCH   4  11
BRANCH   1  18
HETATM   18  N1  UNL     1      19.431  42.903  54.147  1.00  0.00    -0.388 N 
ATOM     19  H1  UNL     1      18.918  42.476  54.918  1.00  0.00     0.159 HD
BRANCH  18  20
HETATM   20  C3  UNL     1      18.752  42.857  52.903  1.00  0.00     0.119 C 
BRANCH  20  21
HETATM   21  C2  UNL     1      18.840  41.609  52.127  1.00  0.00     0.015 C 
HETATM   22  C1  UNL     1      19.926  41.542  51.084  1.00  0.00     0.006 C 
ENDBRANCH  20  21
ENDBRANCH  18  20
ENDBRANCH   1  18
BRANCH   7  23
HETATM   23  C14 UNL     1      20.489  44.243  59.415  1.00  0.00     0.253 C 
HETATM   24 CL1  UNL     1      21.265  42.981  60.368  1.00  0.00    -0.075 Cl
HETATM   25 CL2  UNL     1      18.703  44.016  59.482  1.00  0.00    -0.075 Cl
HETATM   26 CL3  UNL     1      20.843  45.820  60.115  1.00  0.00    -0.075 Cl
ENDBRANCH   7  23
TORSDOF 5
ENDMDL
MODEL 3
REMARK VINA RESULT: -7.143373494      0.228      1.045
REMARK  5 active torsions:
REMARK  status: ('A' for Active; 'I' for Inactive)
REMARK    1  A    between atoms: C2_2  and  C3_3 
REMARK    2  A    between atoms: C3_3  and  N1_4 
REMARK    3  A    between atoms: N1_4  and  C4_6 
REMARK    4  A    between atoms: C7_9  and  N2_10 
REMARK    5  A    between atoms: C13_19  and  C14_20 
ROOT
HETATM    1  C4  UNL     1      20.780  43.417  54.564  1.00  0.00     0.058 A 
HETATM    2  C5  UNL     1      21.799  43.679  53.679  1.00  0.00     0.034 A 
HETATM    3  C6  UNL     1      22.984  44.284  54.117  1.00  0.00     0.034 A 
HETATM    4  C7  UNL     1      23.167  44.626  55.424  1.00  0.00     0.067 A 
HETATM    5  C12 UNL     1      22.159  44.372  56.330  1.00  0.00     0.133 A 
HETATM    6  O1  UNL     1      22.056  44.584  57.623  1.00  0.00    -0.288 OA
HETATM    7  C13 UNL     1      20.890  44.161  58.042  1.00  0.00     0.180 A 
HETATM    8  N4  UNL     1      20.226  43.661  56.980  1.00  0.00    -0.332 N 
ATOM      9  H4  UNL     1      19.290  43.258  56.999  1.00  0.00     0.168 HD
HETATM   10  C15 UNL     1      21.002  43.784  55.898  1.00  0.00     0.097 A 
ENDROOT
BRANCH   4  11
HETATM   11  N2  UNL     1      24.399  45.212  55.849  1.00  0.00    -0.372 N 
HETATM   12  C8  UNL     1      24.712  46.591  55.693  1.00  0.00     0.143 C 
HETATM   13  C9  UNL     1      26.187  46.778  55.657  1.00  0.00     0.138 C 
HETATM   14  N3  UNL     1      26.913  46.173  56.741  1.00  0.00    -0.399 N 
HETATM   15  C10 UNL     1      26.450  44.928  57.194  1.00  0.00     0.075 C 
ATOM     16  H3  UNL     1      27.725  46.627  57.160  1.00  0.00     0.158 HD
HETATM   17  C11 UNL     1      25.355  44.304  56.434  1.00  0.00     0.167 C 
ENDBRANCH   4  11
BRANCH   1  18
HETATM   18  N1  UNL     1      19.567  42.857  54.160  1.00  0.00    -0.388 N 
ATOM     19  H1  UNL     1      19.154  42.221  54.843  1.00  0.00     0.159 HD
BRANCH  18  20
HETATM   20  C3  UNL     1      18.803  43.010  52.976  1.00  0.00     0.119 C 
BRANCH  20  21
HETATM   21  C2  UNL     1      18.741  41.862  52.055  1.00  0.00     0.015 C 
HETATM   22  C1  UNL     1      19.909  41.689  51.118  1.00  0.00     0.006 C 
ENDBRANCH  20  21
ENDBRANCH  18  20
ENDBRANCH   1  18
BRANCH   7  23
HETATM   23  C14 UNL     1      20.402  44.236  59.458  1.00  0.00     0.253 C 
HETATM   24 CL1  UNL     1      20.869  45.771  60.185  1.00  0.00    -0.075 Cl
HETATM   25 CL2  UNL     1      21.153  42.891  60.393  1.00  0.00    -0.075 Cl
HETATM   26 CL3  UNL     1      18.656  44.035  59.563  1.00  0.00    -0.075 Cl
ENDBRANCH   7  23
TORSDOF 5
ENDMDL
MODEL 4
REMARK VINA RESULT: -7.127749581      0.158      1.461
REMARK  5 active torsions:
REMARK  status: ('A' for Active; 'I' for Inactive)
REMARK    1  A    between atoms: C2_2  and  C3_3 
REMARK    2  A    between atoms: C3_3  and  N1_4 
REMARK    3  A    between atoms: N1_4  and  C4_6 
REMARK    4  A    between atoms: C7_9  and  N2_10 
REMARK    5  A    between atoms: C13_19  and  C14_20 
ROOT
HETATM    1  C4  UNL     1      20.745  43.406  54.524  1.00  0.00     0.058 A 
HETATM    2  C5  UNL     1      21.740  43.661  53.610  1.00  0.00     0.034 A 
HETATM    3  C6  UNL     1      22.938  44.267  54.013  1.00  0.00     0.034 A 
HETATM    4  C7  UNL     1      23.156  44.617  55.312  1.00  0.00     0.067 A 
HETATM    5  C12 UNL     1      22.172  44.371  56.246  1.00  0.00     0.133 A 
HETATM    6  O1  UNL     1      22.104  44.591  57.540  1.00  0.00    -0.288 OA
HETATM    7  C13 UNL     1      20.950  44.173  57.993  1.00  0.00     0.180 A 
HETATM    8  N4  UNL     1      20.257  43.666  56.952  1.00  0.00    -0.332 N 
ATOM      9  H4  UNL     1      19.321  43.264  56.999  1.00  0.00     0.168 HD
HETATM   10  C15 UNL     1      21.003  43.781  55.849  1.00  0.00     0.097 A 
ENDROOT
BRANCH   4  11
HETATM   11  N2  UNL     1      24.399  45.204  55.700  1.00  0.00    -0.372 N 
HETATM   12  C8  UNL     1      24.717  46.578  55.509  1.00  0.00     0.143 C 
HETATM   13  C9  UNL     1      26.192  46.755  55.440  1.00  0.00     0.138 C 
HETATM   14  N3  UNL     1      26.936  46.169  56.522  1.00  0.00    -0.399 N 
HETATM   15  C10 UNL     1      26.476  44.936  57.010  1.00  0.00     0.075 C 
ATOM     16  H3  UNL     1      27.759  46.626  56.915  1.00  0.00     0.158 HD
HETATM   17  C11 UNL     1      25.362  44.303  56.285  1.00  0.00     0.167 C 
ENDBRANCH   4  11
BRANCH   1  18
HETATM   18  N1  UNL     1      19.521  42.845  54.156  1.00  0.00    -0.388 N 
ATOM     19  H1  UNL     1      19.086  42.281  54.887  1.00  0.00     0.159 HD
BRANCH  18  20
HETATM   20  C3  UNL     1      18.773  42.915  52.955  1.00  0.00     0.119 C 
BRANCH  20  21
HETATM   21  C2  UNL     1      18.770  41.726  52.086  1.00  0.00     0.015 C 
HETATM   22  C1  UNL     1      19.901  41.615  51.096  1.00  0.00     0.006 C 
ENDBRANCH  20  21
ENDBRANCH  18  20
ENDBRANCH   1  18
BRANCH   7  23
HETATM   23  C14 UNL     1      20.500  44.257  59.421  1.00  0.00     0.253 C 
HETATM   24 CL1  UNL     1      21.270  42.996  60.380  1.00  0.00    -0.075 Cl
HETATM   25 CL2  UNL     1      18.713  44.026  59.472  1.00  0.00    -0.075 Cl
HETATM   26 CL3  UNL     1      20.844  45.834  60.126  1.00  0.00    -0.075 Cl
ENDBRANCH   7  23
TORSDOF 5
ENDMDL
MODEL 5
REMARK VINA RESULT: -7.120430808      0.079      1.052
REMARK  5 active torsions:
REMARK  status: ('A' for Active; 'I' for Inactive)
REMARK    1  A    between atoms: C2_2  and  C3_3 
REMARK    2  A    between atoms: C3_3  and  N1_4 
REMARK    3  A    between atoms: N1_4  and  C4_6 
REMARK    4  A    between atoms: C7_9  and  N2_10 
REMARK    5  A    between atoms: C13_19  and  C14_20 
ROOT
HETATM    1  C4  UNL     1      20.645  43.405  54.453  1.00  0.00     0.058 A 
HETATM    2  C5  UNL     1      21.640  43.646  53.537  1.00  0.00     0.034 A 
HETATM    3  C6  UNL     1      22.852  44.223  53.938  1.00  0.00     0.034 A 
HETATM    4  C7  UNL     1      23.085  44.557  55.240  1.00  0.00     0.067 A 
HETATM    5  C12 UNL     1      22.100  44.323  56.177  1.00  0.00     0.133 A 
HETATM    6  O1  UNL     1      22.043  44.534  57.473  1.00  0.00    -0.288 OA
HETATM    7  C13 UNL     1      20.882  44.135  57.927  1.00  0.00     0.180 A 
HETATM    8  N4  UNL     1      20.173  43.654  56.886  1.00  0.00    -0.332 N 
ATOM      9  H4  UNL     1      19.229  43.271  56.933  1.00  0.00     0.168 HD
HETATM   10  C15 UNL     1      20.917  43.762  55.780  1.00  0.00     0.097 A 
ENDROOT
BRANCH   4  11
HETATM   11  N2  UNL     1      24.342  45.114  55.627  1.00  0.00    -0.372 N 
HETATM   12  C8  UNL     1      25.346  44.387  56.324  1.00  0.00     0.143 C 
HETATM   13  C9  UNL     1      26.218  45.322  57.084  1.00  0.00     0.138 C 
HETATM   14  N3  UNL     1      26.764  46.413  56.323  1.00  0.00    -0.399 N 
HETATM   15  C10 UNL     1      25.929  46.985  55.351  1.00  0.00     0.075 C 
ATOM     16  H3  UNL     1      27.712  46.755  56.482  1.00  0.00     0.158 HD
HETATM   17  C11 UNL     1      24.540  46.504  55.295  1.00  0.00     0.167 C 
ENDBRANCH   4  11
BRANCH   1  18
HETATM   18  N1  UNL     1      19.407  42.874  54.087  1.00  0.00    -0.388 N 
ATOM     19  H1  UNL     1      18.931  42.372  54.837  1.00  0.00     0.159 HD
BRANCH  18  20
HETATM   20  C3  UNL     1      18.691  42.903  52.864  1.00  0.00     0.119 C 
BRANCH  20  21
HETATM   21  C2  UNL     1      18.731  41.694  52.024  1.00  0.00     0.015 C 
HETATM   22  C1  UNL     1      19.870  41.597  51.042  1.00  0.00     0.006 C 
ENDBRANCH  20  21
ENDBRANCH  18  20
ENDBRANCH   1  18
BRANCH   7  23
HETATM   23  C14 UNL     1      20.441  44.217  59.359  1.00  0.00     0.253 C 
HETATM   24 CL1  UNL     1      18.696  44.009  59.473  1.00  0.00    -0.075 Cl
HETATM   25 CL2  UNL     1      20.883  45.841  60.002  1.00  0.00    -0.075 Cl
HETATM   26 CL3  UNL     1      21.250  43.018  60.364  1.00  0.00    -0.075 Cl
ENDBRANCH   7  23
TORSDOF 5
ENDMDL
