MODEL 1
REMARK VINA RESULT: -6.539212053      0.000      0.000
REMARK  9 active torsions:
REMARK  status: ('A' for Active; 'I' for Inactive)
REMARK    1  A    between atoms: N1_1  and  C1_4 
REMARK    2  A    between atoms: C4_11  and  N5_12 
REMARK    3  A    between atoms: N5_12  and  C5_14 
REMARK    4  A    between atoms: C5_14  and  C6_15 
REMARK    5  A    between atoms: C5_14  and  C7_20 
REMARK    6  A    between atoms: C6_15  and  N6_16 
REMARK    7  A    between atoms: C7_20  and  C8_21 
REMARK    8  A    between atoms: C8_21  and  O1_22 
REMARK    9  A    between atoms: N7_24  and  O2_25 
ROOT
HETATM    1  C1  UNL     1      36.468  28.273  13.631  1.00  0.00     0.705 A 
HETATM    2  N2  UNL     1      36.288  27.231  12.807  1.00  0.00    -0.175 N 
ATOM      3  H2  UNL     1      35.613  26.496  13.016  1.00  0.00     0.185 HD
HETATM    4  C2  UNL     1      37.036  27.199  11.696  1.00  0.00     0.160 A 
HETATM    5  N3  UNL     1      36.868  26.104  10.799  1.00  0.00    -0.080 NA
HETATM    6  C3  UNL     1      37.932  28.170  11.417  1.00  0.00     0.134 A 
HETATM    7  N4  UNL     1      38.687  28.075  10.231  1.00  0.00    -0.095 NA
HETATM    8  C4  UNL     1      38.119  29.262  12.283  1.00  0.00     0.175 A 
HETATM    9  N7  UNL     1      37.352  29.259  13.384  1.00  0.00    -0.034 N 
ENDROOT
BRANCH   8  10
HETATM   10  N5  UNL     1      38.958  30.120  11.969  1.00  0.00    -0.366 N 
ATOM     11  H5  UNL     1      38.597  30.768  11.270  1.00  0.00     0.161 HD
BRANCH  10  12
HETATM   12  C5  UNL     1      40.276  30.423  12.333  1.00  0.00     0.110 C 
BRANCH  12  13
HETATM   13  C6  UNL     1      41.171  30.693  11.145  1.00  0.00     0.254 C 
BRANCH  13  14
HETATM   14  N6  UNL     1      40.538  30.330   9.893  1.00  0.00    -0.077 N 
ATOM     15  H63 UNL     1      40.978  29.507   9.481  1.00  0.00     0.274 HD
ATOM     16  H62 UNL     1      39.603  29.951  10.046  1.00  0.00     0.274 HD
ATOM     17  H61 UNL     1      40.518  31.108   9.234  1.00  0.00     0.274 HD
ENDBRANCH  13  14
ENDBRANCH  12  13
BRANCH  12  18
HETATM   18  C7  UNL     1      40.821  29.252  13.152  1.00  0.00     0.053 C 
BRANCH  18  19
HETATM   19  C8  UNL     1      42.289  29.083  12.828  1.00  0.00     0.166 C 
BRANCH  19  20
HETATM   20  O1  UNL     1      42.798  28.024  13.584  1.00  0.00    -0.401 OA
ATOM     21  H1  UNL     1      43.386  28.373  14.243  1.00  0.00     0.209 HD
ENDBRANCH  19  20
ENDBRANCH  18  19
ENDBRANCH  12  18
ENDBRANCH  10  12
ENDBRANCH   8  10
BRANCH   9  22
HETATM   22  O2  UNL     1      37.431  30.276  14.329  1.00  0.00    -0.268 OA
ATOM     23  H2  UNL     1      37.921  31.050  14.081  1.00  0.00     0.246 HD
ENDBRANCH   9  22
BRANCH   1  24
HETATM   24  N1  UNL     1      35.763  28.344  14.719  1.00  0.00    -0.232 N 
ATOM     25  H12 UNL     1      34.840  28.775  14.665  1.00  0.00     0.174 HD
ATOM     26  H11 UNL     1      36.151  27.969  15.585  1.00  0.00     0.174 HD
ENDBRANCH   1  24
TORSDOF 9
ENDMDL
MODEL 2
REMARK VINA RESULT: -6.334897738      2.192      4.881
REMARK  9 active torsions:
REMARK  status: ('A' for Active; 'I' for Inactive)
REMARK    1  A    between atoms: N1_1  and  C1_4 
REMARK    2  A    between atoms: C4_11  and  N5_12 
REMARK    3  A    between atoms: N5_12  and  C5_14 
REMARK    4  A    between atoms: C5_14  and  C6_15 
REMARK    5  A    between atoms: C5_14  and  C7_20 
REMARK    6  A    between atoms: C6_15  and  N6_16 
REMARK    7  A    between atoms: C7_20  and  C8_21 
REMARK    8  A    between atoms: C8_21  and  O1_22 
REMARK    9  A    between atoms: N7_24  and  O2_25 
ROOT
HETATM    1  C1  UNL     1      39.940  28.754   9.147  1.00  0.00     0.705 A 
HETATM    2  N2  UNL     1      40.914  29.646   9.375  1.00  0.00    -0.175 N 
ATOM      3  H2  UNL     1      41.631  29.842   8.677  1.00  0.00     0.185 HD
HETATM    4  C2  UNL     1      40.902  30.269  10.561  1.00  0.00     0.160 A 
HETATM    5  N3  UNL     1      41.924  31.223  10.834  1.00  0.00    -0.080 NA
HETATM    6  C3  UNL     1      39.954  30.010  11.487  1.00  0.00     0.134 A 
HETATM    7  N4  UNL     1      40.000  30.699  12.716  1.00  0.00    -0.095 NA
HETATM    8  C4  UNL     1      38.934  29.073  11.245  1.00  0.00     0.175 A 
HETATM    9  N7  UNL     1      38.979  28.471  10.048  1.00  0.00    -0.034 N 
ENDROOT
BRANCH   8  10
HETATM   10  N5  UNL     1      38.093  28.880  12.138  1.00  0.00    -0.366 N 
ATOM     11  H5  UNL     1      37.462  29.674  12.244  1.00  0.00     0.161 HD
BRANCH  10  12
HETATM   12  C5  UNL     1      37.793  27.849  13.035  1.00  0.00     0.110 C 
BRANCH  12  13
HETATM   13  C6  UNL     1      36.422  27.252  12.814  1.00  0.00     0.254 C 
BRANCH  13  14
HETATM   14  N6  UNL     1      36.453  26.156  11.866  1.00  0.00    -0.077 N 
ATOM     15  H63 UNL     1      37.396  26.001  11.509  1.00  0.00     0.274 HD
ATOM     16  H62 UNL     1      36.308  25.260  12.331  1.00  0.00     0.274 HD
ATOM     17  H61 UNL     1      35.787  26.290  11.105  1.00  0.00     0.274 HD
ENDBRANCH  13  14
ENDBRANCH  12  13
BRANCH  12  18
HETATM   18  C7  UNL     1      37.904  28.410  14.454  1.00  0.00     0.053 C 
BRANCH  18  19
HETATM   19  C8  UNL     1      39.114  27.793  15.120  1.00  0.00     0.166 C 
BRANCH  19  20
HETATM   20  O1  UNL     1      40.230  27.995  14.304  1.00  0.00    -0.401 OA
ATOM     21  H1  UNL     1      40.477  28.911  14.344  1.00  0.00     0.209 HD
ENDBRANCH  19  20
ENDBRANCH  18  19
ENDBRANCH  12  18
ENDBRANCH  10  12
ENDBRANCH   8  10
BRANCH   9  22
HETATM   22  O2  UNL     1      38.034  27.522   9.672  1.00  0.00    -0.268 OA
ATOM     23  H2  UNL     1      37.206  27.540  10.137  1.00  0.00     0.246 HD
ENDBRANCH   9  22
BRANCH   1  24
HETATM   24  N1  UNL     1      39.914  28.128   8.009  1.00  0.00    -0.232 N 
ATOM     25  H12 UNL     1      39.348  28.523   7.257  1.00  0.00     0.174 HD
ATOM     26  H11 UNL     1      40.455  27.269   7.905  1.00  0.00     0.174 HD
ENDBRANCH   1  24
TORSDOF 9
ENDMDL
MODEL 3
REMARK VINA RESULT: -6.233608892      2.008      4.614
REMARK  9 active torsions:
REMARK  status: ('A' for Active; 'I' for Inactive)
REMARK    1  A    between atoms: N1_1  and  C1_4 
REMARK    2  A    between atoms: C4_11  and  N5_12 
REMARK    3  A    between atoms: N5_12  and  C5_14 
REMARK    4  A    between atoms: C5_14  and  C6_15 
REMARK    5  A    between atoms: C5_14  and  C7_20 
REMARK    6  A    between atoms: C6_15  and  N6_16 
REMARK    7  A    between atoms: C7_20  and  C8_21 
REMARK    8  A    between atoms: C8_21  and  O1_22 
REMARK    9  A    between atoms: N7_24  and  O2_25 
ROOT
HETATM    1  C1  UNL     1      40.308  30.023  10.869  1.00  0.00     0.705 A 
HETATM    2  N2  UNL     1      40.177  29.239   9.790  1.00  0.00    -0.175 N 
ATOM      3  H2  UNL     1      40.848  29.271   9.022  1.00  0.00     0.185 HD
HETATM    4  C2  UNL     1      39.125  28.411   9.765  1.00  0.00     0.160 A 
HETATM    5  N3  UNL     1      38.958  27.564   8.631  1.00  0.00    -0.080 NA
HETATM    6  C3  UNL     1      38.234  28.367  10.779  1.00  0.00     0.134 A 
HETATM    7  N4  UNL     1      37.148  27.473  10.690  1.00  0.00    -0.095 NA
HETATM    8  C4  UNL     1      38.374  29.191  11.909  1.00  0.00     0.175 A 
HETATM    9  N7  UNL     1      39.439  30.006  11.898  1.00  0.00    -0.034 N 
ENDROOT
BRANCH   8  10
HETATM   10  N5  UNL     1      37.521  29.103  12.806  1.00  0.00    -0.366 N 
ATOM     11  H5  UNL     1      36.573  29.171  12.438  1.00  0.00     0.161 HD
BRANCH  10  12
HETATM   12  C5  UNL     1      37.532  28.933  14.196  1.00  0.00     0.110 C 
BRANCH  12  13
HETATM   13  C6  UNL     1      38.576  27.946  14.664  1.00  0.00     0.254 C 
BRANCH  13  14
HETATM   14  N6  UNL     1      38.000  26.886  15.468  1.00  0.00    -0.077 N 
ATOM     15  H63 UNL     1      36.985  26.853  15.366  1.00  0.00     0.274 HD
ATOM     16  H62 UNL     1      38.229  25.967  15.089  1.00  0.00     0.274 HD
ATOM     17  H61 UNL     1      38.271  26.960  16.449  1.00  0.00     0.274 HD
ENDBRANCH  13  14
ENDBRANCH  12  13
BRANCH  12  18
HETATM   18  C7  UNL     1      36.138  28.475  14.627  1.00  0.00     0.053 C 
BRANCH  18  19
HETATM   19  C8  UNL     1      35.398  27.977  13.405  1.00  0.00     0.166 C 
BRANCH  19  20
HETATM   20  O1  UNL     1      35.798  26.665  13.140  1.00  0.00    -0.401 OA
ATOM     21  H1  UNL     1      35.691  26.147  13.928  1.00  0.00     0.209 HD
ENDBRANCH  19  20
ENDBRANCH  18  19
ENDBRANCH  12  18
ENDBRANCH  10  12
ENDBRANCH   8  10
BRANCH   9  22
HETATM   22  O2  UNL     1      39.703  30.877  12.949  1.00  0.00    -0.268 OA
ATOM     23  H2  UNL     1      39.765  31.799  12.732  1.00  0.00     0.246 HD
ENDBRANCH   9  22
BRANCH   1  24
HETATM   24  N1  UNL     1      41.316  30.841  10.933  1.00  0.00    -0.232 N 
ATOM     25  H12 UNL     1      42.238  30.486  10.681  1.00  0.00     0.174 HD
ATOM     26  H11 UNL     1      41.153  31.803  11.232  1.00  0.00     0.174 HD
ENDBRANCH   1  24
TORSDOF 9
ENDMDL
MODEL 4
REMARK VINA RESULT: -6.213482425      2.095      4.262
REMARK  9 active torsions:
REMARK  status: ('A' for Active; 'I' for Inactive)
REMARK    1  A    between atoms: N1_1  and  C1_4 
REMARK    2  A    between atoms: C4_11  and  N5_12 
REMARK    3  A    between atoms: N5_12  and  C5_14 
REMARK    4  A    between atoms: C5_14  and  C6_15 
REMARK    5  A    between atoms: C5_14  and  C7_20 
REMARK    6  A    between atoms: C6_15  and  N6_16 
REMARK    7  A    between atoms: C7_20  and  C8_21 
REMARK    8  A    between atoms: C8_21  and  O1_22 
REMARK    9  A    between atoms: N7_24  and  O2_25 
ROOT
HETATM    1  C1  UNL     1      37.849  27.539   9.383  1.00  0.00     0.705 A 
HETATM    2  N2  UNL     1      38.893  28.070   8.732  1.00  0.00    -0.175 N 
ATOM      3  H2  UNL     1      39.072  27.859   7.750  1.00  0.00     0.185 HD
HETATM    4  C2  UNL     1      39.691  28.889   9.428  1.00  0.00     0.160 A 
HETATM    5  N3  UNL     1      40.810  29.470   8.764  1.00  0.00    -0.080 NA
HETATM    6  C3  UNL     1      39.457  29.169  10.729  1.00  0.00     0.134 A 
HETATM    7  N4  UNL     1      40.336  30.039  11.404  1.00  0.00    -0.095 NA
HETATM    8  C4  UNL     1      38.361  28.610  11.409  1.00  0.00     0.175 A 
HETATM    9  N7  UNL     1      37.586  27.796  10.679  1.00  0.00    -0.034 N 
ENDROOT
BRANCH   8  10
HETATM   10  N5  UNL     1      38.201  28.907  12.604  1.00  0.00    -0.366 N 
ATOM     11  H5  UNL     1      38.283  29.911  12.761  1.00  0.00     0.161 HD
BRANCH  10  12
HETATM   12  C5  UNL     1      37.938  28.212  13.790  1.00  0.00     0.110 C 
BRANCH  12  13
HETATM   13  C6  UNL     1      36.620  28.594  14.422  1.00  0.00     0.254 C 
BRANCH  13  14
HETATM   14  N6  UNL     1      35.526  27.779  13.933  1.00  0.00    -0.077 N 
ATOM     15  H63 UNL     1      34.632  28.264  14.028  1.00  0.00     0.274 HD
ATOM     16  H62 UNL     1      35.554  27.692  12.917  1.00  0.00     0.274 HD
ATOM     17  H61 UNL     1      35.500  26.864  14.383  1.00  0.00     0.274 HD
ENDBRANCH  13  14
ENDBRANCH  12  13
BRANCH  12  18
HETATM   18  C7  UNL     1      39.089  28.481  14.761  1.00  0.00     0.053 C 
BRANCH  18  19
HETATM   19  C8  UNL     1      39.122  29.962  15.066  1.00  0.00     0.166 C 
BRANCH  19  20
HETATM   20  O1  UNL     1      40.004  30.586  14.181  1.00  0.00    -0.401 OA
ATOM     21  H1  UNL     1      39.608  30.609  13.318  1.00  0.00     0.209 HD
ENDBRANCH  19  20
ENDBRANCH  18  19
ENDBRANCH  12  18
ENDBRANCH  10  12
ENDBRANCH   8  10
BRANCH   9  22
HETATM   22  O2  UNL     1      36.467  27.173  11.222  1.00  0.00    -0.268 OA
ATOM     23  H2  UNL     1      35.957  27.680  11.842  1.00  0.00     0.246 HD
ENDBRANCH   9  22
BRANCH   1  24
HETATM   24  N1  UNL     1      37.049  26.739   8.744  1.00  0.00    -0.232 N 
ATOM     25  H12 UNL     1      36.243  27.145   8.269  1.00  0.00     0.174 HD
ATOM     26  H11 UNL     1      37.252  25.739   8.737  1.00  0.00     0.174 HD
ENDBRANCH   1  24
TORSDOF 9
ENDMDL
MODEL 5
REMARK VINA RESULT: -6.083358425      2.564      5.407
REMARK  9 active torsions:
REMARK  status: ('A' for Active; 'I' for Inactive)
REMARK    1  A    between atoms: N1_1  and  C1_4 
REMARK    2  A    between atoms: C4_11  and  N5_12 
REMARK    3  A    between atoms: N5_12  and  C5_14 
REMARK    4  A    between atoms: C5_14  and  C6_15 
REMARK    5  A    between atoms: C5_14  and  C7_20 
REMARK    6  A    between atoms: C6_15  and  N6_16 
REMARK    7  A    between atoms: C7_20  and  C8_21 
REMARK    8  A    between atoms: C8_21  and  O1_22 
REMARK    9  A    between atoms: N7_24  and  O2_25 
ROOT
HETATM    1  C1  UNL     1      40.156  28.865   8.995  1.00  0.00     0.705 A 
HETATM    2  N2  UNL     1      41.072  29.841   9.055  1.00  0.00    -0.175 N 
ATOM      3  H2  UNL     1      41.652  30.079   8.250  1.00  0.00     0.185 HD
HETATM    4  C2  UNL     1      41.191  30.491  10.220  1.00  0.00     0.160 A 
HETATM    5  N3  UNL     1      42.156  31.535  10.316  1.00  0.00    -0.080 NA
HETATM    6  C3  UNL     1      40.425  30.179  11.287  1.00  0.00     0.134 A 
HETATM    7  N4  UNL     1      40.601  30.901  12.484  1.00  0.00    -0.095 NA
HETATM    8  C4  UNL     1      39.465  29.153  11.221  1.00  0.00     0.175 A 
HETATM    9  N7  UNL     1      39.376  28.526  10.039  1.00  0.00    -0.034 N 
ENDROOT
BRANCH   8  10
HETATM   10  N5  UNL     1      38.794  28.915  12.237  1.00  0.00    -0.366 N 
ATOM     11  H5  UNL     1      39.262  28.254  12.856  1.00  0.00     0.161 HD
BRANCH  10  12
HETATM   12  C5  UNL     1      37.556  29.323  12.747  1.00  0.00     0.110 C 
BRANCH  12  13
HETATM   13  C6  UNL     1      37.590  29.604  14.231  1.00  0.00     0.254 C 
BRANCH  13  14
HETATM   14  N6  UNL     1      38.906  30.017  14.677  1.00  0.00    -0.077 N 
ATOM     15  H63 UNL     1      39.341  30.653  14.008  1.00  0.00     0.274 HD
ATOM     16  H62 UNL     1      38.846  30.644  15.479  1.00  0.00     0.274 HD
ATOM     17  H61 UNL     1      39.511  29.219  14.875  1.00  0.00     0.274 HD
ENDBRANCH  13  14
ENDBRANCH  12  13
BRANCH  12  18
HETATM   18  C7  UNL     1      36.533  28.229  12.438  1.00  0.00     0.053 C 
BRANCH  18  19
HETATM   19  C8  UNL     1      35.918  27.766  13.741  1.00  0.00     0.166 C 
BRANCH  19  20
HETATM   20  O1  UNL     1      34.610  27.340  13.496  1.00  0.00    -0.401 OA
ATOM     21  H1  UNL     1      34.285  26.890  14.266  1.00  0.00     0.209 HD
ENDBRANCH  19  20
ENDBRANCH  18  19
ENDBRANCH  12  18
ENDBRANCH  10  12
ENDBRANCH   8  10
BRANCH   9  22
HETATM   22  O2  UNL     1      38.470  27.492   9.829  1.00  0.00    -0.268 OA
ATOM     23  H2  UNL     1      38.533  26.747  10.415  1.00  0.00     0.246 HD
ENDBRANCH   9  22
BRANCH   1  24
HETATM   24  N1  UNL     1      40.008  28.209   7.883  1.00  0.00    -0.232 N 
ATOM     25  H12 UNL     1      40.548  28.512   7.072  1.00  0.00     0.174 HD
ATOM     26  H11 UNL     1      39.362  27.420   7.857  1.00  0.00     0.174 HD
ENDBRANCH   1  24
TORSDOF 9
ENDMDL
