MODEL 1
REMARK VINA RESULT: -8.080395264      0.000      0.000
REMARK  7 active torsions:
REMARK  status: ('A' for Active; 'I' for Inactive)
REMARK    1  A    between atoms: C2_2  and  N1_3 
REMARK    2  A    between atoms: C2_2  and  C3_7 
REMARK       I    between atoms: C3_7  and  N2_9 
REMARK    3  A    between atoms: N2_9  and  C4_10 
REMARK    4  A    between atoms: N2_9  and  N3_12 
REMARK    5  A    between atoms: N3_12  and  C5_13 
REMARK    6  A    between atoms: C7_15  and  O3_16 
REMARK    7  A    between atoms: C8_18  and  N4_19 
REMARK       I    between atoms: N4_19  and  C9_21 
ROOT
HETATM    1  C5  UNL     1     -43.756  -0.339  -2.152  1.00  0.00     0.099 C 
HETATM    2  C6  UNL     1     -45.192  -0.008  -2.593  1.00  0.00     0.056 C 
HETATM    3  C7  UNL     1     -45.221   1.462  -2.237  1.00  0.00     0.142 C 
HETATM    4  C8  UNL     1     -43.942   1.950  -2.860  1.00  0.00     0.114 C 
HETATM    5  C10 UNL     1     -42.954   0.879  -2.542  1.00  0.00     0.050 C 
ENDROOT
BRANCH   1   6
HETATM    6  N3  UNL     1     -43.370  -1.536  -2.850  1.00  0.00    -0.145 NA
BRANCH   6   7
HETATM    7  N2  UNL     1     -44.477  -1.932  -3.688  1.00  0.00    -0.105 NA
HETATM    8  C3  UNL     1     -44.174  -1.684  -5.035  1.00  0.00     0.251 C 
HETATM    9  O1  UNL     1     -43.067  -1.267  -5.408  1.00  0.00    -0.276 OA
BRANCH   8  10
HETATM   10  C2  UNL     1     -45.146  -1.892  -6.125  1.00  0.00     0.266 C 
HETATM   11  C1  UNL     1     -46.580  -1.828  -5.631  1.00  0.00     0.049 C 
BRANCH  10  12
HETATM   12  N1  UNL     1     -44.979  -0.935  -7.172  1.00  0.00    -0.067 N 
ATOM     13  H13 UNL     1     -45.126  -1.339  -8.097  1.00  0.00     0.275 HD
ATOM     14  H12 UNL     1     -45.732  -0.248  -7.197  1.00  0.00     0.275 HD
ATOM     15  H11 UNL     1     -44.060  -0.502  -7.077  1.00  0.00     0.275 HD
ENDBRANCH  10  12
ENDBRANCH   8  10
BRANCH   7  16
HETATM   16  C4  UNL     1     -44.578  -3.338  -3.480  1.00  0.00     0.347 C 
HETATM   17  O2  UNL     1     -43.888  -4.141  -4.028  1.00  0.00    -0.288 OA
ENDBRANCH   7  16
ENDBRANCH   6   7
ENDBRANCH   1   6
BRANCH   3  18
HETATM   18  O3  UNL     1     -46.344   2.090  -2.759  1.00  0.00    -0.393 OA
ATOM     19  H3  UNL     1     -46.501   2.928  -2.339  1.00  0.00     0.210 HD
ENDBRANCH   3  18
BRANCH   4  20
HETATM   20  N4  UNL     1     -43.601   3.231  -2.289  1.00  0.00    -0.358 N 
HETATM   21  C9  UNL     1     -42.338   3.845  -2.368  1.00  0.00     0.182 C 
HETATM   22  N5  UNL     1     -41.978   4.706  -1.498  1.00  0.00    -0.374 N 
HETATM   23  N6  UNL     1     -41.453   3.508  -3.413  1.00  0.00    -0.064 NA
ATOM     24  H52 UNL     1     -42.618   4.950  -0.742  1.00  0.00     0.158 HD
ATOM     25  H51 UNL     1     -41.062   5.151  -1.555  1.00  0.00     0.158 HD
ATOM     26  H4  UNL     1     -44.336   3.732  -1.789  1.00  0.00     0.162 HD
ENDBRANCH   4  20
TORSDOF 7
ENDMDL
MODEL 2
REMARK VINA RESULT: -7.655849317      0.995      1.003
REMARK  7 active torsions:
REMARK  status: ('A' for Active; 'I' for Inactive)
REMARK    1  A    between atoms: C2_2  and  N1_3 
REMARK    2  A    between atoms: C2_2  and  C3_7 
REMARK       I    between atoms: C3_7  and  N2_9 
REMARK    3  A    between atoms: N2_9  and  C4_10 
REMARK    4  A    between atoms: N2_9  and  N3_12 
REMARK    5  A    between atoms: N3_12  and  C5_13 
REMARK    6  A    between atoms: C7_15  and  O3_16 
REMARK    7  A    between atoms: C8_18  and  N4_19 
REMARK       I    between atoms: N4_19  and  C9_21 
ROOT
HETATM    1  C5  UNL     1     -43.854   0.027  -2.741  1.00  0.00     0.099 C 
HETATM    2  C6  UNL     1     -45.298   0.418  -3.100  1.00  0.00     0.056 C 
HETATM    3  C7  UNL     1     -45.431   1.660  -2.247  1.00  0.00     0.142 C 
HETATM    4  C8  UNL     1     -44.172   2.405  -2.597  1.00  0.00     0.114 C 
HETATM    5  C10 UNL     1     -43.124   1.344  -2.636  1.00  0.00     0.050 C 
ENDROOT
BRANCH   1   6
HETATM    6  N3  UNL     1     -43.374  -0.819  -3.800  1.00  0.00    -0.145 NA
BRANCH   6   7
HETATM    7  N2  UNL     1     -44.395  -1.805  -4.071  1.00  0.00    -0.105 NA
HETATM    8  C3  UNL     1     -44.663  -1.854  -5.446  1.00  0.00     0.251 C 
HETATM    9  O1  UNL     1     -44.025  -1.191  -6.279  1.00  0.00    -0.276 OA
BRANCH   8  10
HETATM   10  C2  UNL     1     -45.729  -2.694  -6.025  1.00  0.00     0.266 C 
HETATM   11  C1  UNL     1     -47.060  -1.966  -6.083  1.00  0.00     0.049 C 
BRANCH  10  12
HETATM   12  N1  UNL     1     -45.395  -3.143  -7.339  1.00  0.00    -0.067 N 
ATOM     13  H13 UNL     1     -45.135  -4.129  -7.360  1.00  0.00     0.275 HD
ATOM     14  H12 UNL     1     -46.208  -3.199  -7.951  1.00  0.00     0.275 HD
ATOM     15  H11 UNL     1     -44.665  -2.539  -7.715  1.00  0.00     0.275 HD
ENDBRANCH  10  12
ENDBRANCH   8  10
BRANCH   7  16
HETATM   16  C4  UNL     1     -43.801  -3.034  -3.662  1.00  0.00     0.347 C 
HETATM   17  O2  UNL     1     -44.400  -3.914  -3.126  1.00  0.00    -0.288 OA
ENDBRANCH   7  16
ENDBRANCH   6   7
ENDBRANCH   1   6
BRANCH   3  18
HETATM   18  O3  UNL     1     -46.579   2.374  -2.562  1.00  0.00    -0.393 OA
ATOM     19  H3  UNL     1     -47.357   1.955  -2.214  1.00  0.00     0.210 HD
ENDBRANCH   3  18
BRANCH   4  20
HETATM   20  N4  UNL     1     -43.929   3.414  -1.594  1.00  0.00    -0.358 N 
HETATM   21  C9  UNL     1     -42.863   4.332  -1.607  1.00  0.00     0.182 C 
HETATM   22  N5  UNL     1     -42.447   4.862  -0.524  1.00  0.00    -0.374 N 
HETATM   23  N6  UNL     1     -42.241   4.674  -2.826  1.00  0.00    -0.064 NA
ATOM     24  H52 UNL     1     -42.897   4.615   0.357  1.00  0.00     0.158 HD
ATOM     25  H51 UNL     1     -41.675   5.527  -0.534  1.00  0.00     0.158 HD
ATOM     26  H4  UNL     1     -44.582   3.466  -0.813  1.00  0.00     0.162 HD
ENDBRANCH   4  20
TORSDOF 7
ENDMDL
MODEL 3
REMARK VINA RESULT: -7.400491736      1.630      5.997
REMARK  7 active torsions:
REMARK  status: ('A' for Active; 'I' for Inactive)
REMARK    1  A    between atoms: C2_2  and  N1_3 
REMARK    2  A    between atoms: C2_2  and  C3_7 
REMARK       I    between atoms: C3_7  and  N2_9 
REMARK    3  A    between atoms: N2_9  and  C4_10 
REMARK    4  A    between atoms: N2_9  and  N3_12 
REMARK    5  A    between atoms: N3_12  and  C5_13 
REMARK    6  A    between atoms: C7_15  and  O3_16 
REMARK    7  A    between atoms: C8_18  and  N4_19 
REMARK       I    between atoms: N4_19  and  C9_21 
ROOT
HETATM    1  C5  UNL     1     -44.076  -0.871  -3.111  1.00  0.00     0.099 C 
HETATM    2  C6  UNL     1     -44.015  -2.343  -2.667  1.00  0.00     0.056 C 
HETATM    3  C7  UNL     1     -44.583  -2.993  -3.910  1.00  0.00     0.142 C 
HETATM    4  C8  UNL     1     -43.774  -2.335  -4.993  1.00  0.00     0.114 C 
HETATM    5  C10 UNL     1     -43.705  -0.905  -4.574  1.00  0.00     0.050 C 
ENDROOT
BRANCH   1   6
HETATM    6  N3  UNL     1     -43.140  -0.149  -2.292  1.00  0.00    -0.145 NA
BRANCH   6   7
HETATM    7  N2  UNL     1     -43.629   1.203  -2.156  1.00  0.00    -0.105 NA
HETATM    8  C3  UNL     1     -42.731   2.101  -2.751  1.00  0.00     0.251 C 
HETATM    9  O1  UNL     1     -41.722   1.730  -3.370  1.00  0.00    -0.276 OA
BRANCH   8  10
HETATM   10  C2  UNL     1     -42.904   3.565  -2.689  1.00  0.00     0.266 C 
HETATM   11  C1  UNL     1     -43.269   4.038  -1.293  1.00  0.00     0.049 C 
BRANCH  10  12
HETATM   12  N1  UNL     1     -41.727   4.255  -3.113  1.00  0.00    -0.067 N 
ATOM     13  H13 UNL     1     -41.855   5.267  -3.134  1.00  0.00     0.275 HD
ATOM     14  H12 UNL     1     -40.983   4.222  -2.416  1.00  0.00     0.275 HD
ATOM     15  H11 UNL     1     -41.434   3.879  -4.014  1.00  0.00     0.275 HD
ENDBRANCH  10  12
ENDBRANCH   8  10
BRANCH   7  16
HETATM   16  C4  UNL     1     -44.850   1.202  -2.891  1.00  0.00     0.347 C 
HETATM   17  O2  UNL     1     -45.810   1.838  -2.583  1.00  0.00    -0.288 OA
ENDBRANCH   7  16
ENDBRANCH   6   7
ENDBRANCH   1   6
BRANCH   3  18
HETATM   18  O3  UNL     1     -44.420  -4.372  -3.883  1.00  0.00    -0.393 OA
ATOM     19  H3  UNL     1     -43.759  -4.633  -3.253  1.00  0.00     0.210 HD
ENDBRANCH   3  18
BRANCH   4  20
HETATM   20  N4  UNL     1     -44.439  -2.529  -6.260  1.00  0.00    -0.358 N 
HETATM   21  C9  UNL     1     -45.832  -2.521  -6.455  1.00  0.00     0.182 C 
HETATM   22  N5  UNL     1     -46.353  -3.129  -7.448  1.00  0.00    -0.374 N 
HETATM   23  N6  UNL     1     -46.669  -1.840  -5.547  1.00  0.00    -0.064 NA
ATOM     24  H52 UNL     1     -45.748  -3.621  -8.105  1.00  0.00     0.158 HD
ATOM     25  H51 UNL     1     -47.362  -3.123  -7.590  1.00  0.00     0.158 HD
ATOM     26  H4  UNL     1     -43.851  -2.683  -7.079  1.00  0.00     0.162 HD
ENDBRANCH   4  20
TORSDOF 7
ENDMDL
MODEL 4
REMARK VINA RESULT: -7.238511464      2.389      2.822
REMARK  7 active torsions:
REMARK  status: ('A' for Active; 'I' for Inactive)
REMARK    1  A    between atoms: C2_2  and  N1_3 
REMARK    2  A    between atoms: C2_2  and  C3_7 
REMARK       I    between atoms: C3_7  and  N2_9 
REMARK    3  A    between atoms: N2_9  and  C4_10 
REMARK    4  A    between atoms: N2_9  and  N3_12 
REMARK    5  A    between atoms: N3_12  and  C5_13 
REMARK    6  A    between atoms: C7_15  and  O3_16 
REMARK    7  A    between atoms: C8_18  and  N4_19 
REMARK       I    between atoms: N4_19  and  C9_21 
ROOT
HETATM    1  C5  UNL     1     -42.813  -1.026  -3.594  1.00  0.00     0.099 C 
HETATM    2  C6  UNL     1     -42.822  -2.045  -2.442  1.00  0.00     0.056 C 
HETATM    3  C7  UNL     1     -43.216  -1.125  -1.308  1.00  0.00     0.142 C 
HETATM    4  C8  UNL     1     -44.398  -0.406  -1.898  1.00  0.00     0.114 C 
HETATM    5  C10 UNL     1     -43.983  -0.118  -3.301  1.00  0.00     0.050 C 
ENDROOT
BRANCH   1   6
HETATM    6  N3  UNL     1     -42.951  -1.773  -4.815  1.00  0.00    -0.145 NA
BRANCH   6   7
HETATM    7  N2  UNL     1     -44.332  -2.177  -4.929  1.00  0.00    -0.105 NA
HETATM    8  C3  UNL     1     -44.839  -1.810  -6.184  1.00  0.00     0.251 C 
HETATM    9  O1  UNL     1     -44.136  -1.295  -7.067  1.00  0.00    -0.276 OA
BRANCH   8  10
HETATM   10  C2  UNL     1     -46.252  -1.999  -6.564  1.00  0.00     0.266 C 
HETATM   11  C1  UNL     1     -46.506  -3.376  -7.151  1.00  0.00     0.049 C 
BRANCH  10  12
HETATM   12  N1  UNL     1     -47.129  -1.805  -5.453  1.00  0.00    -0.067 N 
ATOM     13  H13 UNL     1     -47.069  -0.863  -5.068  1.00  0.00     0.275 HD
ATOM     14  H12 UNL     1     -48.110  -1.782  -5.730  1.00  0.00     0.275 HD
ATOM     15  H11 UNL     1     -46.938  -2.524  -4.756  1.00  0.00     0.275 HD
ENDBRANCH  10  12
ENDBRANCH   8  10
BRANCH   7  16
HETATM   16  C4  UNL     1     -44.282  -3.598  -4.839  1.00  0.00     0.347 C 
HETATM   17  O2  UNL     1     -44.722  -4.221  -3.921  1.00  0.00    -0.288 OA
ENDBRANCH   7  16
ENDBRANCH   6   7
ENDBRANCH   1   6
BRANCH   3  18
HETATM   18  O3  UNL     1     -43.540  -1.838  -0.162  1.00  0.00    -0.393 OA
ATOM     19  H3  UNL     1     -44.089  -1.328   0.422  1.00  0.00     0.210 HD
ENDBRANCH   3  18
BRANCH   4  20
HETATM   20  N4  UNL     1     -44.659   0.783  -1.122  1.00  0.00    -0.358 N 
HETATM   21  C9  UNL     1     -45.275   1.951  -1.608  1.00  0.00     0.182 C 
HETATM   22  N5  UNL     1     -45.070   3.077  -1.045  1.00  0.00    -0.374 N 
HETATM   23  N6  UNL     1     -46.127   1.885  -2.730  1.00  0.00    -0.064 NA
ATOM     24  H52 UNL     1     -44.454   3.125  -0.234  1.00  0.00     0.158 HD
ATOM     25  H51 UNL     1     -45.516   3.923  -1.397  1.00  0.00     0.158 HD
ATOM     26  H4  UNL     1     -44.374   0.776  -0.143  1.00  0.00     0.162 HD
ENDBRANCH   4  20
TORSDOF 7
ENDMDL
MODEL 5
REMARK VINA RESULT: -7.123905355      1.881      6.093
REMARK  7 active torsions:
REMARK  status: ('A' for Active; 'I' for Inactive)
REMARK    1  A    between atoms: C2_2  and  N1_3 
REMARK    2  A    between atoms: C2_2  and  C3_7 
REMARK       I    between atoms: C3_7  and  N2_9 
REMARK    3  A    between atoms: N2_9  and  C4_10 
REMARK    4  A    between atoms: N2_9  and  N3_12 
REMARK    5  A    between atoms: N3_12  and  C5_13 
REMARK    6  A    between atoms: C7_15  and  O3_16 
REMARK    7  A    between atoms: C8_18  and  N4_19 
REMARK       I    between atoms: N4_19  and  C9_21 
ROOT
HETATM    1  C5  UNL     1     -45.569  -0.180  -2.558  1.00  0.00     0.099 C 
HETATM    2  C6  UNL     1     -44.178  -0.705  -2.163  1.00  0.00     0.056 C 
HETATM    3  C7  UNL     1     -44.210  -2.036  -2.881  1.00  0.00     0.142 C 
HETATM    4  C8  UNL     1     -44.674  -1.629  -4.253  1.00  0.00     0.114 C 
HETATM    5  C10 UNL     1     -45.747  -0.627  -3.989  1.00  0.00     0.050 C 
ENDROOT
BRANCH   1   6
HETATM    6  N3  UNL     1     -45.538   1.249  -2.397  1.00  0.00    -0.145 NA
BRANCH   6   7
HETATM    7  N2  UNL     1     -44.248   1.602  -1.853  1.00  0.00    -0.105 NA
HETATM    8  C3  UNL     1     -43.528   2.369  -2.780  1.00  0.00     0.251 C 
HETATM    9  O1  UNL     1     -44.010   2.739  -3.862  1.00  0.00    -0.276 OA
BRANCH   8  10
HETATM   10  C2  UNL     1     -42.135   2.798  -2.555  1.00  0.00     0.266 C 
HETATM   11  C1  UNL     1     -41.212   2.352  -3.676  1.00  0.00     0.049 C 
BRANCH  10  12
HETATM   12  N1  UNL     1     -42.033   4.215  -2.415  1.00  0.00    -0.067 N 
ATOM     13  H13 UNL     1     -42.161   4.522  -1.451  1.00  0.00     0.275 HD
ATOM     14  H12 UNL     1     -41.080   4.553  -2.545  1.00  0.00     0.275 HD
ATOM     15  H11 UNL     1     -42.693   4.655  -3.055  1.00  0.00     0.275 HD
ENDBRANCH  10  12
ENDBRANCH   8  10
BRANCH   7  16
HETATM   16  C4  UNL     1     -44.562   2.406  -0.720  1.00  0.00     0.347 C 
HETATM   17  O2  UNL     1     -44.186   3.528  -0.578  1.00  0.00    -0.288 OA
ENDBRANCH   7  16
ENDBRANCH   6   7
ENDBRANCH   1   6
BRANCH   3  18
HETATM   18  O3  UNL     1     -42.958  -2.636  -2.896  1.00  0.00    -0.393 OA
ATOM     19  H3  UNL     1     -42.593  -2.660  -3.773  1.00  0.00     0.210 HD
ENDBRANCH   3  18
BRANCH   4  20
HETATM   20  N4  UNL     1     -45.144  -2.799  -4.956  1.00  0.00    -0.358 N 
HETATM   21  C9  UNL     1     -45.763  -2.795  -6.218  1.00  0.00     0.182 C 
HETATM   22  N5  UNL     1     -46.538  -3.746  -6.566  1.00  0.00    -0.374 N 
HETATM   23  N6  UNL     1     -45.533  -1.729  -7.113  1.00  0.00    -0.064 NA
ATOM     24  H52 UNL     1     -46.704  -4.517  -5.919  1.00  0.00     0.158 HD
ATOM     25  H51 UNL     1     -46.987  -3.742  -7.482  1.00  0.00     0.158 HD
ATOM     26  H4  UNL     1     -45.015  -3.703  -4.500  1.00  0.00     0.162 HD
ENDBRANCH   4  20
TORSDOF 7
ENDMDL
