MODEL 1
REMARK VINA RESULT: -7.462629595      0.000      0.000
REMARK  8 active torsions:
REMARK  status: ('A' for Active; 'I' for Inactive)
REMARK    1  A    between atoms: C1_2  and  C2_4 
REMARK    2  A    between atoms: C2_4  and  C3_5 
REMARK    3  A    between atoms: C3_5  and  N2_6 
REMARK    4  A    between atoms: C3_5  and  C4_10 
REMARK       I    between atoms: C4_10  and  N3_12 
REMARK    5  A    between atoms: N3_12  and  C5_14 
REMARK    6  A    between atoms: C9_18  and  N4_19 
REMARK    7  A    between atoms: C10_23  and  N5_24 
REMARK    8  A    between atoms: N5_24  and  C11_26 
ROOT
HETATM    1  C5  UNL     1     -43.334   0.696  -2.538  1.00  0.00     0.109 C 
HETATM    2  C6  UNL     1     -43.003   1.883  -3.389  1.00  0.00     0.027 C 
HETATM    3  C7  UNL     1     -42.881   3.068  -2.492  1.00  0.00     0.004 C 
HETATM    4  C8  UNL     1     -43.786   3.070  -1.317  1.00  0.00     0.035 C 
HETATM    5  C9  UNL     1     -44.972   2.183  -1.381  1.00  0.00     0.208 C 
HETATM    6  C10 UNL     1     -44.762   0.870  -2.071  1.00  0.00     0.137 C 
ENDROOT
BRANCH   1   7
HETATM    7  N3  UNL     1     -43.185  -0.561  -3.186  1.00  0.00    -0.353 N 
HETATM    8  C4  UNL     1     -43.244  -1.804  -2.507  1.00  0.00     0.249 C 
HETATM    9  O2  UNL     1     -43.437  -1.777  -1.272  1.00  0.00    -0.271 OA
ATOM     10  H3  UNL     1     -43.028  -0.569  -4.194  1.00  0.00     0.163 HD
BRANCH   8  11
HETATM   11  C3  UNL     1     -43.089  -3.116  -3.172  1.00  0.00     0.283 C 
BRANCH  11  12
HETATM   12  C2  UNL     1     -42.806  -2.862  -4.618  1.00  0.00     0.142 C 
BRANCH  12  13
HETATM   13  C1  UNL     1     -43.962  -2.466  -5.420  1.00  0.00     0.233 C 
HETATM   14  N1  UNL     1     -45.159  -3.197  -5.572  1.00  0.00    -0.062 NA
HETATM   15  O1  UNL     1     -43.886  -1.367  -6.035  1.00  0.00    -0.277 OA
ENDBRANCH  12  13
ENDBRANCH  11  12
BRANCH  11  16
HETATM   16  N2  UNL     1     -44.234  -3.920  -2.915  1.00  0.00    -0.066 N 
ATOM     17  H23 UNL     1     -45.061  -3.332  -2.815  1.00  0.00     0.275 HD
ATOM     18  H22 UNL     1     -44.490  -4.446  -3.751  1.00  0.00     0.275 HD
ATOM     19  H21 UNL     1     -44.149  -4.548  -2.117  1.00  0.00     0.275 HD
ENDBRANCH  11  16
ENDBRANCH   8  11
ENDBRANCH   1   7
BRANCH   6  20
HETATM   20  N5  UNL     1     -45.683   0.746  -3.205  1.00  0.00    -0.360 N 
ATOM     21  H5  UNL     1     -45.871   1.564  -3.784  1.00  0.00     0.162 HD
BRANCH  20  22
HETATM   22  C11 UNL     1     -46.321  -0.480  -3.518  1.00  0.00     0.348 C 
HETATM   23  O3  UNL     1     -46.236  -1.496  -2.753  1.00  0.00    -0.284 OA
ENDBRANCH  20  22
ENDBRANCH   6  20
BRANCH   5  24
HETATM   24  N4  UNL     1     -46.090   2.895  -2.008  1.00  0.00    -0.073 N 
ATOM     25  H43 UNL     1     -45.898   3.891  -2.117  1.00  0.00     0.274 HD
ATOM     26  H42 UNL     1     -46.193   2.656  -2.993  1.00  0.00     0.274 HD
ATOM     27  H41 UNL     1     -46.946   2.725  -1.479  1.00  0.00     0.274 HD
ENDBRANCH   5  24
TORSDOF 8
ENDMDL
MODEL 2
REMARK VINA RESULT: -7.315876463      2.274      3.211
REMARK  8 active torsions:
REMARK  status: ('A' for Active; 'I' for Inactive)
REMARK    1  A    between atoms: C1_2  and  C2_4 
REMARK    2  A    between atoms: C2_4  and  C3_5 
REMARK    3  A    between atoms: C3_5  and  N2_6 
REMARK    4  A    between atoms: C3_5  and  C4_10 
REMARK       I    between atoms: C4_10  and  N3_12 
REMARK    5  A    between atoms: N3_12  and  C5_14 
REMARK    6  A    between atoms: C9_18  and  N4_19 
REMARK    7  A    between atoms: C10_23  and  N5_24 
REMARK    8  A    between atoms: N5_24  and  C11_26 
ROOT
HETATM    1  C5  UNL     1     -44.445   0.792  -3.018  1.00  0.00     0.109 C 
HETATM    2  C6  UNL     1     -44.405   0.577  -1.537  1.00  0.00     0.027 C 
HETATM    3  C7  UNL     1     -45.189   1.672  -0.896  1.00  0.00     0.004 C 
HETATM    4  C8  UNL     1     -45.123   2.985  -1.582  1.00  0.00     0.035 C 
HETATM    5  C9  UNL     1     -43.993   3.195  -2.520  1.00  0.00     0.208 C 
HETATM    6  C10 UNL     1     -43.577   1.996  -3.313  1.00  0.00     0.137 C 
ENDROOT
BRANCH   1   7
HETATM    7  N3  UNL     1     -44.010  -0.320  -3.792  1.00  0.00    -0.353 N 
HETATM    8  C4  UNL     1     -44.744  -1.527  -3.909  1.00  0.00     0.249 C 
HETATM    9  O2  UNL     1     -45.830  -1.603  -3.292  1.00  0.00    -0.271 OA
ATOM     10  H3  UNL     1     -43.124  -0.244  -4.290  1.00  0.00     0.163 HD
BRANCH   8  11
HETATM   11  C3  UNL     1     -44.301  -2.688  -4.710  1.00  0.00     0.283 C 
BRANCH  11  12
HETATM   12  C2  UNL     1     -44.877  -2.540  -6.082  1.00  0.00     0.142 C 
BRANCH  12  13
HETATM   13  C1  UNL     1     -46.270  -2.958  -6.223  1.00  0.00     0.233 C 
HETATM   14  N1  UNL     1     -47.394  -2.106  -6.260  1.00  0.00    -0.062 NA
HETATM   15  O1  UNL     1     -46.492  -4.196  -6.319  1.00  0.00    -0.277 OA
ENDBRANCH  12  13
ENDBRANCH  11  12
BRANCH  11  16
HETATM   16  N2  UNL     1     -44.649  -3.893  -4.039  1.00  0.00    -0.066 N 
ATOM     17  H23 UNL     1     -44.825  -4.635  -4.716  1.00  0.00     0.275 HD
ATOM     18  H22 UNL     1     -43.833  -4.278  -3.561  1.00  0.00     0.275 HD
ATOM     19  H21 UNL     1     -45.432  -3.815  -3.391  1.00  0.00     0.275 HD
ENDBRANCH  11  16
ENDBRANCH   8  11
ENDBRANCH   1   7
BRANCH   6  20
HETATM   20  N5  UNL     1     -42.169   1.682  -3.049  1.00  0.00    -0.360 N 
ATOM     21  H5  UNL     1     -41.931   1.117  -2.234  1.00  0.00     0.162 HD
BRANCH  20  22
HETATM   22  C11 UNL     1     -41.131   2.143  -3.896  1.00  0.00     0.348 C 
HETATM   23  O3  UNL     1     -40.812   3.375  -3.958  1.00  0.00    -0.284 OA
ENDBRANCH  20  22
ENDBRANCH   6  20
BRANCH   5  24
HETATM   24  N4  UNL     1     -42.838   3.729  -1.791  1.00  0.00    -0.073 N 
ATOM     25  H43 UNL     1     -42.910   3.569  -0.787  1.00  0.00     0.274 HD
ATOM     26  H42 UNL     1     -41.991   3.188  -1.966  1.00  0.00     0.274 HD
ATOM     27  H41 UNL     1     -42.716   4.717  -2.015  1.00  0.00     0.274 HD
ENDBRANCH   5  24
TORSDOF 8
ENDMDL
MODEL 3
REMARK VINA RESULT: -7.221391447      2.707      5.870
REMARK  8 active torsions:
REMARK  status: ('A' for Active; 'I' for Inactive)
REMARK    1  A    between atoms: C1_2  and  C2_4 
REMARK    2  A    between atoms: C2_4  and  C3_5 
REMARK    3  A    between atoms: C3_5  and  N2_6 
REMARK    4  A    between atoms: C3_5  and  C4_10 
REMARK       I    between atoms: C4_10  and  N3_12 
REMARK    5  A    between atoms: N3_12  and  C5_14 
REMARK    6  A    between atoms: C9_18  and  N4_19 
REMARK    7  A    between atoms: C10_23  and  N5_24 
REMARK    8  A    between atoms: N5_24  and  C11_26 
ROOT
HETATM    1  C5  UNL     1     -43.767   0.084  -4.050  1.00  0.00     0.109 C 
HETATM    2  C6  UNL     1     -43.420  -0.798  -5.209  1.00  0.00     0.027 C 
HETATM    3  C7  UNL     1     -44.690  -1.366  -5.746  1.00  0.00     0.004 C 
HETATM    4  C8  UNL     1     -45.741  -1.637  -4.736  1.00  0.00     0.035 C 
HETATM    5  C9  UNL     1     -45.302  -1.745  -3.323  1.00  0.00     0.208 C 
HETATM    6  C10 UNL     1     -44.194  -0.823  -2.917  1.00  0.00     0.137 C 
ENDROOT
BRANCH   1   7
HETATM    7  N3  UNL     1     -42.714   0.938  -3.617  1.00  0.00    -0.353 N 
HETATM    8  C4  UNL     1     -42.905   2.297  -3.261  1.00  0.00     0.249 C 
HETATM    9  O2  UNL     1     -44.067   2.754  -3.336  1.00  0.00    -0.271 OA
ATOM     10  H3  UNL     1     -41.772   0.552  -3.560  1.00  0.00     0.163 HD
BRANCH   8  11
HETATM   11  C3  UNL     1     -41.818   3.192  -2.810  1.00  0.00     0.283 C 
BRANCH  11  12
HETATM   12  C2  UNL     1     -42.438   4.492  -2.406  1.00  0.00     0.142 C 
BRANCH  12  13
HETATM   13  C1  UNL     1     -42.627   4.672  -0.968  1.00  0.00     0.233 C 
HETATM   14  N1  UNL     1     -41.853   5.498  -0.126  1.00  0.00    -0.062 NA
HETATM   15  O1  UNL     1     -43.568   4.031  -0.427  1.00  0.00    -0.277 OA
ENDBRANCH  12  13
ENDBRANCH  11  12
BRANCH  11  16
HETATM   16  N2  UNL     1     -40.827   3.289  -3.825  1.00  0.00    -0.066 N 
ATOM     17  H23 UNL     1     -41.261   3.240  -4.747  1.00  0.00     0.275 HD
ATOM     18  H22 UNL     1     -40.447   4.235  -3.857  1.00  0.00     0.275 HD
ATOM     19  H21 UNL     1     -40.071   2.608  -3.755  1.00  0.00     0.275 HD
ENDBRANCH  11  16
ENDBRANCH   8  11
ENDBRANCH   1   7
BRANCH   6  20
HETATM   20  N5  UNL     1     -43.049  -1.597  -2.429  1.00  0.00    -0.360 N 
ATOM     21  H5  UNL     1     -42.510  -2.157  -3.090  1.00  0.00     0.162 HD
BRANCH  20  22
HETATM   22  C11 UNL     1     -42.671  -1.590  -1.063  1.00  0.00     0.348 C 
HETATM   23  O3  UNL     1     -43.476  -1.944  -0.141  1.00  0.00    -0.284 OA
ENDBRANCH  20  22
ENDBRANCH   6  20
BRANCH   5  24
HETATM   24  N4  UNL     1     -44.923  -3.130  -3.027  1.00  0.00    -0.073 N 
ATOM     25  H43 UNL     1     -45.732  -3.749  -2.984  1.00  0.00     0.274 HD
ATOM     26  H42 UNL     1     -44.441  -3.572  -3.810  1.00  0.00     0.274 HD
ATOM     27  H41 UNL     1     -44.370  -3.160  -2.170  1.00  0.00     0.274 HD
ENDBRANCH   5  24
TORSDOF 8
ENDMDL
MODEL 4
REMARK VINA RESULT: -7.216223796      1.934      2.888
REMARK  8 active torsions:
REMARK  status: ('A' for Active; 'I' for Inactive)
REMARK    1  A    between atoms: C1_2  and  C2_4 
REMARK    2  A    between atoms: C2_4  and  C3_5 
REMARK    3  A    between atoms: C3_5  and  N2_6 
REMARK    4  A    between atoms: C3_5  and  C4_10 
REMARK       I    between atoms: C4_10  and  N3_12 
REMARK    5  A    between atoms: N3_12  and  C5_14 
REMARK    6  A    between atoms: C9_18  and  N4_19 
REMARK    7  A    between atoms: C10_23  and  N5_24 
REMARK    8  A    between atoms: N5_24  and  C11_26 
ROOT
HETATM    1  C5  UNL     1     -44.227   0.632  -2.836  1.00  0.00     0.109 C 
HETATM    2  C6  UNL     1     -44.322   0.639  -1.342  1.00  0.00     0.027 C 
HETATM    3  C7  UNL     1     -45.271   1.721  -0.951  1.00  0.00     0.004 C 
HETATM    4  C8  UNL     1     -45.260   2.920  -1.824  1.00  0.00     0.035 C 
HETATM    5  C9  UNL     1     -44.064   3.117  -2.678  1.00  0.00     0.208 C 
HETATM    6  C10 UNL     1     -43.454   1.869  -3.236  1.00  0.00     0.137 C 
ENDROOT
BRANCH   1   7
HETATM    7  N3  UNL     1     -43.609  -0.526  -3.387  1.00  0.00    -0.353 N 
HETATM    8  C4  UNL     1     -44.255  -1.783  -3.492  1.00  0.00     0.249 C 
HETATM    9  O2  UNL     1     -45.431  -1.863  -3.073  1.00  0.00    -0.271 OA
ATOM     10  H3  UNL     1     -42.651  -0.445  -3.725  1.00  0.00     0.163 HD
BRANCH   8  11
HETATM   11  C3  UNL     1     -43.621  -2.991  -4.061  1.00  0.00     0.283 C 
BRANCH  11  12
HETATM   12  C2  UNL     1     -43.165  -2.656  -5.446  1.00  0.00     0.142 C 
BRANCH  12  13
HETATM   13  C1  UNL     1     -44.217  -2.216  -6.360  1.00  0.00     0.233 C 
HETATM   14  N1  UNL     1     -45.385  -2.936  -6.689  1.00  0.00    -0.062 NA
HETATM   15  O1  UNL     1     -44.070  -1.090  -6.907  1.00  0.00    -0.277 OA
ENDBRANCH  12  13
ENDBRANCH  11  12
BRANCH  11  16
HETATM   16  N2  UNL     1     -44.520  -4.090  -3.974  1.00  0.00    -0.066 N 
ATOM     17  H23 UNL     1     -44.788  -4.249  -3.004  1.00  0.00     0.275 HD
ATOM     18  H22 UNL     1     -45.425  -3.836  -4.370  1.00  0.00     0.275 HD
ATOM     19  H21 UNL     1     -44.183  -4.956  -4.394  1.00  0.00     0.275 HD
ENDBRANCH  11  16
ENDBRANCH   8  11
ENDBRANCH   1   7
BRANCH   6  20
HETATM   20  N5  UNL     1     -42.058   1.756  -2.803  1.00  0.00    -0.360 N 
ATOM     21  H5  UNL     1     -41.853   1.362  -1.884  1.00  0.00     0.162 HD
BRANCH  20  22
HETATM   22  C11 UNL     1     -40.984   2.178  -3.626  1.00  0.00     0.348 C 
HETATM   23  O3  UNL     1     -40.859   3.391  -3.995  1.00  0.00    -0.284 OA
ENDBRANCH  20  22
ENDBRANCH   6  20
BRANCH   5  24
HETATM   24  N4  UNL     1     -43.049   3.876  -1.942  1.00  0.00    -0.073 N 
ATOM     25  H43 UNL     1     -43.078   3.685  -0.941  1.00  0.00     0.274 HD
ATOM     26  H42 UNL     1     -42.105   3.537  -2.129  1.00  0.00     0.274 HD
ATOM     27  H41 UNL     1     -43.147   4.871  -2.146  1.00  0.00     0.274 HD
ENDBRANCH   5  24
TORSDOF 8
ENDMDL
MODEL 5
REMARK VINA RESULT: -7.154529714      1.198      1.625
REMARK  8 active torsions:
REMARK  status: ('A' for Active; 'I' for Inactive)
REMARK    1  A    between atoms: C1_2  and  C2_4 
REMARK    2  A    between atoms: C2_4  and  C3_5 
REMARK    3  A    between atoms: C3_5  and  N2_6 
REMARK    4  A    between atoms: C3_5  and  C4_10 
REMARK       I    between atoms: C4_10  and  N3_12 
REMARK    5  A    between atoms: N3_12  and  C5_14 
REMARK    6  A    between atoms: C9_18  and  N4_19 
REMARK    7  A    between atoms: C10_23  and  N5_24 
REMARK    8  A    between atoms: N5_24  and  C11_26 
ROOT
HETATM    1  C5  UNL     1     -43.280   0.651  -2.513  1.00  0.00     0.109 C 
HETATM    2  C6  UNL     1     -43.110   1.770  -3.493  1.00  0.00     0.027 C 
HETATM    3  C7  UNL     1     -42.992   3.040  -2.719  1.00  0.00     0.004 C 
HETATM    4  C8  UNL     1     -43.788   3.097  -1.469  1.00  0.00     0.035 C 
HETATM    5  C9  UNL     1     -44.911   2.136  -1.344  1.00  0.00     0.208 C 
HETATM    6  C10 UNL     1     -44.671   0.780  -1.932  1.00  0.00     0.137 C 
ENDROOT
BRANCH   1   7
HETATM    7  N3  UNL     1     -43.102  -0.650  -3.060  1.00  0.00    -0.353 N 
HETATM    8  C4  UNL     1     -43.322  -0.963  -4.425  1.00  0.00     0.249 C 
HETATM    9  O2  UNL     1     -43.691  -0.034  -5.176  1.00  0.00    -0.271 OA
ATOM     10  H3  UNL     1     -42.800  -1.398  -2.436  1.00  0.00     0.163 HD
BRANCH   8  11
HETATM   11  C3  UNL     1     -43.140  -2.312  -5.002  1.00  0.00     0.283 C 
BRANCH  11  12
HETATM   12  C2  UNL     1     -43.959  -2.386  -6.251  1.00  0.00     0.142 C 
BRANCH  12  13
HETATM   13  C1  UNL     1     -45.383  -2.644  -6.050  1.00  0.00     0.233 C 
HETATM   14  N1  UNL     1     -46.439  -1.761  -6.357  1.00  0.00    -0.062 NA
HETATM   15  O1  UNL     1     -45.701  -3.760  -5.555  1.00  0.00    -0.277 OA
ENDBRANCH  12  13
ENDBRANCH  11  12
BRANCH  11  16
HETATM   16  N2  UNL     1     -43.447  -3.296  -4.023  1.00  0.00    -0.066 N 
ATOM     17  H23 UNL     1     -44.346  -3.732  -4.231  1.00  0.00     0.275 HD
ATOM     18  H22 UNL     1     -42.831  -4.103  -4.128  1.00  0.00     0.275 HD
ATOM     19  H21 UNL     1     -43.432  -2.965  -3.059  1.00  0.00     0.275 HD
ENDBRANCH  11  16
ENDBRANCH   8  11
ENDBRANCH   1   7
BRANCH   6  20
HETATM   20  N5  UNL     1     -45.678   0.493  -2.959  1.00  0.00    -0.360 N 
ATOM     21  H5  UNL     1     -45.881   1.200  -3.666  1.00  0.00     0.162 HD
BRANCH  20  22
HETATM   22  C11 UNL     1     -46.376  -0.739  -2.996  1.00  0.00     0.348 C 
HETATM   23  O3  UNL     1     -45.847  -1.824  -2.587  1.00  0.00    -0.284 OA
ENDBRANCH  20  22
ENDBRANCH   6  20
BRANCH   5  24
HETATM   24  N4  UNL     1     -46.126   2.717  -1.923  1.00  0.00    -0.073 N 
ATOM     25  H43 UNL     1     -46.594   3.351  -1.276  1.00  0.00     0.274 HD
ATOM     26  H42 UNL     1     -45.917   3.387  -2.662  1.00  0.00     0.274 HD
ATOM     27  H41 UNL     1     -46.745   1.971  -2.244  1.00  0.00     0.274 HD
ENDBRANCH   5  24
TORSDOF 8
ENDMDL
