MODEL 1
REMARK VINA RESULT: -6.912456825      0.000      0.000
REMARK  7 active torsions:
REMARK  status: ('A' for Active; 'I' for Inactive)
REMARK    1  A    between atoms: C2_2  and  C5_5 
REMARK    2  A    between atoms: C6_6  and  C7_7 
REMARK    3  A    between atoms: C7_7  and  N1_10 
REMARK    4  A    between atoms: N1_10  and  C10_12 
REMARK    5  A    between atoms: C10_12  and  N2_14 
REMARK    6  A    between atoms: N2_14  and  C11_16 
REMARK    7  A    between atoms: C14_19  and  N3_20 
ROOT
HETATM    1  C10 UNL     1      66.980  76.796  25.524  1.00  0.00     0.173 C 
HETATM    2  S1  UNL     1      65.504  76.200  25.870  1.00  0.00    -0.041 SA
ENDROOT
BRANCH   1   3
HETATM    3  N1  UNL     1      67.924  75.814  25.071  1.00  0.00    -0.348 N 
ATOM      4  H1  UNL     1      67.843  75.474  24.113  1.00  0.00     0.163 HD
BRANCH   3   5
HETATM    5  C7  UNL     1      68.975  75.283  25.891  1.00  0.00     0.088 C 
HETATM    6  C8  UNL     1      68.466  74.893  27.268  1.00  0.00     0.053 C 
HETATM    7  C9  UNL     1      69.550  73.998  25.276  1.00  0.00     0.053 C 
BRANCH   5   8
HETATM    8  C6  UNL     1      70.036  76.288  25.985  1.00  0.00    -0.075 C 
HETATM    9  C5  UNL     1      70.903  77.133  26.052  1.00  0.00    -0.095 C 
BRANCH   9  10
HETATM   10  C2  UNL     1      71.940  78.171  26.149  1.00  0.00     0.013 C 
HETATM   11  C1  UNL     1      71.218  79.451  26.502  1.00  0.00     0.028 C 
HETATM   12  C3  UNL     1      72.982  77.807  27.206  1.00  0.00     0.028 C 
HETATM   13  C4  UNL     1      72.708  78.309  24.846  1.00  0.00     0.028 C 
ENDBRANCH   9  10
ENDBRANCH   5   8
ENDBRANCH   3   5
ENDBRANCH   1   3
BRANCH   1  14
HETATM   14  N2  UNL     1      67.381  78.128  25.606  1.00  0.00    -0.333 N 
ATOM     15  H2  UNL     1      67.356  78.529  26.544  1.00  0.00     0.168 HD
BRANCH  14  16
HETATM   16  C11 UNL     1      67.818  79.007  24.591  1.00  0.00     0.034 A 
HETATM   17  C12 UNL     1      67.691  80.388  24.803  1.00  0.00     0.032 A 
HETATM   18  C13 UNL     1      68.079  81.289  23.844  1.00  0.00     0.038 A 
HETATM   19  C14 UNL     1      68.608  80.904  22.632  1.00  0.00     0.103 A 
HETATM   20  C15 UNL     1      68.736  79.559  22.412  1.00  0.00     0.038 A 
HETATM   21  C16 UNL     1      68.343  78.634  23.385  1.00  0.00     0.032 A 
BRANCH  19  22
HETATM   22  N3  UNL     1      69.002  81.857  21.657  1.00  0.00    -0.116 N 
HETATM   23  O1  UNL     1      69.812  82.751  21.969  1.00  0.00    -0.532 OA
HETATM   24  O2  UNL     1      68.534  81.846  20.381  1.00  0.00    -0.532 OA
ENDBRANCH  19  22
ENDBRANCH  14  16
ENDBRANCH   1  14
TORSDOF 7
ENDMDL
MODEL 2
REMARK VINA RESULT: -6.894831077      3.835      5.960
REMARK  7 active torsions:
REMARK  status: ('A' for Active; 'I' for Inactive)
REMARK    1  A    between atoms: C2_2  and  C5_5 
REMARK    2  A    between atoms: C6_6  and  C7_7 
REMARK    3  A    between atoms: C7_7  and  N1_10 
REMARK    4  A    between atoms: N1_10  and  C10_12 
REMARK    5  A    between atoms: C10_12  and  N2_14 
REMARK    6  A    between atoms: N2_14  and  C11_16 
REMARK    7  A    between atoms: C14_19  and  N3_20 
ROOT
HETATM    1  C10 UNL     1      70.271  79.911  23.054  1.00  0.00     0.173 C 
HETATM    2  S1  UNL     1      69.802  81.425  22.681  1.00  0.00    -0.041 SA
ENDROOT
BRANCH   1   3
HETATM    3  N1  UNL     1      69.304  78.897  22.738  1.00  0.00    -0.348 N 
ATOM      4  H1  UNL     1      69.409  78.389  21.860  1.00  0.00     0.163 HD
BRANCH   3   5
HETATM    5  C7  UNL     1      68.199  78.558  23.589  1.00  0.00     0.088 C 
HETATM    6  C8  UNL     1      67.759  79.744  24.430  1.00  0.00     0.053 C 
HETATM    7  C9  UNL     1      66.973  78.156  22.755  1.00  0.00     0.053 C 
BRANCH   5   8
HETATM    8  C6  UNL     1      68.598  77.430  24.433  1.00  0.00    -0.075 C 
HETATM    9  C5  UNL     1      68.911  76.487  25.127  1.00  0.00    -0.095 C 
BRANCH   9  10
HETATM   10  C2  UNL     1      69.295  75.330  25.949  1.00  0.00     0.013 C 
HETATM   11  C1  UNL     1      70.653  75.660  26.525  1.00  0.00     0.028 C 
HETATM   12  C3  UNL     1      68.267  75.075  27.051  1.00  0.00     0.028 C 
HETATM   13  C4  UNL     1      69.337  74.056  25.124  1.00  0.00     0.028 C 
ENDBRANCH   9  10
ENDBRANCH   5   8
ENDBRANCH   3   5
ENDBRANCH   1   3
BRANCH   1  14
HETATM   14  N2  UNL     1      71.489  79.529  23.611  1.00  0.00    -0.333 N 
ATOM     15  H2  UNL     1      72.248  79.400  22.943  1.00  0.00     0.168 HD
BRANCH  14  16
HETATM   16  C11 UNL     1      71.834  79.293  24.961  1.00  0.00     0.034 A 
HETATM   17  C12 UNL     1      72.921  78.448  25.234  1.00  0.00     0.032 A 
HETATM   18  C13 UNL     1      73.289  78.166  26.525  1.00  0.00     0.038 A 
HETATM   19  C14 UNL     1      72.628  78.683  27.617  1.00  0.00     0.103 A 
HETATM   20  C15 UNL     1      71.565  79.508  27.364  1.00  0.00     0.038 A 
HETATM   21  C16 UNL     1      71.183  79.800  26.050  1.00  0.00     0.032 A 
BRANCH  19  22
HETATM   22  N3  UNL     1      73.030  78.375  28.944  1.00  0.00    -0.116 N 
HETATM   23  O1  UNL     1      74.048  77.680  29.127  1.00  0.00    -0.532 OA
HETATM   24  O2  UNL     1      72.353  78.805  30.040  1.00  0.00    -0.532 OA
ENDBRANCH  19  22
ENDBRANCH  14  16
ENDBRANCH   1  14
TORSDOF 7
ENDMDL
MODEL 3
REMARK VINA RESULT: -6.825154234      2.924      4.590
REMARK  7 active torsions:
REMARK  status: ('A' for Active; 'I' for Inactive)
REMARK    1  A    between atoms: C2_2  and  C5_5 
REMARK    2  A    between atoms: C6_6  and  C7_7 
REMARK    3  A    between atoms: C7_7  and  N1_10 
REMARK    4  A    between atoms: N1_10  and  C10_12 
REMARK    5  A    between atoms: C10_12  and  N2_14 
REMARK    6  A    between atoms: N2_14  and  C11_16 
REMARK    7  A    between atoms: C14_19  and  N3_20 
ROOT
HETATM    1  C10 UNL     1      71.559  80.552  26.436  1.00  0.00     0.173 C 
HETATM    2  S1  UNL     1      72.898  81.342  26.921  1.00  0.00    -0.041 SA
ENDROOT
BRANCH   1   3
HETATM    3  N1  UNL     1      71.434  79.221  26.960  1.00  0.00    -0.348 N 
ATOM      4  H1  UNL     1      70.889  79.088  27.811  1.00  0.00     0.163 HD
BRANCH   3   5
HETATM    5  C7  UNL     1      72.034  78.067  26.352  1.00  0.00     0.088 C 
HETATM    6  C8  UNL     1      72.668  78.408  25.014  1.00  0.00     0.053 C 
HETATM    7  C9  UNL     1      73.169  77.518  27.228  1.00  0.00     0.053 C 
BRANCH   5   8
HETATM    8  C6  UNL     1      71.002  77.039  26.201  1.00  0.00    -0.075 C 
HETATM    9  C5  UNL     1      70.154  76.180  26.094  1.00  0.00    -0.095 C 
BRANCH   9  10
HETATM   10  C2  UNL     1      69.111  75.148  25.982  1.00  0.00     0.013 C 
HETATM   11  C1  UNL     1      68.088  75.693  25.011  1.00  0.00     0.028 C 
HETATM   12  C3  UNL     1      69.700  73.826  25.491  1.00  0.00     0.028 C 
HETATM   13  C4  UNL     1      68.487  74.844  27.333  1.00  0.00     0.028 C 
ENDBRANCH   9  10
ENDBRANCH   5   8
ENDBRANCH   3   5
ENDBRANCH   1   3
BRANCH   1  14
HETATM   14  N2  UNL     1      70.554  81.046  25.606  1.00  0.00    -0.333 N 
ATOM     15  H2  UNL     1      70.490  82.063  25.563  1.00  0.00     0.168 HD
BRANCH  14  16
HETATM   16  C11 UNL     1      69.611  80.354  24.815  1.00  0.00     0.034 A 
HETATM   17  C12 UNL     1      69.864  80.216  23.442  1.00  0.00     0.032 A 
HETATM   18  C13 UNL     1      68.974  79.572  22.621  1.00  0.00     0.038 A 
HETATM   19  C14 UNL     1      67.794  79.030  23.081  1.00  0.00     0.103 A 
HETATM   20  C15 UNL     1      67.535  79.159  24.419  1.00  0.00     0.038 A 
HETATM   21  C16 UNL     1      68.437  79.814  25.263  1.00  0.00     0.032 A 
BRANCH  19  22
HETATM   22  N3  UNL     1      66.890  78.368  22.209  1.00  0.00    -0.116 N 
HETATM   23  O1  UNL     1      66.220  79.039  21.401  1.00  0.00    -0.532 OA
HETATM   24  O2  UNL     1      66.714  77.021  22.210  1.00  0.00    -0.532 OA
ENDBRANCH  19  22
ENDBRANCH  14  16
ENDBRANCH   1  14
TORSDOF 7
ENDMDL
MODEL 4
REMARK VINA RESULT: -6.792578711      0.814      1.325
REMARK  7 active torsions:
REMARK  status: ('A' for Active; 'I' for Inactive)
REMARK    1  A    between atoms: C2_2  and  C5_5 
REMARK    2  A    between atoms: C6_6  and  C7_7 
REMARK    3  A    between atoms: C7_7  and  N1_10 
REMARK    4  A    between atoms: N1_10  and  C10_12 
REMARK    5  A    between atoms: C10_12  and  N2_14 
REMARK    6  A    between atoms: N2_14  and  C11_16 
REMARK    7  A    between atoms: C14_19  and  N3_20 
ROOT
HETATM    1  C10 UNL     1      66.959  76.560  25.617  1.00  0.00     0.173 C 
HETATM    2  S1  UNL     1      65.632  75.941  26.330  1.00  0.00    -0.041 SA
ENDROOT
BRANCH   1   3
HETATM    3  N1  UNL     1      67.915  75.577  25.190  1.00  0.00    -0.348 N 
ATOM      4  H1  UNL     1      67.820  75.188  24.252  1.00  0.00     0.163 HD
BRANCH   3   5
HETATM    5  C7  UNL     1      68.997  75.110  26.010  1.00  0.00     0.088 C 
HETATM    6  C8  UNL     1      68.525  74.763  27.411  1.00  0.00     0.053 C 
HETATM    7  C9  UNL     1      69.598  73.818  25.436  1.00  0.00     0.053 C 
BRANCH   5   8
HETATM    8  C6  UNL     1      70.029  76.148  26.043  1.00  0.00    -0.075 C 
HETATM    9  C5  UNL     1      70.869  77.022  26.073  1.00  0.00    -0.095 C 
BRANCH   9  10
HETATM   10  C2  UNL     1      71.885  78.083  26.134  1.00  0.00     0.013 C 
HETATM   11  C1  UNL     1      72.404  78.246  24.723  1.00  0.00     0.028 C 
HETATM   12  C3  UNL     1      71.287  79.385  26.664  1.00  0.00     0.028 C 
HETATM   13  C4  UNL     1      73.003  77.722  27.097  1.00  0.00     0.028 C 
ENDBRANCH   9  10
ENDBRANCH   5   8
ENDBRANCH   3   5
ENDBRANCH   1   3
BRANCH   1  14
HETATM   14  N2  UNL     1      67.225  77.906  25.375  1.00  0.00    -0.333 N 
ATOM     15  H2  UNL     1      67.157  78.513  26.192  1.00  0.00     0.168 HD
BRANCH  14  16
HETATM   16  C11 UNL     1      67.576  78.559  24.173  1.00  0.00     0.034 A 
HETATM   17  C12 UNL     1      68.526  79.591  24.226  1.00  0.00     0.032 A 
HETATM   18  C13 UNL     1      68.889  80.274  23.093  1.00  0.00     0.038 A 
HETATM   19  C14 UNL     1      68.356  79.999  21.854  1.00  0.00     0.103 A 
HETATM   20  C15 UNL     1      67.426  78.995  21.789  1.00  0.00     0.038 A 
HETATM   21  C16 UNL     1      67.050  78.293  22.939  1.00  0.00     0.032 A 
BRANCH  19  22
HETATM   22  N3  UNL     1      68.750  80.722  20.697  1.00  0.00    -0.116 N 
HETATM   23  O1  UNL     1      68.543  81.950  20.645  1.00  0.00    -0.532 OA
HETATM   24  O2  UNL     1      69.350  80.136  19.628  1.00  0.00    -0.532 OA
ENDBRANCH  19  22
ENDBRANCH  14  16
ENDBRANCH   1  14
TORSDOF 7
ENDMDL
MODEL 5
REMARK VINA RESULT: -6.781134282      3.677      5.588
REMARK  7 active torsions:
REMARK  status: ('A' for Active; 'I' for Inactive)
REMARK    1  A    between atoms: C2_2  and  C5_5 
REMARK    2  A    between atoms: C6_6  and  C7_7 
REMARK    3  A    between atoms: C7_7  and  N1_10 
REMARK    4  A    between atoms: N1_10  and  C10_12 
REMARK    5  A    between atoms: C10_12  and  N2_14 
REMARK    6  A    between atoms: N2_14  and  C11_16 
REMARK    7  A    between atoms: C14_19  and  N3_20 
ROOT
HETATM    1  C10 UNL     1      69.615  80.220  22.791  1.00  0.00     0.173 C 
HETATM    2  S1  UNL     1      69.008  81.005  21.500  1.00  0.00    -0.041 SA
ENDROOT
BRANCH   1   3
HETATM    3  N1  UNL     1      69.227  78.841  22.882  1.00  0.00    -0.348 N 
ATOM      4  H1  UNL     1      69.800  78.147  22.403  1.00  0.00     0.163 HD
BRANCH   3   5
HETATM    5  C7  UNL     1      68.076  78.384  23.609  1.00  0.00     0.088 C 
HETATM    6  C8  UNL     1      67.463  79.498  24.439  1.00  0.00     0.053 C 
HETATM    7  C9  UNL     1      66.973  77.919  22.647  1.00  0.00     0.053 C 
BRANCH   5   8
HETATM    8  C6  UNL     1      68.484  77.259  24.453  1.00  0.00    -0.075 C 
HETATM    9  C5  UNL     1      68.841  76.333  25.150  1.00  0.00    -0.095 C 
BRANCH   9  10
HETATM   10  C2  UNL     1      69.278  75.226  26.013  1.00  0.00     0.013 C 
HETATM   11  C1  UNL     1      70.629  75.631  26.558  1.00  0.00     0.028 C 
HETATM   12  C3  UNL     1      68.273  74.978  27.138  1.00  0.00     0.028 C 
HETATM   13  C4  UNL     1      69.360  73.921  25.240  1.00  0.00     0.028 C 
ENDBRANCH   9  10
ENDBRANCH   5   8
ENDBRANCH   3   5
ENDBRANCH   1   3
BRANCH   1  14
HETATM   14  N2  UNL     1      70.462  80.746  23.764  1.00  0.00    -0.333 N 
ATOM     15  H2  UNL     1      70.633  81.749  23.692  1.00  0.00     0.168 HD
BRANCH  14  16
HETATM   16  C11 UNL     1      71.120  80.103  24.837  1.00  0.00     0.034 A 
HETATM   17  C12 UNL     1      70.712  80.403  26.146  1.00  0.00     0.032 A 
HETATM   18  C13 UNL     1      71.329  79.826  27.226  1.00  0.00     0.038 A 
HETATM   19  C14 UNL     1      72.368  78.931  27.101  1.00  0.00     0.103 A 
HETATM   20  C15 UNL     1      72.776  78.631  25.828  1.00  0.00     0.038 A 
HETATM   21  C16 UNL     1      72.153  79.216  24.721  1.00  0.00     0.032 A 
BRANCH  19  22
HETATM   22  N3  UNL     1      72.989  78.348  28.236  1.00  0.00    -0.116 N 
HETATM   23  O1  UNL     1      74.056  77.721  28.093  1.00  0.00    -0.532 OA
HETATM   24  O2  UNL     1      72.472  78.438  29.490  1.00  0.00    -0.532 OA
ENDBRANCH  19  22
ENDBRANCH  14  16
ENDBRANCH   1  14
TORSDOF 7
ENDMDL
