MODEL 1
REMARK VINA RESULT: -8.663004777      0.000      0.000
REMARK  13 active torsions:
REMARK  status: ('A' for Active; 'I' for Inactive)
REMARK    1  A    between atoms: N1_1  and  C1_5 
REMARK    2  A    between atoms: C2_6  and  O1_7 
REMARK    3  A    between atoms: C3_9  and  O2_10 
REMARK    4  A    between atoms: C4_12  and  C5_13 
REMARK    5  A    between atoms: C5_13  and  O3_14 
REMARK    6  A    between atoms: O3_14  and  C6_15 
REMARK    7  A    between atoms: C8_18  and  O5_19 
REMARK    8  A    between atoms: C9_21  and  O6_22 
REMARK    9  A    between atoms: C10_24  and  O7_25 
REMARK   10  A    between atoms: C13_29  and  C14_30 
REMARK   11  A    between atoms: C14_30  and  C15_31 
REMARK   12  A    between atoms: C15_31  and  C16_32 
REMARK   13  A    between atoms: C16_32  and  C17_33 
ROOT
HETATM    1  C1  UNL     1       5.108  51.418  -7.455  1.00  0.00     0.220 C 
HETATM    2  C2  UNL     1       3.926  50.847  -8.167  1.00  0.00     0.181 C 
HETATM    3  C3  UNL     1       2.605  51.496  -7.722  1.00  0.00     0.179 C 
HETATM    4  C4  UNL     1       2.068  50.704  -6.603  1.00  0.00    -0.027 C 
HETATM    5  C11 UNL     1       2.801  50.961  -5.295  1.00  0.00     0.045 C 
HETATM    6  C12 UNL     1       4.182  50.321  -5.402  1.00  0.00     0.010 C 
HETATM    7  C13 UNL     1       4.546  49.897  -4.006  1.00  0.00     0.052 C 
HETATM    8  S1  UNL     1       6.250  50.554  -3.801  1.00  0.00    -0.163 SA
HETATM    9  C18 UNL     1       6.532  50.933  -5.551  1.00  0.00     0.081 C 
HETATM   10  C19 UNL     1       5.121  51.272  -5.972  1.00  0.00     0.033 C 
ENDROOT
BRANCH   4  11
HETATM   11  C5  UNL     1       0.608  50.560  -6.417  1.00  0.00     0.143 C 
BRANCH  11  12
HETATM   12  O3  UNL     1      -0.051  50.905  -5.332  1.00  0.00    -0.329 OA
BRANCH  12  13
HETATM   13  C6  UNL     1      -0.047  50.350  -4.135  1.00  0.00     0.296 C 
HETATM   14  O4  UNL     1       0.783  51.076  -3.211  1.00  0.00    -0.356 OA
HETATM   15  C7  UNL     1       0.558  50.619  -1.943  1.00  0.00     0.205 C 
HETATM   16  C8  UNL     1      -0.080  49.264  -1.832  1.00  0.00     0.173 C 
HETATM   17  C9  UNL     1      -1.442  49.228  -2.508  1.00  0.00     0.182 C 
HETATM   18  C10 UNL     1      -1.439  50.362  -3.521  1.00  0.00     0.205 C 
BRANCH  16  19
HETATM   19  O5  UNL     1      -0.311  49.031  -0.470  1.00  0.00    -0.391 OA
ATOM     20  H5  UNL     1      -0.759  49.797  -0.130  1.00  0.00     0.210 HD
ENDBRANCH  16  19
BRANCH  17  21
HETATM   21  O6  UNL     1      -2.436  49.523  -1.577  1.00  0.00    -0.390 OA
ATOM     22  H6  UNL     1      -2.464  50.460  -1.426  1.00  0.00     0.210 HD
ENDBRANCH  17  21
BRANCH  18  23
HETATM   23  O7  UNL     1      -2.389  50.153  -4.462  1.00  0.00    -0.388 OA
ATOM     24  H7  UNL     1      -3.155  49.735  -4.088  1.00  0.00     0.210 HD
ENDBRANCH  18  23
ENDBRANCH  12  13
ENDBRANCH  11  12
ENDBRANCH   4  11
BRANCH   3  25
HETATM   25  O2  UNL     1       2.838  52.827  -7.541  1.00  0.00    -0.388 OA
ATOM     26  H2  UNL     1       3.629  53.049  -8.019  1.00  0.00     0.210 HD
ENDBRANCH   3  25
BRANCH   2  27
HETATM   27  O1  UNL     1       4.073  51.145  -9.520  1.00  0.00    -0.391 OA
ATOM     28  H1  UNL     1       3.838  52.058  -9.636  1.00  0.00     0.210 HD
ENDBRANCH   2  27
BRANCH   1  29
HETATM   29  N1  UNL     1       6.289  50.757  -8.017  1.00  0.00    -0.072 N 
ATOM     30  H13 UNL     1       6.427  49.809  -7.667  1.00  0.00     0.274 HD
ATOM     31  H12 UNL     1       6.185  50.513  -9.002  1.00  0.00     0.274 HD
ATOM     32  H11 UNL     1       7.079  51.375  -7.834  1.00  0.00     0.274 HD
ENDBRANCH   1  29
BRANCH   7  33
HETATM   33  C14 UNL     1       4.598  48.394  -3.991  1.00  0.00     0.016 C 
BRANCH  33  34
HETATM   34  C15 UNL     1       5.853  47.741  -4.394  1.00  0.00     0.012 C 
BRANCH  34  35
HETATM   35  C16 UNL     1       5.841  46.876  -5.607  1.00  0.00     0.113 C 
BRANCH  35  36
HETATM   36  C17 UNL     1       6.634  45.621  -5.392  1.00  0.00     0.172 C 
HETATM   37  O8  UNL     1       6.662  45.112  -4.260  1.00  0.00    -0.648 OA
HETATM   38  O9  UNL     1       7.319  45.044  -6.433  1.00  0.00    -0.648 OA
ENDBRANCH  35  36
ENDBRANCH  34  35
ENDBRANCH  33  34
ENDBRANCH   7  33
TORSDOF 13
ENDMDL
MODEL 2
REMARK VINA RESULT: -8.100636615      1.696      2.431
REMARK  13 active torsions:
REMARK  status: ('A' for Active; 'I' for Inactive)
REMARK    1  A    between atoms: N1_1  and  C1_5 
REMARK    2  A    between atoms: C2_6  and  O1_7 
REMARK    3  A    between atoms: C3_9  and  O2_10 
REMARK    4  A    between atoms: C4_12  and  C5_13 
REMARK    5  A    between atoms: C5_13  and  O3_14 
REMARK    6  A    between atoms: O3_14  and  C6_15 
REMARK    7  A    between atoms: C8_18  and  O5_19 
REMARK    8  A    between atoms: C9_21  and  O6_22 
REMARK    9  A    between atoms: C10_24  and  O7_25 
REMARK   10  A    between atoms: C13_29  and  C14_30 
REMARK   11  A    between atoms: C14_30  and  C15_31 
REMARK   12  A    between atoms: C15_31  and  C16_32 
REMARK   13  A    between atoms: C16_32  and  C17_33 
ROOT
HETATM    1  C1  UNL     1       4.437  51.747  -9.942  1.00  0.00     0.220 C 
HETATM    2  C2  UNL     1       3.038  51.237  -9.834  1.00  0.00     0.181 C 
HETATM    3  C3  UNL     1       2.263  51.894  -8.679  1.00  0.00     0.179 C 
HETATM    4  C4  UNL     1       2.451  51.062  -7.479  1.00  0.00    -0.027 C 
HETATM    5  C11 UNL     1       3.825  51.241  -6.849  1.00  0.00     0.045 C 
HETATM    6  C12 UNL     1       4.847  50.576  -7.766  1.00  0.00     0.010 C 
HETATM    7  C13 UNL     1       5.943  50.080  -6.864  1.00  0.00     0.052 C 
HETATM    8  S1  UNL     1       7.470  50.688  -7.687  1.00  0.00    -0.163 SA
HETATM    9  C18 UNL     1       6.685  51.142  -9.256  1.00  0.00     0.081 C 
HETATM   10  C19 UNL     1       5.314  51.532  -8.756  1.00  0.00     0.033 C 
ENDROOT
BRANCH   4  11
HETATM   11  C5  UNL     1       1.375  50.942  -6.472  1.00  0.00     0.143 C 
BRANCH  11  12
HETATM   12  O3  UNL     1       1.515  51.188  -5.188  1.00  0.00    -0.329 OA
BRANCH  12  13
HETATM   13  C6  UNL     1       0.725  50.870  -4.180  1.00  0.00     0.296 C 
HETATM   14  O4  UNL     1      -0.613  50.578  -4.620  1.00  0.00    -0.356 OA
HETATM   15  C7  UNL     1      -1.317  50.017  -3.591  1.00  0.00     0.205 C 
HETATM   16  C8  UNL     1      -0.765  50.241  -2.213  1.00  0.00     0.173 C 
HETATM   17  C9  UNL     1       0.643  49.682  -2.074  1.00  0.00     0.182 C 
HETATM   18  C10 UNL     1       1.206  49.605  -3.485  1.00  0.00     0.205 C 
BRANCH  16  19
HETATM   19  O5  UNL     1      -1.567  49.510  -1.327  1.00  0.00    -0.391 OA
ATOM     20  H5  UNL     1      -1.539  48.604  -1.613  1.00  0.00     0.210 HD
ENDBRANCH  16  19
BRANCH  17  21
HETATM   21  O6  UNL     1       0.584  48.375  -1.593  1.00  0.00    -0.390 OA
ATOM     22  H6  UNL     1       0.654  48.380  -0.646  1.00  0.00     0.210 HD
ENDBRANCH  17  21
BRANCH  18  23
HETATM   23  O7  UNL     1       2.558  49.552  -3.448  1.00  0.00    -0.388 OA
ATOM     24  H7  UNL     1       2.873  48.684  -3.672  1.00  0.00     0.210 HD
ENDBRANCH  18  23
ENDBRANCH  12  13
ENDBRANCH  11  12
ENDBRANCH   4  11
BRANCH   3  25
HETATM   25  O2  UNL     1       2.617  53.209  -8.638  1.00  0.00    -0.388 OA
ATOM     26  H2  UNL     1       3.522  53.255  -8.351  1.00  0.00     0.210 HD
ENDBRANCH   3  25
BRANCH   2  27
HETATM   27  O1  UNL     1       2.375  51.594 -11.006  1.00  0.00    -0.391 OA
ATOM     28  H1  UNL     1       1.961  50.810 -11.347  1.00  0.00     0.210 HD
ENDBRANCH   2  27
BRANCH   1  29
HETATM   29  N1  UNL     1       5.030  51.087 -11.108  1.00  0.00    -0.072 N 
ATOM     30  H13 UNL     1       4.338  50.709 -11.754  1.00  0.00     0.274 HD
ATOM     31  H12 UNL     1       5.469  51.737 -11.760  1.00  0.00     0.274 HD
ATOM     32  H11 UNL     1       5.672  50.383 -10.745  1.00  0.00     0.274 HD
ENDBRANCH   1  29
BRANCH   7  33
HETATM   33  C14 UNL     1       5.926  48.577  -6.919  1.00  0.00     0.016 C 
BRANCH  33  34
HETATM   34  C15 UNL     1       5.355  47.849  -5.774  1.00  0.00     0.012 C 
BRANCH  34  35
HETATM   35  C16 UNL     1       6.174  46.778  -5.140  1.00  0.00     0.113 C 
BRANCH  35  36
HETATM   36  C17 UNL     1       6.412  45.638  -6.086  1.00  0.00     0.172 C 
HETATM   37  O8  UNL     1       5.449  45.156  -6.702  1.00  0.00    -0.648 OA
HETATM   38  O9  UNL     1       7.677  45.136  -6.266  1.00  0.00    -0.648 OA
ENDBRANCH  35  36
ENDBRANCH  34  35
ENDBRANCH  33  34
ENDBRANCH   7  33
TORSDOF 13
ENDMDL
MODEL 3
REMARK VINA RESULT: -7.520870995      1.232      1.850
REMARK  13 active torsions:
REMARK  status: ('A' for Active; 'I' for Inactive)
REMARK    1  A    between atoms: N1_1  and  C1_5 
REMARK    2  A    between atoms: C2_6  and  O1_7 
REMARK    3  A    between atoms: C3_9  and  O2_10 
REMARK    4  A    between atoms: C4_12  and  C5_13 
REMARK    5  A    between atoms: C5_13  and  O3_14 
REMARK    6  A    between atoms: O3_14  and  C6_15 
REMARK    7  A    between atoms: C8_18  and  O5_19 
REMARK    8  A    between atoms: C9_21  and  O6_22 
REMARK    9  A    between atoms: C10_24  and  O7_25 
REMARK   10  A    between atoms: C13_29  and  C14_30 
REMARK   11  A    between atoms: C14_30  and  C15_31 
REMARK   12  A    between atoms: C15_31  and  C16_32 
REMARK   13  A    between atoms: C16_32  and  C17_33 
ROOT
HETATM    1  C1  UNL     1       5.686  51.831  -7.894  1.00  0.00     0.220 C 
HETATM    2  C2  UNL     1       4.548  50.947  -8.284  1.00  0.00     0.181 C 
HETATM    3  C3  UNL     1       3.184  51.547  -7.906  1.00  0.00     0.179 C 
HETATM    4  C4  UNL     1       2.838  51.066  -6.557  1.00  0.00    -0.027 C 
HETATM    5  C11 UNL     1       3.617  51.780  -5.462  1.00  0.00     0.045 C 
HETATM    6  C12 UNL     1       5.063  51.295  -5.527  1.00  0.00     0.010 C 
HETATM    7  C13 UNL     1       5.575  51.348  -4.115  1.00  0.00     0.052 C 
HETATM    8  S1  UNL     1       7.183  52.223  -4.286  1.00  0.00    -0.163 SA
HETATM    9  C18 UNL     1       7.289  52.095  -6.091  1.00  0.00     0.081 C 
HETATM   10  C19 UNL     1       5.820  52.134  -6.441  1.00  0.00     0.033 C 
ENDROOT
BRANCH   4  11
HETATM   11  C5  UNL     1       1.428  50.821  -6.185  1.00  0.00     0.143 C 
BRANCH  11  12
HETATM   12  O3  UNL     1       1.031  49.998  -5.240  1.00  0.00    -0.329 OA
BRANCH  12  13
HETATM   13  C6  UNL     1       0.482  50.264  -4.070  1.00  0.00     0.296 C 
HETATM   14  O4  UNL     1      -0.956  50.260  -4.140  1.00  0.00    -0.356 OA
HETATM   15  C7  UNL     1      -1.472  50.289  -2.875  1.00  0.00     0.205 C 
HETATM   16  C8  UNL     1      -0.545  50.761  -1.793  1.00  0.00     0.173 C 
HETATM   17  C9  UNL     1       0.693  49.883  -1.691  1.00  0.00     0.182 C 
HETATM   18  C10 UNL     1       0.837  49.201  -3.042  1.00  0.00     0.205 C 
BRANCH  16  19
HETATM   19  O5  UNL     1      -1.228  50.620  -0.578  1.00  0.00    -0.391 OA
ATOM     20  H5  UNL     1      -0.846  49.874  -0.131  1.00  0.00     0.210 HD
ENDBRANCH  16  19
BRANCH  17  21
HETATM   21  O6  UNL     1       0.476  48.875  -0.753  1.00  0.00    -0.390 OA
ATOM     22  H6  UNL     1       1.229  48.296  -0.726  1.00  0.00     0.210 HD
ENDBRANCH  17  21
BRANCH  18  23
HETATM   23  O7  UNL     1       2.106  48.763  -3.213  1.00  0.00    -0.388 OA
ATOM     24  H7  UNL     1       2.265  47.970  -2.715  1.00  0.00     0.210 HD
ENDBRANCH  18  23
ENDBRANCH  12  13
ENDBRANCH  11  12
ENDBRANCH   4  11
BRANCH   3  25
HETATM   25  O2  UNL     1       3.242  52.888  -8.138  1.00  0.00    -0.388 OA
ATOM     26  H2  UNL     1       2.610  53.308  -7.566  1.00  0.00     0.210 HD
ENDBRANCH   3  25
BRANCH   2  27
HETATM   27  O1  UNL     1       4.560  50.845  -9.673  1.00  0.00    -0.391 OA
ATOM     28  H1  UNL     1       3.728  50.471  -9.937  1.00  0.00     0.210 HD
ENDBRANCH   2  27
BRANCH   1  29
HETATM   29  N1  UNL     1       6.906  51.171  -8.365  1.00  0.00    -0.072 N 
ATOM     30  H13 UNL     1       6.869  50.154  -8.291  1.00  0.00     0.274 HD
ATOM     31  H12 UNL     1       7.027  51.219  -9.377  1.00  0.00     0.274 HD
ATOM     32  H11 UNL     1       7.678  51.586  -7.844  1.00  0.00     0.274 HD
ENDBRANCH   1  29
BRANCH   7  33
HETATM   33  C14 UNL     1       5.835  49.933  -3.677  1.00  0.00     0.016 C 
BRANCH  33  34
HETATM   34  C15 UNL     1       5.379  48.842  -4.553  1.00  0.00     0.012 C 
BRANCH  34  35
HETATM   35  C16 UNL     1       5.408  47.450  -4.021  1.00  0.00     0.113 C 
BRANCH  35  36
HETATM   36  C17 UNL     1       6.298  46.568  -4.847  1.00  0.00     0.172 C 
HETATM   37  O8  UNL     1       6.708  46.982  -5.942  1.00  0.00    -0.648 OA
HETATM   38  O9  UNL     1       6.652  45.321  -4.395  1.00  0.00    -0.648 OA
ENDBRANCH  35  36
ENDBRANCH  34  35
ENDBRANCH  33  34
ENDBRANCH   7  33
TORSDOF 13
ENDMDL
MODEL 4
REMARK VINA RESULT: -7.366098546      2.922      4.491
REMARK  13 active torsions:
REMARK  status: ('A' for Active; 'I' for Inactive)
REMARK    1  A    between atoms: N1_1  and  C1_5 
REMARK    2  A    between atoms: C2_6  and  O1_7 
REMARK    3  A    between atoms: C3_9  and  O2_10 
REMARK    4  A    between atoms: C4_12  and  C5_13 
REMARK    5  A    between atoms: C5_13  and  O3_14 
REMARK    6  A    between atoms: O3_14  and  C6_15 
REMARK    7  A    between atoms: C8_18  and  O5_19 
REMARK    8  A    between atoms: C9_21  and  O6_22 
REMARK    9  A    between atoms: C10_24  and  O7_25 
REMARK   10  A    between atoms: C13_29  and  C14_30 
REMARK   11  A    between atoms: C14_30  and  C15_31 
REMARK   12  A    between atoms: C15_31  and  C16_32 
REMARK   13  A    between atoms: C16_32  and  C17_33 
ROOT
HETATM    1  C1  UNL     1       5.182  51.707  -7.557  1.00  0.00     0.220 C 
HETATM    2  C2  UNL     1       4.112  51.281  -8.507  1.00  0.00     0.181 C 
HETATM    3  C3  UNL     1       2.753  51.926  -8.186  1.00  0.00     0.179 C 
HETATM    4  C4  UNL     1       2.031  51.024  -7.274  1.00  0.00    -0.027 C 
HETATM    5  C11 UNL     1       2.558  51.084  -5.848  1.00  0.00     0.045 C 
HETATM    6  C12 UNL     1       3.923  50.403  -5.828  1.00  0.00     0.010 C 
HETATM    7  C13 UNL     1       4.055  49.793  -4.460  1.00  0.00     0.052 C 
HETATM    8  S1  UNL     1       5.722  50.346  -3.915  1.00  0.00    -0.163 SA
HETATM    9  C18 UNL     1       6.281  50.927  -5.538  1.00  0.00     0.081 C 
HETATM   10  C19 UNL     1       4.962  51.377  -6.121  1.00  0.00     0.033 C 
ENDROOT
BRANCH   4  11
HETATM   11  C5  UNL     1       0.557  50.922  -7.331  1.00  0.00     0.143 C 
BRANCH  11  12
HETATM   12  O3  UNL     1      -0.219  51.643  -8.111  1.00  0.00    -0.329 OA
BRANCH  12  13
HETATM   13  C6  UNL     1      -0.817  51.313  -9.240  1.00  0.00     0.296 C 
HETATM   14  O4  UNL     1       0.082  50.649 -10.147  1.00  0.00    -0.356 OA
HETATM   15  C7  UNL     1      -0.633  50.109 -11.180  1.00  0.00     0.205 C 
HETATM   16  C8  UNL     1      -2.008  50.672 -11.398  1.00  0.00     0.173 C 
HETATM   17  C9  UNL     1      -2.891  50.489 -10.173  1.00  0.00     0.182 C 
HETATM   18  C10 UNL     1      -1.945  50.323  -8.994  1.00  0.00     0.205 C 
BRANCH  16  19
HETATM   19  O5  UNL     1      -2.598  49.923 -12.424  1.00  0.00    -0.391 OA
ATOM     20  H5  UNL     1      -2.209  50.217 -13.240  1.00  0.00     0.210 HD
ENDBRANCH  16  19
BRANCH  17  21
HETATM   21  O6  UNL     1      -3.606  49.298 -10.285  1.00  0.00    -0.390 OA
ATOM     22  H6  UNL     1      -3.811  48.966  -9.419  1.00  0.00     0.210 HD
ENDBRANCH  17  21
BRANCH  18  23
HETATM   23  O7  UNL     1      -2.588  50.595  -7.835  1.00  0.00    -0.388 OA
ATOM     24  H7  UNL     1      -3.053  51.422  -7.887  1.00  0.00     0.210 HD
ENDBRANCH  18  23
ENDBRANCH  12  13
ENDBRANCH  11  12
ENDBRANCH   4  11
BRANCH   3  25
HETATM   25  O2  UNL     1       2.987  53.213  -7.801  1.00  0.00    -0.388 OA
ATOM     26  H2  UNL     1       2.539  53.353  -6.975  1.00  0.00     0.210 HD
ENDBRANCH   3  25
BRANCH   2  27
HETATM   27  O1  UNL     1       4.475  51.739  -9.772  1.00  0.00    -0.391 OA
ATOM     28  H1  UNL     1       4.385  51.009 -10.373  1.00  0.00     0.210 HD
ENDBRANCH   2  27
BRANCH   1  29
HETATM   29  N1  UNL     1       6.420  51.071  -8.014  1.00  0.00    -0.072 N 
ATOM     30  H13 UNL     1       6.827  50.437  -7.327  1.00  0.00     0.274 HD
ATOM     31  H12 UNL     1       6.271  50.380  -8.750  1.00  0.00     0.274 HD
ATOM     32  H11 UNL     1       7.048  51.826  -8.289  1.00  0.00     0.274 HD
ENDBRANCH   1  29
BRANCH   7  33
HETATM   33  C14 UNL     1       4.069  48.300  -4.632  1.00  0.00     0.016 C 
BRANCH  33  34
HETATM   34  C15 UNL     1       5.366  47.608  -4.577  1.00  0.00     0.012 C 
BRANCH  34  35
HETATM   35  C16 UNL     1       5.845  46.906  -5.801  1.00  0.00     0.113 C 
BRANCH  35  36
HETATM   36  C17 UNL     1       6.625  45.673  -5.454  1.00  0.00     0.172 C 
HETATM   37  O8  UNL     1       6.614  45.262  -4.284  1.00  0.00    -0.648 OA
HETATM   38  O9  UNL     1       7.342  45.010  -6.420  1.00  0.00    -0.648 OA
ENDBRANCH  35  36
ENDBRANCH  34  35
ENDBRANCH  33  34
ENDBRANCH   7  33
TORSDOF 13
ENDMDL
MODEL 5
REMARK VINA RESULT: -7.327800950      3.421      4.556
REMARK  13 active torsions:
REMARK  status: ('A' for Active; 'I' for Inactive)
REMARK    1  A    between atoms: N1_1  and  C1_5 
REMARK    2  A    between atoms: C2_6  and  O1_7 
REMARK    3  A    between atoms: C3_9  and  O2_10 
REMARK    4  A    between atoms: C4_12  and  C5_13 
REMARK    5  A    between atoms: C5_13  and  O3_14 
REMARK    6  A    between atoms: O3_14  and  C6_15 
REMARK    7  A    between atoms: C8_18  and  O5_19 
REMARK    8  A    between atoms: C9_21  and  O6_22 
REMARK    9  A    between atoms: C10_24  and  O7_25 
REMARK   10  A    between atoms: C13_29  and  C14_30 
REMARK   11  A    between atoms: C14_30  and  C15_31 
REMARK   12  A    between atoms: C15_31  and  C16_32 
REMARK   13  A    between atoms: C16_32  and  C17_33 
ROOT
HETATM    1  C1  UNL     1       5.913  53.126  -5.912  1.00  0.00     0.220 C 
HETATM    2  C2  UNL     1       5.725  53.254  -7.388  1.00  0.00     0.181 C 
HETATM    3  C3  UNL     1       4.242  53.332  -7.785  1.00  0.00     0.179 C 
HETATM    4  C4  UNL     1       3.771  51.961  -8.041  1.00  0.00    -0.027 C 
HETATM    5  C11 UNL     1       3.535  51.172  -6.761  1.00  0.00     0.045 C 
HETATM    6  C12 UNL     1       4.898  50.849  -6.155  1.00  0.00     0.010 C 
HETATM    7  C13 UNL     1       4.729  49.534  -5.447  1.00  0.00     0.052 C 
HETATM    8  S1  UNL     1       5.472  49.850  -3.796  1.00  0.00    -0.163 SA
HETATM    9  C18 UNL     1       6.282  51.411  -4.236  1.00  0.00     0.081 C 
HETATM   10  C19 UNL     1       5.308  51.925  -5.269  1.00  0.00     0.033 C 
ENDROOT
BRANCH   4  11
HETATM   11  C5  UNL     1       2.739  51.700  -9.067  1.00  0.00     0.143 C 
BRANCH  11  12
HETATM   12  O3  UNL     1       1.500  52.139  -9.019  1.00  0.00    -0.329 OA
BRANCH  12  13
HETATM   13  C6  UNL     1       0.368  51.482  -9.190  1.00  0.00     0.296 C 
HETATM   14  O4  UNL     1      -0.235  51.120  -7.935  1.00  0.00    -0.356 OA
HETATM   15  C7  UNL     1      -1.508  50.674  -8.155  1.00  0.00     0.205 C 
HETATM   16  C8  UNL     1      -1.821  50.236  -9.557  1.00  0.00     0.173 C 
HETATM   17  C9  UNL     1      -1.624  51.366 -10.556  1.00  0.00     0.182 C 
HETATM   18  C10 UNL     1      -0.664  52.345  -9.899  1.00  0.00     0.205 C 
BRANCH  16  19
HETATM   19  O5  UNL     1      -3.185  49.915  -9.590  1.00  0.00    -0.391 OA
ATOM     20  H5  UNL     1      -3.514  50.016  -8.705  1.00  0.00     0.210 HD
ENDBRANCH  16  19
BRANCH  17  21
HETATM   21  O6  UNL     1      -2.827  52.044 -10.740  1.00  0.00    -0.390 OA
ATOM     22  H6  UNL     1      -3.381  51.926  -9.977  1.00  0.00     0.210 HD
ENDBRANCH  17  21
BRANCH  18  23
HETATM   23  O7  UNL     1      -0.083  53.131 -10.835  1.00  0.00    -0.388 OA
ATOM     24  H7  UNL     1       0.113  52.638 -11.623  1.00  0.00     0.210 HD
ENDBRANCH  18  23
ENDBRANCH  12  13
ENDBRANCH  11  12
ENDBRANCH   4  11
BRANCH   3  25
HETATM   25  O2  UNL     1       3.603  54.090  -6.850  1.00  0.00    -0.388 OA
ATOM     26  H2  UNL     1       3.055  54.716  -7.311  1.00  0.00     0.210 HD
ENDBRANCH   3  25
BRANCH   2  27
HETATM   27  O1  UNL     1       6.300  54.462  -7.776  1.00  0.00    -0.391 OA
ATOM     28  H1  UNL     1       6.099  54.589  -8.696  1.00  0.00     0.210 HD
ENDBRANCH   2  27
BRANCH   1  29
HETATM   29  N1  UNL     1       7.359  53.124  -5.676  1.00  0.00    -0.072 N 
ATOM     30  H13 UNL     1       7.609  52.989  -4.697  1.00  0.00     0.274 HD
ATOM     31  H12 UNL     1       7.826  52.294  -6.041  1.00  0.00     0.274 HD
ATOM     32  H11 UNL     1       7.716  53.995  -6.068  1.00  0.00     0.274 HD
ENDBRANCH   1  29
BRANCH   7  33
HETATM   33  C14 UNL     1       5.569  48.520  -6.173  1.00  0.00     0.016 C 
BRANCH  33  34
HETATM   34  C15 UNL     1       5.372  47.098  -5.849  1.00  0.00     0.012 C 
BRANCH  34  35
HETATM   35  C16 UNL     1       6.298  46.461  -4.870  1.00  0.00     0.113 C 
BRANCH  35  36
HETATM   36  C17 UNL     1       6.750  45.112  -5.344  1.00  0.00     0.172 C 
HETATM   37  O8  UNL     1       6.428  44.106  -4.693  1.00  0.00    -0.648 OA
HETATM   38  O9  UNL     1       7.511  44.994  -6.481  1.00  0.00    -0.648 OA
ENDBRANCH  35  36
ENDBRANCH  34  35
ENDBRANCH  33  34
ENDBRANCH   7  33
TORSDOF 13
ENDMDL
