MODEL 1
REMARK VINA RESULT: -5.849358026      0.000      0.000
REMARK  12 active torsions:
REMARK  status: ('A' for Active; 'I' for Inactive)
REMARK    1  A    between atoms: O1_2  and  C2_3 
REMARK    2  A    between atoms: C4_5  and  C5_6 
REMARK       I    between atoms: C5_6  and  N1_8 
REMARK    3  A    between atoms: N1_8  and  C6_10 
REMARK    4  A    between atoms: C11_15  and  O3_16 
REMARK    5  A    between atoms: O3_16  and  C12_17 
REMARK    6  A    between atoms: C13_19  and  C14_20 
REMARK    7  A    between atoms: C14_20  and  O5_21 
REMARK    8  A    between atoms: C15_23  and  O6_24 
REMARK    9  A    between atoms: C17_27  and  N2_28 
REMARK   10  A    between atoms: C18_33  and  C19_34 
REMARK   11  A    between atoms: C19_34  and  O8_35 
REMARK   12  A    between atoms: C20_37  and  O9_38 
ROOT
HETATM    1  C6  UNL     1       6.136  52.249  -7.923  1.00  0.00     0.113 C 
HETATM    2  C7  UNL     1       6.795  51.068  -8.656  1.00  0.00     0.028 C 
HETATM    3  C8  UNL     1       7.127  51.444 -10.076  1.00  0.00     0.002 C 
HETATM    4  C9  UNL     1       7.817  52.760 -10.212  1.00  0.00     0.003 C 
HETATM    5  C10 UNL     1       7.099  53.832  -9.404  1.00  0.00     0.034 C 
HETATM    6  C11 UNL     1       7.162  53.346  -7.956  1.00  0.00     0.147 C 
ENDROOT
BRANCH   1   7
HETATM    7  N1  UNL     1       5.703  51.813  -6.652  1.00  0.00    -0.352 N 
HETATM    8  C5  UNL     1       4.360  51.992  -6.247  1.00  0.00     0.247 C 
HETATM    9  O2  UNL     1       3.539  52.558  -7.049  1.00  0.00    -0.271 OA
ATOM     10  H1  UNL     1       6.366  51.364  -6.019  1.00  0.00     0.163 HD
BRANCH   8  11
HETATM   11  C4  UNL     1       3.804  51.572  -4.949  1.00  0.00     0.216 C 
HETATM   12  C3  UNL     1       2.341  51.195  -5.020  1.00  0.00     0.076 C 
HETATM   13  C2  UNL     1       2.069  50.339  -3.788  1.00  0.00     0.155 C 
HETATM   14  C20 UNL     1       2.766  49.004  -4.081  1.00  0.00     0.178 C 
HETATM   15  C18 UNL     1       4.171  49.312  -4.578  1.00  0.00     0.177 C 
HETATM   16  O7  UNL     1       4.566  50.604  -4.325  1.00  0.00    -0.366 OA
BRANCH  13  17
HETATM   17  O1  UNL     1       0.734  50.057  -3.620  1.00  0.00    -0.388 OA
HETATM   18  C1  UNL     1       0.329  50.403  -2.322  1.00  0.00     0.202 C 
ENDBRANCH  13  17
BRANCH  14  19
HETATM   19  O9  UNL     1       2.038  48.329  -5.085  1.00  0.00    -0.390 OA
ATOM     20  H9  UNL     1       1.898  47.432  -4.804  1.00  0.00     0.210 HD
ENDBRANCH  14  19
BRANCH  15  21
HETATM   21  C19 UNL     1       5.099  48.408  -3.752  1.00  0.00     0.198 C 
BRANCH  21  22
HETATM   22  O8  UNL     1       6.061  49.181  -3.141  1.00  0.00    -0.398 OA
ATOM     23  H8  UNL     1       6.192  49.976  -3.645  1.00  0.00     0.209 HD
ENDBRANCH  21  22
ENDBRANCH  15  21
ENDBRANCH   8  11
ENDBRANCH   1   7
BRANCH   6  24
HETATM   24  O3  UNL     1       6.886  54.300  -7.052  1.00  0.00    -0.352 OA
BRANCH  24  25
HETATM   25  C12 UNL     1       7.704  54.360  -5.919  1.00  0.00     0.291 C 
HETATM   26  O4  UNL     1       6.836  54.044  -4.888  1.00  0.00    -0.349 OA
HETATM   27  C13 UNL     1       7.371  53.633  -3.717  1.00  0.00     0.177 C 
HETATM   28  C15 UNL     1       8.166  52.367  -3.960  1.00  0.00     0.151 C 
HETATM   29  C16 UNL     1       9.315  52.730  -4.827  1.00  0.00     0.072 C 
HETATM   30  C17 UNL     1       8.967  53.614  -5.988  1.00  0.00     0.240 C 
BRANCH  27  31
HETATM   31  C14 UNL     1       8.163  54.631  -2.947  1.00  0.00     0.198 C 
BRANCH  31  32
HETATM   32  O5  UNL     1       8.500  54.116  -1.697  1.00  0.00    -0.398 OA
ATOM     33  H5  UNL     1       9.337  54.465  -1.414  1.00  0.00     0.209 HD
ENDBRANCH  31  32
ENDBRANCH  27  31
BRANCH  28  34
HETATM   34  O6  UNL     1       7.397  51.351  -4.470  1.00  0.00    -0.393 OA
ATOM     35  H6  UNL     1       7.586  50.513  -4.067  1.00  0.00     0.210 HD
ENDBRANCH  28  34
BRANCH  30  36
HETATM   36  N2  UNL     1      10.156  54.446  -6.191  1.00  0.00    -0.070 N 
ATOM     37  H23 UNL     1      10.906  54.153  -5.564  1.00  0.00     0.274 HD
ATOM     38  H22 UNL     1      10.588  54.235  -7.090  1.00  0.00     0.274 HD
ATOM     39  H21 UNL     1       9.992  55.449  -6.102  1.00  0.00     0.274 HD
ENDBRANCH  30  36
ENDBRANCH  24  25
ENDBRANCH   6  24
TORSDOF 12
ENDMDL
MODEL 2
REMARK VINA RESULT: -5.733003690      1.542      1.801
REMARK  12 active torsions:
REMARK  status: ('A' for Active; 'I' for Inactive)
REMARK    1  A    between atoms: O1_2  and  C2_3 
REMARK    2  A    between atoms: C4_5  and  C5_6 
REMARK       I    between atoms: C5_6  and  N1_8 
REMARK    3  A    between atoms: N1_8  and  C6_10 
REMARK    4  A    between atoms: C11_15  and  O3_16 
REMARK    5  A    between atoms: O3_16  and  C12_17 
REMARK    6  A    between atoms: C13_19  and  C14_20 
REMARK    7  A    between atoms: C14_20  and  O5_21 
REMARK    8  A    between atoms: C15_23  and  O6_24 
REMARK    9  A    between atoms: C17_27  and  N2_28 
REMARK   10  A    between atoms: C18_33  and  C19_34 
REMARK   11  A    between atoms: C19_34  and  O8_35 
REMARK   12  A    between atoms: C20_37  and  O9_38 
ROOT
HETATM    1  C6  UNL     1       4.350  51.623  -8.603  1.00  0.00     0.113 C 
HETATM    2  C7  UNL     1       4.844  50.397  -9.392  1.00  0.00     0.028 C 
HETATM    3  C8  UNL     1       4.691  50.624 -10.873  1.00  0.00     0.002 C 
HETATM    4  C9  UNL     1       5.198  51.946 -11.341  1.00  0.00     0.003 C 
HETATM    5  C10 UNL     1       4.681  53.070 -10.453  1.00  0.00     0.034 C 
HETATM    6  C11 UNL     1       5.226  52.755  -9.059  1.00  0.00     0.147 C 
ENDROOT
BRANCH   1   7
HETATM    7  N1  UNL     1       4.366  51.315  -7.224  1.00  0.00    -0.352 N 
HETATM    8  C5  UNL     1       3.200  51.465  -6.439  1.00  0.00     0.247 C 
HETATM    9  O2  UNL     1       2.127  51.887  -6.993  1.00  0.00    -0.271 OA
ATOM     10  H1  UNL     1       5.227  50.981  -6.791  1.00  0.00     0.163 HD
BRANCH   8  11
HETATM   11  C4  UNL     1       3.106  51.170  -4.999  1.00  0.00     0.216 C 
HETATM   12  C3  UNL     1       1.802  50.509  -4.609  1.00  0.00     0.076 C 
HETATM   13  C2  UNL     1       2.059  49.836  -3.265  1.00  0.00     0.155 C 
HETATM   14  C20 UNL     1       2.950  48.633  -3.597  1.00  0.00     0.178 C 
HETATM   15  C18 UNL     1       4.071  49.119  -4.504  1.00  0.00     0.177 C 
HETATM   16  O7  UNL     1       4.205  50.487  -4.516  1.00  0.00    -0.366 OA
BRANCH  13  17
HETATM   17  O1  UNL     1       0.914  49.333  -2.695  1.00  0.00    -0.388 OA
HETATM   18  C1  UNL     1       0.200  50.362  -2.061  1.00  0.00     0.202 C 
ENDBRANCH  13  17
BRANCH  14  19
HETATM   19  O9  UNL     1       2.169  47.669  -4.273  1.00  0.00    -0.390 OA
ATOM     20  H9  UNL     1       2.525  46.808  -4.086  1.00  0.00     0.210 HD
ENDBRANCH  14  19
BRANCH  15  21
HETATM   21  C19 UNL     1       5.363  48.566  -3.884  1.00  0.00     0.198 C 
BRANCH  21  22
HETATM   22  O8  UNL     1       6.115  49.609  -3.392  1.00  0.00    -0.398 OA
ATOM     23  H8  UNL     1       6.797  49.265  -2.826  1.00  0.00     0.209 HD
ENDBRANCH  21  22
ENDBRANCH  15  21
ENDBRANCH   8  11
ENDBRANCH   1   7
BRANCH   6  24
HETATM   24  O3  UNL     1       5.167  53.792  -8.208  1.00  0.00    -0.352 OA
BRANCH  24  25
HETATM   25  C12 UNL     1       6.294  54.030  -7.415  1.00  0.00     0.291 C 
HETATM   26  O4  UNL     1       5.851  53.720  -6.140  1.00  0.00    -0.349 OA
HETATM   27  C13 UNL     1       6.782  53.466  -5.193  1.00  0.00     0.177 C 
HETATM   28  C15 UNL     1       7.603  52.268  -5.625  1.00  0.00     0.151 C 
HETATM   29  C16 UNL     1       8.357  52.667  -6.839  1.00  0.00     0.072 C 
HETATM   30  C17 UNL     1       7.548  53.409  -7.862  1.00  0.00     0.240 C 
BRANCH  27  31
HETATM   31  C14 UNL     1       7.653  54.600  -4.780  1.00  0.00     0.198 C 
BRANCH  31  32
HETATM   32  O5  UNL     1       6.957  55.452  -3.923  1.00  0.00    -0.398 OA
ATOM     33  H5  UNL     1       7.096  56.357  -4.177  1.00  0.00     0.209 HD
ENDBRANCH  31  32
ENDBRANCH  27  31
BRANCH  28  34
HETATM   34  O6  UNL     1       6.839  51.142  -5.801  1.00  0.00    -0.393 OA
ATOM     35  H6  UNL     1       6.918  50.531  -5.077  1.00  0.00     0.210 HD
ENDBRANCH  28  34
BRANCH  30  36
HETATM   36  N2  UNL     1       8.497  54.334  -8.487  1.00  0.00    -0.070 N 
ATOM     37  H23 UNL     1       8.279  55.296  -8.226  1.00  0.00     0.274 HD
ATOM     38  H22 UNL     1       9.418  54.241  -8.058  1.00  0.00     0.274 HD
ATOM     39  H21 UNL     1       8.567  54.248  -9.500  1.00  0.00     0.274 HD
ENDBRANCH  30  36
ENDBRANCH  24  25
ENDBRANCH   6  24
TORSDOF 12
ENDMDL
MODEL 3
REMARK VINA RESULT: -5.564853299      1.766      3.022
REMARK  12 active torsions:
REMARK  status: ('A' for Active; 'I' for Inactive)
REMARK    1  A    between atoms: O1_2  and  C2_3 
REMARK    2  A    between atoms: C4_5  and  C5_6 
REMARK       I    between atoms: C5_6  and  N1_8 
REMARK    3  A    between atoms: N1_8  and  C6_10 
REMARK    4  A    between atoms: C11_15  and  O3_16 
REMARK    5  A    between atoms: O3_16  and  C12_17 
REMARK    6  A    between atoms: C13_19  and  C14_20 
REMARK    7  A    between atoms: C14_20  and  O5_21 
REMARK    8  A    between atoms: C15_23  and  O6_24 
REMARK    9  A    between atoms: C17_27  and  N2_28 
REMARK   10  A    between atoms: C18_33  and  C19_34 
REMARK   11  A    between atoms: C19_34  and  O8_35 
REMARK   12  A    between atoms: C20_37  and  O9_38 
ROOT
HETATM    1  C6  UNL     1       7.648  51.261  -8.616  1.00  0.00     0.113 C 
HETATM    2  C7  UNL     1       9.044  50.770  -9.035  1.00  0.00     0.028 C 
HETATM    3  C8  UNL     1       9.581  51.602 -10.169  1.00  0.00     0.002 C 
HETATM    4  C9  UNL     1       9.445  53.073  -9.963  1.00  0.00     0.003 C 
HETATM    5  C10 UNL     1       8.036  53.426  -9.505  1.00  0.00     0.034 C 
HETATM    6  C11 UNL     1       7.852  52.684  -8.180  1.00  0.00     0.147 C 
ENDROOT
BRANCH   1   7
HETATM    7  N1  UNL     1       7.116  50.368  -7.661  1.00  0.00    -0.352 N 
HETATM    8  C5  UNL     1       5.768  49.949  -7.737  1.00  0.00     0.247 C 
HETATM    9  O2  UNL     1       5.031  50.393  -8.684  1.00  0.00    -0.271 OA
ATOM     10  H1  UNL     1       7.711  50.021  -6.908  1.00  0.00     0.163 HD
BRANCH   8  11
HETATM   11  C4  UNL     1       5.116  49.020  -6.798  1.00  0.00     0.216 C 
HETATM   12  C3  UNL     1       6.096  48.273  -5.920  1.00  0.00     0.076 C 
HETATM   13  C2  UNL     1       5.292  47.776  -4.723  1.00  0.00     0.155 C 
HETATM   14  C20 UNL     1       5.004  49.035  -3.897  1.00  0.00     0.178 C 
HETATM   15  C18 UNL     1       4.492  50.109  -4.846  1.00  0.00     0.177 C 
HETATM   16  O7  UNL     1       4.104  49.613  -6.068  1.00  0.00    -0.366 OA
BRANCH  13  17
HETATM   17  O1  UNL     1       6.011  46.929  -3.914  1.00  0.00    -0.388 OA
HETATM   18  C1  UNL     1       6.504  45.851  -4.664  1.00  0.00     0.202 C 
ENDBRANCH  13  17
BRANCH  14  19
HETATM   19  O9  UNL     1       6.209  49.461  -3.295  1.00  0.00    -0.390 OA
ATOM     20  H9  UNL     1       6.758  49.853  -3.964  1.00  0.00     0.210 HD
ENDBRANCH  14  19
BRANCH  15  21
HETATM   21  C19 UNL     1       3.222  50.663  -4.184  1.00  0.00     0.198 C 
BRANCH  21  22
HETATM   22  O8  UNL     1       2.546  49.635  -3.566  1.00  0.00    -0.398 OA
ATOM     23  H8  UNL     1       1.895  49.998  -2.976  1.00  0.00     0.209 HD
ENDBRANCH  21  22
ENDBRANCH  15  21
ENDBRANCH   8  11
ENDBRANCH   1   7
BRANCH   6  24
HETATM   24  O3  UNL     1       6.815  53.127  -7.452  1.00  0.00    -0.352 OA
BRANCH  24  25
HETATM   25  C12 UNL     1       7.099  53.627  -6.177  1.00  0.00     0.291 C 
HETATM   26  O4  UNL     1       7.076  52.493  -5.383  1.00  0.00    -0.349 OA
HETATM   27  C13 UNL     1       7.686  52.554  -4.178  1.00  0.00     0.177 C 
HETATM   28  C15 UNL     1       9.156  52.854  -4.389  1.00  0.00     0.151 C 
HETATM   29  C16 UNL     1       9.247  54.221  -4.961  1.00  0.00     0.072 C 
HETATM   30  C17 UNL     1       8.274  54.502  -6.068  1.00  0.00     0.240 C 
BRANCH  27  31
HETATM   31  C14 UNL     1       7.087  53.463  -3.162  1.00  0.00     0.198 C 
BRANCH  31  32
HETATM   32  O5  UNL     1       7.049  52.834  -1.919  1.00  0.00    -0.398 OA
ATOM     33  H5  UNL     1       6.788  53.453  -1.247  1.00  0.00     0.209 HD
ENDBRANCH  31  32
ENDBRANCH  27  31
BRANCH  28  34
HETATM   34  O6  UNL     1       9.784  51.901  -5.150  1.00  0.00    -0.393 OA
ATOM     35  H6  UNL     1       9.870  51.070  -4.696  1.00  0.00     0.210 HD
ENDBRANCH  28  34
BRANCH  30  36
HETATM   36  N2  UNL     1       7.961  55.927  -5.935  1.00  0.00    -0.070 N 
ATOM     37  H23 UNL     1       7.013  56.051  -5.582  1.00  0.00     0.274 HD
ATOM     38  H22 UNL     1       8.490  56.336  -5.165  1.00  0.00     0.274 HD
ATOM     39  H21 UNL     1       8.097  56.472  -6.787  1.00  0.00     0.274 HD
ENDBRANCH  30  36
ENDBRANCH  24  25
ENDBRANCH   6  24
TORSDOF 12
ENDMDL
MODEL 4
REMARK VINA RESULT: -5.535425097      2.361      4.221
REMARK  12 active torsions:
REMARK  status: ('A' for Active; 'I' for Inactive)
REMARK    1  A    between atoms: O1_2  and  C2_3 
REMARK    2  A    between atoms: C4_5  and  C5_6 
REMARK       I    between atoms: C5_6  and  N1_8 
REMARK    3  A    between atoms: N1_8  and  C6_10 
REMARK    4  A    between atoms: C11_15  and  O3_16 
REMARK    5  A    between atoms: O3_16  and  C12_17 
REMARK    6  A    between atoms: C13_19  and  C14_20 
REMARK    7  A    between atoms: C14_20  and  O5_21 
REMARK    8  A    between atoms: C15_23  and  O6_24 
REMARK    9  A    between atoms: C17_27  and  N2_28 
REMARK   10  A    between atoms: C18_33  and  C19_34 
REMARK   11  A    between atoms: C19_34  and  O8_35 
REMARK   12  A    between atoms: C20_37  and  O9_38 
ROOT
HETATM    1  C6  UNL     1       5.144  53.643  -6.964  1.00  0.00     0.113 C 
HETATM    2  C7  UNL     1       4.222  54.169  -8.079  1.00  0.00     0.028 C 
HETATM    3  C8  UNL     1       3.984  55.647  -7.916  1.00  0.00     0.002 C 
HETATM    4  C9  UNL     1       5.222  56.440  -7.670  1.00  0.00     0.003 C 
HETATM    5  C10 UNL     1       6.071  55.794  -6.584  1.00  0.00     0.034 C 
HETATM    6  C11 UNL     1       6.426  54.409  -7.129  1.00  0.00     0.147 C 
ENDROOT
BRANCH   1   7
HETATM    7  N1  UNL     1       5.221  52.237  -7.060  1.00  0.00    -0.352 N 
HETATM    8  C5  UNL     1       4.302  51.416  -6.365  1.00  0.00     0.247 C 
HETATM    9  O2  UNL     1       3.399  51.965  -5.645  1.00  0.00    -0.271 OA
ATOM     10  H1  UNL     1       5.946  51.808  -7.636  1.00  0.00     0.163 HD
BRANCH   8  11
HETATM   11  C4  UNL     1       4.290  49.943  -6.399  1.00  0.00     0.216 C 
HETATM   12  C3  UNL     1       5.669  49.332  -6.281  1.00  0.00     0.076 C 
HETATM   13  C2  UNL     1       5.452  47.890  -5.833  1.00  0.00     0.155 C 
HETATM   14  C20 UNL     1       5.015  48.001  -4.367  1.00  0.00     0.178 C 
HETATM   15  C18 UNL     1       3.929  49.065  -4.282  1.00  0.00     0.177 C 
HETATM   16  O7  UNL     1       3.394  49.391  -5.505  1.00  0.00    -0.366 OA
BRANCH  13  17
HETATM   17  O1  UNL     1       6.609  47.149  -5.845  1.00  0.00    -0.388 OA
HETATM   18  C1  UNL     1       6.303  45.781  -5.890  1.00  0.00     0.202 C 
ENDBRANCH  13  17
BRANCH  14  19
HETATM   19  O9  UNL     1       6.132  48.392  -3.595  1.00  0.00    -0.390 OA
ATOM     20  H9  UNL     1       5.951  49.243  -3.212  1.00  0.00     0.210 HD
ENDBRANCH  14  19
BRANCH  15  21
HETATM   21  C19 UNL     1       2.794  48.420  -3.473  1.00  0.00     0.198 C 
BRANCH  21  22
HETATM   22  O8  UNL     1       1.717  49.277  -3.439  1.00  0.00    -0.398 OA
ATOM     23  H8  UNL     1       0.928  48.781  -3.250  1.00  0.00     0.209 HD
ENDBRANCH  21  22
ENDBRANCH  15  21
ENDBRANCH   8  11
ENDBRANCH   1   7
BRANCH   6  24
HETATM   24  O3  UNL     1       7.438  53.814  -6.478  1.00  0.00    -0.352 OA
BRANCH  24  25
HETATM   25  C12 UNL     1       8.403  53.167  -7.256  1.00  0.00     0.291 C 
HETATM   26  O4  UNL     1       8.153  51.826  -7.015  1.00  0.00    -0.349 OA
HETATM   27  C13 UNL     1       8.639  50.925  -7.898  1.00  0.00     0.177 C 
HETATM   28  C15 UNL     1       8.034  51.198  -9.259  1.00  0.00     0.151 C 
HETATM   29  C16 UNL     1       8.539  52.520  -9.708  1.00  0.00     0.072 C 
HETATM   30  C17 UNL     1       8.501  53.592  -8.659  1.00  0.00     0.240 C 
BRANCH  27  31
HETATM   31  C14 UNL     1      10.119  50.790  -7.980  1.00  0.00     0.198 C 
BRANCH  31  32
HETATM   32  O5  UNL     1      10.499  49.482  -7.685  1.00  0.00    -0.398 OA
ATOM     33  H5  UNL     1      11.372  49.471  -7.310  1.00  0.00     0.209 HD
ENDBRANCH  31  32
ENDBRANCH  27  31
BRANCH  28  34
HETATM   34  O6  UNL     1       6.664  51.110  -9.254  1.00  0.00    -0.393 OA
ATOM     35  H6  UNL     1       6.288  51.327  -8.409  1.00  0.00     0.210 HD
ENDBRANCH  28  34
BRANCH  30  36
HETATM   36  N2  UNL     1       9.654  54.445  -8.957  1.00  0.00    -0.070 N 
ATOM     37  H23 UNL     1       9.499  54.962  -9.823  1.00  0.00     0.274 HD
ATOM     38  H22 UNL     1       9.703  55.220  -8.296  1.00  0.00     0.274 HD
ATOM     39  H21 UNL     1      10.547  53.953  -8.993  1.00  0.00     0.274 HD
ENDBRANCH  30  36
ENDBRANCH  24  25
ENDBRANCH   6  24
TORSDOF 12
ENDMDL
MODEL 5
REMARK VINA RESULT: -5.503261894      2.172      6.582
REMARK  12 active torsions:
REMARK  status: ('A' for Active; 'I' for Inactive)
REMARK    1  A    between atoms: O1_2  and  C2_3 
REMARK    2  A    between atoms: C4_5  and  C5_6 
REMARK       I    between atoms: C5_6  and  N1_8 
REMARK    3  A    between atoms: N1_8  and  C6_10 
REMARK    4  A    between atoms: C11_15  and  O3_16 
REMARK    5  A    between atoms: O3_16  and  C12_17 
REMARK    6  A    between atoms: C13_19  and  C14_20 
REMARK    7  A    between atoms: C14_20  and  O5_21 
REMARK    8  A    between atoms: C15_23  and  O6_24 
REMARK    9  A    between atoms: C17_27  and  N2_28 
REMARK   10  A    between atoms: C18_33  and  C19_34 
REMARK   11  A    between atoms: C19_34  and  O8_35 
REMARK   12  A    between atoms: C20_37  and  O9_38 
ROOT
HETATM    1  C6  UNL     1       4.697  50.238  -4.253  1.00  0.00     0.113 C 
HETATM    2  C7  UNL     1       5.323  48.903  -4.695  1.00  0.00     0.028 C 
HETATM    3  C8  UNL     1       4.425  47.750  -4.331  1.00  0.00     0.002 C 
HETATM    4  C9  UNL     1       2.995  47.952  -4.703  1.00  0.00     0.003 C 
HETATM    5  C10 UNL     1       2.508  49.324  -4.257  1.00  0.00     0.034 C 
HETATM    6  C11 UNL     1       3.397  50.321  -5.001  1.00  0.00     0.147 C 
ENDROOT
BRANCH   1   7
HETATM    7  N1  UNL     1       5.630  51.275  -4.472  1.00  0.00    -0.352 N 
HETATM    8  C5  UNL     1       6.816  51.350  -3.706  1.00  0.00     0.247 C 
HETATM    9  O2  UNL     1       7.033  50.466  -2.807  1.00  0.00    -0.271 OA
ATOM     10  H1  UNL     1       5.447  51.976  -5.190  1.00  0.00     0.163 HD
BRANCH   8  11
HETATM   11  C4  UNL     1       7.855  52.384  -3.854  1.00  0.00     0.216 C 
HETATM   12  C3  UNL     1       7.762  53.140  -5.161  1.00  0.00     0.076 C 
HETATM   13  C2  UNL     1       8.530  54.441  -4.948  1.00  0.00     0.155 C 
HETATM   14  C20 UNL     1       7.634  55.273  -4.022  1.00  0.00     0.178 C 
HETATM   15  C18 UNL     1       7.192  54.379  -2.873  1.00  0.00     0.177 C 
HETATM   16  O7  UNL     1       7.935  53.228  -2.764  1.00  0.00    -0.366 OA
BRANCH  13  17
HETATM   17  O1  UNL     1       8.681  55.165  -6.106  1.00  0.00    -0.388 OA
HETATM   18  C1  UNL     1       8.561  54.321  -7.220  1.00  0.00     0.202 C 
ENDBRANCH  13  17
BRANCH  14  19
HETATM   19  O9  UNL     1       6.508  55.705  -4.756  1.00  0.00    -0.390 OA
ATOM     20  H9  UNL     1       6.023  54.939  -5.042  1.00  0.00     0.210 HD
ENDBRANCH  14  19
BRANCH  15  21
HETATM   21  C19 UNL     1       7.466  55.191  -1.598  1.00  0.00     0.198 C 
BRANCH  21  22
HETATM   22  O8  UNL     1       6.516  56.179  -1.475  1.00  0.00    -0.398 OA
ATOM     23  H8  UNL     1       6.948  57.019  -1.367  1.00  0.00     0.209 HD
ENDBRANCH  21  22
ENDBRANCH  15  21
ENDBRANCH   8  11
ENDBRANCH   1   7
BRANCH   6  24
HETATM   24  O3  UNL     1       2.916  51.575  -5.007  1.00  0.00    -0.352 OA
BRANCH  24  25
HETATM   25  C12 UNL     1       2.971  52.273  -6.218  1.00  0.00     0.291 C 
HETATM   26  O4  UNL     1       4.148  52.994  -6.110  1.00  0.00    -0.349 OA
HETATM   27  C13 UNL     1       4.703  53.470  -7.247  1.00  0.00     0.177 C 
HETATM   28  C15 UNL     1       5.042  52.302  -8.151  1.00  0.00     0.151 C 
HETATM   29  C16 UNL     1       3.759  51.674  -8.556  1.00  0.00     0.072 C 
HETATM   30  C17 UNL     1       2.779  51.477  -7.437  1.00  0.00     0.240 C 
BRANCH  27  31
HETATM   31  C14 UNL     1       3.947  54.522  -7.980  1.00  0.00     0.198 C 
BRANCH  31  32
HETATM   32  O5  UNL     1       3.520  55.511  -7.095  1.00  0.00    -0.398 OA
ATOM     33  H5  UNL     1       2.800  56.001  -7.475  1.00  0.00     0.209 HD
ENDBRANCH  31  32
ENDBRANCH  27  31
BRANCH  28  34
HETATM   34  O6  UNL     1       5.921  51.423  -7.570  1.00  0.00    -0.393 OA
ATOM     35  H6  UNL     1       6.120  50.683  -8.130  1.00  0.00     0.210 HD
ENDBRANCH  28  34
BRANCH  30  36
HETATM   36  N2  UNL     1       1.464  51.632  -8.064  1.00  0.00    -0.070 N 
ATOM     37  H23 UNL     1       1.224  50.796  -8.597  1.00  0.00     0.274 HD
ATOM     38  H22 UNL     1       0.729  51.605  -7.357  1.00  0.00     0.274 HD
ATOM     39  H21 UNL     1       1.366  52.464  -8.646  1.00  0.00     0.274 HD
ENDBRANCH  30  36
ENDBRANCH  24  25
ENDBRANCH   6  24
TORSDOF 12
ENDMDL
