MODEL 1
REMARK VINA RESULT: -6.873745787      0.000      0.000
REMARK  6 active torsions:
REMARK  status: ('A' for Active; 'I' for Inactive)
REMARK    1  A    between atoms: C1_2  and  N1_3 
REMARK    2  A    between atoms: C11_16  and  N3_17 
REMARK    3  A    between atoms: N3_17  and  C12_19 
REMARK    4  A    between atoms: C12_19  and  C13_20 
REMARK    5  A    between atoms: C13_20  and  C14_21 
REMARK    6  A    between atoms: C14_21  and  O2_22 
ROOT
HETATM    1  N1  UNL     1      22.002  59.048  16.117  1.00  0.00    -0.335 N 
ATOM      2  H1  UNL     1      21.621  58.204  16.545  1.00  0.00     0.168 HD
HETATM    3  C2  UNL     1      22.073  60.113  16.854  1.00  0.00     0.055 C 
HETATM    4  C3  UNL     1      22.603  61.398  16.356  1.00  0.00     0.063 C 
HETATM    5  C4  UNL     1      23.027  62.337  17.422  1.00  0.00     0.037 C 
HETATM    6  C5  UNL     1      23.212  61.712  18.779  1.00  0.00     0.032 C 
HETATM    7  C6  UNL     1      24.506  60.944  18.770  1.00  0.00     0.031 C 
HETATM    8  C7  UNL     1      25.710  61.754  19.066  1.00  0.00     0.002 C 
HETATM    9  C8  UNL     1      25.549  62.723  20.203  1.00  0.00     0.000 C 
HETATM   10  C9  UNL     1      24.405  63.651  19.846  1.00  0.00     0.002 C 
HETATM   11  C10 UNL     1      23.162  62.791  19.810  1.00  0.00     0.031 C 
HETATM   12  N2  UNL     1      22.156  60.769  19.102  1.00  0.00    -0.366 N 
ATOM     13  H2  UNL     1      21.839  60.707  20.070  1.00  0.00     0.162 HD
HETATM   14  C11 UNL     1      21.600  60.005  18.225  1.00  0.00     0.120 C 
ENDROOT
BRANCH  14  15
HETATM   15  N3  UNL     1      20.554  59.087  18.613  1.00  0.00    -0.375 N 
ATOM     16  H3  UNL     1      20.664  58.515  19.450  1.00  0.00     0.161 HD
BRANCH  15  17
HETATM   17  C12 UNL     1      19.364  58.978  17.828  1.00  0.00     0.124 C 
BRANCH  17  18
HETATM   18  C13 UNL     1      18.086  58.995  18.604  1.00  0.00     0.059 C 
BRANCH  18  19
HETATM   19  C14 UNL     1      17.059  59.925  18.045  1.00  0.00     0.083 C 
HETATM   20  C15 UNL     1      15.754  59.178  17.809  1.00  0.00     0.041 C 
HETATM   21  C16 UNL     1      15.264  59.316  16.393  1.00  0.00     0.030 C 
HETATM   22  C17 UNL     1      15.432  60.680  15.804  1.00  0.00     0.232 C 
HETATM   23  N4  UNL     1      16.620  61.372  16.194  1.00  0.00    -0.072 N 
HETATM   24  C18 UNL     1      17.607  60.430  16.703  1.00  0.00     0.269 C 
ATOM     25  H42 UNL     1      16.993  61.943  15.436  1.00  0.00     0.277 HD
ATOM     26  H41 UNL     1      16.424  62.117  16.862  1.00  0.00     0.277 HD
BRANCH  19  27
HETATM   27  O2  UNL     1      16.780  61.041  18.796  1.00  0.00    -0.388 OA
ATOM     28  H2  UNL     1      17.308  61.810  18.614  1.00  0.00     0.210 HD
ENDBRANCH  19  27
ENDBRANCH  18  19
ENDBRANCH  17  18
ENDBRANCH  15  17
ENDBRANCH  14  15
BRANCH   1  29
HETATM   29  C1  UNL     1      22.410  58.968  14.774  1.00  0.00     0.353 C 
HETATM   30  O1  UNL     1      21.568  59.211  13.873  1.00  0.00    -0.283 OA
ENDBRANCH   1  29
TORSDOF 6
ENDMDL
MODEL 2
REMARK VINA RESULT: -6.727767455      2.810      6.633
REMARK  6 active torsions:
REMARK  status: ('A' for Active; 'I' for Inactive)
REMARK    1  A    between atoms: C1_2  and  N1_3 
REMARK    2  A    between atoms: C11_16  and  N3_17 
REMARK    3  A    between atoms: N3_17  and  C12_19 
REMARK    4  A    between atoms: C12_19  and  C13_20 
REMARK    5  A    between atoms: C13_20  and  C14_21 
REMARK    6  A    between atoms: C14_21  and  O2_22 
ROOT
HETATM    1  N1  UNL     1      22.434  61.436  13.287  1.00  0.00    -0.335 N 
ATOM      2  H1  UNL     1      22.596  62.443  13.315  1.00  0.00     0.168 HD
HETATM    3  C2  UNL     1      22.313  60.817  14.419  1.00  0.00     0.055 C 
HETATM    4  C3  UNL     1      22.077  59.362  14.515  1.00  0.00     0.063 C 
HETATM    5  C4  UNL     1      21.521  58.919  15.816  1.00  0.00     0.037 C 
HETATM    6  C5  UNL     1      20.936  60.019  16.661  1.00  0.00     0.032 C 
HETATM    7  C6  UNL     1      19.602  60.400  16.080  1.00  0.00     0.031 C 
HETATM    8  C7  UNL     1      18.467  59.560  16.528  1.00  0.00     0.002 C 
HETATM    9  C8  UNL     1      18.459  59.250  17.998  1.00  0.00     0.000 C 
HETATM   10  C9  UNL     1      19.758  58.536  18.315  1.00  0.00     0.002 C 
HETATM   11  C10 UNL     1      20.860  59.542  18.074  1.00  0.00     0.031 C 
HETATM   12  N2  UNL     1      21.761  61.214  16.661  1.00  0.00    -0.366 N 
ATOM     13  H2  UNL     1      21.823  61.762  17.520  1.00  0.00     0.162 HD
HETATM   14  C11 UNL     1      22.419  61.616  15.629  1.00  0.00     0.120 C 
ENDROOT
BRANCH  14  15
HETATM   15  N3  UNL     1      23.222  62.816  15.696  1.00  0.00    -0.375 N 
ATOM     16  H3  UNL     1      23.223  63.471  14.914  1.00  0.00     0.161 HD
BRANCH  15  17
HETATM   17  C12 UNL     1      24.016  63.088  16.853  1.00  0.00     0.124 C 
BRANCH  17  18
HETATM   18  C13 UNL     1      25.409  62.544  16.812  1.00  0.00     0.059 C 
BRANCH  18  19
HETATM   19  C14 UNL     1      25.638  61.412  17.759  1.00  0.00     0.083 C 
HETATM   20  C15 UNL     1      25.452  60.085  17.037  1.00  0.00     0.041 C 
HETATM   21  C16 UNL     1      24.447  59.198  17.722  1.00  0.00     0.030 C 
HETATM   22  C17 UNL     1      24.524  59.203  19.215  1.00  0.00     0.232 C 
HETATM   23  N4  UNL     1      24.847  60.464  19.805  1.00  0.00    -0.072 N 
HETATM   24  C18 UNL     1      24.582  61.544  18.865  1.00  0.00     0.269 C 
ATOM     25  H42 UNL     1      24.363  60.604  20.693  1.00  0.00     0.277 HD
ATOM     26  H41 UNL     1      25.806  60.487  20.152  1.00  0.00     0.277 HD
BRANCH  19  27
HETATM   27  O2  UNL     1      26.858  61.387  18.388  1.00  0.00    -0.388 OA
ATOM     28  H2  UNL     1      27.283  60.539  18.443  1.00  0.00     0.210 HD
ENDBRANCH  19  27
ENDBRANCH  18  19
ENDBRANCH  17  18
ENDBRANCH  15  17
ENDBRANCH  14  15
BRANCH   1  29
HETATM   29  C1  UNL     1      22.360  60.828  12.021  1.00  0.00     0.353 C 
HETATM   30  O1  UNL     1      21.302  60.952  11.354  1.00  0.00    -0.283 OA
ENDBRANCH   1  29
TORSDOF 6
ENDMDL
MODEL 3
REMARK VINA RESULT: -6.724768107      1.908      3.957
REMARK  6 active torsions:
REMARK  status: ('A' for Active; 'I' for Inactive)
REMARK    1  A    between atoms: C1_2  and  N1_3 
REMARK    2  A    between atoms: C11_16  and  N3_17 
REMARK    3  A    between atoms: N3_17  and  C12_19 
REMARK    4  A    between atoms: C12_19  and  C13_20 
REMARK    5  A    between atoms: C13_20  and  C14_21 
REMARK    6  A    between atoms: C14_21  and  O2_22 
ROOT
HETATM    1  N1  UNL     1      22.579  61.111  19.185  1.00  0.00    -0.335 N 
ATOM      2  H1  UNL     1      21.648  61.119  19.600  1.00  0.00     0.168 HD
HETATM    3  C2  UNL     1      22.731  60.474  18.066  1.00  0.00     0.055 C 
HETATM    4  C3  UNL     1      24.026  60.387  17.363  1.00  0.00     0.063 C 
HETATM    5  C4  UNL     1      23.918  60.034  15.927  1.00  0.00     0.037 C 
HETATM    6  C5  UNL     1      22.543  60.197  15.337  1.00  0.00     0.032 C 
HETATM    7  C6  UNL     1      22.296  61.666  15.121  1.00  0.00     0.031 C 
HETATM    8  C7  UNL     1      22.821  62.203  13.844  1.00  0.00     0.002 C 
HETATM    9  C8  UNL     1      22.571  61.330  12.648  1.00  0.00     0.000 C 
HETATM   10  C9  UNL     1      23.221  59.989  12.925  1.00  0.00     0.002 C 
HETATM   11  C10 UNL     1      22.463  59.386  14.086  1.00  0.00     0.031 C 
HETATM   12  N2  UNL     1      21.500  59.712  16.223  1.00  0.00    -0.366 N 
ATOM     13  H2  UNL     1      20.683  59.261  15.811  1.00  0.00     0.162 HD
HETATM   14  C11 UNL     1      21.556  59.825  17.505  1.00  0.00     0.120 C 
ENDROOT
BRANCH  14  15
HETATM   15  N3  UNL     1      20.482  59.321  18.331  1.00  0.00    -0.375 N 
ATOM     16  H3  UNL     1      20.591  59.294  19.345  1.00  0.00     0.161 HD
BRANCH  15  17
HETATM   17  C12 UNL     1      19.268  58.861  17.733  1.00  0.00     0.124 C 
BRANCH  17  18
HETATM   18  C13 UNL     1      18.043  59.022  18.576  1.00  0.00     0.059 C 
BRANCH  18  19
HETATM   19  C14 UNL     1      17.042  59.971  18.002  1.00  0.00     0.083 C 
HETATM   20  C15 UNL     1      15.716  59.258  17.780  1.00  0.00     0.041 C 
HETATM   21  C16 UNL     1      15.229  59.387  16.362  1.00  0.00     0.030 C 
HETATM   22  C17 UNL     1      15.435  60.736  15.751  1.00  0.00     0.232 C 
HETATM   23  N4  UNL     1      16.643  61.400  16.129  1.00  0.00    -0.072 N 
HETATM   24  C18 UNL     1      17.603  60.439  16.652  1.00  0.00     0.269 C 
ATOM     25  H42 UNL     1      17.032  61.948  15.361  1.00  0.00     0.277 HD
ATOM     26  H41 UNL     1      16.469  62.161  16.785  1.00  0.00     0.277 HD
BRANCH  19  27
HETATM   27  O2  UNL     1      16.797  61.107  18.735  1.00  0.00    -0.388 OA
ATOM     28  H2  UNL     1      15.885  61.352  18.834  1.00  0.00     0.210 HD
ENDBRANCH  19  27
ENDBRANCH  18  19
ENDBRANCH  17  18
ENDBRANCH  15  17
ENDBRANCH  14  15
BRANCH   1  29
HETATM   29  C1  UNL     1      23.600  61.794  19.870  1.00  0.00     0.353 C 
HETATM   30  O1  UNL     1      23.455  63.021  20.098  1.00  0.00    -0.283 OA
ENDBRANCH   1  29
TORSDOF 6
ENDMDL
MODEL 4
REMARK VINA RESULT: -6.694202248      1.071      1.442
REMARK  6 active torsions:
REMARK  status: ('A' for Active; 'I' for Inactive)
REMARK    1  A    between atoms: C1_2  and  N1_3 
REMARK    2  A    between atoms: C11_16  and  N3_17 
REMARK    3  A    between atoms: N3_17  and  C12_19 
REMARK    4  A    between atoms: C12_19  and  C13_20 
REMARK    5  A    between atoms: C13_20  and  C14_21 
REMARK    6  A    between atoms: C14_21  and  O2_22 
ROOT
HETATM    1  N1  UNL     1      22.015  58.876  16.086  1.00  0.00    -0.335 N 
ATOM      2  H1  UNL     1      21.770  57.981  16.508  1.00  0.00     0.168 HD
HETATM    3  C2  UNL     1      22.040  59.916  16.861  1.00  0.00     0.055 C 
HETATM    4  C3  UNL     1      22.378  61.269  16.375  1.00  0.00     0.063 C 
HETATM    5  C4  UNL     1      22.799  62.211  17.440  1.00  0.00     0.037 C 
HETATM    6  C5  UNL     1      23.180  61.563  18.744  1.00  0.00     0.032 C 
HETATM    7  C6  UNL     1      24.543  60.946  18.581  1.00  0.00     0.031 C 
HETATM    8  C7  UNL     1      25.675  61.875  18.801  1.00  0.00     0.002 C 
HETATM    9  C8  UNL     1      25.521  62.779  19.991  1.00  0.00     0.000 C 
HETATM   10  C9  UNL     1      24.254  63.585  19.783  1.00  0.00     0.002 C 
HETATM   11  C10 UNL     1      23.114  62.593  19.823  1.00  0.00     0.031 C 
HETATM   12  N2  UNL     1      22.269  60.497  19.119  1.00  0.00    -0.366 N 
ATOM     13  H2  UNL     1      22.055  60.367  20.108  1.00  0.00     0.162 HD
HETATM   14  C11 UNL     1      21.717  59.708  18.264  1.00  0.00     0.120 C 
ENDROOT
BRANCH  14  15
HETATM   15  N3  UNL     1      20.818  58.665  18.704  1.00  0.00    -0.375 N 
ATOM     16  H3  UNL     1      21.134  57.977  19.388  1.00  0.00     0.161 HD
BRANCH  15  17
HETATM   17  C12 UNL     1      19.488  58.594  18.185  1.00  0.00     0.124 C 
BRANCH  17  18
HETATM   18  C13 UNL     1      18.814  59.914  17.978  1.00  0.00     0.059 C 
BRANCH  18  19
HETATM   19  C14 UNL     1      17.997  59.979  16.730  1.00  0.00     0.083 C 
HETATM   20  C15 UNL     1      18.124  61.357  16.097  1.00  0.00     0.041 C 
HETATM   21  C16 UNL     1      16.785  62.005  15.867  1.00  0.00     0.030 C 
HETATM   22  C17 UNL     1      15.719  61.080  15.375  1.00  0.00     0.232 C 
HETATM   23  N4  UNL     1      15.762  59.757  15.914  1.00  0.00    -0.072 N 
HETATM   24  C18 UNL     1      16.539  59.739  17.145  1.00  0.00     0.269 C 
ATOM     25  H42 UNL     1      14.827  59.370  16.047  1.00  0.00     0.277 HD
ATOM     26  H41 UNL     1      16.109  59.080  15.234  1.00  0.00     0.277 HD
BRANCH  19  27
HETATM   27  O2  UNL     1      18.286  59.041  15.768  1.00  0.00    -0.388 OA
ATOM     28  H2  UNL     1      17.953  59.220  14.896  1.00  0.00     0.210 HD
ENDBRANCH  19  27
ENDBRANCH  18  19
ENDBRANCH  17  18
ENDBRANCH  15  17
ENDBRANCH  14  15
BRANCH   1  29
HETATM   29  C1  UNL     1      22.297  58.889  14.709  1.00  0.00     0.353 C 
HETATM   30  O1  UNL     1      21.359  59.115  13.904  1.00  0.00    -0.283 OA
ENDBRANCH   1  29
TORSDOF 6
ENDMDL
MODEL 5
REMARK VINA RESULT: -6.610670107      2.858      7.510
REMARK  6 active torsions:
REMARK  status: ('A' for Active; 'I' for Inactive)
REMARK    1  A    between atoms: C1_2  and  N1_3 
REMARK    2  A    between atoms: C11_16  and  N3_17 
REMARK    3  A    between atoms: N3_17  and  C12_19 
REMARK    4  A    between atoms: C12_19  and  C13_20 
REMARK    5  A    between atoms: C13_20  and  C14_21 
REMARK    6  A    between atoms: C14_21  and  O2_22 
ROOT
HETATM    1  N1  UNL     1      21.776  61.684  16.200  1.00  0.00    -0.335 N 
ATOM      2  H1  UNL     1      21.832  62.575  16.692  1.00  0.00     0.168 HD
HETATM    3  C2  UNL     1      22.017  60.607  16.880  1.00  0.00     0.055 C 
HETATM    4  C3  UNL     1      21.970  59.256  16.285  1.00  0.00     0.063 C 
HETATM    5  C4  UNL     1      21.817  58.161  17.273  1.00  0.00     0.037 C 
HETATM    6  C5  UNL     1      21.357  58.599  18.638  1.00  0.00     0.032 C 
HETATM    7  C6  UNL     1      19.885  58.902  18.563  1.00  0.00     0.031 C 
HETATM    8  C7  UNL     1      18.999  57.727  18.728  1.00  0.00     0.002 C 
HETATM    9  C8  UNL     1      19.403  56.788  19.829  1.00  0.00     0.000 C 
HETATM   10  C9  UNL     1      20.808  56.310  19.521  1.00  0.00     0.002 C 
HETATM   11  C10 UNL     1      21.698  57.527  19.620  1.00  0.00     0.031 C 
HETATM   12  N2  UNL     1      22.022  59.810  19.083  1.00  0.00    -0.366 N 
ATOM     13  H2  UNL     1      22.244  59.905  20.075  1.00  0.00     0.162 HD
HETATM   14  C11 UNL     1      22.346  60.770  18.288  1.00  0.00     0.120 C 
ENDROOT
BRANCH  14  15
HETATM   15  N3  UNL     1      23.007  61.950  18.796  1.00  0.00    -0.375 N 
ATOM     16  H3  UNL     1      22.486  62.620  19.362  1.00  0.00     0.161 HD
BRANCH  15  17
HETATM   17  C12 UNL     1      24.389  62.182  18.509  1.00  0.00     0.124 C 
BRANCH  17  18
HETATM   18  C13 UNL     1      24.947  63.457  19.057  1.00  0.00     0.059 C 
BRANCH  18  19
HETATM   19  C14 UNL     1      25.278  63.388  20.512  1.00  0.00     0.083 C 
HETATM   20  C15 UNL     1      25.117  64.761  21.148  1.00  0.00     0.041 C 
HETATM   21  C16 UNL     1      26.363  65.210  21.863  1.00  0.00     0.030 C 
HETATM   22  C17 UNL     1      27.062  64.136  22.632  1.00  0.00     0.232 C 
HETATM   23  N4  UNL     1      27.041  62.840  22.030  1.00  0.00    -0.072 N 
HETATM   24  C18 UNL     1      26.747  62.950  20.608  1.00  0.00     0.269 C 
ATOM     25  H42 UNL     1      27.906  62.327  22.201  1.00  0.00     0.277 HD
ATOM     26  H41 UNL     1      26.395  62.210  22.505  1.00  0.00     0.277 HD
BRANCH  19  27
HETATM   27  O2  UNL     1      24.555  62.487  21.255  1.00  0.00    -0.388 OA
ATOM     28  H2  UNL     1      24.953  61.634  21.381  1.00  0.00     0.210 HD
ENDBRANCH  19  27
ENDBRANCH  18  19
ENDBRANCH  17  18
ENDBRANCH  15  17
ENDBRANCH  14  15
BRANCH   1  29
HETATM   29  C1  UNL     1      21.444  61.718  14.833  1.00  0.00     0.353 C 
HETATM   30  O1  UNL     1      20.229  61.722  14.509  1.00  0.00    -0.283 OA
ENDBRANCH   1  29
TORSDOF 6
ENDMDL
