MODEL 1
REMARK VINA RESULT: -7.074186989      0.000      0.000
REMARK  4 active torsions:
REMARK  status: ('A' for Active; 'I' for Inactive)
REMARK    1  A    between atoms: C5_6  and  C6_7 
REMARK    2  A    between atoms: C6_7  and  N2_8 
REMARK    3  A    between atoms: N2_8  and  C7_11 
REMARK    4  A    between atoms: C14_18  and  N3_19 
ROOT
HETATM    1  C7  UNL     1      22.474  59.892  17.556  1.00  0.00     0.213 C 
HETATM    2  C8  UNL     1      23.736  59.951  16.752  1.00  0.00     0.018 C 
HETATM    3  C9  UNL     1      23.631  61.064  15.732  1.00  0.00     0.007 C 
HETATM    4  C10 UNL     1      22.759  60.608  14.593  1.00  0.00     0.007 C 
HETATM    5  C11 UNL     1      21.729  59.644  15.234  1.00  0.00     0.011 C 
HETATM    6  C12 UNL     1      22.507  58.351  15.421  1.00  0.00     0.007 C 
HETATM    7  C13 UNL     1      23.889  58.636  15.963  1.00  0.00     0.007 C 
HETATM    8  C14 UNL     1      21.316  60.203  16.587  1.00  0.00     0.134 C 
ENDROOT
BRANCH   8   9
HETATM    9  N3  UNL     1      20.113  59.780  17.027  1.00  0.00    -0.219 N 
HETATM   10  C15 UNL     1      18.912  59.761  17.058  1.00  0.00     0.679 A 
HETATM   11  N4  UNL     1      18.263  58.905  17.933  1.00  0.00    -0.179 N 
HETATM   12  N6  UNL     1      18.080  60.523  16.291  1.00  0.00    -0.202 N 
HETATM   13  C16 UNL     1      16.953  58.809  18.043  1.00  0.00     0.133 A 
ATOM     14  H4  UNL     1      18.837  58.311  18.531  1.00  0.00     0.185 HD
HETATM   15  N5  UNL     1      16.291  57.933  18.944  1.00  0.00    -0.082 NA
HETATM   16  C17 UNL     1      16.141  59.592  17.256  1.00  0.00     0.063 A 
HETATM   17  C18 UNL     1      16.739  60.458  16.370  1.00  0.00     0.109 A 
ATOM     18  H6  UNL     1      18.495  61.174  15.625  1.00  0.00     0.183 HD
ATOM     19  H3  UNL     1      20.364  59.084  17.729  1.00  0.00     0.178 HD
ENDBRANCH   8   9
BRANCH   1  20
HETATM   20  N2  UNL     1      22.448  60.753  18.689  1.00  0.00    -0.067 N 
ATOM     21  H22 UNL     1      21.593  60.615  19.227  1.00  0.00     0.277 HD
ATOM     22  H21 UNL     1      22.314  61.723  18.401  1.00  0.00     0.277 HD
BRANCH  20  23
HETATM   23  C6  UNL     1      23.596  60.630  19.527  1.00  0.00     0.268 C 
BRANCH  23  24
HETATM   24  C5  UNL     1      24.201  61.981  19.880  1.00  0.00     0.248 C 
HETATM   25  N1  UNL     1      25.276  62.376  19.032  1.00  0.00     0.090 N 
HETATM   26  C1  UNL     1      26.366  62.821  19.916  1.00  0.00     0.310 C 
HETATM   27  C2  UNL     1      24.859  63.554  18.302  1.00  0.00     0.272 C 
HETATM   28  C3  UNL     1      23.790  64.212  19.155  1.00  0.00     0.032 C 
HETATM   29  C4  UNL     1      23.081  62.996  19.721  1.00  0.00     0.039 C 
ENDBRANCH  23  24
ENDBRANCH  20  23
ENDBRANCH   1  20
TORSDOF 4
ENDMDL
MODEL 2
REMARK VINA RESULT: -6.962216065      1.732      2.315
REMARK  4 active torsions:
REMARK  status: ('A' for Active; 'I' for Inactive)
REMARK    1  A    between atoms: C5_6  and  C6_7 
REMARK    2  A    between atoms: C6_7  and  N2_8 
REMARK    3  A    between atoms: N2_8  and  C7_11 
REMARK    4  A    between atoms: C14_18  and  N3_19 
ROOT
HETATM    1  C7  UNL     1      23.267  60.597  18.276  1.00  0.00     0.213 C 
HETATM    2  C8  UNL     1      24.522  60.902  17.517  1.00  0.00     0.018 C 
HETATM    3  C9  UNL     1      24.183  61.742  16.305  1.00  0.00     0.007 C 
HETATM    4  C10 UNL     1      23.586  60.857  15.244  1.00  0.00     0.007 C 
HETATM    5  C11 UNL     1      22.834  59.747  16.019  1.00  0.00     0.011 C 
HETATM    6  C12 UNL     1      23.938  58.803  16.469  1.00  0.00     0.007 C 
HETATM    7  C13 UNL     1      25.123  59.583  16.994  1.00  0.00     0.007 C 
HETATM    8  C14 UNL     1      22.158  60.372  17.230  1.00  0.00     0.134 C 
ENDROOT
BRANCH   8   9
HETATM    9  N3  UNL     1      21.099  59.682  17.702  1.00  0.00    -0.219 N 
HETATM   10  C15 UNL     1      20.561  58.775  18.278  1.00  0.00     0.679 A 
HETATM   11  N4  UNL     1      19.180  58.742  18.365  1.00  0.00    -0.179 N 
HETATM   12  N6  UNL     1      21.191  57.727  18.882  1.00  0.00    -0.202 N 
HETATM   13  C16 UNL     1      18.496  57.794  18.973  1.00  0.00     0.133 A 
ATOM     14  H4  UNL     1      18.657  59.503  17.930  1.00  0.00     0.185 HD
HETATM   15  N5  UNL     1      17.079  57.762  19.058  1.00  0.00    -0.082 NA
HETATM   16  C17 UNL     1      19.161  56.750  19.573  1.00  0.00     0.063 A 
HETATM   17  C18 UNL     1      20.535  56.738  19.514  1.00  0.00     0.109 A 
ATOM     18  H6  UNL     1      22.210  57.692  18.854  1.00  0.00     0.183 HD
ATOM     19  H3  UNL     1      20.309  60.252  17.397  1.00  0.00     0.178 HD
ENDBRANCH   8   9
BRANCH   1  20
HETATM   20  N2  UNL     1      22.891  61.586  19.228  1.00  0.00    -0.067 N 
ATOM     21  H22 UNL     1      22.027  61.321  19.701  1.00  0.00     0.277 HD
ATOM     22  H21 UNL     1      22.575  62.435  18.758  1.00  0.00     0.277 HD
BRANCH  20  23
HETATM   23  C6  UNL     1      23.913  61.886  20.176  1.00  0.00     0.268 C 
BRANCH  23  24
HETATM   24  C5  UNL     1      24.210  63.376  20.254  1.00  0.00     0.248 C 
HETATM   25  N1  UNL     1      25.467  63.747  19.693  1.00  0.00     0.090 N 
HETATM   26  C1  UNL     1      26.124  64.621  20.680  1.00  0.00     0.310 C 
HETATM   27  C2  UNL     1      25.212  64.584  18.540  1.00  0.00     0.272 C 
HETATM   28  C3  UNL     1      23.848  65.209  18.775  1.00  0.00     0.032 C 
HETATM   29  C4  UNL     1      23.118  64.064  19.452  1.00  0.00     0.039 C 
ENDBRANCH  23  24
ENDBRANCH  20  23
ENDBRANCH   1  20
TORSDOF 4
ENDMDL
MODEL 3
REMARK VINA RESULT: -6.843045499      2.465      4.548
REMARK  4 active torsions:
REMARK  status: ('A' for Active; 'I' for Inactive)
REMARK    1  A    between atoms: C5_6  and  C6_7 
REMARK    2  A    between atoms: C6_7  and  N2_8 
REMARK    3  A    between atoms: N2_8  and  C7_11 
REMARK    4  A    between atoms: C14_18  and  N3_19 
ROOT
HETATM    1  C7  UNL     1      23.218  60.383  16.943  1.00  0.00     0.213 C 
HETATM    2  C8  UNL     1      24.484  61.169  17.101  1.00  0.00     0.018 C 
HETATM    3  C9  UNL     1      25.569  60.267  17.647  1.00  0.00     0.007 C 
HETATM    4  C10 UNL     1      25.344  60.061  19.121  1.00  0.00     0.007 C 
HETATM    5  C11 UNL     1      23.808  60.117  19.307  1.00  0.00     0.011 C 
HETATM    6  C12 UNL     1      23.488  61.603  19.261  1.00  0.00     0.007 C 
HETATM    7  C13 UNL     1      24.257  62.278  18.147  1.00  0.00     0.007 C 
HETATM    8  C14 UNL     1      23.149  59.407  18.133  1.00  0.00     0.134 C 
ENDROOT
BRANCH   8   9
HETATM    9  N3  UNL     1      21.908  58.941  18.382  1.00  0.00    -0.219 N 
HETATM   10  C15 UNL     1      21.107  58.145  18.793  1.00  0.00     0.679 A 
HETATM   11  N4  UNL     1      19.753  58.411  18.672  1.00  0.00    -0.179 N 
HETATM   12  N6  UNL     1      21.399  56.956  19.393  1.00  0.00    -0.202 N 
HETATM   13  C16 UNL     1      18.798  57.605  19.089  1.00  0.00     0.133 A 
ATOM     14  H4  UNL     1      19.478  59.288  18.230  1.00  0.00     0.185 HD
HETATM   15  N5  UNL     1      17.411  57.879  18.960  1.00  0.00    -0.082 NA
HETATM   16  C17 UNL     1      19.125  56.411  19.690  1.00  0.00     0.063 A 
HETATM   17  C18 UNL     1      20.457  56.102  19.834  1.00  0.00     0.109 A 
ATOM     18  H6  UNL     1      22.379  56.700  19.513  1.00  0.00     0.183 HD
ATOM     19  H3  UNL     1      21.314  59.684  18.013  1.00  0.00     0.178 HD
ENDBRANCH   8   9
BRANCH   1  20
HETATM   20  N2  UNL     1      23.094  59.698  15.701  1.00  0.00    -0.067 N 
ATOM     21  H22 UNL     1      23.219  58.694  15.830  1.00  0.00     0.277 HD
ATOM     22  H21 UNL     1      23.895  59.894  15.101  1.00  0.00     0.277 HD
BRANCH  20  23
HETATM   23  C6  UNL     1      21.872  59.970  15.018  1.00  0.00     0.268 C 
BRANCH  23  24
HETATM   24  C5  UNL     1      21.147  61.180  15.590  1.00  0.00     0.248 C 
HETATM   25  N1  UNL     1      21.193  62.333  14.753  1.00  0.00     0.090 N 
HETATM   26  C1  UNL     1      21.585  63.461  15.615  1.00  0.00     0.310 C 
HETATM   27  C2  UNL     1      19.843  62.624  14.320  1.00  0.00     0.272 C 
HETATM   28  C3  UNL     1      18.932  62.028  15.377  1.00  0.00     0.032 C 
HETATM   29  C4  UNL     1      19.693  60.766  15.738  1.00  0.00     0.039 C 
ENDBRANCH  23  24
ENDBRANCH  20  23
ENDBRANCH   1  20
TORSDOF 4
ENDMDL
MODEL 4
REMARK VINA RESULT: -6.838615719      1.065      1.489
REMARK  4 active torsions:
REMARK  status: ('A' for Active; 'I' for Inactive)
REMARK    1  A    between atoms: C5_6  and  C6_7 
REMARK    2  A    between atoms: C6_7  and  N2_8 
REMARK    3  A    between atoms: N2_8  and  C7_11 
REMARK    4  A    between atoms: C14_18  and  N3_19 
ROOT
HETATM    1  C7  UNL     1      22.240  60.792  16.243  1.00  0.00     0.213 C 
HETATM    2  C8  UNL     1      23.485  60.649  15.422  1.00  0.00     0.018 C 
HETATM    3  C9  UNL     1      23.145  60.829  13.959  1.00  0.00     0.007 C 
HETATM    4  C10 UNL     1      22.492  59.573  13.447  1.00  0.00     0.007 C 
HETATM    5  C11 UNL     1      21.723  58.993  14.660  1.00  0.00     0.011 C 
HETATM    6  C12 UNL     1      22.806  58.331  15.497  1.00  0.00     0.007 C 
HETATM    7  C13 UNL     1      24.029  59.216  15.582  1.00  0.00     0.007 C 
HETATM    8  C14 UNL     1      21.099  60.145  15.435  1.00  0.00     0.134 C 
ENDROOT
BRANCH   8   9
HETATM    9  N3  UNL     1      20.030  59.804  16.184  1.00  0.00    -0.219 N 
HETATM   10  C15 UNL     1      18.883  59.872  16.536  1.00  0.00     0.679 A 
HETATM   11  N4  UNL     1      18.431  59.054  17.558  1.00  0.00    -0.179 N 
HETATM   12  N6  UNL     1      17.935  60.703  16.016  1.00  0.00    -0.202 N 
HETATM   13  C16 UNL     1      17.196  59.052  18.016  1.00  0.00     0.133 A 
ATOM     14  H4  UNL     1      19.098  58.411  17.984  1.00  0.00     0.185 HD
HETATM   15  N5  UNL     1      16.736  58.213  19.067  1.00  0.00    -0.082 NA
HETATM   16  C17 UNL     1      16.262  59.903  17.471  1.00  0.00     0.063 A 
HETATM   17  C18 UNL     1      16.662  60.735  16.452  1.00  0.00     0.109 A 
ATOM     18  H6  UNL     1      18.203  61.332  15.259  1.00  0.00     0.183 HD
ATOM     19  H3  UNL     1      20.408  59.082  16.797  1.00  0.00     0.178 HD
ENDBRANCH   8   9
BRANCH   1  20
HETATM   20  N2  UNL     1      21.921  62.128  16.614  1.00  0.00    -0.067 N 
ATOM     21  H22 UNL     1      21.068  62.153  17.172  1.00  0.00     0.277 HD
ATOM     22  H21 UNL     1      21.610  62.662  15.803  1.00  0.00     0.277 HD
BRANCH  20  23
HETATM   23  C6  UNL     1      22.982  62.804  17.287  1.00  0.00     0.268 C 
BRANCH  23  24
HETATM   24  C5  UNL     1      23.328  62.155  18.619  1.00  0.00     0.248 C 
HETATM   25  N1  UNL     1      24.661  61.659  18.694  1.00  0.00     0.090 N 
HETATM   26  C1  UNL     1      24.570  60.291  19.233  1.00  0.00     0.310 C 
HETATM   27  C2  UNL     1      25.367  62.427  19.698  1.00  0.00     0.272 C 
HETATM   28  C3  UNL     1      24.301  62.955  20.640  1.00  0.00     0.032 C 
HETATM   29  C4  UNL     1      23.172  63.242  19.669  1.00  0.00     0.039 C 
ENDBRANCH  23  24
ENDBRANCH  20  23
ENDBRANCH   1  20
TORSDOF 4
ENDMDL
MODEL 5
REMARK VINA RESULT: -6.810167506      2.501      4.524
REMARK  4 active torsions:
REMARK  status: ('A' for Active; 'I' for Inactive)
REMARK    1  A    between atoms: C5_6  and  C6_7 
REMARK    2  A    between atoms: C6_7  and  N2_8 
REMARK    3  A    between atoms: N2_8  and  C7_11 
REMARK    4  A    between atoms: C14_18  and  N3_19 
ROOT
HETATM    1  C7  UNL     1      21.043  61.237  15.855  1.00  0.00     0.213 C 
HETATM    2  C8  UNL     1      22.521  61.178  16.094  1.00  0.00     0.018 C 
HETATM    3  C9  UNL     1      23.088  59.944  15.426  1.00  0.00     0.007 C 
HETATM    4  C10 UNL     1      22.760  58.736  16.262  1.00  0.00     0.007 C 
HETATM    5  C11 UNL     1      21.400  59.062  16.928  1.00  0.00     0.011 C 
HETATM    6  C12 UNL     1      21.766  60.002  18.066  1.00  0.00     0.007 C 
HETATM    7  C13 UNL     1      22.779  61.026  17.605  1.00  0.00     0.007 C 
HETATM    8  C14 UNL     1      20.525  59.787  15.915  1.00  0.00     0.134 C 
ENDROOT
BRANCH   8   9
HETATM    9  N3  UNL     1      19.200  59.694  16.149  1.00  0.00    -0.219 N 
HETATM   10  C15 UNL     1      18.227  59.436  16.806  1.00  0.00     0.679 A 
HETATM   11  N4  UNL     1      16.966  59.641  16.271  1.00  0.00    -0.179 N 
HETATM   12  N6  UNL     1      18.229  58.942  18.077  1.00  0.00    -0.202 N 
HETATM   13  C16 UNL     1      15.840  59.390  16.907  1.00  0.00     0.133 A 
ATOM     14  H4  UNL     1      16.905  60.010  15.322  1.00  0.00     0.185 HD
HETATM   15  N5  UNL     1      14.548  59.599  16.355  1.00  0.00    -0.082 NA
HETATM   16  C17 UNL     1      15.875  58.891  18.189  1.00  0.00     0.063 A 
HETATM   17  C18 UNL     1      17.105  58.672  18.765  1.00  0.00     0.109 A 
ATOM     18  H6  UNL     1      19.127  58.769  18.529  1.00  0.00     0.183 HD
ATOM     19  H3  UNL     1      18.795  60.034  15.277  1.00  0.00     0.178 HD
ENDBRANCH   8   9
BRANCH   1  20
HETATM   20  N2  UNL     1      20.661  61.876  14.642  1.00  0.00    -0.067 N 
ATOM     21  H22 UNL     1      19.658  62.061  14.634  1.00  0.00     0.277 HD
ATOM     22  H21 UNL     1      20.720  61.225  13.859  1.00  0.00     0.277 HD
BRANCH  20  23
HETATM   23  C6  UNL     1      21.395  63.067  14.366  1.00  0.00     0.268 C 
BRANCH  23  24
HETATM   24  C5  UNL     1      21.941  63.091  12.946  1.00  0.00     0.248 C 
HETATM   25  N1  UNL     1      23.231  62.500  12.809  1.00  0.00     0.090 N 
HETATM   26  C1  UNL     1      24.047  63.448  12.031  1.00  0.00     0.310 C 
HETATM   27  C2  UNL     1      23.097  61.325  11.975  1.00  0.00     0.272 C 
HETATM   28  C3  UNL     1      21.864  61.561  11.122  1.00  0.00     0.032 C 
HETATM   29  C4  UNL     1      20.965  62.285  12.106  1.00  0.00     0.039 C 
ENDBRANCH  23  24
ENDBRANCH  20  23
ENDBRANCH   1  20
TORSDOF 4
ENDMDL
