MODEL 1
REMARK VINA RESULT: -9.340695859      0.000      0.000
REMARK  2 active torsions:
REMARK  status: ('A' for Active; 'I' for Inactive)
REMARK    1  A    between atoms: C1_1  and  C15_19 
REMARK    2  A    between atoms: C2_2  and  C3_3 
ROOT
HETATM    1  C3  UNL     1      -1.549   0.220  19.373  1.00  0.00     0.095 A 
HETATM    2  N1  UNL     1      -1.492   0.103  18.059  1.00  0.00    -0.358 N 
ATOM      3  H1  UNL     1      -2.223  -0.437  17.595  1.00  0.00     0.166 HD
HETATM    4  C4  UNL     1      -0.531   0.650  17.298  1.00  0.00     0.090 A 
HETATM    5  C5  UNL     1       0.451   1.378  17.939  1.00  0.00     0.030 A 
HETATM    6  C6  UNL     1       0.439   1.532  19.306  1.00  0.00    -0.012 A 
HETATM    7  C7  UNL     1      -0.564   0.953  20.036  1.00  0.00     0.006 A 
HETATM    8  C8  UNL     1      -0.673   1.053  21.491  1.00  0.00     0.162 A 
HETATM    9  N2  UNL     1       0.372   1.820  22.108  1.00  0.00    -0.385 N 
ATOM     10  H2  UNL     1       0.355   1.929  23.121  1.00  0.00     0.160 HD
HETATM   11  C9  UNL     1       1.422   2.431  21.384  1.00  0.00     0.039 A 
HETATM   12  C10 UNL     1       2.379   3.152  22.104  1.00  0.00     0.030 A 
HETATM   13  C11 UNL     1       3.392   3.739  21.380  1.00  0.00     0.002 A 
HETATM   14  C12 UNL     1       3.444   3.611  20.010  1.00  0.00     0.001 A 
HETATM   15  C13 UNL     1       2.474   2.882  19.300  1.00  0.00     0.014 A 
HETATM   16  C14 UNL     1       1.467   2.298  20.009  1.00  0.00     0.001 A 
ENDROOT
BRANCH   1  17
HETATM   17  C2  UNL     1      -2.617  -0.399  20.135  1.00  0.00    -0.043 C 
HETATM   18  C1  UNL     1      -3.513  -0.895  20.773  1.00  0.00    -0.060 C 
BRANCH  18  19
HETATM   19  C15 UNL     1      -4.604  -1.475  21.524  1.00  0.00     0.018 A 
HETATM   20  C16 UNL     1      -4.857  -2.819  21.499  1.00  0.00     0.020 A 
HETATM   21  C17 UNL     1      -5.896  -3.352  22.218  1.00  0.00     0.001 A 
HETATM   22  C18 UNL     1      -6.724  -2.536  22.997  1.00  0.00     0.000 A 
HETATM   23  C19 UNL     1      -6.494  -1.186  23.041  1.00  0.00     0.001 A 
HETATM   24  C20 UNL     1      -5.440  -0.683  22.304  1.00  0.00     0.020 A 
ENDBRANCH  18  19
ENDBRANCH   1  17
TORSDOF 2
ENDMDL
MODEL 2
REMARK VINA RESULT: -9.330523884      0.045      1.013
REMARK  2 active torsions:
REMARK  status: ('A' for Active; 'I' for Inactive)
REMARK    1  A    between atoms: C1_1  and  C15_19 
REMARK    2  A    between atoms: C2_2  and  C3_3 
ROOT
HETATM    1  C3  UNL     1      -1.548   0.225  19.378  1.00  0.00     0.095 A 
HETATM    2  N1  UNL     1      -1.492   0.107  18.065  1.00  0.00    -0.358 N 
ATOM      3  H1  UNL     1      -2.223  -0.432  17.601  1.00  0.00     0.166 HD
HETATM    4  C4  UNL     1      -0.530   0.653  17.303  1.00  0.00     0.090 A 
HETATM    5  C5  UNL     1       0.453   1.380  17.944  1.00  0.00     0.030 A 
HETATM    6  C6  UNL     1       0.441   1.535  19.311  1.00  0.00    -0.012 A 
HETATM    7  C7  UNL     1      -0.562   0.957  20.041  1.00  0.00     0.006 A 
HETATM    8  C8  UNL     1      -0.671   1.058  21.496  1.00  0.00     0.162 A 
HETATM    9  N2  UNL     1       0.375   1.823  22.112  1.00  0.00    -0.385 N 
ATOM     10  H2  UNL     1       0.359   1.934  23.126  1.00  0.00     0.160 HD
HETATM   11  C9  UNL     1       1.426   2.433  21.388  1.00  0.00     0.039 A 
HETATM   12  C10 UNL     1       2.384   3.154  22.107  1.00  0.00     0.030 A 
HETATM   13  C11 UNL     1       3.398   3.739  21.383  1.00  0.00     0.002 A 
HETATM   14  C12 UNL     1       3.449   3.610  20.013  1.00  0.00     0.001 A 
HETATM   15  C13 UNL     1       2.477   2.882  19.303  1.00  0.00     0.014 A 
HETATM   16  C14 UNL     1       1.470   2.300  20.013  1.00  0.00     0.001 A 
ENDROOT
BRANCH   1  17
HETATM   17  C2  UNL     1      -2.617  -0.393  20.141  1.00  0.00    -0.043 C 
HETATM   18  C1  UNL     1      -3.515  -0.888  20.777  1.00  0.00    -0.060 C 
BRANCH  18  19
HETATM   19  C15 UNL     1      -4.608  -1.471  21.522  1.00  0.00     0.018 A 
HETATM   20  C16 UNL     1      -5.454  -0.702  22.273  1.00  0.00     0.020 A 
HETATM   21  C17 UNL     1      -6.487  -1.272  22.973  1.00  0.00     0.001 A 
HETATM   22  C18 UNL     1      -6.702  -2.655  22.937  1.00  0.00     0.000 A 
HETATM   23  C19 UNL     1      -5.871  -3.449  22.192  1.00  0.00     0.001 A 
HETATM   24  C20 UNL     1      -4.841  -2.842  21.501  1.00  0.00     0.020 A 
ENDBRANCH  18  19
ENDBRANCH   1  17
TORSDOF 2
ENDMDL
MODEL 3
REMARK VINA RESULT: -9.296501308      3.172      4.301
REMARK  2 active torsions:
REMARK  status: ('A' for Active; 'I' for Inactive)
REMARK    1  A    between atoms: C1_1  and  C15_19 
REMARK    2  A    between atoms: C2_2  and  C3_3 
ROOT
HETATM    1  C3  UNL     1      -1.520  -0.544  19.297  1.00  0.00     0.095 A 
HETATM    2  N1  UNL     1      -1.495  -1.587  20.105  1.00  0.00    -0.358 N 
ATOM      3  H1  UNL     1      -2.286  -2.231  20.080  1.00  0.00     0.166 HD
HETATM    4  C4  UNL     1      -0.492  -1.852  20.957  1.00  0.00     0.090 A 
HETATM    5  C5  UNL     1       0.573  -0.973  20.980  1.00  0.00     0.030 A 
HETATM    6  C6  UNL     1       0.596   0.130  20.158  1.00  0.00    -0.012 A 
HETATM    7  C7  UNL     1      -0.452   0.354  19.307  1.00  0.00     0.006 A 
HETATM    8  C8  UNL     1      -0.529   1.493  18.393  1.00  0.00     0.162 A 
HETATM    9  N2  UNL     1       0.600   2.375  18.456  1.00  0.00    -0.385 N 
ATOM     10  H2  UNL     1       0.611   3.191  17.843  1.00  0.00     0.160 HD
HETATM   11  C9  UNL     1       1.700   2.174  19.323  1.00  0.00     0.039 A 
HETATM   12  C10 UNL     1       2.740   3.107  19.288  1.00  0.00     0.030 A 
HETATM   13  C11 UNL     1       3.800   2.892  20.139  1.00  0.00     0.002 A 
HETATM   14  C12 UNL     1       3.818   1.801  20.979  1.00  0.00     0.001 A 
HETATM   15  C13 UNL     1       2.765   0.870  21.003  1.00  0.00     0.014 A 
HETATM   16  C14 UNL     1       1.711   1.076  20.163  1.00  0.00     0.001 A 
ENDROOT
BRANCH   1  17
HETATM   17  C2  UNL     1      -2.639  -0.317  18.400  1.00  0.00    -0.043 C 
HETATM   18  C1  UNL     1      -3.581  -0.138  17.668  1.00  0.00    -0.060 C 
BRANCH  18  19
HETATM   19  C15 UNL     1      -4.724   0.088  16.811  1.00  0.00     0.018 A 
HETATM   20  C16 UNL     1      -5.984   0.234  17.321  1.00  0.00     0.020 A 
HETATM   21  C17 UNL     1      -7.056   0.448  16.492  1.00  0.00     0.001 A 
HETATM   22  C18 UNL     1      -6.888   0.524  15.104  1.00  0.00     0.000 A 
HETATM   23  C19 UNL     1      -5.637   0.382  14.566  1.00  0.00     0.001 A 
HETATM   24  C20 UNL     1      -4.580   0.166  15.430  1.00  0.00     0.020 A 
ENDBRANCH  18  19
ENDBRANCH   1  17
TORSDOF 2
ENDMDL
MODEL 4
REMARK VINA RESULT: -9.289740259      3.176      4.231
REMARK  2 active torsions:
REMARK  status: ('A' for Active; 'I' for Inactive)
REMARK    1  A    between atoms: C1_1  and  C15_19 
REMARK    2  A    between atoms: C2_2  and  C3_3 
ROOT
HETATM    1  C3  UNL     1      -1.533  -0.553  19.294  1.00  0.00     0.095 A 
HETATM    2  N1  UNL     1      -1.509  -1.597  20.101  1.00  0.00    -0.358 N 
ATOM      3  H1  UNL     1      -2.300  -2.240  20.076  1.00  0.00     0.166 HD
HETATM    4  C4  UNL     1      -0.505  -1.864  20.952  1.00  0.00     0.090 A 
HETATM    5  C5  UNL     1       0.560  -0.985  20.975  1.00  0.00     0.030 A 
HETATM    6  C6  UNL     1       0.584   0.118  20.154  1.00  0.00    -0.012 A 
HETATM    7  C7  UNL     1      -0.465   0.344  19.304  1.00  0.00     0.006 A 
HETATM    8  C8  UNL     1      -0.541   1.484  18.391  1.00  0.00     0.162 A 
HETATM    9  N2  UNL     1       0.590   2.365  18.455  1.00  0.00    -0.385 N 
ATOM     10  H2  UNL     1       0.601   3.181  17.843  1.00  0.00     0.160 HD
HETATM   11  C9  UNL     1       1.690   2.162  19.321  1.00  0.00     0.039 A 
HETATM   12  C10 UNL     1       2.730   3.094  19.286  1.00  0.00     0.030 A 
HETATM   13  C11 UNL     1       3.791   2.877  20.137  1.00  0.00     0.002 A 
HETATM   14  C12 UNL     1       3.808   1.785  20.976  1.00  0.00     0.001 A 
HETATM   15  C13 UNL     1       2.754   0.855  20.999  1.00  0.00     0.014 A 
HETATM   16  C14 UNL     1       1.700   1.063  20.160  1.00  0.00     0.001 A 
ENDROOT
BRANCH   1  17
HETATM   17  C2  UNL     1      -2.652  -0.324  18.397  1.00  0.00    -0.043 C 
HETATM   18  C1  UNL     1      -3.595  -0.134  17.669  1.00  0.00    -0.060 C 
BRANCH  18  19
HETATM   19  C15 UNL     1      -4.732   0.112  16.811  1.00  0.00     0.018 A 
HETATM   20  C16 UNL     1      -4.608   0.150  15.449  1.00  0.00     0.020 A 
HETATM   21  C17 UNL     1      -5.699   0.385  14.651  1.00  0.00     0.001 A 
HETATM   22  C18 UNL     1      -6.966   0.591  15.209  1.00  0.00     0.000 A 
HETATM   23  C19 UNL     1      -7.120   0.559  16.569  1.00  0.00     0.001 A 
HETATM   24  C20 UNL     1      -6.000   0.320  17.343  1.00  0.00     0.020 A 
ENDBRANCH  18  19
ENDBRANCH   1  17
TORSDOF 2
ENDMDL
MODEL 5
REMARK VINA RESULT: -8.849950071      0.927      1.042
REMARK  2 active torsions:
REMARK  status: ('A' for Active; 'I' for Inactive)
REMARK    1  A    between atoms: C1_1  and  C15_19 
REMARK    2  A    between atoms: C2_2  and  C3_3 
ROOT
HETATM    1  C3  UNL     1      -1.931  -0.080  19.051  1.00  0.00     0.095 A 
HETATM    2  N1  UNL     1      -1.756  -0.060  17.742  1.00  0.00    -0.358 N 
ATOM      3  H1  UNL     1      -2.412  -0.584  17.163  1.00  0.00     0.166 HD
HETATM    4  C4  UNL     1      -0.766   0.608  17.129  1.00  0.00     0.090 A 
HETATM    5  C5  UNL     1       0.115   1.313  17.925  1.00  0.00     0.030 A 
HETATM    6  C6  UNL     1      -0.023   1.326  19.293  1.00  0.00    -0.012 A 
HETATM    7  C7  UNL     1      -1.050   0.628  19.869  1.00  0.00     0.006 A 
HETATM    8  C8  UNL     1      -1.289   0.573  21.311  1.00  0.00     0.162 A 
HETATM    9  N2  UNL     1      -0.346   1.322  22.092  1.00  0.00    -0.385 N 
ATOM     10  H2  UNL     1      -0.455   1.326  23.106  1.00  0.00     0.160 HD
HETATM   11  C9  UNL     1       0.726   2.054  21.529  1.00  0.00     0.039 A 
HETATM   12  C10 UNL     1       1.575   2.743  22.400  1.00  0.00     0.030 A 
HETATM   13  C11 UNL     1       2.611   3.449  21.832  1.00  0.00     0.002 A 
HETATM   14  C12 UNL     1       2.787   3.464  20.466  1.00  0.00     0.001 A 
HETATM   15  C13 UNL     1       1.924   2.766  19.603  1.00  0.00     0.014 A 
HETATM   16  C14 UNL     1       0.896   2.064  20.158  1.00  0.00     0.001 A 
ENDROOT
BRANCH   1  17
HETATM   17  C2  UNL     1      -3.024  -0.825  19.649  1.00  0.00    -0.043 C 
HETATM   18  C1  UNL     1      -3.937  -1.428  20.158  1.00  0.00    -0.060 C 
BRANCH  18  19
HETATM   19  C15 UNL     1      -5.046  -2.130  20.763  1.00  0.00     0.018 A 
HETATM   20  C16 UNL     1      -5.979  -2.785  20.006  1.00  0.00     0.020 A 
HETATM   21  C17 UNL     1      -7.025  -3.446  20.597  1.00  0.00     0.001 A 
HETATM   22  C18 UNL     1      -7.165  -3.470  21.990  1.00  0.00     0.000 A 
HETATM   23  C19 UNL     1      -6.246  -2.824  22.773  1.00  0.00     0.001 A 
HETATM   24  C20 UNL     1      -5.205  -2.167  22.144  1.00  0.00     0.020 A 
ENDBRANCH  18  19
ENDBRANCH   1  17
TORSDOF 2
ENDMDL
