MODEL 1
REMARK VINA RESULT: -8.796621861      0.000      0.000
REMARK  0 active torsions:
REMARK  status: ('A' for Active; 'I' for Inactive)
ROOT
HETATM    1  C1  UNL     1       3.856   3.501  19.460  1.00  0.00     0.018 C 
HETATM    2  C2  UNL     1       2.976   3.084  20.172  1.00  0.00    -0.075 C 
HETATM    3  C3  UNL     1       1.919   2.598  21.012  1.00  0.00     0.044 A 
HETATM    4  C4  UNL     1       1.953   2.756  22.378  1.00  0.00     0.023 A 
HETATM    5  C5  UNL     1       0.908   2.270  23.149  1.00  0.00     0.003 A 
HETATM    6  C6  UNL     1      -0.172   1.626  22.582  1.00  0.00     0.016 A 
HETATM    7  C7  UNL     1      -0.218   1.463  21.237  1.00  0.00     0.020 A 
HETATM    8  C8  UNL     1       0.826   1.948  20.452  1.00  0.00     0.064 A 
HETATM    9  N1  UNL     1       0.767   1.782  19.136  1.00  0.00    -0.353 N 
ATOM     10  H1  UNL     1       1.538   2.141  18.574  1.00  0.00     0.166 HD
HETATM   11  C9  UNL     1      -0.235   1.175  18.506  1.00  0.00     0.049 A 
HETATM   12  C10 UNL     1      -0.246   1.028  17.141  1.00  0.00     0.047 A 
HETATM   13  C11 UNL     1      -1.282   0.400  16.479  1.00  0.00     0.090 A 
HETATM   14  N2  UNL     1      -2.296  -0.072  17.233  1.00  0.00    -0.364 N 
ATOM     15  H2  UNL     1      -3.071  -0.540  16.765  1.00  0.00     0.165 HD
HETATM   16  C12 UNL     1      -2.335   0.044  18.572  1.00  0.00     0.059 A 
HETATM   17  C13 UNL     1      -3.367  -0.436  19.351  1.00  0.00     0.018 A 
HETATM   18  C14 UNL     1      -4.433  -1.075  18.743  1.00  0.00     0.016 A 
HETATM   19  C15 UNL     1      -5.499  -1.579  19.456  1.00  0.00     0.001 A 
HETATM   20  C16 UNL     1      -5.482  -1.430  20.828  1.00  0.00     0.002 A 
HETATM   21  C17 UNL     1      -4.423  -0.790  21.475  1.00  0.00     0.030 A 
HETATM   22  C18 UNL     1      -3.366  -0.294  20.722  1.00  0.00     0.045 A 
HETATM   23  N3  UNL     1      -2.314   0.337  21.317  1.00  0.00    -0.354 N 
ATOM     24  H3  UNL     1      -2.315   0.441  22.332  1.00  0.00     0.166 HD
HETATM   25  C19 UNL     1      -1.281   0.825  20.622  1.00  0.00     0.060 A 
HETATM   26  C20 UNL     1      -1.293   0.676  19.237  1.00  0.00     0.046 A 
ENDROOT
TORSDOF 0
ENDMDL
MODEL 2
REMARK VINA RESULT: -8.476162862      2.114      2.862
REMARK  0 active torsions:
REMARK  status: ('A' for Active; 'I' for Inactive)
ROOT
HETATM    1  C1  UNL     1       4.757   0.089  21.647  1.00  0.00     0.018 C 
HETATM    2  C2  UNL     1       3.797   0.711  21.263  1.00  0.00    -0.075 C 
HETATM    3  C3  UNL     1       2.656   1.443  20.793  1.00  0.00     0.044 A 
HETATM    4  C4  UNL     1       2.729   2.785  20.500  1.00  0.00     0.023 A 
HETATM    5  C5  UNL     1       1.599   3.450  20.049  1.00  0.00     0.003 A 
HETATM    6  C6  UNL     1       0.393   2.801  19.886  1.00  0.00     0.016 A 
HETATM    7  C7  UNL     1       0.306   1.478  20.170  1.00  0.00     0.020 A 
HETATM    8  C8  UNL     1       1.436   0.799  20.624  1.00  0.00     0.064 A 
HETATM    9  N1  UNL     1       1.336  -0.495  20.899  1.00  0.00    -0.353 N 
ATOM     10  H1  UNL     1       2.170  -0.980  21.231  1.00  0.00     0.166 HD
HETATM   11  C9  UNL     1       0.214  -1.201  20.769  1.00  0.00     0.049 A 
HETATM   12  C10 UNL     1       0.165  -2.540  21.069  1.00  0.00     0.047 A 
HETATM   13  C11 UNL     1      -0.994  -3.278  20.937  1.00  0.00     0.090 A 
HETATM   14  N2  UNL     1      -2.091  -2.627  20.498  1.00  0.00    -0.364 N 
ATOM     15  H2  UNL     1      -2.957  -3.153  20.394  1.00  0.00     0.165 HD
HETATM   16  C12 UNL     1      -2.097  -1.318  20.192  1.00  0.00     0.059 A 
HETATM   17  C13 UNL     1      -3.214  -0.644  19.742  1.00  0.00     0.018 A 
HETATM   18  C14 UNL     1      -4.405  -1.332  19.591  1.00  0.00     0.016 A 
HETATM   19  C15 UNL     1      -5.560  -0.726  19.147  1.00  0.00     0.001 A 
HETATM   20  C16 UNL     1      -5.505   0.620  18.849  1.00  0.00     0.002 A 
HETATM   21  C17 UNL     1      -4.320   1.347  18.990  1.00  0.00     0.030 A 
HETATM   22  C18 UNL     1      -3.175   0.701  19.440  1.00  0.00     0.045 A 
HETATM   23  N3  UNL     1      -2.000   1.374  19.590  1.00  0.00    -0.354 N 
ATOM     24  H3  UNL     1      -1.973   2.369  19.365  1.00  0.00     0.166 HD
HETATM   25  C19 UNL     1      -0.880   0.783  20.021  1.00  0.00     0.060 A 
HETATM   26  C20 UNL     1      -0.931  -0.576  20.324  1.00  0.00     0.046 A 
ENDROOT
TORSDOF 0
ENDMDL
MODEL 3
REMARK VINA RESULT: -7.697246778      1.930      4.565
REMARK  0 active torsions:
REMARK  status: ('A' for Active; 'I' for Inactive)
ROOT
HETATM    1  C1  UNL     1       0.547   1.015  22.612  1.00  0.00     0.018 C 
HETATM    2  C2  UNL     1       0.110   0.905  21.493  1.00  0.00    -0.075 C 
HETATM    3  C3  UNL     1      -0.411   0.760  20.163  1.00  0.00     0.044 A 
HETATM    4  C4  UNL     1       0.372   0.976  19.054  1.00  0.00     0.023 A 
HETATM    5  C5  UNL     1      -0.176   0.824  17.789  1.00  0.00     0.003 A 
HETATM    6  C6  UNL     1      -1.494   0.459  17.609  1.00  0.00     0.016 A 
HETATM    7  C7  UNL     1      -2.277   0.242  18.694  1.00  0.00     0.020 A 
HETATM    8  C8  UNL     1      -1.738   0.392  19.971  1.00  0.00     0.064 A 
HETATM    9  N1  UNL     1      -2.516   0.177  21.024  1.00  0.00    -0.353 N 
ATOM     10  H1  UNL     1      -2.108   0.291  21.951  1.00  0.00     0.166 HD
HETATM   11  C9  UNL     1      -3.796  -0.179  20.944  1.00  0.00     0.049 A 
HETATM   12  C10 UNL     1      -4.558  -0.389  22.066  1.00  0.00     0.047 A 
HETATM   13  C11 UNL     1      -5.886  -0.758  21.993  1.00  0.00     0.090 A 
HETATM   14  N2  UNL     1      -6.415  -0.905  20.760  1.00  0.00    -0.364 N 
ATOM     15  H2  UNL     1      -7.394  -1.176  20.683  1.00  0.00     0.165 HD
HETATM   16  C12 UNL     1      -5.714  -0.711  19.629  1.00  0.00     0.059 A 
HETATM   17  C13 UNL     1      -6.247  -0.859  18.365  1.00  0.00     0.018 A 
HETATM   18  C14 UNL     1      -7.574  -1.227  18.229  1.00  0.00     0.016 A 
HETATM   19  C15 UNL     1      -8.173  -1.395  17.000  1.00  0.00     0.001 A 
HETATM   20  C16 UNL     1      -7.403  -1.181  15.875  1.00  0.00     0.002 A 
HETATM   21  C17 UNL     1      -6.060  -0.809  15.975  1.00  0.00     0.030 A 
HETATM   22  C18 UNL     1      -5.490  -0.650  17.232  1.00  0.00     0.045 A 
HETATM   23  N3  UNL     1      -4.184  -0.288  17.372  1.00  0.00    -0.354 N 
ATOM     24  H3  UNL     1      -3.626  -0.134  16.532  1.00  0.00     0.166 HD
HETATM   25  C19 UNL     1      -3.605  -0.127  18.566  1.00  0.00     0.060 A 
HETATM   26  C20 UNL     1      -4.378  -0.341  19.705  1.00  0.00     0.046 A 
ENDROOT
TORSDOF 0
ENDMDL
MODEL 4
REMARK VINA RESULT: -7.576442082      2.514      3.983
REMARK  0 active torsions:
REMARK  status: ('A' for Active; 'I' for Inactive)
ROOT
HETATM    1  C1  UNL     1       0.309   2.383  18.122  1.00  0.00     0.018 C 
HETATM    2  C2  UNL     1       0.000   1.359  18.681  1.00  0.00    -0.075 C 
HETATM    3  C3  UNL     1      -0.373   0.150  19.357  1.00  0.00     0.044 A 
HETATM    4  C4  UNL     1       0.570  -0.738  19.820  1.00  0.00     0.023 A 
HETATM    5  C5  UNL     1       0.161  -1.895  20.468  1.00  0.00     0.003 A 
HETATM    6  C6  UNL     1      -1.174  -2.183  20.663  1.00  0.00     0.016 A 
HETATM    7  C7  UNL     1      -2.114  -1.316  20.212  1.00  0.00     0.020 A 
HETATM    8  C8  UNL     1      -1.715  -0.150  19.560  1.00  0.00     0.064 A 
HETATM    9  N1  UNL     1      -2.646   0.689  19.124  1.00  0.00    -0.353 N 
ATOM     10  H1  UNL     1      -2.339   1.537  18.648  1.00  0.00     0.166 HD
HETATM   11  C9  UNL     1      -3.954   0.492  19.269  1.00  0.00     0.049 A 
HETATM   12  C10 UNL     1      -4.877   1.393  18.798  1.00  0.00     0.047 A 
HETATM   13  C11 UNL     1      -6.235   1.197  18.945  1.00  0.00     0.090 A 
HETATM   14  N2  UNL     1      -6.628   0.071  19.575  1.00  0.00    -0.364 N 
ATOM     15  H2  UNL     1      -7.626  -0.095  19.694  1.00  0.00     0.165 HD
HETATM   16  C12 UNL     1      -5.767  -0.844  20.055  1.00  0.00     0.059 A 
HETATM   17  C13 UNL     1      -6.160  -1.998  20.701  1.00  0.00     0.018 A 
HETATM   18  C14 UNL     1      -7.510  -2.249  20.877  1.00  0.00     0.016 A 
HETATM   19  C15 UNL     1      -7.976  -3.379  21.513  1.00  0.00     0.001 A 
HETATM   20  C16 UNL     1      -7.044  -4.282  21.982  1.00  0.00     0.002 A 
HETATM   21  C17 UNL     1      -5.674  -4.061  21.823  1.00  0.00     0.030 A 
HETATM   22  C18 UNL     1      -5.242  -2.909  21.177  1.00  0.00     0.045 A 
HETATM   23  N3  UNL     1      -3.914  -2.658  21.002  1.00  0.00    -0.354 N 
ATOM     24  H3  UNL     1      -3.236  -3.333  21.355  1.00  0.00     0.166 HD
HETATM   25  C19 UNL     1      -3.465  -1.559  20.384  1.00  0.00     0.060 A 
HETATM   26  C20 UNL     1      -4.401  -0.645  19.908  1.00  0.00     0.046 A 
ENDROOT
TORSDOF 0
ENDMDL
MODEL 5
REMARK VINA RESULT: -7.409797733      2.790      7.513
REMARK  0 active torsions:
REMARK  status: ('A' for Active; 'I' for Inactive)
ROOT
HETATM    1  C1  UNL     1      -9.742  -0.068  16.472  1.00  0.00     0.018 C 
HETATM    2  C2  UNL     1      -8.561  -0.048  16.230  1.00  0.00    -0.075 C 
HETATM    3  C3  UNL     1      -7.153  -0.010  15.948  1.00  0.00     0.044 A 
HETATM    4  C4  UNL     1      -6.677   0.078  14.661  1.00  0.00     0.023 A 
HETATM    5  C5  UNL     1      -5.309   0.111  14.438  1.00  0.00     0.003 A 
HETATM    6  C6  UNL     1      -4.404   0.057  15.478  1.00  0.00     0.016 A 
HETATM    7  C7  UNL     1      -4.860  -0.030  16.752  1.00  0.00     0.020 A 
HETATM    8  C8  UNL     1      -6.233  -0.064  16.989  1.00  0.00     0.064 A 
HETATM    9  N1  UNL     1      -6.665  -0.150  18.240  1.00  0.00    -0.353 N 
ATOM     10  H1  UNL     1      -7.672  -0.174  18.398  1.00  0.00     0.166 HD
HETATM   11  C9  UNL     1      -5.865  -0.206  19.302  1.00  0.00     0.049 A 
HETATM   12  C10 UNL     1      -6.363  -0.295  20.578  1.00  0.00     0.047 A 
HETATM   13  C11 UNL     1      -5.541  -0.354  21.685  1.00  0.00     0.090 A 
HETATM   14  N2  UNL     1      -4.210  -0.322  21.463  1.00  0.00    -0.364 N 
ATOM     15  H2  UNL     1      -3.584  -0.364  22.267  1.00  0.00     0.165 HD
HETATM   16  C12 UNL     1      -3.669  -0.236  20.236  1.00  0.00     0.059 A 
HETATM   17  C13 UNL     1      -2.310  -0.202  20.000  1.00  0.00     0.018 A 
HETATM   18  C14 UNL     1      -1.436  -0.258  21.072  1.00  0.00     0.016 A 
HETATM   19  C15 UNL     1      -0.068  -0.229  20.913  1.00  0.00     0.001 A 
HETATM   20  C16 UNL     1       0.428  -0.141  19.628  1.00  0.00     0.002 A 
HETATM   21  C17 UNL     1      -0.425  -0.082  18.524  1.00  0.00     0.030 A 
HETATM   22  C18 UNL     1      -1.799  -0.114  18.723  1.00  0.00     0.045 A 
HETATM   23  N3  UNL     1      -2.664  -0.058  17.672  1.00  0.00    -0.354 N 
ATOM     24  H3  UNL     1      -2.284   0.008  16.727  1.00  0.00     0.166 HD
HETATM   25  C19 UNL     1      -3.992  -0.087  17.829  1.00  0.00     0.060 A 
HETATM   26  C20 UNL     1      -4.498  -0.176  19.123  1.00  0.00     0.046 A 
ENDROOT
TORSDOF 0
ENDMDL
