MODEL 1
REMARK VINA RESULT: -8.553320430      0.000      0.000
REMARK  8 active torsions:
REMARK  status: ('A' for Active; 'I' for Inactive)
REMARK    1  A    between atoms: C2_2  and  N1_3 
REMARK    2  A    between atoms: N1_3  and  C3_4 
REMARK    3  A    between atoms: N1_3  and  C5_7 
REMARK    4  A    between atoms: C5_7  and  C6_8 
REMARK    5  A    between atoms: C6_8  and  C7_9 
REMARK    6  A    between atoms: C7_9  and  C8_10 
REMARK    7  A    between atoms: C12_16  and  C13_17 
REMARK    8  A    between atoms: C13_17  and  N4_18 
ROOT
HETATM    1  C3  UNL     1      45.653  19.165  19.171  1.00  0.00     0.395 C 
HETATM    2  C4  UNL     1      45.773  20.514  19.759  1.00  0.00     0.089 C 
HETATM    3  N2  UNL     1      45.879  21.583  20.209  1.00  0.00    -0.195 NA
ENDROOT
BRANCH   1   4
HETATM    4  N1  UNL     1      44.544  19.149  18.196  1.00  0.00     0.100 N 
BRANCH   4   5
HETATM    5  C2  UNL     1      45.020  18.464  17.062  1.00  0.00     0.269 C 
HETATM    6  C1  UNL     1      46.097  19.068  16.246  1.00  0.00     0.037 C 
ENDBRANCH   4   5
BRANCH   4   7
HETATM    7  C5  UNL     1      43.398  18.694  18.876  1.00  0.00     0.273 C 
BRANCH   7   8
HETATM    8  C6  UNL     1      42.589  19.728  19.624  1.00  0.00     0.031 C 
BRANCH   8   9
HETATM    9  C7  UNL     1      42.108  20.775  18.658  1.00  0.00     0.017 C 
BRANCH   9  10
HETATM   10  C8  UNL     1      41.430  21.962  19.263  1.00  0.00     0.072 C 
HETATM   11  C9  UNL     1      40.521  21.619  20.340  1.00  0.00     0.030 A 
HETATM   12  N3  UNL     1      39.402  21.115  19.799  1.00  0.00    -0.361 N 
HETATM   13  C16 UNL     1      40.582  21.680  21.715  1.00  0.00     0.010 A 
HETATM   14  C10 UNL     1      38.363  20.675  20.466  1.00  0.00     0.014 A 
ATOM     15  H3  UNL     1      39.355  21.070  18.781  1.00  0.00     0.165 HD
HETATM   16  C11 UNL     1      37.145  20.116  19.819  1.00  0.00     0.068 C 
HETATM   17  C12 UNL     1      38.390  20.720  21.880  1.00  0.00    -0.004 A 
HETATM   18  C14 UNL     1      39.498  21.217  22.498  1.00  0.00    -0.039 A 
HETATM   19  C15 UNL     1      39.616  21.177  23.983  1.00  0.00     0.050 C 
HETATM   20  C17 UNL     1      41.608  22.253  22.558  1.00  0.00     0.116 C 
HETATM   21  N5  UNL     1      42.566  23.146  22.002  1.00  0.00    -0.271 N 
HETATM   22  C18 UNL     1      43.337  23.908  22.861  1.00  0.00     0.331 A 
HETATM   23  C24 UNL     1      42.918  23.468  20.779  1.00  0.00     0.079 A 
HETATM   24  O1  UNL     1      43.312  23.902  24.103  1.00  0.00    -0.246 OA
HETATM   25  N6  UNL     1      44.136  24.673  22.112  1.00  0.00    -0.305 N 
HETATM   26  C19 UNL     1      43.927  24.449  20.806  1.00  0.00     0.086 A 
ATOM     27  H6  UNL     1      44.815  25.338  22.484  1.00  0.00     0.171 HD
HETATM   28  C20 UNL     1      44.443  24.934  19.645  1.00  0.00     0.063 A 
HETATM   29 CL1  UNL     1      45.692  26.154  19.727  1.00  0.00    -0.082 Cl
HETATM   30  C21 UNL     1      43.961  24.448  18.446  1.00  0.00     0.027 A 
HETATM   31  C22 UNL     1      42.970  23.482  18.420  1.00  0.00     0.012 A 
HETATM   32  C23 UNL     1      42.444  22.988  19.595  1.00  0.00    -0.018 A 
BRANCH  17  33
HETATM   33  C13 UNL     1      37.185  20.256  22.569  1.00  0.00     0.270 C 
BRANCH  33  34
HETATM   34  N4  UNL     1      36.245  21.216  22.998  1.00  0.00    -0.075 N 
ATOM     35  H43 UNL     1      36.173  21.180  24.015  1.00  0.00     0.274 HD
ATOM     36  H42 UNL     1      36.636  22.148  22.862  1.00  0.00     0.274 HD
ATOM     37  H41 UNL     1      35.306  21.190  22.598  1.00  0.00     0.274 HD
ENDBRANCH  33  34
ENDBRANCH  17  33
ENDBRANCH   9  10
ENDBRANCH   8   9
ENDBRANCH   7   8
ENDBRANCH   4   7
ENDBRANCH   1   4
TORSDOF 8
ENDMDL
MODEL 2
REMARK VINA RESULT: -8.509704806      0.846      1.587
REMARK  8 active torsions:
REMARK  status: ('A' for Active; 'I' for Inactive)
REMARK    1  A    between atoms: C2_2  and  N1_3 
REMARK    2  A    between atoms: N1_3  and  C3_4 
REMARK    3  A    between atoms: N1_3  and  C5_7 
REMARK    4  A    between atoms: C5_7  and  C6_8 
REMARK    5  A    between atoms: C6_8  and  C7_9 
REMARK    6  A    between atoms: C7_9  and  C8_10 
REMARK    7  A    between atoms: C12_16  and  C13_17 
REMARK    8  A    between atoms: C13_17  and  N4_18 
ROOT
HETATM    1  C3  UNL     1      44.753  17.668  17.391  1.00  0.00     0.395 C 
HETATM    2  C4  UNL     1      45.874  16.718  17.541  1.00  0.00     0.089 C 
HETATM    3  N2  UNL     1      46.769  15.981  17.654  1.00  0.00    -0.195 NA
ENDROOT
BRANCH   1   4
HETATM    4  N1  UNL     1      44.580  18.427  18.645  1.00  0.00     0.100 N 
BRANCH   4   5
HETATM    5  C2  UNL     1      45.438  19.540  18.558  1.00  0.00     0.269 C 
HETATM    6  C1  UNL     1      46.499  19.722  19.574  1.00  0.00     0.037 C 
ENDBRANCH   4   5
BRANCH   4   7
HETATM    7  C5  UNL     1      43.196  18.607  18.837  1.00  0.00     0.273 C 
BRANCH   7   8
HETATM    8  C6  UNL     1      42.764  19.853  19.574  1.00  0.00     0.031 C 
BRANCH   8   9
HETATM    9  C7  UNL     1      42.000  20.745  18.636  1.00  0.00     0.017 C 
BRANCH   9  10
HETATM   10  C8  UNL     1      41.338  21.934  19.255  1.00  0.00     0.072 C 
HETATM   11  C9  UNL     1      40.428  21.590  20.331  1.00  0.00     0.030 A 
HETATM   12  N3  UNL     1      39.302  21.104  19.790  1.00  0.00    -0.361 N 
HETATM   13  C16 UNL     1      40.494  21.636  21.706  1.00  0.00     0.010 A 
HETATM   14  C10 UNL     1      38.260  20.668  20.456  1.00  0.00     0.014 A 
ATOM     15  H3  UNL     1      39.251  21.070  18.771  1.00  0.00     0.165 HD
HETATM   16  C11 UNL     1      37.034  20.130  19.807  1.00  0.00     0.068 C 
HETATM   17  C12 UNL     1      38.293  20.699  21.869  1.00  0.00    -0.004 A 
HETATM   18  C14 UNL     1      39.408  21.177  22.489  1.00  0.00    -0.039 A 
HETATM   19  C15 UNL     1      39.530  21.121  23.973  1.00  0.00     0.050 C 
HETATM   20  C17 UNL     1      41.529  22.189  22.552  1.00  0.00     0.116 C 
HETATM   21  N5  UNL     1      42.496  23.077  22.002  1.00  0.00    -0.271 N 
HETATM   22  C18 UNL     1      43.278  23.822  22.865  1.00  0.00     0.331 A 
HETATM   23  C24 UNL     1      42.847  23.407  20.781  1.00  0.00     0.079 A 
HETATM   24  O1  UNL     1      43.257  23.803  24.108  1.00  0.00    -0.246 OA
HETATM   25  N6  UNL     1      44.084  24.585  22.121  1.00  0.00    -0.305 N 
HETATM   26  C19 UNL     1      43.868  24.377  20.814  1.00  0.00     0.086 A 
ATOM     27  H6  UNL     1      44.771  25.239  22.498  1.00  0.00     0.171 HD
HETATM   28  C20 UNL     1      44.385  24.868  19.657  1.00  0.00     0.063 A 
HETATM   29 CL1  UNL     1      45.648  26.072  19.746  1.00  0.00    -0.082 Cl
HETATM   30  C21 UNL     1      43.893  24.399  18.454  1.00  0.00     0.027 A 
HETATM   31  C22 UNL     1      42.891  23.445  18.422  1.00  0.00     0.012 A 
HETATM   32  C23 UNL     1      42.364  22.944  19.594  1.00  0.00    -0.018 A 
BRANCH  17  33
HETATM   33  C13 UNL     1      37.084  20.242  22.558  1.00  0.00     0.270 C 
BRANCH  33  34
HETATM   34  N4  UNL     1      36.159  21.208  23.004  1.00  0.00    -0.075 N 
ATOM     35  H43 UNL     1      36.659  21.937  23.514  1.00  0.00     0.274 HD
ATOM     36  H42 UNL     1      35.814  21.733  22.201  1.00  0.00     0.274 HD
ATOM     37  H41 UNL     1      35.364  20.898  23.564  1.00  0.00     0.274 HD
ENDBRANCH  33  34
ENDBRANCH  17  33
ENDBRANCH   9  10
ENDBRANCH   8   9
ENDBRANCH   7   8
ENDBRANCH   4   7
ENDBRANCH   1   4
TORSDOF 8
ENDMDL
MODEL 3
REMARK VINA RESULT: -8.498091545      1.045      1.525
REMARK  8 active torsions:
REMARK  status: ('A' for Active; 'I' for Inactive)
REMARK    1  A    between atoms: C2_2  and  N1_3 
REMARK    2  A    between atoms: N1_3  and  C3_4 
REMARK    3  A    between atoms: N1_3  and  C5_7 
REMARK    4  A    between atoms: C5_7  and  C6_8 
REMARK    5  A    between atoms: C6_8  and  C7_9 
REMARK    6  A    between atoms: C7_9  and  C8_10 
REMARK    7  A    between atoms: C12_16  and  C13_17 
REMARK    8  A    between atoms: C13_17  and  N4_18 
ROOT
HETATM    1  C3  UNL     1      46.486  19.053  17.942  1.00  0.00     0.395 C 
HETATM    2  C4  UNL     1      47.082  19.046  16.591  1.00  0.00     0.089 C 
HETATM    3  N2  UNL     1      47.546  19.023  15.522  1.00  0.00    -0.195 NA
ENDROOT
BRANCH   1   4
HETATM    4  N1  UNL     1      45.083  19.504  17.858  1.00  0.00     0.100 N 
BRANCH   4   5
HETATM    5  C2  UNL     1      44.290  18.341  17.843  1.00  0.00     0.269 C 
HETATM    6  C1  UNL     1      44.667  17.192  18.695  1.00  0.00     0.037 C 
ENDBRANCH   4   5
BRANCH   4   7
HETATM    7  C5  UNL     1      44.898  20.480  18.857  1.00  0.00     0.273 C 
BRANCH   7   8
HETATM    8  C6  UNL     1      43.562  20.493  19.562  1.00  0.00     0.031 C 
BRANCH   8   9
HETATM    9  C7  UNL     1      42.560  21.227  18.713  1.00  0.00     0.017 C 
BRANCH   9  10
HETATM   10  C8  UNL     1      41.826  22.344  19.382  1.00  0.00     0.072 C 
HETATM   11  C9  UNL     1      40.937  21.897  20.437  1.00  0.00     0.030 A 
HETATM   12  N3  UNL     1      39.843  21.369  19.868  1.00  0.00    -0.361 N 
HETATM   13  C16 UNL     1      40.997  21.884  21.813  1.00  0.00     0.010 A 
HETATM   14  C10 UNL     1      38.828  20.842  20.509  1.00  0.00     0.014 A 
ATOM     15  H3  UNL     1      39.797  21.379  18.849  1.00  0.00     0.165 HD
HETATM   16  C11 UNL     1      37.638  20.261  19.830  1.00  0.00     0.068 C 
HETATM   17  C12 UNL     1      38.856  20.810  21.922  1.00  0.00    -0.004 A 
HETATM   18  C14 UNL     1      39.939  21.325  22.569  1.00  0.00    -0.039 A 
HETATM   19  C15 UNL     1      40.061  21.209  24.049  1.00  0.00     0.050 C 
HETATM   20  C17 UNL     1      41.995  22.458  22.688  1.00  0.00     0.116 C 
HETATM   21  N5  UNL     1      42.908  23.428  22.184  1.00  0.00    -0.271 N 
HETATM   22  C18 UNL     1      43.641  24.178  23.084  1.00  0.00     0.331 A 
HETATM   23  C24 UNL     1      43.241  23.833  20.980  1.00  0.00     0.079 A 
HETATM   24  O1  UNL     1      43.619  24.101  24.324  1.00  0.00    -0.246 OA
HETATM   25  N6  UNL     1      44.401  25.021  22.380  1.00  0.00    -0.305 N 
HETATM   26  C19 UNL     1      44.201  24.860  21.063  1.00  0.00     0.086 A 
ATOM     27  H6  UNL     1      45.047  25.697  22.788  1.00  0.00     0.171 HD
HETATM   28  C20 UNL     1      44.690  25.434  19.932  1.00  0.00     0.063 A 
HETATM   29 CL1  UNL     1      45.878  26.707  20.082  1.00  0.00    -0.082 Cl
HETATM   30  C21 UNL     1      44.230  24.992  18.707  1.00  0.00     0.027 A 
HETATM   31  C22 UNL     1      43.288  23.982  18.626  1.00  0.00     0.012 A 
HETATM   32  C23 UNL     1      42.789  23.397  19.772  1.00  0.00    -0.018 A 
BRANCH  17  33
HETATM   33  C13 UNL     1      37.676  20.250  22.584  1.00  0.00     0.270 C 
BRANCH  33  34
HETATM   34  N4  UNL     1      36.699  21.138  23.081  1.00  0.00    -0.075 N 
ATOM     35  H43 UNL     1      36.062  21.388  22.324  1.00  0.00     0.274 HD
ATOM     36  H42 UNL     1      36.072  20.628  23.703  1.00  0.00     0.274 HD
ATOM     37  H41 UNL     1      37.010  21.990  23.549  1.00  0.00     0.274 HD
ENDBRANCH  33  34
ENDBRANCH  17  33
ENDBRANCH   9  10
ENDBRANCH   8   9
ENDBRANCH   7   8
ENDBRANCH   4   7
ENDBRANCH   1   4
TORSDOF 8
ENDMDL
MODEL 4
REMARK VINA RESULT: -7.871284116      1.970      3.071
REMARK  8 active torsions:
REMARK  status: ('A' for Active; 'I' for Inactive)
REMARK    1  A    between atoms: C2_2  and  N1_3 
REMARK    2  A    between atoms: N1_3  and  C3_4 
REMARK    3  A    between atoms: N1_3  and  C5_7 
REMARK    4  A    between atoms: C5_7  and  C6_8 
REMARK    5  A    between atoms: C6_8  and  C7_9 
REMARK    6  A    between atoms: C7_9  and  C8_10 
REMARK    7  A    between atoms: C12_16  and  C13_17 
REMARK    8  A    between atoms: C13_17  and  N4_18 
ROOT
HETATM    1  C3  UNL     1      44.790  17.989  17.764  1.00  0.00     0.395 C 
HETATM    2  C4  UNL     1      45.200  16.715  17.141  1.00  0.00     0.089 C 
HETATM    3  N2  UNL     1      45.519  15.716  16.633  1.00  0.00    -0.195 NA
ENDROOT
BRANCH   1   4
HETATM    4  N1  UNL     1      45.950  18.899  17.833  1.00  0.00     0.100 N 
BRANCH   4   5
HETATM    5  C2  UNL     1      46.155  19.384  16.526  1.00  0.00     0.269 C 
HETATM    6  C1  UNL     1      47.460  19.167  15.866  1.00  0.00     0.037 C 
ENDBRANCH   4   5
BRANCH   4   7
HETATM    7  C5  UNL     1      45.718  19.792  18.897  1.00  0.00     0.273 C 
BRANCH   7   8
HETATM    8  C6  UNL     1      44.741  20.917  18.645  1.00  0.00     0.031 C 
BRANCH   8   9
HETATM    9  C7  UNL     1      45.085  22.081  19.532  1.00  0.00     0.017 C 
BRANCH   9  10
HETATM   10  C8  UNL     1      44.020  23.116  19.698  1.00  0.00     0.072 C 
HETATM   11  C9  UNL     1      43.130  22.852  20.813  1.00  0.00     0.030 A 
HETATM   12  N3  UNL     1      42.284  21.877  20.453  1.00  0.00    -0.361 N 
HETATM   13  C16 UNL     1      43.005  23.352  22.091  1.00  0.00     0.010 A 
HETATM   14  C10 UNL     1      41.349  21.357  21.211  1.00  0.00     0.014 A 
ATOM     15  H3  UNL     1      42.375  21.507  19.506  1.00  0.00     0.165 HD
HETATM   16  C11 UNL     1      40.438  20.269  20.766  1.00  0.00     0.068 C 
HETATM   17  C12 UNL     1      41.192  21.844  22.530  1.00  0.00    -0.004 A 
HETATM   18  C14 UNL     1      42.021  22.834  22.966  1.00  0.00    -0.039 A 
HETATM   19  C15 UNL     1      41.966  23.295  24.382  1.00  0.00     0.050 C 
HETATM   20  C17 UNL     1      43.707  24.452  22.713  1.00  0.00     0.116 C 
HETATM   21  N5  UNL     1      44.418  25.386  21.909  1.00  0.00    -0.271 N 
HETATM   22  C18 UNL     1      44.820  26.580  22.478  1.00  0.00     0.331 A 
HETATM   23  C24 UNL     1      44.803  25.408  20.653  1.00  0.00     0.079 A 
HETATM   24  O1  UNL     1      44.649  26.951  23.652  1.00  0.00    -0.246 OA
HETATM   25  N6  UNL     1      45.442  27.288  21.531  1.00  0.00    -0.305 N 
HETATM   26  C19 UNL     1      45.466  26.617  20.370  1.00  0.00     0.086 A 
ATOM     27  H6  UNL     1      45.844  28.216  21.672  1.00  0.00     0.171 HD
HETATM   28  C20 UNL     1      45.951  26.857  19.123  1.00  0.00     0.063 A 
HETATM   29 CL1  UNL     1      46.765  28.373  18.816  1.00  0.00    -0.082 Cl
HETATM   30  C21 UNL     1      45.782  25.896  18.145  1.00  0.00     0.027 A 
HETATM   31  C22 UNL     1      45.131  24.707  18.424  1.00  0.00     0.012 A 
HETATM   32  C23 UNL     1      44.638  24.461  19.688  1.00  0.00    -0.018 A 
BRANCH  17  33
HETATM   33  C13 UNL     1      40.104  21.258  23.314  1.00  0.00     0.270 C 
BRANCH  33  34
HETATM   34  N4  UNL     1      38.905  21.988  23.451  1.00  0.00    -0.075 N 
ATOM     35  H43 UNL     1      38.974  22.846  22.903  1.00  0.00     0.274 HD
ATOM     36  H42 UNL     1      38.160  21.499  22.954  1.00  0.00     0.274 HD
ATOM     37  H41 UNL     1      38.580  22.219  24.390  1.00  0.00     0.274 HD
ENDBRANCH  33  34
ENDBRANCH  17  33
ENDBRANCH   9  10
ENDBRANCH   8   9
ENDBRANCH   7   8
ENDBRANCH   4   7
ENDBRANCH   1   4
TORSDOF 8
ENDMDL
MODEL 5
REMARK VINA RESULT: -7.140995326      2.850      5.333
REMARK  8 active torsions:
REMARK  status: ('A' for Active; 'I' for Inactive)
REMARK    1  A    between atoms: C2_2  and  N1_3 
REMARK    2  A    between atoms: N1_3  and  C3_4 
REMARK    3  A    between atoms: N1_3  and  C5_7 
REMARK    4  A    between atoms: C5_7  and  C6_8 
REMARK    5  A    between atoms: C6_8  and  C7_9 
REMARK    6  A    between atoms: C7_9  and  C8_10 
REMARK    7  A    between atoms: C12_16  and  C13_17 
REMARK    8  A    between atoms: C13_17  and  N4_18 
ROOT
HETATM    1  C3  UNL     1      45.438  27.380  20.094  1.00  0.00     0.395 C 
HETATM    2  C4  UNL     1      46.272  27.878  18.982  1.00  0.00     0.089 C 
HETATM    3  N2  UNL     1      46.945  28.267  18.114  1.00  0.00    -0.195 NA
ENDROOT
BRANCH   1   4
HETATM    4  N1  UNL     1      45.145  25.948  19.887  1.00  0.00     0.100 N 
BRANCH   4   5
HETATM    5  C2  UNL     1      46.123  25.466  18.995  1.00  0.00     0.269 C 
HETATM    6  C1  UNL     1      47.192  24.576  19.499  1.00  0.00     0.037 C 
ENDBRANCH   4   5
BRANCH   4   7
HETATM    7  C5  UNL     1      44.991  25.365  21.159  1.00  0.00     0.273 C 
BRANCH   7   8
HETATM    8  C6  UNL     1      43.597  24.932  21.550  1.00  0.00     0.031 C 
BRANCH   8   9
HETATM    9  C7  UNL     1      43.159  23.804  20.657  1.00  0.00     0.017 C 
BRANCH   9  10
HETATM   10  C8  UNL     1      43.202  22.437  21.259  1.00  0.00     0.072 C 
HETATM   11  C9  UNL     1      42.014  22.108  22.025  1.00  0.00     0.030 A 
HETATM   12  N3  UNL     1      42.081  22.751  23.200  1.00  0.00    -0.361 N 
HETATM   13  C16 UNL     1      40.895  21.340  21.792  1.00  0.00     0.010 A 
HETATM   14  C10 UNL     1      41.173  22.711  24.145  1.00  0.00     0.014 A 
ATOM     15  H3  UNL     1      42.910  23.320  23.374  1.00  0.00     0.165 HD
HETATM   16  C11 UNL     1      41.291  23.450  25.431  1.00  0.00     0.068 C 
HETATM   17  C12 UNL     1      40.009  21.934  23.941  1.00  0.00    -0.004 A 
HETATM   18  C14 UNL     1      39.872  21.256  22.767  1.00  0.00    -0.039 A 
HETATM   19  C15 UNL     1      38.612  20.519  22.464  1.00  0.00     0.050 C 
HETATM   20  C17 UNL     1      40.598  20.475  20.672  1.00  0.00     0.116 C 
HETATM   21  N5  UNL     1      41.642  20.066  19.795  1.00  0.00    -0.271 N 
HETATM   22  C18 UNL     1      41.405  19.016  18.928  1.00  0.00     0.331 A 
HETATM   23  C24 UNL     1      42.881  20.456  19.602  1.00  0.00     0.079 A 
HETATM   24  O1  UNL     1      40.352  18.369  18.797  1.00  0.00    -0.246 OA
HETATM   25  N6  UNL     1      42.527  18.808  18.232  1.00  0.00    -0.305 N 
HETATM   26  C19 UNL     1      43.487  19.670  18.602  1.00  0.00     0.086 A 
ATOM     27  H6  UNL     1      42.639  18.090  17.516  1.00  0.00     0.171 HD
HETATM   28  C20 UNL     1      44.776  19.897  18.239  1.00  0.00     0.063 A 
HETATM   29 CL1  UNL     1      45.487  18.896  16.995  1.00  0.00    -0.082 Cl
HETATM   30  C21 UNL     1      45.478  20.909  18.865  1.00  0.00     0.027 A 
HETATM   31  C22 UNL     1      44.882  21.683  19.846  1.00  0.00     0.012 A 
HETATM   32  C23 UNL     1      43.573  21.454  20.218  1.00  0.00    -0.018 A 
BRANCH  17  33
HETATM   33  C13 UNL     1      39.052  21.893  25.048  1.00  0.00     0.270 C 
BRANCH  33  34
HETATM   34  N4  UNL     1      37.882  22.674  24.954  1.00  0.00    -0.075 N 
ATOM     35  H43 UNL     1      37.653  22.812  23.970  1.00  0.00     0.274 HD
ATOM     36  H42 UNL     1      37.085  22.117  25.264  1.00  0.00     0.274 HD
ATOM     37  H41 UNL     1      37.860  23.576  25.430  1.00  0.00     0.274 HD
ENDBRANCH  33  34
ENDBRANCH  17  33
ENDBRANCH   9  10
ENDBRANCH   8   9
ENDBRANCH   7   8
ENDBRANCH   4   7
ENDBRANCH   1   4
TORSDOF 8
ENDMDL
