MODEL 1
REMARK VINA RESULT: -4.893833072      0.000      0.000
REMARK  4 active torsions:
REMARK  status: ('A' for Active; 'I' for Inactive)
REMARK    1  A    between atoms: C2_2  and  O1_3 
REMARK    2  A    between atoms: O1_3  and  C3_4 
REMARK    3  A    between atoms: C3_4  and  C4_6 
REMARK    4  A    between atoms: C7_9  and  C8_10 
ROOT
HETATM    1  C4  UNL     1       6.850  58.200  37.838  1.00  0.00     0.152 A 
HETATM    2  C5  UNL     1       6.538  59.337  37.080  1.00  0.00     0.058 A 
HETATM    3  C6  UNL     1       7.615  60.147  37.150  1.00  0.00     0.012 A 
HETATM    4  C7  UNL     1       7.790  61.464  36.584  1.00  0.00    -0.006 A 
HETATM    5  C17 UNL     1       8.955  62.055  36.855  1.00  0.00     0.037 A 
HETATM    6  C18 UNL     1       9.947  61.424  37.631  1.00  0.00     0.037 A 
HETATM    7 CL3  UNL     1      11.520  62.216  37.906  1.00  0.00    -0.084 Cl
HETATM    8  C19 UNL     1       9.731  60.170  38.151  1.00  0.00     0.062 A 
HETATM    9  C20 UNL     1       8.548  59.545  37.910  1.00  0.00     0.089 A 
HETATM   10  O3  UNL     1       8.056  58.370  38.308  1.00  0.00    -0.304 OA
ENDROOT
BRANCH   4  11
HETATM   11  C8  UNL     1       6.727  61.752  35.669  1.00  0.00     0.100 C 
HETATM   12  N1  UNL     1       6.562  61.884  34.363  1.00  0.00    -0.365 N 
HETATM   13  C9  UNL     1       5.307  62.602  34.038  1.00  0.00     0.144 C 
HETATM   14  C15 UNL     1       7.233  61.493  33.235  1.00  0.00     0.113 C 
HETATM   15  C10 UNL     1       4.340  61.665  33.428  1.00  0.00     0.101 C 
HETATM   16 CL1  UNL     1       3.778  60.425  34.571  1.00  0.00    -0.123 Cl
HETATM   17  C11 UNL     1       4.947  61.140  32.184  1.00  0.00     0.034 C 
HETATM   18  C12 UNL     1       6.366  60.704  32.259  1.00  0.00    -0.007 C 
HETATM   19  C13 UNL     1       6.982  60.876  30.894  1.00  0.00     0.018 C 
HETATM   20  C14 UNL     1       6.425  59.221  32.589  1.00  0.00     0.018 C 
HETATM   21  C16 UNL     1       7.732  62.736  32.471  1.00  0.00     0.057 C 
HETATM   22 CL2  UNL     1       8.705  60.539  33.519  1.00  0.00    -0.095 Cl
ENDBRANCH   4  11
BRANCH   1  23
HETATM   23  C3  UNL     1       5.837  57.144  37.954  1.00  0.00     0.317 C 
HETATM   24  O2  UNL     1       5.678  56.449  38.971  1.00  0.00    -0.257 OA
BRANCH  23  25
HETATM   25  O1  UNL     1       5.045  56.911  36.884  1.00  0.00    -0.316 OA
BRANCH  25  26
HETATM   26  C2  UNL     1       3.733  56.792  36.667  1.00  0.00     0.175 C 
HETATM   27  C1  UNL     1       2.898  57.955  37.163  1.00  0.00     0.034 C 
ENDBRANCH  25  26
ENDBRANCH  23  25
ENDBRANCH   1  23
TORSDOF 4
ENDMDL
MODEL 2
REMARK VINA RESULT: -4.832578724      2.874      5.875
REMARK  4 active torsions:
REMARK  status: ('A' for Active; 'I' for Inactive)
REMARK    1  A    between atoms: C2_2  and  O1_3 
REMARK    2  A    between atoms: O1_3  and  C3_4 
REMARK    3  A    between atoms: C3_4  and  C4_6 
REMARK    4  A    between atoms: C7_9  and  C8_10 
ROOT
HETATM    1  C4  UNL     1       7.965  60.830  36.111  1.00  0.00     0.152 A 
HETATM    2  C5  UNL     1       6.627  60.483  35.874  1.00  0.00     0.058 A 
HETATM    3  C6  UNL     1       6.482  60.429  34.534  1.00  0.00     0.012 A 
HETATM    4  C7  UNL     1       5.287  60.165  33.768  1.00  0.00    -0.006 A 
HETATM    5  C17 UNL     1       5.431  60.221  32.442  1.00  0.00     0.037 A 
HETATM    6  C18 UNL     1       6.671  60.507  31.840  1.00  0.00     0.037 A 
HETATM    7 CL3  UNL     1       6.839  60.498  30.065  1.00  0.00    -0.084 Cl
HETATM    8  C19 UNL     1       7.780  60.756  32.613  1.00  0.00     0.062 A 
HETATM    9  C20 UNL     1       7.666  60.725  33.968  1.00  0.00     0.089 A 
HETATM   10  O3  UNL     1       8.541  60.960  34.948  1.00  0.00    -0.304 OA
ENDROOT
BRANCH   4  11
HETATM   11  C8  UNL     1       4.246  59.688  34.628  1.00  0.00     0.100 C 
HETATM   12  N1  UNL     1       3.662  58.538  34.921  1.00  0.00    -0.365 N 
HETATM   13  C9  UNL     1       2.354  58.741  35.588  1.00  0.00     0.144 C 
HETATM   14  C15 UNL     1       3.975  57.210  34.803  1.00  0.00     0.113 C 
HETATM   15  C10 UNL     1       2.448  58.331  37.005  1.00  0.00     0.101 C 
HETATM   16 CL1  UNL     1       3.519  59.389  37.950  1.00  0.00    -0.123 Cl
HETATM   17  C11 UNL     1       2.802  56.894  37.035  1.00  0.00     0.034 C 
HETATM   18  C12 UNL     1       3.887  56.449  36.122  1.00  0.00    -0.007 C 
HETATM   19  C13 UNL     1       3.644  55.002  35.774  1.00  0.00     0.018 C 
HETATM   20  C14 UNL     1       5.221  56.512  36.850  1.00  0.00     0.018 C 
HETATM   21  C16 UNL     1       2.983  56.528  33.838  1.00  0.00     0.057 C 
HETATM   22 CL2  UNL     1       5.571  56.864  34.102  1.00  0.00    -0.095 Cl
ENDBRANCH   4  11
BRANCH   1  23
HETATM   23  C3  UNL     1       8.405  60.980  37.504  1.00  0.00     0.317 C 
HETATM   24  O2  UNL     1       7.628  61.114  38.463  1.00  0.00    -0.257 OA
BRANCH  23  25
HETATM   25  O1  UNL     1       9.735  60.986  37.747  1.00  0.00    -0.316 OA
BRANCH  25  26
HETATM   26  C2  UNL     1      10.700  61.908  37.786  1.00  0.00     0.175 C 
HETATM   27  C1  UNL     1      12.006  61.437  38.393  1.00  0.00     0.034 C 
ENDBRANCH  25  26
ENDBRANCH  23  25
ENDBRANCH   1  23
TORSDOF 4
ENDMDL
MODEL 3
REMARK VINA RESULT: -4.681501080     13.330     15.051
REMARK  4 active torsions:
REMARK  status: ('A' for Active; 'I' for Inactive)
REMARK    1  A    between atoms: C2_2  and  O1_3 
REMARK    2  A    between atoms: O1_3  and  C3_4 
REMARK    3  A    between atoms: C3_4  and  C4_6 
REMARK    4  A    between atoms: C7_9  and  C8_10 
ROOT
HETATM    1  C4  UNL     1      15.303  52.037  28.215  1.00  0.00     0.152 A 
HETATM    2  C5  UNL     1      16.175  53.108  28.457  1.00  0.00     0.058 A 
HETATM    3  C6  UNL     1      17.335  52.799  27.842  1.00  0.00     0.012 A 
HETATM    4  C7  UNL     1      18.573  53.542  27.827  1.00  0.00    -0.006 A 
HETATM    5  C17 UNL     1      19.580  52.967  27.168  1.00  0.00     0.037 A 
HETATM    6  C18 UNL     1      19.434  51.724  26.523  1.00  0.00     0.037 A 
HETATM    7 CL3  UNL     1      20.782  51.025  25.589  1.00  0.00    -0.084 Cl
HETATM    8  C19 UNL     1      18.236  51.052  26.569  1.00  0.00     0.062 A 
HETATM    9  C20 UNL     1      17.192  51.600  27.247  1.00  0.00     0.089 A 
HETATM   10  O3  UNL     1      15.953  51.169  27.489  1.00  0.00    -0.304 OA
ENDROOT
BRANCH   4  11
HETATM   11  C8  UNL     1      18.365  54.855  28.362  1.00  0.00     0.100 C 
HETATM   12  N1  UNL     1      18.540  55.488  29.509  1.00  0.00    -0.365 N 
HETATM   13  C9  UNL     1      17.746  56.737  29.575  1.00  0.00     0.144 C 
HETATM   14  C15 UNL     1      19.300  55.306  30.635  1.00  0.00     0.113 C 
HETATM   15  C10 UNL     1      18.647  57.906  29.517  1.00  0.00     0.101 C 
HETATM   16 CL1  UNL     1      19.461  58.061  27.944  1.00  0.00    -0.123 Cl
HETATM   17  C11 UNL     1      19.554  57.834  30.685  1.00  0.00     0.034 C 
HETATM   18  C12 UNL     1      20.166  56.513  30.981  1.00  0.00    -0.007 C 
HETATM   19  C13 UNL     1      20.438  56.443  32.462  1.00  0.00     0.018 C 
HETATM   20  C14 UNL     1      21.511  56.408  30.278  1.00  0.00     0.018 C 
HETATM   21  C16 UNL     1      18.378  55.068  31.849  1.00  0.00     0.057 C 
HETATM   22 CL2  UNL     1      20.364  53.883  30.613  1.00  0.00    -0.095 Cl
ENDBRANCH   4  11
BRANCH   1  23
HETATM   23  C3  UNL     1      13.954  52.098  28.791  1.00  0.00     0.317 C 
HETATM   24  O2  UNL     1      13.723  52.080  30.011  1.00  0.00    -0.257 OA
BRANCH  23  25
HETATM   25  O1  UNL     1      12.907  52.161  27.938  1.00  0.00    -0.316 OA
BRANCH  25  26
HETATM   26  C2  UNL     1      11.776  51.477  27.753  1.00  0.00     0.175 C 
HETATM   27  C1  UNL     1      10.662  52.255  27.084  1.00  0.00     0.034 C 
ENDBRANCH  25  26
ENDBRANCH  23  25
ENDBRANCH   1  23
TORSDOF 4
ENDMDL
MODEL 4
REMARK VINA RESULT: -4.391128466      2.981      6.380
REMARK  4 active torsions:
REMARK  status: ('A' for Active; 'I' for Inactive)
REMARK    1  A    between atoms: C2_2  and  O1_3 
REMARK    2  A    between atoms: O1_3  and  C3_4 
REMARK    3  A    between atoms: C3_4  and  C4_6 
REMARK    4  A    between atoms: C7_9  and  C8_10 
ROOT
HETATM    1  C4  UNL     1       8.347  61.353  34.465  1.00  0.00     0.152 A 
HETATM    2  C5  UNL     1       7.092  61.030  34.998  1.00  0.00     0.058 A 
HETATM    3  C6  UNL     1       6.373  60.504  33.984  1.00  0.00     0.012 A 
HETATM    4  C7  UNL     1       5.001  60.056  33.991  1.00  0.00    -0.006 A 
HETATM    5  C17 UNL     1       4.535  59.619  32.819  1.00  0.00     0.037 A 
HETATM    6  C18 UNL     1       5.337  59.589  31.663  1.00  0.00     0.037 A 
HETATM    7 CL3  UNL     1       4.699  58.926  30.136  1.00  0.00    -0.084 Cl
HETATM    8  C19 UNL     1       6.638  60.030  31.707  1.00  0.00     0.062 A 
HETATM    9  C20 UNL     1       7.142  60.498  32.880  1.00  0.00     0.089 A 
HETATM   10  O3  UNL     1       8.328  61.016  33.204  1.00  0.00    -0.304 OA
ENDROOT
BRANCH   4  11
HETATM   11  C8  UNL     1       4.511  59.991  35.334  1.00  0.00     0.100 C 
HETATM   12  N1  UNL     1       4.354  59.080  36.281  1.00  0.00    -0.365 N 
HETATM   13  C9  UNL     1       3.402  59.530  37.323  1.00  0.00     0.144 C 
HETATM   14  C15 UNL     1       4.877  57.846  36.565  1.00  0.00     0.113 C 
HETATM   15  C10 UNL     1       4.129  59.799  38.582  1.00  0.00     0.101 C 
HETATM   16 CL1  UNL     1       5.225  61.191  38.450  1.00  0.00    -0.123 Cl
HETATM   17  C11 UNL     1       4.771  58.535  39.009  1.00  0.00     0.034 C 
HETATM   18  C12 UNL     1       5.481  57.754  37.963  1.00  0.00    -0.007 C 
HETATM   19  C13 UNL     1       5.442  56.299  38.357  1.00  0.00     0.018 C 
HETATM   20  C14 UNL     1       6.944  58.165  37.928  1.00  0.00     0.018 C 
HETATM   21  C16 UNL     1       3.762  56.783  36.499  1.00  0.00     0.057 C 
HETATM   22 CL2  UNL     1       6.105  57.260  35.422  1.00  0.00    -0.095 Cl
ENDBRANCH   4  11
BRANCH   1  23
HETATM   23  C3  UNL     1       9.340  61.969  35.354  1.00  0.00     0.317 C 
HETATM   24  O2  UNL     1      10.266  62.695  34.956  1.00  0.00    -0.257 OA
BRANCH  23  25
HETATM   25  O1  UNL     1       9.245  61.714  36.678  1.00  0.00    -0.316 OA
BRANCH  25  26
HETATM   26  C2  UNL     1       9.721  60.791  37.515  1.00  0.00     0.175 C 
HETATM   27  C1  UNL     1      10.974  61.194  38.264  1.00  0.00     0.034 C 
ENDBRANCH  25  26
ENDBRANCH  23  25
ENDBRANCH   1  23
TORSDOF 4
ENDMDL
MODEL 5
REMARK VINA RESULT: -4.285335332      1.837      5.067
REMARK  4 active torsions:
REMARK  status: ('A' for Active; 'I' for Inactive)
REMARK    1  A    between atoms: C2_2  and  O1_3 
REMARK    2  A    between atoms: O1_3  and  C3_4 
REMARK    3  A    between atoms: C3_4  and  C4_6 
REMARK    4  A    between atoms: C7_9  and  C8_10 
ROOT
HETATM    1  C4  UNL     1       7.172  59.192  37.543  1.00  0.00     0.152 A 
HETATM    2  C5  UNL     1       6.940  59.094  36.164  1.00  0.00     0.058 A 
HETATM    3  C6  UNL     1       5.879  58.273  36.015  1.00  0.00     0.012 A 
HETATM    4  C7  UNL     1       5.267  57.805  34.794  1.00  0.00    -0.006 A 
HETATM    5  C17 UNL     1       4.249  56.956  34.952  1.00  0.00     0.037 A 
HETATM    6  C18 UNL     1       3.802  56.560  36.226  1.00  0.00     0.037 A 
HETATM    7 CL3  UNL     1       2.390  55.483  36.395  1.00  0.00    -0.084 Cl
HETATM    8  C19 UNL     1       4.420  57.031  37.359  1.00  0.00     0.062 A 
HETATM    9  C20 UNL     1       5.472  57.883  37.237  1.00  0.00     0.089 A 
HETATM   10  O3  UNL     1       6.272  58.457  38.137  1.00  0.00    -0.304 OA
ENDROOT
BRANCH   4  11
HETATM   11  C8  UNL     1       5.775  58.539  33.675  1.00  0.00     0.100 C 
HETATM   12  N1  UNL     1       5.510  59.667  33.036  1.00  0.00    -0.365 N 
HETATM   13  C9  UNL     1       6.121  59.690  31.687  1.00  0.00     0.144 C 
HETATM   14  C15 UNL     1       4.848  60.833  33.318  1.00  0.00     0.113 C 
HETATM   15  C10 UNL     1       7.226  60.672  31.656  1.00  0.00     0.101 C 
HETATM   16 CL1  UNL     1       8.596  60.188  32.680  1.00  0.00    -0.123 Cl
HETATM   17  C11 UNL     1       6.654  62.002  31.964  1.00  0.00     0.034 C 
HETATM   18  C12 UNL     1       5.703  62.078  33.104  1.00  0.00    -0.007 C 
HETATM   19  C13 UNL     1       4.752  63.219  32.846  1.00  0.00     0.018 C 
HETATM   20  C14 UNL     1       6.463  62.414  34.377  1.00  0.00     0.018 C 
HETATM   21  C16 UNL     1       3.628  60.975  32.385  1.00  0.00     0.057 C 
HETATM   22 CL2  UNL     1       4.161  60.942  34.953  1.00  0.00    -0.095 Cl
ENDBRANCH   4  11
BRANCH   1  23
HETATM   23  C3  UNL     1       8.296  60.019  38.000  1.00  0.00     0.317 C 
HETATM   24  O2  UNL     1       8.974  59.765  39.009  1.00  0.00    -0.257 OA
BRANCH  23  25
HETATM   25  O1  UNL     1       8.595  61.127  37.285  1.00  0.00    -0.316 OA
BRANCH  25  26
HETATM   26  C2  UNL     1       9.656  61.924  37.148  1.00  0.00     0.175 C 
HETATM   27  C1  UNL     1       9.850  62.492  35.757  1.00  0.00     0.034 C 
ENDBRANCH  25  26
ENDBRANCH  23  25
ENDBRANCH   1  23
TORSDOF 4
ENDMDL
