MODEL 1
REMARK VINA RESULT: -4.824702801      0.000      0.000
REMARK  1 active torsions:
REMARK  status: ('A' for Active; 'I' for Inactive)
REMARK    1  A    between atoms: C5_8  and  C6_9 
ROOT
HETATM    1  C1  UNL     1     -27.840  83.708 -10.956  1.00  0.00     0.016 C 
HETATM    2  C2  UNL     1     -27.599  84.882 -11.119  1.00  0.00    -0.053 C 
HETATM    3  C3  UNL     1     -27.296  86.298 -11.300  1.00  0.00     0.497 C 
HETATM    4  N1  UNL     1     -27.287  87.030 -10.054  1.00  0.00    -0.030 N 
ATOM      5  H11 UNL     1     -26.579  87.761  -9.992  1.00  0.00     0.280 HD
ATOM      6  H12 UNL     1     -26.955  86.500  -9.248  1.00  0.00     0.280 HD
HETATM    7  C4  UNL     1     -28.657  87.499  -9.952  1.00  0.00     0.272 C 
HETATM    8  C5  UNL     1     -28.919  87.943 -11.378  1.00  0.00     0.256 C 
HETATM    9  N2  UNL     1     -28.316  86.903 -12.134  1.00  0.00     0.133 N 
HETATM   10  C9  UNL     1     -27.661  87.351 -13.344  1.00  0.00     0.314 C 
ENDROOT
BRANCH   8  11
HETATM   11  C6  UNL     1     -30.385  88.101 -11.563  1.00  0.00     0.021 A 
HETATM   12  C7  UNL     1     -31.269  88.754 -10.589  1.00  0.00     0.007 A 
HETATM   13  C8  UNL     1     -30.857  89.500 -11.844  1.00  0.00     0.007 A 
ENDBRANCH   8  11
TORSDOF 1
ENDMDL
MODEL 2
REMARK VINA RESULT: -4.783166781      1.606      1.850
REMARK  1 active torsions:
REMARK  status: ('A' for Active; 'I' for Inactive)
REMARK    1  A    between atoms: C5_8  and  C6_9 
ROOT
HETATM    1  C1  UNL     1     -30.023  83.498 -13.101  1.00  0.00     0.016 C 
HETATM    2  C2  UNL     1     -29.178  84.096 -12.474  1.00  0.00    -0.053 C 
HETATM    3  C3  UNL     1     -28.163  84.805 -11.702  1.00  0.00     0.497 C 
HETATM    4  N1  UNL     1     -28.523  84.953 -10.310  1.00  0.00    -0.030 N 
ATOM      5  H11 UNL     1     -27.744  84.872  -9.656  1.00  0.00     0.280 HD
ATOM      6  H12 UNL     1     -29.061  84.178  -9.922  1.00  0.00     0.280 HD
HETATM    7  C4  UNL     1     -29.202  86.235 -10.293  1.00  0.00     0.272 C 
HETATM    8  C5  UNL     1     -28.298  87.055 -11.191  1.00  0.00     0.256 C 
HETATM    9  N2  UNL     1     -28.001  86.141 -12.238  1.00  0.00     0.133 N 
HETATM   10  C9  UNL     1     -26.647  86.234 -12.741  1.00  0.00     0.314 C 
ENDROOT
BRANCH   8  11
HETATM   11  C6  UNL     1     -29.026  88.284 -11.603  1.00  0.00     0.021 A 
HETATM   12  C7  UNL     1     -30.398  88.288 -12.127  1.00  0.00     0.007 A 
HETATM   13  C8  UNL     1     -30.142  88.712 -10.693  1.00  0.00     0.007 A 
ENDBRANCH   8  11
TORSDOF 1
ENDMDL
MODEL 3
REMARK VINA RESULT: -4.636358004      1.939      3.274
REMARK  1 active torsions:
REMARK  status: ('A' for Active; 'I' for Inactive)
REMARK    1  A    between atoms: C5_8  and  C6_9 
ROOT
HETATM    1  C1  UNL     1     -26.216  86.467 -14.995  1.00  0.00     0.016 C 
HETATM    2  C2  UNL     1     -27.341  86.337 -14.572  1.00  0.00    -0.053 C 
HETATM    3  C3  UNL     1     -28.706  86.190 -14.078  1.00  0.00     0.497 C 
HETATM    4  N1  UNL     1     -29.492  87.392 -14.243  1.00  0.00    -0.030 N 
ATOM      5  H11 UNL     1     -30.470  87.235 -14.485  1.00  0.00     0.280 HD
ATOM      6  H12 UNL     1     -29.268  87.939 -15.075  1.00  0.00     0.280 HD
HETATM    7  C4  UNL     1     -29.280  88.084 -12.985  1.00  0.00     0.272 C 
HETATM    8  C5  UNL     1     -29.391  86.937 -12.000  1.00  0.00     0.256 C 
HETATM    9  N2  UNL     1     -28.673  85.903 -12.658  1.00  0.00     0.133 N 
HETATM   10  C9  UNL     1     -29.237  84.582 -12.480  1.00  0.00     0.314 C 
ENDROOT
BRANCH   8  11
HETATM   11  C6  UNL     1     -28.829  87.376 -10.695  1.00  0.00     0.021 A 
HETATM   12  C7  UNL     1     -29.408  88.445  -9.871  1.00  0.00     0.007 A 
HETATM   13  C8  UNL     1     -29.629  86.995  -9.483  1.00  0.00     0.007 A 
ENDBRANCH   8  11
TORSDOF 1
ENDMDL
MODEL 4
REMARK VINA RESULT: -4.538509765      1.502      2.995
REMARK  1 active torsions:
REMARK  status: ('A' for Active; 'I' for Inactive)
REMARK    1  A    between atoms: C5_8  and  C6_9 
ROOT
HETATM    1  C1  UNL     1     -26.906  87.827 -14.908  1.00  0.00     0.016 C 
HETATM    2  C2  UNL     1     -27.175  87.006 -14.061  1.00  0.00    -0.053 C 
HETATM    3  C3  UNL     1     -27.511  86.005 -13.054  1.00  0.00     0.497 C 
HETATM    4  N1  UNL     1     -28.888  85.573 -13.135  1.00  0.00    -0.030 N 
ATOM      5  H11 UNL     1     -29.038  84.583 -12.938  1.00  0.00     0.280 HD
ATOM      6  H12 UNL     1     -29.274  85.548 -14.078  1.00  0.00     0.280 HD
HETATM    7  C4  UNL     1     -29.559  86.483 -12.225  1.00  0.00     0.272 C 
HETATM    8  C5  UNL     1     -28.580  86.512 -11.068  1.00  0.00     0.256 C 
HETATM    9  N2  UNL     1     -27.327  86.575 -11.734  1.00  0.00     0.133 N 
HETATM   10  C9  UNL     1     -26.274  85.818 -11.090  1.00  0.00     0.314 C 
ENDROOT
BRANCH   8  11
HETATM   11  C6  UNL     1     -28.904  87.678 -10.203  1.00  0.00     0.021 A 
HETATM   12  C7  UNL     1     -29.768  88.791 -10.616  1.00  0.00     0.007 A 
HETATM   13  C8  UNL     1     -30.311  87.727  -9.680  1.00  0.00     0.007 A 
ENDBRANCH   8  11
TORSDOF 1
ENDMDL
MODEL 5
REMARK VINA RESULT: -4.486944476      1.458      2.180
REMARK  1 active torsions:
REMARK  status: ('A' for Active; 'I' for Inactive)
REMARK    1  A    between atoms: C5_8  and  C6_9 
ROOT
HETATM    1  C1  UNL     1     -25.284  85.480 -10.685  1.00  0.00     0.016 C 
HETATM    2  C2  UNL     1     -26.216  85.543 -11.454  1.00  0.00    -0.053 C 
HETATM    3  C3  UNL     1     -27.327  85.629 -12.395  1.00  0.00     0.497 C 
HETATM    4  N1  UNL     1     -27.321  86.859 -13.155  1.00  0.00    -0.030 N 
ATOM      5  H11 UNL     1     -27.621  86.764 -14.125  1.00  0.00     0.280 HD
ATOM      6  H12 UNL     1     -26.394  87.224 -13.371  1.00  0.00     0.280 HD
HETATM    7  C4  UNL     1     -28.148  87.735 -12.346  1.00  0.00     0.272 C 
HETATM    8  C5  UNL     1     -29.274  86.797 -11.959  1.00  0.00     0.256 C 
HETATM    9  N2  UNL     1     -28.578  85.594 -11.664  1.00  0.00     0.133 N 
HETATM   10  C9  UNL     1     -29.272  84.391 -12.071  1.00  0.00     0.314 C 
ENDROOT
BRANCH   8  11
HETATM   11  C6  UNL     1     -30.022  87.397 -10.823  1.00  0.00     0.021 A 
HETATM   12  C7  UNL     1     -29.504  88.484  -9.983  1.00  0.00     0.007 A 
HETATM   13  C8  UNL     1     -30.538  88.790 -11.051  1.00  0.00     0.007 A 
ENDBRANCH   8  11
TORSDOF 1
ENDMDL
