MODEL 1
REMARK VINA RESULT: -5.657183596      0.000      0.000
REMARK  8 active torsions:
REMARK  status: ('A' for Active; 'I' for Inactive)
REMARK    1  A    between atoms: C3_3  and  C4_4 
REMARK    2  A    between atoms: C4_4  and  C5_5 
REMARK    3  A    between atoms: C5_5  and  N1_6 
REMARK    4  A    between atoms: N1_6  and  O1_8 
REMARK    5  A    between atoms: C6_10  and  N2_11 
REMARK    6  A    between atoms: N4_18  and  C8_19 
REMARK    7  A    between atoms: C8_19  and  O2_20 
REMARK    8  A    between atoms: C8_19  and  C9_22 
ROOT
HETATM    1  C1  UNL     1      22.307  41.141  39.855  1.00  0.00     0.070 C 
HETATM    2  C2  UNL     1      21.709  42.466  40.011  1.00  0.00     0.032 A 
HETATM    3  C3  UNL     1      21.743  43.044  41.279  1.00  0.00     0.039 A 
HETATM    4  C6  UNL     1      21.209  44.278  41.509  1.00  0.00     0.114 A 
HETATM    5  N3  UNL     1      20.662  44.887  40.466  1.00  0.00    -0.318 N 
ATOM      6  H3  UNL     1      20.250  45.812  40.591  1.00  0.00     0.170 HD
HETATM    7  C7  UNL     1      20.636  44.305  39.221  1.00  0.00     0.186 A 
HETATM    8  S1  UNL     1      19.910  45.250  38.112  1.00  0.00    -0.040 SA
HETATM    9  N4  UNL     1      21.137  43.109  38.931  1.00  0.00    -0.275 N 
ENDROOT
BRANCH   9  10
HETATM   10  C8  UNL     1      21.109  42.515  37.669  1.00  0.00     0.132 C 
BRANCH  10  11
HETATM   11  O2  UNL     1      20.105  41.637  37.555  1.00  0.00    -0.348 OA
ATOM     12  H2  UNL     1      20.409  40.788  37.258  1.00  0.00     0.219 HD
ENDBRANCH  10  11
BRANCH  10  13
HETATM   13  C9  UNL     1      21.839  42.556  36.436  1.00  0.00     0.014 C 
HETATM   14  C10 UNL     1      22.687  41.188  36.448  1.00  0.00     0.023 C 
HETATM   15  C11 UNL     1      21.009  42.366  35.191  1.00  0.00     0.023 C 
HETATM   16  C12 UNL     1      22.865  43.624  36.241  1.00  0.00     0.023 C 
ENDBRANCH  10  13
ENDBRANCH   9  10
BRANCH   3  17
HETATM   17  C4  UNL     1      22.348  42.355  42.405  1.00  0.00     0.093 C 
BRANCH  17  18
HETATM   18  C5  UNL     1      21.653  41.385  42.947  1.00  0.00    -0.019 C 
BRANCH  18  19
HETATM   19  N1  UNL     1      20.848  40.405  43.176  1.00  0.00    -0.233 N 
ATOM     20  H1  UNL     1      20.161  40.467  43.928  1.00  0.00     0.204 HD
BRANCH  19  21
HETATM   21  O1  UNL     1      20.925  39.285  42.405  1.00  0.00    -0.282 OA
ATOM     22  H1  UNL     1      20.373  38.540  42.610  1.00  0.00     0.245 HD
ENDBRANCH  19  21
ENDBRANCH  18  19
ENDBRANCH  17  18
ENDBRANCH   3  17
BRANCH   4  23
HETATM   23  N2  UNL     1      21.240  44.820  42.698  1.00  0.00    -0.385 N 
ATOM     24  H22 UNL     1      21.920  44.544  43.406  1.00  0.00     0.157 HD
ATOM     25  H21 UNL     1      20.578  45.548  42.966  1.00  0.00     0.157 HD
ENDBRANCH   4  23
TORSDOF 8
ENDMDL
MODEL 2
REMARK VINA RESULT: -5.636167123      2.644      3.565
REMARK  8 active torsions:
REMARK  status: ('A' for Active; 'I' for Inactive)
REMARK    1  A    between atoms: C3_3  and  C4_4 
REMARK    2  A    between atoms: C4_4  and  C5_5 
REMARK    3  A    between atoms: C5_5  and  N1_6 
REMARK    4  A    between atoms: N1_6  and  O1_8 
REMARK    5  A    between atoms: C6_10  and  N2_11 
REMARK    6  A    between atoms: N4_18  and  C8_19 
REMARK    7  A    between atoms: C8_19  and  O2_20 
REMARK    8  A    between atoms: C8_19  and  C9_22 
ROOT
HETATM    1  C1  UNL     1      20.994  43.953  39.866  1.00  0.00     0.070 C 
HETATM    2  C2  UNL     1      21.580  42.622  40.020  1.00  0.00     0.032 A 
HETATM    3  C3  UNL     1      21.544  42.043  41.287  1.00  0.00     0.039 A 
HETATM    4  C6  UNL     1      22.068  40.804  41.515  1.00  0.00     0.114 A 
HETATM    5  N3  UNL     1      22.606  40.191  40.470  1.00  0.00    -0.318 N 
ATOM      6  H3  UNL     1      23.009  39.262  40.593  1.00  0.00     0.170 HD
HETATM    7  C7  UNL     1      22.634  40.774  39.225  1.00  0.00     0.186 A 
HETATM    8  S1  UNL     1      23.348  39.823  38.113  1.00  0.00    -0.040 SA
HETATM    9  N4  UNL     1      22.143  41.975  38.938  1.00  0.00    -0.275 N 
ENDROOT
BRANCH   9  10
HETATM   10  C8  UNL     1      22.174  42.570  37.676  1.00  0.00     0.132 C 
BRANCH  10  11
HETATM   11  O2  UNL     1      23.183  43.442  37.563  1.00  0.00    -0.348 OA
ATOM     12  H2  UNL     1      23.044  44.052  36.847  1.00  0.00     0.219 HD
ENDBRANCH  10  11
BRANCH  10  13
HETATM   13  C9  UNL     1      21.442  42.534  36.443  1.00  0.00     0.014 C 
HETATM   14  C10 UNL     1      20.608  43.910  36.454  1.00  0.00     0.023 C 
HETATM   15  C11 UNL     1      22.273  42.714  35.198  1.00  0.00     0.023 C 
HETATM   16  C12 UNL     1      20.407  41.475  36.251  1.00  0.00     0.023 C 
ENDBRANCH  10  13
ENDBRANCH   9  10
BRANCH   3  17
HETATM   17  C4  UNL     1      20.948  42.737  42.415  1.00  0.00     0.093 C 
BRANCH  17  18
HETATM   18  C5  UNL     1      21.668  43.676  42.978  1.00  0.00    -0.019 C 
BRANCH  18  19
HETATM   19  N1  UNL     1      22.413  44.700  43.221  1.00  0.00    -0.233 N 
ATOM     20  H1  UNL     1      23.044  44.700  44.023  1.00  0.00     0.204 HD
BRANCH  19  21
HETATM   21  O1  UNL     1      22.348  45.782  42.397  1.00  0.00    -0.282 OA
ATOM     22  H1  UNL     1      22.949  46.505  42.531  1.00  0.00     0.245 HD
ENDBRANCH  19  21
ENDBRANCH  18  19
ENDBRANCH  17  18
ENDBRANCH   3  17
BRANCH   4  23
HETATM   23  N2  UNL     1      22.035  40.261  42.703  1.00  0.00    -0.385 N 
ATOM     24  H22 UNL     1      22.615  40.596  43.472  1.00  0.00     0.157 HD
ATOM     25  H21 UNL     1      21.421  39.473  42.909  1.00  0.00     0.157 HD
ENDBRANCH   4  23
TORSDOF 8
ENDMDL
MODEL 3
REMARK VINA RESULT: -5.598007642      2.572      3.580
REMARK  8 active torsions:
REMARK  status: ('A' for Active; 'I' for Inactive)
REMARK    1  A    between atoms: C3_3  and  C4_4 
REMARK    2  A    between atoms: C4_4  and  C5_5 
REMARK    3  A    between atoms: C5_5  and  N1_6 
REMARK    4  A    between atoms: N1_6  and  O1_8 
REMARK    5  A    between atoms: C6_10  and  N2_11 
REMARK    6  A    between atoms: N4_18  and  C8_19 
REMARK    7  A    between atoms: C8_19  and  O2_20 
REMARK    8  A    between atoms: C8_19  and  C9_22 
ROOT
HETATM    1  C1  UNL     1      20.379  44.191  37.915  1.00  0.00     0.070 C 
HETATM    2  C2  UNL     1      21.148  43.131  38.566  1.00  0.00     0.032 A 
HETATM    3  C3  UNL     1      21.245  43.164  39.955  1.00  0.00     0.039 A 
HETATM    4  C6  UNL     1      21.942  42.212  40.640  1.00  0.00     0.114 A 
HETATM    5  N3  UNL     1      22.515  41.265  39.911  1.00  0.00    -0.318 N 
ATOM      6  H3  UNL     1      23.047  40.531  40.379  1.00  0.00     0.170 HD
HETATM    7  C7  UNL     1      22.411  41.245  38.539  1.00  0.00     0.186 A 
HETATM    8  S1  UNL     1      23.202  39.985  37.878  1.00  0.00    -0.040 SA
HETATM    9  N4  UNL     1      21.749  42.140  37.815  1.00  0.00    -0.275 N 
ENDROOT
BRANCH   9  10
HETATM   10  C8  UNL     1      21.645  42.124  36.424  1.00  0.00     0.132 C 
BRANCH  10  11
HETATM   11  O2  UNL     1      22.687  42.728  35.841  1.00  0.00    -0.348 OA
ATOM     12  H2  UNL     1      23.462  42.178  35.845  1.00  0.00     0.219 HD
ENDBRANCH  10  11
BRANCH  10  13
HETATM   13  C9  UNL     1      20.747  41.651  35.410  1.00  0.00     0.014 C 
HETATM   14  C10 UNL     1      21.401  42.188  34.041  1.00  0.00     0.023 C 
HETATM   15  C11 UNL     1      20.772  40.162  35.174  1.00  0.00     0.023 C 
HETATM   16  C12 UNL     1      19.349  42.177  35.383  1.00  0.00     0.023 C 
ENDBRANCH  10  13
ENDBRANCH   9  10
BRANCH   3  17
HETATM   17  C4  UNL     1      20.606  44.214  40.730  1.00  0.00     0.093 C 
BRANCH  17  18
HETATM   18  C5  UNL     1      21.398  45.068  41.331  1.00  0.00    -0.019 C 
BRANCH  18  19
HETATM   19  N1  UNL     1      22.140  45.701  42.174  1.00  0.00    -0.233 N 
ATOM     20  H1  UNL     1      22.371  46.683  42.021  1.00  0.00     0.204 HD
BRANCH  19  21
HETATM   21  O1  UNL     1      22.614  45.044  43.268  1.00  0.00    -0.282 OA
ATOM     22  H1  UNL     1      23.494  44.686  43.251  1.00  0.00     0.245 HD
ENDBRANCH  19  21
ENDBRANCH  18  19
ENDBRANCH  17  18
ENDBRANCH   3  17
BRANCH   4  23
HETATM   23  N2  UNL     1      22.033  42.242  41.943  1.00  0.00    -0.385 N 
ATOM     24  H22 UNL     1      21.247  42.500  42.539  1.00  0.00     0.157 HD
ATOM     25  H21 UNL     1      22.904  42.007  42.419  1.00  0.00     0.157 HD
ENDBRANCH   4  23
TORSDOF 8
ENDMDL
MODEL 4
REMARK VINA RESULT: -5.597230468      1.393      1.824
REMARK  8 active torsions:
REMARK  status: ('A' for Active; 'I' for Inactive)
REMARK    1  A    between atoms: C3_3  and  C4_4 
REMARK    2  A    between atoms: C4_4  and  C5_5 
REMARK    3  A    between atoms: C5_5  and  N1_6 
REMARK    4  A    between atoms: N1_6  and  O1_8 
REMARK    5  A    between atoms: C6_10  and  N2_11 
REMARK    6  A    between atoms: N4_18  and  C8_19 
REMARK    7  A    between atoms: C8_19  and  O2_20 
REMARK    8  A    between atoms: C8_19  and  C9_22 
ROOT
HETATM    1  C1  UNL     1      22.880  40.875  37.896  1.00  0.00     0.070 C 
HETATM    2  C2  UNL     1      22.115  41.934  38.552  1.00  0.00     0.032 A 
HETATM    3  C3  UNL     1      22.018  41.893  39.941  1.00  0.00     0.039 A 
HETATM    4  C6  UNL     1      21.324  42.844  40.631  1.00  0.00     0.114 A 
HETATM    5  N3  UNL     1      20.756  43.798  39.908  1.00  0.00    -0.318 N 
ATOM      6  H3  UNL     1      20.227  44.531  40.380  1.00  0.00     0.170 HD
HETATM    7  C7  UNL     1      20.861  43.826  38.537  1.00  0.00     0.186 A 
HETATM    8  S1  UNL     1      20.076  45.094  37.883  1.00  0.00    -0.040 SA
HETATM    9  N4  UNL     1      21.520  42.933  37.808  1.00  0.00    -0.275 N 
ENDROOT
BRANCH   9  10
HETATM   10  C8  UNL     1      21.624  42.957  36.416  1.00  0.00     0.132 C 
BRANCH  10  11
HETATM   11  O2  UNL     1      20.576  42.368  35.829  1.00  0.00    -0.348 OA
ATOM     12  H2  UNL     1      20.844  41.658  35.257  1.00  0.00     0.219 HD
ENDBRANCH  10  11
BRANCH  10  13
HETATM   13  C9  UNL     1      22.528  43.426  35.406  1.00  0.00     0.014 C 
HETATM   14  C10 UNL     1      21.882  42.884  34.035  1.00  0.00     0.023 C 
HETATM   15  C11 UNL     1      22.504  44.914  35.164  1.00  0.00     0.023 C 
HETATM   16  C12 UNL     1      23.926  42.901  35.390  1.00  0.00     0.023 C 
ENDBRANCH  10  13
ENDBRANCH   9  10
BRANCH   3  17
HETATM   17  C4  UNL     1      22.651  40.836  40.710  1.00  0.00     0.093 C 
BRANCH  17  18
HETATM   18  C5  UNL     1      21.855  39.995  41.324  1.00  0.00    -0.019 C 
BRANCH  18  19
HETATM   19  N1  UNL     1      21.123  39.370  42.181  1.00  0.00    -0.233 N 
ATOM     20  H1  UNL     1      20.896  38.385  42.044  1.00  0.00     0.204 HD
BRANCH  19  21
HETATM   21  O1  UNL     1      20.655  40.039  43.271  1.00  0.00    -0.282 OA
ATOM     22  H1  UNL     1      21.149  40.009  44.082  1.00  0.00     0.245 HD
ENDBRANCH  19  21
ENDBRANCH  18  19
ENDBRANCH  17  18
ENDBRANCH   3  17
BRANCH   4  23
HETATM   23  N2  UNL     1      21.232  42.806  41.934  1.00  0.00    -0.385 N 
ATOM     24  H22 UNL     1      21.956  42.392  42.521  1.00  0.00     0.157 HD
ATOM     25  H21 UNL     1      20.423  43.193  42.420  1.00  0.00     0.157 HD
ENDBRANCH   4  23
TORSDOF 8
ENDMDL
MODEL 5
REMARK VINA RESULT: -5.455781473      1.635      2.263
REMARK  8 active torsions:
REMARK  status: ('A' for Active; 'I' for Inactive)
REMARK    1  A    between atoms: C3_3  and  C4_4 
REMARK    2  A    between atoms: C4_4  and  C5_5 
REMARK    3  A    between atoms: C5_5  and  N1_6 
REMARK    4  A    between atoms: N1_6  and  O1_8 
REMARK    5  A    between atoms: C6_10  and  N2_11 
REMARK    6  A    between atoms: N4_18  and  C8_19 
REMARK    7  A    between atoms: C8_19  and  O2_20 
REMARK    8  A    between atoms: C8_19  and  C9_22 
ROOT
HETATM    1  C1  UNL     1      22.743  40.267  37.797  1.00  0.00     0.070 C 
HETATM    2  C2  UNL     1      22.138  41.487  38.328  1.00  0.00     0.032 A 
HETATM    3  C3  UNL     1      22.207  41.696  39.704  1.00  0.00     0.039 A 
HETATM    4  C6  UNL     1      21.669  42.809  40.280  1.00  0.00     0.114 A 
HETATM    5  N3  UNL     1      21.084  43.671  39.461  1.00  0.00    -0.318 N 
ATOM      6  H3  UNL     1      20.667  44.519  39.847  1.00  0.00     0.170 HD
HETATM    7  C7  UNL     1      21.023  43.453  38.104  1.00  0.00     0.186 A 
HETATM    8  S1  UNL     1      20.253  44.654  37.319  1.00  0.00    -0.040 SA
HETATM    9  N4  UNL     1      21.526  42.392  37.483  1.00  0.00    -0.275 N 
ENDROOT
BRANCH   9  10
HETATM   10  C8  UNL     1      21.463  42.166  36.108  1.00  0.00     0.132 C 
BRANCH  10  11
HETATM   11  O2  UNL     1      22.533  42.659  35.473  1.00  0.00    -0.348 OA
ATOM     12  H2  UNL     1      23.257  42.813  36.068  1.00  0.00     0.219 HD
ENDBRANCH  10  11
BRANCH  10  13
HETATM   13  C9  UNL     1      20.586  41.559  35.149  1.00  0.00     0.014 C 
HETATM   14  C10 UNL     1      21.204  42.001  33.731  1.00  0.00     0.023 C 
HETATM   15  C11 UNL     1      20.686  40.057  35.048  1.00  0.00     0.023 C 
HETATM   16  C12 UNL     1      19.163  42.008  35.088  1.00  0.00     0.023 C 
ENDBRANCH  10  13
ENDBRANCH   9  10
BRANCH   3  17
HETATM   17  C4  UNL     1      22.855  40.735  40.580  1.00  0.00     0.093 C 
BRANCH  17  18
HETATM   18  C5  UNL     1      22.071  39.959  41.288  1.00  0.00    -0.019 C 
BRANCH  18  19
HETATM   19  N1  UNL     1      21.298  39.454  42.187  1.00  0.00    -0.233 N 
ATOM     20  H1  UNL     1      21.135  38.447  42.220  1.00  0.00     0.204 HD
BRANCH  19  21
HETATM   21  O1  UNL     1      20.703  40.278  43.092  1.00  0.00    -0.282 OA
ATOM     22  H1  UNL     1      19.975  39.952  43.609  1.00  0.00     0.245 HD
ENDBRANCH  19  21
ENDBRANCH  18  19
ENDBRANCH  17  18
ENDBRANCH   3  17
BRANCH   4  23
HETATM   23  N2  UNL     1      21.733  43.005  41.571  1.00  0.00    -0.385 N 
ATOM     24  H22 UNL     1      22.587  42.845  42.105  1.00  0.00     0.157 HD
ATOM     25  H21 UNL     1      20.923  43.329  42.099  1.00  0.00     0.157 HD
ENDBRANCH   4  23
TORSDOF 8
ENDMDL
