MODEL 1
REMARK VINA RESULT: -4.018235434      0.000      0.000
REMARK  4 active torsions:
REMARK  status: ('A' for Active; 'I' for Inactive)
REMARK    1  A    between atoms: N1_2  and  C2_4 
REMARK    2  A    between atoms: C2_4  and  C3_5 
REMARK    3  A    between atoms: C3_5  and  N2_6 
REMARK    4  A    between atoms: N2_6  and  C4_8 
ROOT
HETATM    1  C4  UNL     1      12.510  15.519   6.860  1.00  0.00     0.118 A 
HETATM    2  C5  UNL     1      11.595  15.067   7.845  1.00  0.00     0.068 A 
HETATM    3  C6  UNL     1      10.451  14.779   7.148  1.00  0.00     0.111 A 
HETATM    4  N3  UNL     1      10.602  15.017   5.854  1.00  0.00    -0.308 N 
ATOM      5  H3  UNL     1       9.900  14.884   5.126  1.00  0.00     0.186 HD
HETATM    6  N4  UNL     1      11.864  15.470   5.683  1.00  0.00    -0.282 N 
HETATM    7  C7  UNL     1      12.431  15.838   4.395  1.00  0.00     0.179 C 
ENDROOT
BRANCH   1   8
HETATM    8  N2  UNL     1      13.831  15.913   7.184  1.00  0.00    -0.374 N 
ATOM      9  H2  UNL     1      13.946  16.632   7.898  1.00  0.00     0.161 HD
BRANCH   8  10
HETATM   10  C3  UNL     1      15.020  15.378   6.585  1.00  0.00     0.141 C 
BRANCH  10  11
HETATM   11  C2  UNL     1      15.056  13.848   6.726  1.00  0.00     0.137 C 
BRANCH  11  12
HETATM   12  N1  UNL     1      15.348  13.580   8.092  1.00  0.00    -0.406 N 
HETATM   13  C1  UNL     1      16.455  13.131   8.508  1.00  0.00     0.112 C 
ATOM     14  H1  UNL     1      14.618  13.762   8.780  1.00  0.00     0.158 HD
ENDBRANCH  11  12
ENDBRANCH  10  11
ENDBRANCH   8  10
ENDBRANCH   1   8
TORSDOF 4
ENDMDL
MODEL 2
REMARK VINA RESULT: -3.927350849      3.007      5.361
REMARK  4 active torsions:
REMARK  status: ('A' for Active; 'I' for Inactive)
REMARK    1  A    between atoms: N1_2  and  C2_4 
REMARK    2  A    between atoms: C2_4  and  C3_5 
REMARK    3  A    between atoms: C3_5  and  N2_6 
REMARK    4  A    between atoms: N2_6  and  C4_8 
ROOT
HETATM    1  C4  UNL     1      11.211  14.432   6.021  1.00  0.00     0.118 A 
HETATM    2  C5  UNL     1      10.479  14.766   7.189  1.00  0.00     0.068 A 
HETATM    3  C6  UNL     1      11.433  15.133   8.101  1.00  0.00     0.111 A 
HETATM    4  N3  UNL     1      12.650  15.049   7.586  1.00  0.00    -0.308 N 
ATOM      5  H3  UNL     1      13.526  15.267   8.060  1.00  0.00     0.186 HD
HETATM    6  N4  UNL     1      12.508  14.620   6.312  1.00  0.00    -0.282 N 
HETATM    7  C7  UNL     1      13.618  14.406   5.395  1.00  0.00     0.179 C 
ENDROOT
BRANCH   1   8
HETATM    8  N2  UNL     1      10.574  14.003   4.830  1.00  0.00    -0.374 N 
ATOM      9  H2  UNL     1      11.169  13.790   4.029  1.00  0.00     0.161 HD
BRANCH   8  10
HETATM   10  C3  UNL     1       9.158  13.845   4.664  1.00  0.00     0.141 C 
BRANCH  10  11
HETATM   11  C2  UNL     1       8.846  13.113   3.348  1.00  0.00     0.137 C 
BRANCH  11  12
HETATM   12  N1  UNL     1       7.987  12.032   3.688  1.00  0.00    -0.406 N 
HETATM   13  C1  UNL     1       7.858  10.981   2.996  1.00  0.00     0.112 C 
ATOM     14  H1  UNL     1       7.439  12.109   4.545  1.00  0.00     0.158 HD
ENDBRANCH  11  12
ENDBRANCH  10  11
ENDBRANCH   8  10
ENDBRANCH   1   8
TORSDOF 4
ENDMDL
MODEL 3
REMARK VINA RESULT: -3.876345127      2.311      4.876
REMARK  4 active torsions:
REMARK  status: ('A' for Active; 'I' for Inactive)
REMARK    1  A    between atoms: N1_2  and  C2_4 
REMARK    2  A    between atoms: C2_4  and  C3_5 
REMARK    3  A    between atoms: C3_5  and  N2_6 
REMARK    4  A    between atoms: N2_6  and  C4_8 
ROOT
HETATM    1  C4  UNL     1      11.564  14.856   5.899  1.00  0.00     0.118 A 
HETATM    2  C5  UNL     1      10.572  14.761   6.908  1.00  0.00     0.068 A 
HETATM    3  C6  UNL     1      11.238  15.036   8.074  1.00  0.00     0.111 A 
HETATM    4  N3  UNL     1      12.519  15.283   7.850  1.00  0.00    -0.308 N 
ATOM      5  H3  UNL     1      13.225  15.513   8.550  1.00  0.00     0.186 HD
HETATM    6  N4  UNL     1      12.714  15.172   6.517  1.00  0.00    -0.282 N 
HETATM    7  C7  UNL     1      13.996  15.378   5.860  1.00  0.00     0.179 C 
ENDROOT
BRANCH   1   8
HETATM    8  N2  UNL     1      11.269  14.643   4.530  1.00  0.00    -0.374 N 
ATOM      9  H2  UNL     1      11.736  13.866   4.063  1.00  0.00     0.161 HD
BRANCH   8  10
HETATM   10  C3  UNL     1      10.363  15.437   3.750  1.00  0.00     0.141 C 
BRANCH  10  11
HETATM   11  C2  UNL     1       9.398  14.538   2.961  1.00  0.00     0.137 C 
BRANCH  11  12
HETATM   12  N1  UNL     1       8.772  13.690   3.916  1.00  0.00    -0.406 N 
HETATM   13  C1  UNL     1       8.357  12.522   3.667  1.00  0.00     0.112 C 
ATOM     14  H1  UNL     1       8.650  14.048   4.864  1.00  0.00     0.158 HD
ENDBRANCH  11  12
ENDBRANCH  10  11
ENDBRANCH   8  10
ENDBRANCH   1   8
TORSDOF 4
ENDMDL
MODEL 4
REMARK VINA RESULT: -3.838387612      1.829      2.807
REMARK  4 active torsions:
REMARK  status: ('A' for Active; 'I' for Inactive)
REMARK    1  A    between atoms: N1_2  and  C2_4 
REMARK    2  A    between atoms: C2_4  and  C3_5 
REMARK    3  A    between atoms: C3_5  and  N2_6 
REMARK    4  A    between atoms: N2_6  and  C4_8 
ROOT
HETATM    1  C4  UNL     1      10.402  14.073   5.880  1.00  0.00     0.118 A 
HETATM    2  C5  UNL     1       9.028  14.405   5.757  1.00  0.00     0.068 A 
HETATM    3  C6  UNL     1       8.784  14.369   4.410  1.00  0.00     0.111 A 
HETATM    4  N3  UNL     1       9.874  14.050   3.730  1.00  0.00    -0.308 N 
ATOM      5  H3  UNL     1       9.954  13.958   2.717  1.00  0.00     0.186 HD
HETATM    6  N4  UNL     1      10.862  13.870   4.635  1.00  0.00    -0.282 N 
HETATM    7  C7  UNL     1      12.226  13.497   4.290  1.00  0.00     0.179 C 
ENDROOT
BRANCH   1   8
HETATM    8  N2  UNL     1      11.048  13.995   7.138  1.00  0.00    -0.374 N 
ATOM      9  H2  UNL     1      11.100  13.079   7.585  1.00  0.00     0.161 HD
BRANCH   8  10
HETATM   10  C3  UNL     1      11.634  15.105   7.833  1.00  0.00     0.141 C 
BRANCH  10  11
HETATM   11  C2  UNL     1      12.954  15.525   7.166  1.00  0.00     0.137 C 
BRANCH  11  12
HETATM   12  N1  UNL     1      13.895  14.501   7.466  1.00  0.00    -0.406 N 
HETATM   13  C1  UNL     1      15.082  14.476   7.030  1.00  0.00     0.112 C 
ATOM     14  H1  UNL     1      13.593  13.738   8.071  1.00  0.00     0.158 HD
ENDBRANCH  11  12
ENDBRANCH  10  11
ENDBRANCH   8  10
ENDBRANCH   1   8
TORSDOF 4
ENDMDL
MODEL 5
REMARK VINA RESULT: -3.769846427      1.359      1.981
REMARK  4 active torsions:
REMARK  status: ('A' for Active; 'I' for Inactive)
REMARK    1  A    between atoms: N1_2  and  C2_4 
REMARK    2  A    between atoms: C2_4  and  C3_5 
REMARK    3  A    between atoms: C3_5  and  N2_6 
REMARK    4  A    between atoms: N2_6  and  C4_8 
ROOT
HETATM    1  C4  UNL     1      12.024  15.152   6.766  1.00  0.00     0.118 A 
HETATM    2  C5  UNL     1      10.857  14.689   7.428  1.00  0.00     0.068 A 
HETATM    3  C6  UNL     1       9.889  14.687   6.459  1.00  0.00     0.111 A 
HETATM    4  N3  UNL     1      10.369  15.101   5.297  1.00  0.00    -0.308 N 
ATOM      5  H3  UNL     1       9.851  15.189   4.422  1.00  0.00     0.186 HD
HETATM    6  N4  UNL     1      11.676  15.384   5.490  1.00  0.00    -0.282 N 
HETATM    7  C7  UNL     1      12.570  15.864   4.446  1.00  0.00     0.179 C 
ENDROOT
BRANCH   1   8
HETATM    8  N2  UNL     1      13.264  15.291   7.436  1.00  0.00    -0.374 N 
ATOM      9  H2  UNL     1      13.294  15.908   8.248  1.00  0.00     0.161 HD
BRANCH   8  10
HETATM   10  C3  UNL     1      14.481  14.632   7.060  1.00  0.00     0.141 C 
BRANCH  10  11
HETATM   11  C2  UNL     1      15.631  15.646   6.938  1.00  0.00     0.137 C 
BRANCH  11  12
HETATM   12  N1  UNL     1      15.117  16.888   7.403  1.00  0.00    -0.406 N 
HETATM   13  C1  UNL     1      15.831  17.892   7.686  1.00  0.00     0.112 C 
ATOM     14  H1  UNL     1      14.107  16.974   7.515  1.00  0.00     0.158 HD
ENDBRANCH  11  12
ENDBRANCH  10  11
ENDBRANCH   8  10
ENDBRANCH   1   8
TORSDOF 4
ENDMDL
