MODEL 1
REMARK VINA RESULT: -6.530783121      0.000      0.000
REMARK  6 active torsions:
REMARK  status: ('A' for Active; 'I' for Inactive)
REMARK       I    between atoms: C1_2  and  N1_3 
REMARK       I    between atoms: C1_2  and  N3_17 
REMARK    1  A    between atoms: N1_3  and  C2_5 
REMARK    2  A    between atoms: C2_5  and  C3_6 
REMARK       I    between atoms: C3_6  and  N2_8 
REMARK    3  A    between atoms: C7_12  and  C8_13 
REMARK    4  A    between atoms: C8_13  and  C9_14 
REMARK    5  A    between atoms: C9_14  and  C10_15 
REMARK    6  A    between atoms: N3_17  and  C11_19 
ROOT
HETATM    1  O1  UNL     1      -7.912 -34.192   4.632  1.00  0.00    -0.247 OA
HETATM    2  C1  UNL     1      -7.144 -33.522   3.864  1.00  0.00     0.317 C 
HETATM    3  N1  UNL     1      -6.885 -34.061   2.587  1.00  0.00    -0.334 N 
ATOM      4  H1  UNL     1      -6.273 -33.549   1.952  1.00  0.00     0.164 HD
HETATM    5  N3  UNL     1      -6.576 -32.290   4.278  1.00  0.00    -0.334 N 
ATOM      6  H3  UNL     1      -5.972 -31.806   3.613  1.00  0.00     0.165 HD
ENDROOT
BRANCH   3   7
HETATM    7  C2  UNL     1      -7.447 -35.298   2.154  1.00  0.00     0.227 C 
BRANCH   7   8
HETATM    8  C3  UNL     1      -6.429 -36.372   2.030  1.00  0.00     0.237 C 
HETATM    9  O2  UNL     1      -5.645 -36.296   1.057  1.00  0.00    -0.272 OA
HETATM   10  N2  UNL     1      -6.394 -37.393   2.984  1.00  0.00    -0.346 N 
HETATM   11  C4  UNL     1      -7.272 -37.529   4.133  1.00  0.00     0.126 C 
HETATM   12  C7  UNL     1      -5.522 -38.574   3.131  1.00  0.00     0.087 C 
HETATM   13  C5  UNL     1      -6.256 -37.776   5.239  1.00  0.00     0.022 C 
HETATM   14  C6  UNL     1      -5.009 -38.337   4.518  1.00  0.00     0.027 C 
BRANCH  12  15
HETATM   15  C8  UNL     1      -4.551 -38.678   2.036  1.00  0.00     0.026 C 
BRANCH  15  16
HETATM   16  C9  UNL     1      -3.119 -38.586   2.341  1.00  0.00     0.017 C 
BRANCH  16  17
HETATM   17  C10 UNL     1      -2.395 -37.311   2.153  1.00  0.00     0.115 C 
HETATM   18 CL1  UNL     1      -0.913 -37.199   3.135  1.00  0.00    -0.130 Cl
ENDBRANCH  16  17
ENDBRANCH  15  16
ENDBRANCH  12  15
ENDBRANCH   7   8
ENDBRANCH   3   7
BRANCH   5  19
HETATM   19  C11 UNL     1      -6.778 -31.672   5.548  1.00  0.00     0.035 C 
HETATM   20  C12 UNL     1      -6.531 -32.642   6.663  1.00  0.00     0.035 C 
HETATM   21  C13 UNL     1      -6.750 -32.014   8.023  1.00  0.00    -0.012 C 
HETATM   22  C14 UNL     1      -8.175 -31.537   8.090  1.00  0.00     0.009 C 
HETATM   23  C18 UNL     1      -5.747 -30.917   8.202  1.00  0.00     0.009 C 
HETATM   24  C15 UNL     1      -8.346 -30.472   7.029  1.00  0.00    -0.012 C 
HETATM   25  C16 UNL     1      -7.388 -29.348   7.304  1.00  0.00     0.009 C 
HETATM   26  C20 UNL     1      -8.185 -31.094   5.682  1.00  0.00     0.035 C 
HETATM   27  C17 UNL     1      -5.984 -29.897   7.097  1.00  0.00    -0.012 C 
HETATM   28  C19 UNL     1      -5.830 -30.507   5.741  1.00  0.00     0.035 C 
ENDBRANCH   5  19
TORSDOF 6
ENDMDL
MODEL 2
REMARK VINA RESULT: -6.465327601      0.067      1.436
REMARK  6 active torsions:
REMARK  status: ('A' for Active; 'I' for Inactive)
REMARK       I    between atoms: C1_2  and  N1_3 
REMARK       I    between atoms: C1_2  and  N3_17 
REMARK    1  A    between atoms: N1_3  and  C2_5 
REMARK    2  A    between atoms: C2_5  and  C3_6 
REMARK       I    between atoms: C3_6  and  N2_8 
REMARK    3  A    between atoms: C7_12  and  C8_13 
REMARK    4  A    between atoms: C8_13  and  C9_14 
REMARK    5  A    between atoms: C9_14  and  C10_15 
REMARK    6  A    between atoms: N3_17  and  C11_19 
ROOT
HETATM    1  O1  UNL     1      -7.897 -34.207   4.683  1.00  0.00    -0.247 OA
HETATM    2  C1  UNL     1      -7.154 -33.519   3.906  1.00  0.00     0.317 C 
HETATM    3  N1  UNL     1      -6.919 -34.040   2.617  1.00  0.00    -0.334 N 
ATOM      4  H1  UNL     1      -6.328 -33.514   1.973  1.00  0.00     0.164 HD
HETATM    5  N3  UNL     1      -6.589 -32.287   4.321  1.00  0.00    -0.334 N 
ATOM      6  H3  UNL     1      -6.006 -31.788   3.648  1.00  0.00     0.165 HD
ENDROOT
BRANCH   3   7
HETATM    7  C2  UNL     1      -7.479 -35.277   2.182  1.00  0.00     0.227 C 
BRANCH   7   8
HETATM    8  C3  UNL     1      -6.457 -36.346   2.045  1.00  0.00     0.237 C 
HETATM    9  O2  UNL     1      -5.688 -36.267   1.060  1.00  0.00    -0.272 OA
HETATM   10  N2  UNL     1      -6.403 -37.366   3.000  1.00  0.00    -0.346 N 
HETATM   11  C4  UNL     1      -7.263 -37.504   4.161  1.00  0.00     0.126 C 
HETATM   12  C7  UNL     1      -5.523 -38.542   3.135  1.00  0.00     0.087 C 
HETATM   13  C5  UNL     1      -6.230 -37.745   5.252  1.00  0.00     0.022 C 
HETATM   14  C6  UNL     1      -4.991 -38.300   4.514  1.00  0.00     0.027 C 
BRANCH  12  15
HETATM   15  C8  UNL     1      -4.567 -38.642   2.027  1.00  0.00     0.026 C 
BRANCH  15  16
HETATM   16  C9  UNL     1      -3.130 -38.558   2.313  1.00  0.00     0.017 C 
BRANCH  16  17
HETATM   17  C10 UNL     1      -2.417 -37.269   2.189  1.00  0.00     0.115 C 
HETATM   18 CL1  UNL     1      -0.919 -37.205   3.149  1.00  0.00    -0.130 Cl
ENDBRANCH  16  17
ENDBRANCH  15  16
ENDBRANCH  12  15
ENDBRANCH   7   8
ENDBRANCH   3   7
BRANCH   5  19
HETATM   19  C11 UNL     1      -6.767 -31.686   5.603  1.00  0.00     0.035 C 
HETATM   20  C12 UNL     1      -5.819 -30.541   5.796  1.00  0.00     0.035 C 
HETATM   21  C13 UNL     1      -5.979 -29.892   7.155  1.00  0.00    -0.012 C 
HETATM   22  C14 UNL     1      -5.711 -30.937   8.203  1.00  0.00     0.009 C 
HETATM   23  C18 UNL     1      -7.354 -29.305   7.237  1.00  0.00     0.009 C 
HETATM   24  C15 UNL     1      -6.765 -32.011   8.049  1.00  0.00    -0.012 C 
HETATM   25  C16 UNL     1      -8.123 -31.396   8.236  1.00  0.00     0.009 C 
HETATM   26  C20 UNL     1      -6.581 -32.693   6.735  1.00  0.00     0.035 C 
HETATM   27  C17 UNL     1      -8.347 -30.447   7.068  1.00  0.00    -0.012 C 
HETATM   28  C19 UNL     1      -8.172 -31.142   5.757  1.00  0.00     0.035 C 
ENDBRANCH   5  19
TORSDOF 6
ENDMDL
MODEL 3
REMARK VINA RESULT: -6.460687016      0.096      1.442
REMARK  6 active torsions:
REMARK  status: ('A' for Active; 'I' for Inactive)
REMARK       I    between atoms: C1_2  and  N1_3 
REMARK       I    between atoms: C1_2  and  N3_17 
REMARK    1  A    between atoms: N1_3  and  C2_5 
REMARK    2  A    between atoms: C2_5  and  C3_6 
REMARK       I    between atoms: C3_6  and  N2_8 
REMARK    3  A    between atoms: C7_12  and  C8_13 
REMARK    4  A    between atoms: C8_13  and  C9_14 
REMARK    5  A    between atoms: C9_14  and  C10_15 
REMARK    6  A    between atoms: N3_17  and  C11_19 
ROOT
HETATM    1  O1  UNL     1      -7.855 -34.235   4.678  1.00  0.00    -0.247 OA
HETATM    2  C1  UNL     1      -7.165 -33.527   3.871  1.00  0.00     0.317 C 
HETATM    3  N1  UNL     1      -6.960 -34.048   2.577  1.00  0.00    -0.334 N 
ATOM      4  H1  UNL     1      -6.411 -33.505   1.909  1.00  0.00     0.164 HD
HETATM    5  N3  UNL     1      -6.628 -32.274   4.260  1.00  0.00    -0.334 N 
ATOM      6  H3  UNL     1      -6.088 -31.760   3.563  1.00  0.00     0.165 HD
ENDROOT
BRANCH   3   7
HETATM    7  C2  UNL     1      -7.492 -35.306   2.168  1.00  0.00     0.227 C 
BRANCH   7   8
HETATM    8  C3  UNL     1      -6.446 -36.353   2.049  1.00  0.00     0.237 C 
HETATM    9  O2  UNL     1      -5.660 -36.255   1.080  1.00  0.00    -0.272 OA
HETATM   10  N2  UNL     1      -6.389 -37.374   3.002  1.00  0.00    -0.346 N 
HETATM   11  C4  UNL     1      -7.269 -37.533   4.146  1.00  0.00     0.126 C 
HETATM   12  C7  UNL     1      -5.488 -38.532   3.152  1.00  0.00     0.087 C 
HETATM   13  C5  UNL     1      -6.253 -37.755   5.257  1.00  0.00     0.022 C 
HETATM   14  C6  UNL     1      -4.989 -38.283   4.542  1.00  0.00     0.027 C 
BRANCH  12  15
HETATM   15  C8  UNL     1      -4.509 -38.609   2.062  1.00  0.00     0.026 C 
BRANCH  15  16
HETATM   16  C9  UNL     1      -3.085 -38.430   2.368  1.00  0.00     0.017 C 
BRANCH  16  17
HETATM   17  C10 UNL     1      -2.437 -37.117   2.163  1.00  0.00     0.115 C 
HETATM   18 CL1  UNL     1      -0.828 -37.007   2.918  1.00  0.00    -0.130 Cl
ENDBRANCH  16  17
ENDBRANCH  15  16
ENDBRANCH  12  15
ENDBRANCH   7   8
ENDBRANCH   3   7
BRANCH   5  19
HETATM   19  C11 UNL     1      -6.780 -31.672   5.544  1.00  0.00     0.035 C 
HETATM   20  C12 UNL     1      -8.174 -31.151   5.732  1.00  0.00     0.035 C 
HETATM   21  C13 UNL     1      -8.359 -30.496   7.084  1.00  0.00    -0.012 C 
HETATM   22  C14 UNL     1      -7.387 -29.353   7.183  1.00  0.00     0.009 C 
HETATM   23  C18 UNL     1      -8.163 -31.537   8.143  1.00  0.00     0.009 C 
HETATM   24  C15 UNL     1      -5.993 -29.937   7.113  1.00  0.00    -0.012 C 
HETATM   25  C16 UNL     1      -5.808 -30.901   8.249  1.00  0.00     0.009 C 
HETATM   26  C20 UNL     1      -5.783 -30.537   5.763  1.00  0.00     0.035 C 
HETATM   27  C17 UNL     1      -6.746 -32.073   7.997  1.00  0.00    -0.012 C 
HETATM   28  C19 UNL     1      -6.519 -32.675   6.648  1.00  0.00     0.035 C 
ENDBRANCH   5  19
TORSDOF 6
ENDMDL
MODEL 4
REMARK VINA RESULT: -6.141960736      1.455      1.660
REMARK  6 active torsions:
REMARK  status: ('A' for Active; 'I' for Inactive)
REMARK       I    between atoms: C1_2  and  N1_3 
REMARK       I    between atoms: C1_2  and  N3_17 
REMARK    1  A    between atoms: N1_3  and  C2_5 
REMARK    2  A    between atoms: C2_5  and  C3_6 
REMARK       I    between atoms: C3_6  and  N2_8 
REMARK    3  A    between atoms: C7_12  and  C8_13 
REMARK    4  A    between atoms: C8_13  and  C9_14 
REMARK    5  A    between atoms: C9_14  and  C10_15 
REMARK    6  A    between atoms: N3_17  and  C11_19 
ROOT
HETATM    1  O1  UNL     1      -7.956 -34.170   4.593  1.00  0.00    -0.247 OA
HETATM    2  C1  UNL     1      -7.134 -33.534   3.851  1.00  0.00     0.317 C 
HETATM    3  N1  UNL     1      -6.850 -34.090   2.587  1.00  0.00    -0.334 N 
ATOM      4  H1  UNL     1      -6.196 -33.606   1.972  1.00  0.00     0.164 HD
HETATM    5  N3  UNL     1      -6.533 -32.324   4.281  1.00  0.00    -0.334 N 
ATOM      6  H3  UNL     1      -5.887 -31.867   3.636  1.00  0.00     0.165 HD
ENDROOT
BRANCH   3   7
HETATM    7  C2  UNL     1      -7.445 -35.306   2.138  1.00  0.00     0.227 C 
BRANCH   7   8
HETATM    8  C3  UNL     1      -6.461 -36.412   2.028  1.00  0.00     0.237 C 
HETATM    9  O2  UNL     1      -5.711 -36.403   1.026  1.00  0.00    -0.272 OA
HETATM   10  N2  UNL     1      -6.417 -37.390   3.027  1.00  0.00    -0.346 N 
HETATM   11  C4  UNL     1      -7.255 -37.448   4.212  1.00  0.00     0.126 C 
HETATM   12  C7  UNL     1      -5.572 -38.587   3.198  1.00  0.00     0.087 C 
HETATM   13  C5  UNL     1      -6.206 -37.673   5.291  1.00  0.00     0.022 C 
HETATM   14  C6  UNL     1      -5.002 -38.301   4.553  1.00  0.00     0.027 C 
BRANCH  12  15
HETATM   15  C8  UNL     1      -4.645 -38.768   2.075  1.00  0.00     0.026 C 
BRANCH  15  16
HETATM   16  C9  UNL     1      -4.168 -40.117   1.754  1.00  0.00     0.017 C 
BRANCH  16  17
HETATM   17  C10 UNL     1      -5.053 -41.078   1.063  1.00  0.00     0.115 C 
HETATM   18 CL1  UNL     1      -4.196 -42.083  -0.132  1.00  0.00    -0.130 Cl
ENDBRANCH  16  17
ENDBRANCH  15  16
ENDBRANCH  12  15
ENDBRANCH   7   8
ENDBRANCH   3   7
BRANCH   5  19
HETATM   19  C11 UNL     1      -6.757 -31.691   5.540  1.00  0.00     0.035 C 
HETATM   20  C12 UNL     1      -6.530 -32.649   6.670  1.00  0.00     0.035 C 
HETATM   21  C13 UNL     1      -6.772 -32.006   8.019  1.00  0.00    -0.012 C 
HETATM   22  C14 UNL     1      -8.197 -31.528   8.056  1.00  0.00     0.009 C 
HETATM   23  C18 UNL     1      -5.770 -30.908   8.204  1.00  0.00     0.009 C 
HETATM   24  C15 UNL     1      -8.349 -30.475   6.980  1.00  0.00    -0.012 C 
HETATM   25  C16 UNL     1      -7.395 -29.348   7.260  1.00  0.00     0.009 C 
HETATM   26  C20 UNL     1      -8.165 -31.111   5.644  1.00  0.00     0.035 C 
HETATM   27  C17 UNL     1      -5.988 -29.900   7.083  1.00  0.00    -0.012 C 
HETATM   28  C19 UNL     1      -5.811 -30.525   5.737  1.00  0.00     0.035 C 
ENDBRANCH   5  19
TORSDOF 6
ENDMDL
MODEL 5
REMARK VINA RESULT: -6.107944814      2.379      4.121
REMARK  6 active torsions:
REMARK  status: ('A' for Active; 'I' for Inactive)
REMARK       I    between atoms: C1_2  and  N1_3 
REMARK       I    between atoms: C1_2  and  N3_17 
REMARK    1  A    between atoms: N1_3  and  C2_5 
REMARK    2  A    between atoms: C2_5  and  C3_6 
REMARK       I    between atoms: C3_6  and  N2_8 
REMARK    3  A    between atoms: C7_12  and  C8_13 
REMARK    4  A    between atoms: C8_13  and  C9_14 
REMARK    5  A    between atoms: C9_14  and  C10_15 
REMARK    6  A    between atoms: N3_17  and  C11_19 
ROOT
HETATM    1  O1  UNL     1      -6.473 -35.382   2.112  1.00  0.00    -0.247 OA
HETATM    2  C1  UNL     1      -6.568 -35.935   3.258  1.00  0.00     0.317 C 
HETATM    3  N1  UNL     1      -5.899 -37.164   3.433  1.00  0.00    -0.334 N 
ATOM      4  H1  UNL     1      -5.957 -37.632   4.338  1.00  0.00     0.164 HD
HETATM    5  N3  UNL     1      -7.313 -35.341   4.307  1.00  0.00    -0.334 N 
ATOM      6  H3  UNL     1      -7.345 -35.837   5.198  1.00  0.00     0.165 HD
ENDROOT
BRANCH   3   7
HETATM    7  C2  UNL     1      -5.145 -37.777   2.389  1.00  0.00     0.227 C 
BRANCH   7   8
HETATM    8  C3  UNL     1      -3.717 -37.960   2.753  1.00  0.00     0.237 C 
HETATM    9  O2  UNL     1      -3.447 -38.919   3.510  1.00  0.00    -0.272 OA
HETATM   10  N2  UNL     1      -2.763 -37.074   2.243  1.00  0.00    -0.346 N 
HETATM   11  C4  UNL     1      -3.017 -35.950   1.359  1.00  0.00     0.126 C 
HETATM   12  C7  UNL     1      -1.300 -36.994   2.417  1.00  0.00     0.087 C 
HETATM   13  C5  UNL     1      -1.961 -36.186   0.289  1.00  0.00     0.022 C 
HETATM   14  C6  UNL     1      -0.874 -37.038   0.983  1.00  0.00     0.027 C 
BRANCH  12  15
HETATM   15  C8  UNL     1      -0.799 -38.031   3.327  1.00  0.00     0.026 C 
BRANCH  15  16
HETATM   16  C9  UNL     1       0.279 -38.917   2.874  1.00  0.00     0.017 C 
BRANCH  16  17
HETATM   17  C10 UNL     1       0.344 -40.316   3.346  1.00  0.00     0.115 C 
HETATM   18 CL1  UNL     1      -0.672 -40.619   4.776  1.00  0.00    -0.130 Cl
ENDBRANCH  16  17
ENDBRANCH  15  16
ENDBRANCH  12  15
ENDBRANCH   7   8
ENDBRANCH   3   7
BRANCH   5  19
HETATM   19  C11 UNL     1      -8.023 -34.107   4.221  1.00  0.00     0.035 C 
HETATM   20  C12 UNL     1      -8.198 -33.491   5.576  1.00  0.00     0.035 C 
HETATM   21  C13 UNL     1      -8.960 -32.184   5.514  1.00  0.00    -0.012 C 
HETATM   22  C14 UNL     1     -10.313 -32.463   4.920  1.00  0.00     0.009 C 
HETATM   23  C18 UNL     1      -8.151 -31.206   4.720  1.00  0.00     0.009 C 
HETATM   24  C15 UNL     1     -10.093 -32.966   3.510  1.00  0.00    -0.012 C 
HETATM   25  C16 UNL     1      -9.366 -31.913   2.723  1.00  0.00     0.009 C 
HETATM   26  C20 UNL     1      -9.390 -34.281   3.564  1.00  0.00     0.035 C 
HETATM   27  C17 UNL     1      -7.973 -31.788   3.324  1.00  0.00    -0.012 C 
HETATM   28  C19 UNL     1      -7.274 -33.109   3.363  1.00  0.00     0.035 C 
ENDBRANCH   5  19
TORSDOF 6
ENDMDL
