MODEL 1
REMARK VINA RESULT: -6.266684885      0.000      0.000
REMARK  10 active torsions:
REMARK  status: ('A' for Active; 'I' for Inactive)
REMARK    1  A    between atoms: C2_2  and  N1_3 
REMARK    2  A    between atoms: N1_3  and  C3_4 
REMARK       I    between atoms: N1_3  and  C5_6 
REMARK    3  A    between atoms: N3_8  and  C6_10 
REMARK    4  A    between atoms: C7_11  and  O1_12 
REMARK    5  A    between atoms: C8_14  and  O2_15 
REMARK    6  A    between atoms: C9_17  and  C10_18 
REMARK    7  A    between atoms: C10_18  and  O3_19 
REMARK    8  A    between atoms: N4_22  and  C13_24 
REMARK    9  A    between atoms: C13_24  and  C14_25 
REMARK   10  A    between atoms: C14_25  and  C15_26 
ROOT
HETATM    1  C6  UNL     1      49.621  31.470  38.928  1.00  0.00     0.322 C 
HETATM    2  C7  UNL     1      48.659  30.631  39.726  1.00  0.00     0.198 C 
HETATM    3  C8  UNL     1      49.125  30.293  41.102  1.00  0.00     0.158 C 
HETATM    4  C9  UNL     1      49.628  31.504  41.817  1.00  0.00     0.067 C 
HETATM    5  C11 UNL     1      50.460  32.399  40.963  1.00  0.00     0.249 C 
HETATM    6  N4  UNL     1      49.907  32.699  39.675  1.00  0.00    -0.047 N 
HETATM    7  C12 UNL     1      48.622  33.390  39.786  1.00  0.00     0.275 C 
ENDROOT
BRANCH   1   8
HETATM    8  N3  UNL     1      50.778  30.779  38.489  1.00  0.00    -0.334 N 
HETATM    9  C5  UNL     1      50.923  30.160  37.377  1.00  0.00     0.188 C 
HETATM   10  N1  UNL     1      52.122  29.489  37.012  1.00  0.00    -0.356 N 
HETATM   11  N2  UNL     1      49.852  30.122  36.429  1.00  0.00    -0.064 NA
ATOM     12  H3  UNL     1      51.576  30.773  39.124  1.00  0.00     0.164 HD
BRANCH  10  13
HETATM   13  C2  UNL     1      52.113  28.130  36.565  1.00  0.00     0.121 C 
HETATM   14  C1  UNL     1      51.675  27.140  37.616  1.00  0.00     0.026 C 
ENDBRANCH  10  13
BRANCH  10  15
HETATM   15  C3  UNL     1      53.403  30.158  37.078  1.00  0.00     0.121 C 
HETATM   16  C4  UNL     1      54.435  29.334  36.324  1.00  0.00     0.026 C 
ENDBRANCH  10  15
ENDBRANCH   1   8
BRANCH   2  17
HETATM   17  O1  UNL     1      48.294  29.505  39.021  1.00  0.00    -0.389 OA
ATOM     18  H1  UNL     1      47.761  28.930  39.558  1.00  0.00     0.210 HD
ENDBRANCH   2  17
BRANCH   6  19
HETATM   19  C13 UNL     1      50.769  33.548  38.923  1.00  0.00     0.246 C 
BRANCH  19  20
HETATM   20  C14 UNL     1      50.215  34.910  38.600  1.00  0.00     0.097 C 
BRANCH  20  21
HETATM   21  C15 UNL     1      51.361  35.769  38.195  1.00  0.00     0.232 C 
HETATM   22  O4  UNL     1      52.260  36.116  38.940  1.00  0.00    -0.307 OA
ENDBRANCH  20  21
ENDBRANCH  19  20
ENDBRANCH   6  19
BRANCH   3  23
HETATM   23  O2  UNL     1      50.004  29.219  41.158  1.00  0.00    -0.392 OA
ATOM     24  H2  UNL     1      50.662  29.216  40.473  1.00  0.00     0.210 HD
ENDBRANCH   3  23
BRANCH   4  25
HETATM   25  C10 UNL     1      50.487  31.131  43.029  1.00  0.00     0.173 C 
BRANCH  25  26
HETATM   26  O3  UNL     1      51.723  30.661  42.664  1.00  0.00    -0.400 OA
ATOM     27  H3  UNL     1      51.945  29.852  43.110  1.00  0.00     0.209 HD
ENDBRANCH  25  26
ENDBRANCH   4  25
TORSDOF 10
ENDMDL
MODEL 2
REMARK VINA RESULT: -5.955764845      2.167      5.975
REMARK  10 active torsions:
REMARK  status: ('A' for Active; 'I' for Inactive)
REMARK    1  A    between atoms: C2_2  and  N1_3 
REMARK    2  A    between atoms: N1_3  and  C3_4 
REMARK       I    between atoms: N1_3  and  C5_6 
REMARK    3  A    between atoms: N3_8  and  C6_10 
REMARK    4  A    between atoms: C7_11  and  O1_12 
REMARK    5  A    between atoms: C8_14  and  O2_15 
REMARK    6  A    between atoms: C9_17  and  C10_18 
REMARK    7  A    between atoms: C10_18  and  O3_19 
REMARK    8  A    between atoms: N4_22  and  C13_24 
REMARK    9  A    between atoms: C13_24  and  C14_25 
REMARK   10  A    between atoms: C14_25  and  C15_26 
ROOT
HETATM    1  C6  UNL     1      49.038  31.745  39.677  1.00  0.00     0.322 C 
HETATM    2  C7  UNL     1      48.348  33.023  39.282  1.00  0.00     0.198 C 
HETATM    3  C8  UNL     1      49.269  34.157  38.981  1.00  0.00     0.158 C 
HETATM    4  C9  UNL     1      50.364  33.735  38.057  1.00  0.00     0.067 C 
HETATM    5  C11 UNL     1      50.935  32.396  38.380  1.00  0.00     0.249 C 
HETATM    6  N4  UNL     1      49.970  31.362  38.612  1.00  0.00    -0.047 N 
HETATM    7  C12 UNL     1      49.133  31.129  37.435  1.00  0.00     0.275 C 
ENDROOT
BRANCH   1   8
HETATM    8  N3  UNL     1      49.617  31.767  40.971  1.00  0.00    -0.334 N 
HETATM    9  C5  UNL     1      49.079  31.353  42.057  1.00  0.00     0.188 C 
HETATM   10  N1  UNL     1      49.732  31.412  43.319  1.00  0.00    -0.356 N 
HETATM   11  N2  UNL     1      47.761  30.797  42.041  1.00  0.00    -0.064 NA
ATOM     12  H3  UNL     1      50.559  32.152  41.044  1.00  0.00     0.164 HD
BRANCH  10  13
HETATM   13  C2  UNL     1      49.101  31.999  44.461  1.00  0.00     0.121 C 
HETATM   14  C1  UNL     1      48.460  33.338  44.189  1.00  0.00     0.026 C 
ENDBRANCH  10  13
BRANCH  10  15
HETATM   15  C3  UNL     1      51.064  30.875  43.497  1.00  0.00     0.121 C 
HETATM   16  C4  UNL     1      51.368  30.783  44.984  1.00  0.00     0.026 C 
ENDBRANCH  10  15
ENDBRANCH   1   8
BRANCH   2  17
HETATM   17  O1  UNL     1      47.398  33.373  40.216  1.00  0.00    -0.389 OA
ATOM     18  H1  UNL     1      46.661  33.805  39.800  1.00  0.00     0.210 HD
ENDBRANCH   2  17
BRANCH   6  19
HETATM   19  C13 UNL     1      50.599  30.123  38.924  1.00  0.00     0.246 C 
BRANCH  19  20
HETATM   20  C14 UNL     1      49.923  28.897  38.370  1.00  0.00     0.097 C 
BRANCH  20  21
HETATM   21  C15 UNL     1      49.510  28.059  39.529  1.00  0.00     0.232 C 
HETATM   22  O4  UNL     1      49.623  28.389  40.695  1.00  0.00    -0.307 OA
ENDBRANCH  20  21
ENDBRANCH  19  20
ENDBRANCH   6  19
BRANCH   3  23
HETATM   23  O2  UNL     1      49.729  34.832  40.104  1.00  0.00    -0.392 OA
ATOM     24  H2  UNL     1      49.974  34.266  40.827  1.00  0.00     0.210 HD
ENDBRANCH   3  23
BRANCH   4  25
HETATM   25  C10 UNL     1      51.533  34.725  38.073  1.00  0.00     0.173 C 
BRANCH  25  26
HETATM   26  O3  UNL     1      51.110  36.029  38.025  1.00  0.00    -0.400 OA
ATOM     27  H3  UNL     1      50.868  36.360  38.882  1.00  0.00     0.209 HD
ENDBRANCH  25  26
ENDBRANCH   4  25
TORSDOF 10
ENDMDL
MODEL 3
REMARK VINA RESULT: -5.868390633      2.650      4.860
REMARK  10 active torsions:
REMARK  status: ('A' for Active; 'I' for Inactive)
REMARK    1  A    between atoms: C2_2  and  N1_3 
REMARK    2  A    between atoms: N1_3  and  C3_4 
REMARK       I    between atoms: N1_3  and  C5_6 
REMARK    3  A    between atoms: N3_8  and  C6_10 
REMARK    4  A    between atoms: C7_11  and  O1_12 
REMARK    5  A    between atoms: C8_14  and  O2_15 
REMARK    6  A    between atoms: C9_17  and  C10_18 
REMARK    7  A    between atoms: C10_18  and  O3_19 
REMARK    8  A    between atoms: N4_22  and  C13_24 
REMARK    9  A    between atoms: C13_24  and  C14_25 
REMARK   10  A    between atoms: C14_25  and  C15_26 
ROOT
HETATM    1  C6  UNL     1      50.130  31.288  39.880  1.00  0.00     0.322 C 
HETATM    2  C7  UNL     1      50.864  31.427  41.187  1.00  0.00     0.198 C 
HETATM    3  C8  UNL     1      50.079  32.082  42.272  1.00  0.00     0.158 C 
HETATM    4  C9  UNL     1      48.715  31.485  42.391  1.00  0.00     0.067 C 
HETATM    5  C11 UNL     1      48.064  31.219  41.077  1.00  0.00     0.249 C 
HETATM    6  N4  UNL     1      48.886  30.548  40.114  1.00  0.00    -0.047 N 
HETATM    7  C12 UNL     1      49.307  29.229  40.587  1.00  0.00     0.275 C 
ENDROOT
BRANCH   1   8
HETATM    8  N3  UNL     1      49.954  32.505  39.174  1.00  0.00    -0.334 N 
HETATM    9  C5  UNL     1      50.621  32.902  38.155  1.00  0.00     0.188 C 
HETATM   10  N1  UNL     1      50.380  34.141  37.503  1.00  0.00    -0.356 N 
HETATM   11  N2  UNL     1      51.665  32.086  37.617  1.00  0.00    -0.064 NA
ATOM     12  H3  UNL     1      49.221  33.128  39.513  1.00  0.00     0.164 HD
BRANCH  10  13
HETATM   13  C2  UNL     1      51.437  35.070  37.245  1.00  0.00     0.121 C 
HETATM   14  C1  UNL     1      51.613  36.116  38.319  1.00  0.00     0.026 C 
ENDBRANCH  10  13
BRANCH  10  15
HETATM   15  C3  UNL     1      49.049  34.513  37.073  1.00  0.00     0.121 C 
HETATM   16  C4  UNL     1      48.886  34.162  35.602  1.00  0.00     0.026 C 
ENDBRANCH  10  15
ENDBRANCH   1   8
BRANCH   2  17
HETATM   17  O1  UNL     1      52.083  32.041  40.998  1.00  0.00    -0.389 OA
ATOM     18  H1  UNL     1      52.633  31.939  41.766  1.00  0.00     0.210 HD
ENDBRANCH   2  17
BRANCH   6  19
HETATM   19  C13 UNL     1      48.191  30.345  38.887  1.00  0.00     0.246 C 
BRANCH  19  20
HETATM   20  C14 UNL     1      48.601  29.124  38.106  1.00  0.00     0.097 C 
BRANCH  20  21
HETATM   21  C15 UNL     1      48.974  29.578  36.739  1.00  0.00     0.232 C 
HETATM   22  O4  UNL     1      48.739  30.686  36.292  1.00  0.00    -0.307 OA
ENDBRANCH  20  21
ENDBRANCH  19  20
ENDBRANCH   6  19
BRANCH   3  23
HETATM   23  O2  UNL     1      50.067  33.469  42.210  1.00  0.00    -0.392 OA
ATOM     24  H2  UNL     1      50.919  33.873  42.322  1.00  0.00     0.210 HD
ENDBRANCH   3  23
BRANCH   4  25
HETATM   25  C10 UNL     1      47.764  32.394  43.176  1.00  0.00     0.173 C 
BRANCH  25  26
HETATM   26  O3  UNL     1      47.435  33.528  42.477  1.00  0.00    -0.400 OA
ATOM     27  H3  UNL     1      46.993  34.169  43.020  1.00  0.00     0.209 HD
ENDBRANCH  25  26
ENDBRANCH   4  25
TORSDOF 10
ENDMDL
MODEL 4
REMARK VINA RESULT: -5.833122966      2.251      5.056
REMARK  10 active torsions:
REMARK  status: ('A' for Active; 'I' for Inactive)
REMARK    1  A    between atoms: C2_2  and  N1_3 
REMARK    2  A    between atoms: N1_3  and  C3_4 
REMARK       I    between atoms: N1_3  and  C5_6 
REMARK    3  A    between atoms: N3_8  and  C6_10 
REMARK    4  A    between atoms: C7_11  and  O1_12 
REMARK    5  A    between atoms: C8_14  and  O2_15 
REMARK    6  A    between atoms: C9_17  and  C10_18 
REMARK    7  A    between atoms: C10_18  and  O3_19 
REMARK    8  A    between atoms: N4_22  and  C13_24 
REMARK    9  A    between atoms: C13_24  and  C14_25 
REMARK   10  A    between atoms: C14_25  and  C15_26 
ROOT
HETATM    1  C6  UNL     1      51.182  32.016  38.045  1.00  0.00     0.322 C 
HETATM    2  C7  UNL     1      51.976  31.063  37.192  1.00  0.00     0.198 C 
HETATM    3  C8  UNL     1      51.159  30.038  36.483  1.00  0.00     0.158 C 
HETATM    4  C9  UNL     1      49.991  30.660  35.790  1.00  0.00     0.067 C 
HETATM    5  C11 UNL     1      49.306  31.708  36.599  1.00  0.00     0.249 C 
HETATM    6  N4  UNL     1      50.174  32.673  37.207  1.00  0.00    -0.047 N 
HETATM    7  C12 UNL     1      50.936  33.421  36.206  1.00  0.00     0.275 C 
ENDROOT
BRANCH   1   8
HETATM    8  N3  UNL     1      50.661  31.444  39.233  1.00  0.00    -0.334 N 
HETATM    9  C5  UNL     1      50.803  31.893  40.425  1.00  0.00     0.188 C 
HETATM   10  N1  UNL     1      50.246  31.256  41.567  1.00  0.00    -0.356 N 
HETATM   11  N2  UNL     1      51.550  33.091  40.658  1.00  0.00    -0.064 NA
ATOM     12  H3  UNL     1      50.118  30.588  39.129  1.00  0.00     0.164 HD
BRANCH  10  13
HETATM   13  C2  UNL     1      51.044  30.942  42.712  1.00  0.00     0.121 C 
HETATM   14  C1  UNL     1      50.436  31.378  44.023  1.00  0.00     0.026 C 
ENDBRANCH  10  13
BRANCH  10  15
HETATM   15  C3  UNL     1      48.844  30.901  41.615  1.00  0.00     0.121 C 
HETATM   16  C4  UNL     1      48.007  32.165  41.502  1.00  0.00     0.026 C 
ENDBRANCH  10  15
ENDBRANCH   1   8
BRANCH   2  17
HETATM   17  O1  UNL     1      52.994  30.488  37.922  1.00  0.00    -0.389 OA
ATOM     18  H1  UNL     1      53.510  31.154  38.361  1.00  0.00     0.210 HD
ENDBRANCH   2  17
BRANCH   6  19
HETATM   19  C13 UNL     1      49.440  33.627  37.968  1.00  0.00     0.246 C 
BRANCH  19  20
HETATM   20  C14 UNL     1      49.779  35.069  37.695  1.00  0.00     0.097 C 
BRANCH  20  21
HETATM   21  C15 UNL     1      50.221  35.671  38.983  1.00  0.00     0.232 C 
HETATM   22  O4  UNL     1      51.337  36.110  39.192  1.00  0.00    -0.307 OA
ENDBRANCH  20  21
ENDBRANCH  19  20
ENDBRANCH   6  19
BRANCH   3  23
HETATM   23  O2  UNL     1      50.813  28.943  37.264  1.00  0.00    -0.392 OA
ATOM     24  H2  UNL     1      50.033  28.486  36.973  1.00  0.00     0.210 HD
ENDBRANCH   3  23
BRANCH   4  25
HETATM   25  C10 UNL     1      48.926  29.620  35.429  1.00  0.00     0.173 C 
BRANCH  25  26
HETATM   26  O3  UNL     1      48.020  29.430  36.442  1.00  0.00    -0.400 OA
ATOM     27  H3  UNL     1      48.096  30.091  37.119  1.00  0.00     0.209 HD
ENDBRANCH  25  26
ENDBRANCH   4  25
TORSDOF 10
ENDMDL
MODEL 5
REMARK VINA RESULT: -5.659054436      1.164      1.188
REMARK  10 active torsions:
REMARK  status: ('A' for Active; 'I' for Inactive)
REMARK    1  A    between atoms: C2_2  and  N1_3 
REMARK    2  A    between atoms: N1_3  and  C3_4 
REMARK       I    between atoms: N1_3  and  C5_6 
REMARK    3  A    between atoms: N3_8  and  C6_10 
REMARK    4  A    between atoms: C7_11  and  O1_12 
REMARK    5  A    between atoms: C8_14  and  O2_15 
REMARK    6  A    between atoms: C9_17  and  C10_18 
REMARK    7  A    between atoms: C10_18  and  O3_19 
REMARK    8  A    between atoms: N4_22  and  C13_24 
REMARK    9  A    between atoms: C13_24  and  C14_25 
REMARK   10  A    between atoms: C14_25  and  C15_26 
ROOT
HETATM    1  C6  UNL     1      49.660  31.248  38.722  1.00  0.00     0.322 C 
HETATM    2  C7  UNL     1      48.677  30.492  39.575  1.00  0.00     0.198 C 
HETATM    3  C8  UNL     1      49.138  30.231  40.969  1.00  0.00     0.158 C 
HETATM    4  C9  UNL     1      49.682  31.470  41.602  1.00  0.00     0.067 C 
HETATM    5  C11 UNL     1      50.537  32.281  40.688  1.00  0.00     0.249 C 
HETATM    6  N4  UNL     1      49.988  32.513  39.385  1.00  0.00    -0.047 N 
HETATM    7  C12 UNL     1      48.725  33.249  39.454  1.00  0.00     0.275 C 
ENDROOT
BRANCH   1   8
HETATM    8  N3  UNL     1      50.793  30.493  38.325  1.00  0.00    -0.334 N 
HETATM    9  C5  UNL     1      50.914  29.799  37.256  1.00  0.00     0.188 C 
HETATM   10  N1  UNL     1      52.090  29.068  36.933  1.00  0.00    -0.356 N 
HETATM   11  N2  UNL     1      49.838  29.732  36.316  1.00  0.00    -0.064 NA
ATOM     12  H3  UNL     1      51.593  30.504  38.957  1.00  0.00     0.164 HD
BRANCH  10  13
HETATM   13  C2  UNL     1      52.037  27.684  36.576  1.00  0.00     0.121 C 
HETATM   14  C1  UNL     1      51.469  26.792  37.652  1.00  0.00     0.026 C 
ENDBRANCH  10  13
BRANCH  10  15
HETATM   15  C3  UNL     1      53.392  29.700  36.952  1.00  0.00     0.121 C 
HETATM   16  C4  UNL     1      54.434  28.707  36.463  1.00  0.00     0.026 C 
ENDBRANCH  10  15
ENDBRANCH   1   8
BRANCH   2  17
HETATM   17  O1  UNL     1      48.273  29.335  38.946  1.00  0.00    -0.389 OA
ATOM     18  H1  UNL     1      47.344  29.187  39.078  1.00  0.00     0.210 HD
ENDBRANCH   2  17
BRANCH   6  19
HETATM   19  C13 UNL     1      50.872  33.283  38.577  1.00  0.00     0.246 C 
BRANCH  19  20
HETATM   20  C14 UNL     1      50.231  34.000  37.418  1.00  0.00     0.097 C 
BRANCH  20  21
HETATM   21  C15 UNL     1      50.977  33.610  36.190  1.00  0.00     0.232 C 
HETATM   22  O4  UNL     1      51.884  32.800  36.162  1.00  0.00    -0.307 OA
ENDBRANCH  20  21
ENDBRANCH  19  20
ENDBRANCH   6  19
BRANCH   3  23
HETATM   23  O2  UNL     1      49.984  29.136  41.094  1.00  0.00    -0.392 OA
ATOM     24  H2  UNL     1      50.854  29.349  41.410  1.00  0.00     0.210 HD
ENDBRANCH   3  23
BRANCH   4  25
HETATM   25  C10 UNL     1      50.535  31.151  42.833  1.00  0.00     0.173 C 
BRANCH  25  26
HETATM   26  O3  UNL     1      51.839  30.880  42.505  1.00  0.00    -0.400 OA
ATOM     27  H3  UNL     1      52.215  30.205  43.057  1.00  0.00     0.209 HD
ENDBRANCH  25  26
ENDBRANCH   4  25
TORSDOF 10
ENDMDL
