MODEL 1
REMARK VINA RESULT: -7.611716717      0.000      0.000
REMARK  8 active torsions:
REMARK  status: ('A' for Active; 'I' for Inactive)
REMARK    1  A    between atoms: C2_2  and  C3_3 
REMARK    2  A    between atoms: C3_3  and  C4_4 
REMARK    3  A    between atoms: C4_4  and  C5_5 
REMARK    4  A    between atoms: C5_5  and  C6_6 
REMARK    5  A    between atoms: C6_6  and  C7_7 
REMARK    6  A    between atoms: C7_7  and  C8_8 
REMARK    7  A    between atoms: C8_8  and  C9_9 
REMARK    8  A    between atoms: C12_15  and  C13_16 
ROOT
HETATM    1  C9  UNL     1      87.721  73.996  30.610  1.00  0.00     0.104 A 
HETATM    2  N1  UNL     1      88.724  74.880  30.531  1.00  0.00    -0.308 N 
ATOM      3  H1  UNL     1      88.679  75.787  30.068  1.00  0.00     0.170 HD
HETATM    4  C10 UNL     1      89.816  74.369  31.173  1.00  0.00     0.273 A 
HETATM    5  O1  UNL     1      90.900  74.979  31.257  1.00  0.00    -0.266 OA
HETATM    6  C11 UNL     1      89.494  73.145  31.664  1.00  0.00     0.102 A 
HETATM    7  C12 UNL     1      90.204  72.286  32.342  1.00  0.00     0.038 C 
HETATM    8  N4  UNL     1      88.183  72.951  31.292  1.00  0.00    -0.338 N 
ATOM      9  H4  UNL     1      87.638  72.117  31.510  1.00  0.00     0.167 HD
ENDROOT
BRANCH   7  10
HETATM   10  C13 UNL     1      91.573  72.526  32.711  1.00  0.00     0.038 C 
HETATM   11  C14 UNL     1      92.545  72.040  31.911  1.00  0.00     0.105 A 
HETATM   12  N2  UNL     1      92.398  71.302  30.720  1.00  0.00    -0.304 N 
HETATM   13  C16 UNL     1      93.990  72.187  32.130  1.00  0.00     0.276 A 
HETATM   14  C15 UNL     1      93.697  70.980  30.180  1.00  0.00     0.327 A 
ATOM     15  H2  UNL     1      91.507  71.036  30.301  1.00  0.00     0.171 HD
HETATM   16  O2  UNL     1      93.837  70.328  29.122  1.00  0.00    -0.247 OA
HETATM   17  N3  UNL     1      94.654  71.537  31.069  1.00  0.00    -0.274 N 
ATOM     18  H3  UNL     1      95.665  71.476  30.957  1.00  0.00     0.173 HD
HETATM   19  O3  UNL     1      94.502  72.792  33.103  1.00  0.00    -0.266 OA
ENDBRANCH   7  10
BRANCH   1  20
HETATM   20  C8  UNL     1      86.507  74.180  30.090  1.00  0.00     0.022 C 
BRANCH  20  21
HETATM   21  C7  UNL     1      85.648  75.243  30.565  1.00  0.00     0.031 C 
BRANCH  21  22
HETATM   22  C6  UNL     1      84.194  75.139  30.246  1.00  0.00     0.004 C 
BRANCH  22  23
HETATM   23  C5  UNL     1      83.311  74.851  31.387  1.00  0.00     0.000 C 
BRANCH  23  24
HETATM   24  C4  UNL     1      83.351  73.531  32.044  1.00  0.00     0.000 C 
BRANCH  24  25
HETATM   25  C3  UNL     1      82.204  72.611  31.672  1.00  0.00    -0.000 C 
BRANCH  25  26
HETATM   26  C2  UNL     1      81.717  71.848  32.888  1.00  0.00    -0.005 C 
HETATM   27  C1  UNL     1      80.194  71.769  32.759  1.00  0.00     0.005 C 
ENDBRANCH  25  26
ENDBRANCH  24  25
ENDBRANCH  23  24
ENDBRANCH  22  23
ENDBRANCH  21  22
ENDBRANCH  20  21
ENDBRANCH   1  20
TORSDOF 8
ENDMDL
MODEL 2
REMARK VINA RESULT: -7.524827803      1.489      2.054
REMARK  8 active torsions:
REMARK  status: ('A' for Active; 'I' for Inactive)
REMARK    1  A    between atoms: C2_2  and  C3_3 
REMARK    2  A    between atoms: C3_3  and  C4_4 
REMARK    3  A    between atoms: C4_4  and  C5_5 
REMARK    4  A    between atoms: C5_5  and  C6_6 
REMARK    5  A    between atoms: C6_6  and  C7_7 
REMARK    6  A    between atoms: C7_7  and  C8_8 
REMARK    7  A    between atoms: C8_8  and  C9_9 
REMARK    8  A    between atoms: C12_15  and  C13_16 
ROOT
HETATM    1  C9  UNL     1      87.829  74.334  30.054  1.00  0.00     0.104 A 
HETATM    2  N1  UNL     1      88.441  73.624  29.097  1.00  0.00    -0.308 N 
ATOM      3  H1  UNL     1      88.356  73.786  28.094  1.00  0.00     0.170 HD
HETATM    4  C10 UNL     1      89.196  72.650  29.684  1.00  0.00     0.273 A 
HETATM    5  O1  UNL     1      89.878  71.834  29.030  1.00  0.00    -0.266 OA
HETATM    6  C11 UNL     1      89.059  72.749  31.031  1.00  0.00     0.102 A 
HETATM    7  C12 UNL     1      89.583  72.043  31.994  1.00  0.00     0.038 C 
HETATM    8  N4  UNL     1      88.201  73.808  31.218  1.00  0.00    -0.338 N 
ATOM      9  H4  UNL     1      87.890  74.146  32.129  1.00  0.00     0.167 HD
ENDROOT
BRANCH   7  10
HETATM   10  C13 UNL     1      90.477  70.942  31.756  1.00  0.00     0.038 C 
HETATM   11  C14 UNL     1      91.797  71.134  31.962  1.00  0.00     0.105 A 
HETATM   12  N2  UNL     1      92.444  72.308  32.394  1.00  0.00    -0.304 N 
HETATM   13  C16 UNL     1      92.850  70.128  31.771  1.00  0.00     0.276 A 
HETATM   14  C15 UNL     1      93.866  72.078  32.482  1.00  0.00     0.327 A 
ATOM     15  H2  UNL     1      91.978  73.188  32.611  1.00  0.00     0.171 HD
HETATM   16  O2  UNL     1      94.665  72.970  32.844  1.00  0.00    -0.247 OA
HETATM   17  N3  UNL     1      94.083  70.731  32.093  1.00  0.00    -0.274 N 
ATOM     18  H3  UNL     1      94.992  70.270  32.053  1.00  0.00     0.173 HD
HETATM   19  O3  UNL     1      92.645  68.951  31.388  1.00  0.00    -0.266 OA
ENDBRANCH   7  10
BRANCH   1  20
HETATM   20  C8  UNL     1      87.016  75.366  29.828  1.00  0.00     0.022 C 
BRANCH  20  21
HETATM   21  C7  UNL     1      85.780  75.515  30.567  1.00  0.00     0.031 C 
BRANCH  21  22
HETATM   22  C6  UNL     1      84.654  74.605  30.205  1.00  0.00     0.004 C 
BRANCH  22  23
HETATM   23  C5  UNL     1      83.414  74.790  30.975  1.00  0.00     0.000 C 
BRANCH  23  24
HETATM   24  C4  UNL     1      83.078  73.869  32.076  1.00  0.00     0.000 C 
BRANCH  24  25
HETATM   25  C3  UNL     1      82.195  72.704  31.670  1.00  0.00    -0.000 C 
BRANCH  25  26
HETATM   26  C2  UNL     1      81.714  71.948  32.894  1.00  0.00    -0.005 C 
HETATM   27  C1  UNL     1      80.204  71.772  32.718  1.00  0.00     0.005 C 
ENDBRANCH  25  26
ENDBRANCH  24  25
ENDBRANCH  23  24
ENDBRANCH  22  23
ENDBRANCH  21  22
ENDBRANCH  20  21
ENDBRANCH   1  20
TORSDOF 8
ENDMDL
MODEL 3
REMARK VINA RESULT: -7.521520354      2.771      8.995
REMARK  8 active torsions:
REMARK  status: ('A' for Active; 'I' for Inactive)
REMARK    1  A    between atoms: C2_2  and  C3_3 
REMARK    2  A    between atoms: C3_3  and  C4_4 
REMARK    3  A    between atoms: C4_4  and  C5_5 
REMARK    4  A    between atoms: C5_5  and  C6_6 
REMARK    5  A    between atoms: C6_6  and  C7_7 
REMARK    6  A    between atoms: C7_7  and  C8_8 
REMARK    7  A    between atoms: C8_8  and  C9_9 
REMARK    8  A    between atoms: C12_15  and  C13_16 
ROOT
HETATM    1  C9  UNL     1      91.882  70.961  31.689  1.00  0.00     0.104 A 
HETATM    2  N1  UNL     1      92.187  72.249  31.891  1.00  0.00    -0.308 N 
ATOM      3  H1  UNL     1      93.004  72.593  32.396  1.00  0.00     0.170 HD
HETATM    4  C10 UNL     1      91.226  73.027  31.311  1.00  0.00     0.273 A 
HETATM    5  O1  UNL     1      91.252  74.274  31.343  1.00  0.00    -0.266 OA
HETATM    6  C11 UNL     1      90.303  72.215  30.734  1.00  0.00     0.102 A 
HETATM    7  C12 UNL     1      89.217  72.498  30.070  1.00  0.00     0.038 C 
HETATM    8  N4  UNL     1      90.749  70.939  30.993  1.00  0.00    -0.338 N 
ATOM      9  H4  UNL     1      90.273  70.090  30.690  1.00  0.00     0.167 HD
ENDROOT
BRANCH   7  10
HETATM   10  C13 UNL     1      88.784  73.847  29.822  1.00  0.00     0.038 C 
HETATM   11  C14 UNL     1      87.638  74.267  30.398  1.00  0.00     0.105 A 
HETATM   12  N2  UNL     1      86.775  73.539  31.240  1.00  0.00    -0.304 N 
HETATM   13  C16 UNL     1      87.046  75.604  30.256  1.00  0.00     0.276 A 
HETATM   14  C15 UNL     1      85.662  74.368  31.634  1.00  0.00     0.327 A 
ATOM     15  H2  UNL     1      86.915  72.571  31.528  1.00  0.00     0.171 HD
HETATM   16  O2  UNL     1      84.752  73.952  32.385  1.00  0.00    -0.247 OA
HETATM   17  N3  UNL     1      85.857  75.630  31.014  1.00  0.00    -0.274 N 
ATOM     18  H3  UNL     1      85.234  76.431  31.103  1.00  0.00     0.173 HD
HETATM   19  O3  UNL     1      87.544  76.531  29.573  1.00  0.00    -0.266 OA
ENDBRANCH   7  10
BRANCH   1  20
HETATM   20  C8  UNL     1      92.613  69.933  32.121  1.00  0.00     0.022 C 
BRANCH  20  21
HETATM   21  C7  UNL     1      93.445  69.176  31.210  1.00  0.00     0.031 C 
BRANCH  21  22
HETATM   22  C6  UNL     1      94.394  69.946  30.353  1.00  0.00     0.004 C 
BRANCH  22  23
HETATM   23  C5  UNL     1      95.770  70.050  30.864  1.00  0.00     0.000 C 
BRANCH  23  24
HETATM   24  C4  UNL     1      96.095  71.005  31.939  1.00  0.00     0.000 C 
BRANCH  24  25
HETATM   25  C3  UNL     1      96.479  70.358  33.257  1.00  0.00    -0.000 C 
BRANCH  25  26
HETATM   26  C2  UNL     1      96.084  71.245  34.421  1.00  0.00    -0.005 C 
HETATM   27  C1  UNL     1      95.294  72.409  33.819  1.00  0.00     0.005 C 
ENDBRANCH  25  26
ENDBRANCH  24  25
ENDBRANCH  23  24
ENDBRANCH  22  23
ENDBRANCH  21  22
ENDBRANCH  20  21
ENDBRANCH   1  20
TORSDOF 8
ENDMDL
MODEL 4
REMARK VINA RESULT: -7.392860710      0.740      1.007
REMARK  8 active torsions:
REMARK  status: ('A' for Active; 'I' for Inactive)
REMARK    1  A    between atoms: C2_2  and  C3_3 
REMARK    2  A    between atoms: C3_3  and  C4_4 
REMARK    3  A    between atoms: C4_4  and  C5_5 
REMARK    4  A    between atoms: C5_5  and  C6_6 
REMARK    5  A    between atoms: C6_6  and  C7_7 
REMARK    6  A    between atoms: C7_7  and  C8_8 
REMARK    7  A    between atoms: C8_8  and  C9_9 
REMARK    8  A    between atoms: C12_15  and  C13_16 
ROOT
HETATM    1  C9  UNL     1      87.904  74.096  30.543  1.00  0.00     0.104 A 
HETATM    2  N1  UNL     1      88.911  74.978  30.549  1.00  0.00    -0.308 N 
ATOM      3  H1  UNL     1      88.889  75.905  30.125  1.00  0.00     0.170 HD
HETATM    4  C10 UNL     1      89.972  74.435  31.217  1.00  0.00     0.273 A 
HETATM    5  O1  UNL     1      91.053  75.037  31.377  1.00  0.00    -0.266 OA
HETATM    6  C11 UNL     1      89.626  73.191  31.638  1.00  0.00     0.102 A 
HETATM    7  C12 UNL     1      90.303  72.301  32.308  1.00  0.00     0.038 C 
HETATM    8  N4  UNL     1      88.333  73.020  31.198  1.00  0.00    -0.338 N 
ATOM      9  H4  UNL     1      87.778  72.179  31.354  1.00  0.00     0.167 HD
ENDROOT
BRANCH   7  10
HETATM   10  C13 UNL     1      91.654  72.519  32.750  1.00  0.00     0.038 C 
HETATM   11  C14 UNL     1      92.661  72.066  31.973  1.00  0.00     0.105 A 
HETATM   12  N2  UNL     1      92.566  71.383  30.744  1.00  0.00    -0.304 N 
HETATM   13  C16 UNL     1      94.095  72.197  32.264  1.00  0.00     0.276 A 
HETATM   14  C15 UNL     1      93.888  71.080  30.251  1.00  0.00     0.327 A 
ATOM     15  H2  UNL     1      91.695  71.139  30.274  1.00  0.00     0.171 HD
HETATM   16  O2  UNL     1      94.075  70.475  29.171  1.00  0.00    -0.247 OA
HETATM   17  N3  UNL     1      94.804  71.593  31.205  1.00  0.00    -0.274 N 
ATOM     18  H3  UNL     1      95.820  71.533  31.137  1.00  0.00     0.173 HD
HETATM   19  O3  UNL     1      94.563  72.756  33.284  1.00  0.00    -0.266 OA
ENDBRANCH   7  10
BRANCH   1  20
HETATM   20  C8  UNL     1      86.716  74.307  29.978  1.00  0.00     0.022 C 
BRANCH  20  21
HETATM   21  C7  UNL     1      85.862  75.388  30.422  1.00  0.00     0.031 C 
BRANCH  21  22
HETATM   22  C6  UNL     1      84.445  75.375  29.954  1.00  0.00     0.004 C 
BRANCH  22  23
HETATM   23  C5  UNL     1      83.442  75.037  30.976  1.00  0.00     0.000 C 
BRANCH  23  24
HETATM   24  C4  UNL     1      83.773  74.096  32.062  1.00  0.00     0.000 C 
BRANCH  24  25
HETATM   25  C3  UNL     1      82.669  73.108  32.393  1.00  0.00    -0.000 C 
BRANCH  25  26
HETATM   26  C2  UNL     1      82.528  72.078  31.290  1.00  0.00    -0.005 C 
HETATM   27  C1  UNL     1      83.950  71.643  30.930  1.00  0.00     0.005 C 
ENDBRANCH  25  26
ENDBRANCH  24  25
ENDBRANCH  23  24
ENDBRANCH  22  23
ENDBRANCH  21  22
ENDBRANCH  20  21
ENDBRANCH   1  20
TORSDOF 8
ENDMDL
MODEL 5
REMARK VINA RESULT: -7.386327522      3.383      9.140
REMARK  8 active torsions:
REMARK  status: ('A' for Active; 'I' for Inactive)
REMARK    1  A    between atoms: C2_2  and  C3_3 
REMARK    2  A    between atoms: C3_3  and  C4_4 
REMARK    3  A    between atoms: C4_4  and  C5_5 
REMARK    4  A    between atoms: C5_5  and  C6_6 
REMARK    5  A    between atoms: C6_6  and  C7_7 
REMARK    6  A    between atoms: C7_7  and  C8_8 
REMARK    7  A    between atoms: C8_8  and  C9_9 
REMARK    8  A    between atoms: C12_15  and  C13_16 
ROOT
HETATM    1  C9  UNL     1      91.796  69.817  31.871  1.00  0.00     0.104 A 
HETATM    2  N1  UNL     1      90.872  69.627  32.821  1.00  0.00    -0.308 N 
ATOM      3  H1  UNL     1      90.973  69.017  33.632  1.00  0.00     0.170 HD
HETATM    4  C10 UNL     1      89.773  70.383  32.527  1.00  0.00     0.273 A 
HETATM    5  O1  UNL     1      88.752  70.403  33.243  1.00  0.00    -0.266 OA
HETATM    6  C11 UNL     1      90.011  71.061  31.374  1.00  0.00     0.102 A 
HETATM    7  C12 UNL     1      89.263  71.897  30.709  1.00  0.00     0.038 C 
HETATM    8  N4  UNL     1      91.279  70.680  30.999  1.00  0.00    -0.338 N 
ATOM      9  H4  UNL     1      91.759  71.015  30.164  1.00  0.00     0.167 HD
ENDROOT
BRANCH   7  10
HETATM   10  C13 UNL     1      87.941  72.269  31.134  1.00  0.00     0.038 C 
HETATM   11  C14 UNL     1      87.525  73.531  30.898  1.00  0.00     0.105 A 
HETATM   12  N2  UNL     1      88.235  74.573  30.270  1.00  0.00    -0.304 N 
HETATM   13  C16 UNL     1      86.214  74.084  31.262  1.00  0.00     0.276 A 
HETATM   14  C15 UNL     1      87.418  75.762  30.223  1.00  0.00     0.327 A 
ATOM     15  H2  UNL     1      89.183  74.499  29.903  1.00  0.00     0.171 HD
HETATM   16  O2  UNL     1      87.822  76.830  29.712  1.00  0.00    -0.247 OA
HETATM   17  N3  UNL     1      86.184  75.430  30.840  1.00  0.00    -0.274 N 
ATOM     18  H3  UNL     1      85.396  76.066  30.960  1.00  0.00     0.173 HD
HETATM   19  O3  UNL     1      85.308  73.439  31.843  1.00  0.00    -0.266 OA
ENDBRANCH   7  10
BRANCH   1  20
HETATM   20  C8  UNL     1      92.994  69.232  31.851  1.00  0.00     0.022 C 
BRANCH  20  21
HETATM   21  C7  UNL     1      93.380  68.295  32.885  1.00  0.00     0.031 C 
BRANCH  21  22
HETATM   22  C6  UNL     1      94.727  68.476  33.501  1.00  0.00     0.004 C 
BRANCH  22  23
HETATM   23  C5  UNL     1      95.780  68.961  32.596  1.00  0.00     0.000 C 
BRANCH  23  24
HETATM   24  C4  UNL     1      96.369  70.299  32.787  1.00  0.00     0.000 C 
BRANCH  24  25
HETATM   25  C3  UNL     1      96.024  70.951  34.114  1.00  0.00    -0.000 C 
BRANCH  25  26
HETATM   26  C2  UNL     1      95.650  72.406  33.911  1.00  0.00    -0.005 C 
HETATM   27  C1  UNL     1      94.663  72.432  32.741  1.00  0.00     0.005 C 
ENDBRANCH  25  26
ENDBRANCH  24  25
ENDBRANCH  23  24
ENDBRANCH  22  23
ENDBRANCH  21  22
ENDBRANCH  20  21
ENDBRANCH   1  20
TORSDOF 8
ENDMDL
