MODEL 1
REMARK VINA RESULT: -6.904645283      0.000      0.000
REMARK  15 active torsions:
REMARK  status: ('A' for Active; 'I' for Inactive)
REMARK    1  A    between atoms: C1_1  and  C2_2 
REMARK    2  A    between atoms: C1_1  and  C10_11 
REMARK    3  A    between atoms: C2_2  and  C3_3 
REMARK    4  A    between atoms: C3_3  and  C4_4 
REMARK    5  A    between atoms: C4_4  and  C5_5 
REMARK    6  A    between atoms: C10_11  and  C11_12 
REMARK    7  A    between atoms: C11_12  and  N1_13 
REMARK    8  A    between atoms: N1_13  and  C12_15 
REMARK    9  A    between atoms: C12_15  and  C13_16 
REMARK   10  A    between atoms: C13_16  and  C14_17 
REMARK   11  A    between atoms: C14_17  and  C15_18 
REMARK   12  A    between atoms: C15_18  and  N2_19 
REMARK   13  A    between atoms: N2_19  and  C16_21 
REMARK   14  A    between atoms: C16_21  and  C17_22 
REMARK   15  A    between atoms: C17_22  and  N3_23 
ROOT
HETATM    1  N1  UNL     1      -4.087  15.097   9.521  1.00  0.00    -0.421 N 
ATOM      2  H1  UNL     1      -3.755  14.575  10.332  1.00  0.00     0.153 HD
ENDROOT
BRANCH   1   3
HETATM    3  C11 UNL     1      -3.363  16.207   8.979  1.00  0.00     0.113 C 
BRANCH   3   4
HETATM    4  C10 UNL     1      -4.378  16.926   8.054  1.00  0.00     0.019 C 
BRANCH   4   5
HETATM    5  C1  UNL     1      -4.250  18.416   8.330  1.00  0.00     0.002 C 
BRANCH   5   6
HETATM    6  C2  UNL     1      -3.129  18.637   9.316  1.00  0.00     0.000 C 
BRANCH   6   7
HETATM    7  C3  UNL     1      -3.614  19.687  10.300  1.00  0.00     0.002 C 
BRANCH   7   8
HETATM    8  C4  UNL     1      -3.004  19.501  11.644  1.00  0.00     0.032 C 
BRANCH   8   9
HETATM    9  C5  UNL     1      -2.714  20.822  12.315  1.00  0.00     0.121 C 
HETATM   10  C6  UNL     1      -3.082  20.788  13.784  1.00  0.00     0.032 C 
HETATM   11  C7  UNL     1      -2.335  19.619  14.395  1.00  0.00     0.004 C 
HETATM   12  C8  UNL     1      -0.851  19.912  14.232  1.00  0.00     0.026 C 
HETATM   13  C9  UNL     1      -0.519  20.281  12.826  1.00  0.00     0.168 C 
HETATM   14  O1  UNL     1      -1.379  21.149  12.210  1.00  0.00    -0.386 OA
ENDBRANCH   8   9
ENDBRANCH   7   8
ENDBRANCH   6   7
ENDBRANCH   5   6
ENDBRANCH   4   5
ENDBRANCH   3   4
ENDBRANCH   1   3
BRANCH   1  15
HETATM   15  C12 UNL     1      -5.290  14.773   8.859  1.00  0.00     0.113 C 
BRANCH  15  16
HETATM   16  C13 UNL     1      -5.786  13.374   9.054  1.00  0.00     0.021 C 
BRANCH  16  17
HETATM   17  C14 UNL     1      -4.602  12.474   9.374  1.00  0.00     0.021 C 
BRANCH  17  18
HETATM   18  C15 UNL     1      -4.898  11.743  10.648  1.00  0.00     0.114 C 
BRANCH  18  19
HETATM   19  N2  UNL     1      -4.018  12.157  11.723  1.00  0.00    -0.417 N 
ATOM     20  H2  UNL     1      -4.339  12.248  12.687  1.00  0.00     0.153 HD
BRANCH  19  21
HETATM   21  C16 UNL     1      -2.680  12.428  11.341  1.00  0.00     0.158 C 
BRANCH  21  22
HETATM   22  C17 UNL     1      -1.724  12.797  12.416  1.00  0.00     0.077 C 
BRANCH  22  23
HETATM   23  N3  UNL     1      -1.517  14.128  12.740  1.00  0.00    -0.392 N 
HETATM   24  C18 UNL     1      -2.512  14.955  13.268  1.00  0.00     0.122 C 
HETATM   25  C19 UNL     1      -2.248  16.325  12.597  1.00  0.00     0.021 C 
HETATM   26  C20 UNL     1      -0.718  16.272  12.536  1.00  0.00     0.021 C 
HETATM   27  C21 UNL     1      -0.504  14.850  12.072  1.00  0.00     0.122 C 
ENDBRANCH  22  23
ENDBRANCH  21  22
ENDBRANCH  19  21
ENDBRANCH  18  19
ENDBRANCH  17  18
ENDBRANCH  16  17
ENDBRANCH  15  16
ENDBRANCH   1  15
TORSDOF 15
ENDMDL
MODEL 2
REMARK VINA RESULT: -6.772533678      0.760      1.051
REMARK  15 active torsions:
REMARK  status: ('A' for Active; 'I' for Inactive)
REMARK    1  A    between atoms: C1_1  and  C2_2 
REMARK    2  A    between atoms: C1_1  and  C10_11 
REMARK    3  A    between atoms: C2_2  and  C3_3 
REMARK    4  A    between atoms: C3_3  and  C4_4 
REMARK    5  A    between atoms: C4_4  and  C5_5 
REMARK    6  A    between atoms: C10_11  and  C11_12 
REMARK    7  A    between atoms: C11_12  and  N1_13 
REMARK    8  A    between atoms: N1_13  and  C12_15 
REMARK    9  A    between atoms: C12_15  and  C13_16 
REMARK   10  A    between atoms: C13_16  and  C14_17 
REMARK   11  A    between atoms: C14_17  and  C15_18 
REMARK   12  A    between atoms: C15_18  and  N2_19 
REMARK   13  A    between atoms: N2_19  and  C16_21 
REMARK   14  A    between atoms: C16_21  and  C17_22 
REMARK   15  A    between atoms: C17_22  and  N3_23 
ROOT
HETATM    1  N1  UNL     1      -3.150  16.396   8.635  1.00  0.00    -0.421 N 
ATOM      2  H1  UNL     1      -2.153  16.580   8.748  1.00  0.00     0.153 HD
ENDROOT
BRANCH   1   3
HETATM    3  C11 UNL     1      -3.942  17.058   7.643  1.00  0.00     0.113 C 
BRANCH   3   4
HETATM    4  C10 UNL     1      -4.375  18.390   8.308  1.00  0.00     0.019 C 
BRANCH   4   5
HETATM    5  C1  UNL     1      -3.333  19.432   7.932  1.00  0.00     0.002 C 
BRANCH   5   6
HETATM    6  C2  UNL     1      -2.880  20.146   9.182  1.00  0.00     0.000 C 
BRANCH   6   7
HETATM    7  C3  UNL     1      -3.621  19.507  10.343  1.00  0.00     0.002 C 
BRANCH   7   8
HETATM    8  C4  UNL     1      -2.769  19.428  11.560  1.00  0.00     0.032 C 
BRANCH   8   9
HETATM    9  C5  UNL     1      -2.589  20.781  12.206  1.00  0.00     0.121 C 
HETATM   10  C6  UNL     1      -3.112  20.788  13.628  1.00  0.00     0.032 C 
HETATM   11  C7  UNL     1      -2.405  19.665  14.361  1.00  0.00     0.004 C 
HETATM   12  C8  UNL     1      -0.920  19.997  14.346  1.00  0.00     0.026 C 
HETATM   13  C9  UNL     1      -0.448  20.326  12.970  1.00  0.00     0.168 C 
HETATM   14  O1  UNL     1      -1.260  21.144  12.231  1.00  0.00    -0.386 OA
ENDBRANCH   8   9
ENDBRANCH   7   8
ENDBRANCH   6   7
ENDBRANCH   5   6
ENDBRANCH   4   5
ENDBRANCH   3   4
ENDBRANCH   1   3
BRANCH   1  15
HETATM   15  C12 UNL     1      -3.840  15.471   9.447  1.00  0.00     0.113 C 
BRANCH  15  16
HETATM   16  C13 UNL     1      -5.059  14.851   8.838  1.00  0.00     0.021 C 
BRANCH  16  17
HETATM   17  C14 UNL     1      -5.361  13.548   9.564  1.00  0.00     0.021 C 
BRANCH  17  18
HETATM   18  C15 UNL     1      -4.271  12.570   9.245  1.00  0.00     0.114 C 
BRANCH  18  19
HETATM   19  N2  UNL     1      -3.929  11.754  10.394  1.00  0.00    -0.417 N 
ATOM     20  H2  UNL     1      -3.912  10.735  10.353  1.00  0.00     0.153 HD
BRANCH  19  21
HETATM   21  C16 UNL     1      -3.621  12.471  11.577  1.00  0.00     0.158 C 
BRANCH  21  22
HETATM   22  C17 UNL     1      -2.189  12.768  11.843  1.00  0.00     0.077 C 
BRANCH  22  23
HETATM   23  N3  UNL     1      -1.822  13.969  12.426  1.00  0.00    -0.392 N 
HETATM   24  C18 UNL     1      -2.674  14.723  13.237  1.00  0.00     0.122 C 
HETATM   25  C19 UNL     1      -2.344  16.187  12.859  1.00  0.00     0.021 C 
HETATM   26  C20 UNL     1      -0.839  16.037  12.608  1.00  0.00     0.021 C 
HETATM   27  C21 UNL     1      -0.814  14.749  11.819  1.00  0.00     0.122 C 
ENDBRANCH  22  23
ENDBRANCH  21  22
ENDBRANCH  19  21
ENDBRANCH  18  19
ENDBRANCH  17  18
ENDBRANCH  16  17
ENDBRANCH  15  16
ENDBRANCH   1  15
TORSDOF 15
ENDMDL
MODEL 3
REMARK VINA RESULT: -6.675517727      2.983      7.321
REMARK  15 active torsions:
REMARK  status: ('A' for Active; 'I' for Inactive)
REMARK    1  A    between atoms: C1_1  and  C2_2 
REMARK    2  A    between atoms: C1_1  and  C10_11 
REMARK    3  A    between atoms: C2_2  and  C3_3 
REMARK    4  A    between atoms: C3_3  and  C4_4 
REMARK    5  A    between atoms: C4_4  and  C5_5 
REMARK    6  A    between atoms: C10_11  and  C11_12 
REMARK    7  A    between atoms: C11_12  and  N1_13 
REMARK    8  A    between atoms: N1_13  and  C12_15 
REMARK    9  A    between atoms: C12_15  and  C13_16 
REMARK   10  A    between atoms: C13_16  and  C14_17 
REMARK   11  A    between atoms: C14_17  and  C15_18 
REMARK   12  A    between atoms: C15_18  and  N2_19 
REMARK   13  A    between atoms: N2_19  and  C16_21 
REMARK   14  A    between atoms: C16_21  and  C17_22 
REMARK   15  A    between atoms: C17_22  and  N3_23 
ROOT
HETATM    1  N1  UNL     1      -2.055  18.602  13.894  1.00  0.00    -0.421 N 
ATOM      2  H1  UNL     1      -2.903  18.401  14.423  1.00  0.00     0.153 HD
ENDROOT
BRANCH   1   3
HETATM    3  C11 UNL     1      -1.306  17.577  13.233  1.00  0.00     0.113 C 
BRANCH   3   4
HETATM    4  C10 UNL     1      -2.364  16.754  12.455  1.00  0.00     0.019 C 
BRANCH   4   5
HETATM    5  C1  UNL     1      -2.368  15.358  13.056  1.00  0.00     0.002 C 
BRANCH   5   6
HETATM    6  C2  UNL     1      -1.186  14.589  12.519  1.00  0.00     0.000 C 
BRANCH   6   7
HETATM    7  C3  UNL     1      -1.650  13.156  12.321  1.00  0.00     0.002 C 
BRANCH   7   8
HETATM    8  C4  UNL     1      -2.553  13.031  11.145  1.00  0.00     0.032 C 
BRANCH   8   9
HETATM    9  C5  UNL     1      -3.767  12.190  11.459  1.00  0.00     0.121 C 
HETATM   10  C6  UNL     1      -4.965  13.055  11.796  1.00  0.00     0.032 C 
HETATM   11  C7  UNL     1      -5.165  14.001  10.628  1.00  0.00     0.004 C 
HETATM   12  C8  UNL     1      -5.466  13.139   9.411  1.00  0.00     0.026 C 
HETATM   13  C9  UNL     1      -4.458  12.052   9.250  1.00  0.00     0.168 C 
HETATM   14  O1  UNL     1      -4.101  11.385  10.391  1.00  0.00    -0.386 OA
ENDBRANCH   8   9
ENDBRANCH   7   8
ENDBRANCH   6   7
ENDBRANCH   5   6
ENDBRANCH   4   5
ENDBRANCH   3   4
ENDBRANCH   1   3
BRANCH   1  15
HETATM   15  C12 UNL     1      -1.542  19.910  13.765  1.00  0.00     0.113 C 
BRANCH  15  16
HETATM   16  C13 UNL     1      -1.793  20.584  12.452  1.00  0.00     0.021 C 
BRANCH  16  17
HETATM   17  C14 UNL     1      -3.272  20.461  12.114  1.00  0.00     0.021 C 
BRANCH  17  18
HETATM   18  C15 UNL     1      -3.393  19.808  10.770  1.00  0.00     0.114 C 
BRANCH  18  19
HETATM   19  N2  UNL     1      -2.872  20.652   9.713  1.00  0.00    -0.417 N 
ATOM     20  H2  UNL     1      -2.493  21.582   9.894  1.00  0.00     0.153 HD
BRANCH  19  21
HETATM   21  C16 UNL     1      -2.926  20.096   8.411  1.00  0.00     0.158 C 
BRANCH  21  22
HETATM   22  C17 UNL     1      -1.741  19.330   7.945  1.00  0.00     0.077 C 
BRANCH  22  23
HETATM   23  N3  UNL     1      -1.712  17.950   8.060  1.00  0.00    -0.392 N 
HETATM   24  C18 UNL     1      -2.770  17.123   7.675  1.00  0.00     0.122 C 
HETATM   25  C19 UNL     1      -2.780  16.010   8.751  1.00  0.00     0.021 C 
HETATM   26  C20 UNL     1      -1.271  15.898   8.995  1.00  0.00     0.021 C 
HETATM   27  C21 UNL     1      -0.885  17.358   9.040  1.00  0.00     0.122 C 
ENDBRANCH  22  23
ENDBRANCH  21  22
ENDBRANCH  19  21
ENDBRANCH  18  19
ENDBRANCH  17  18
ENDBRANCH  16  17
ENDBRANCH  15  16
ENDBRANCH   1  15
TORSDOF 15
ENDMDL
MODEL 4
REMARK VINA RESULT: -6.596331369      2.544      6.548
REMARK  15 active torsions:
REMARK  status: ('A' for Active; 'I' for Inactive)
REMARK    1  A    between atoms: C1_1  and  C2_2 
REMARK    2  A    between atoms: C1_1  and  C10_11 
REMARK    3  A    between atoms: C2_2  and  C3_3 
REMARK    4  A    between atoms: C3_3  and  C4_4 
REMARK    5  A    between atoms: C4_4  and  C5_5 
REMARK    6  A    between atoms: C10_11  and  C11_12 
REMARK    7  A    between atoms: C11_12  and  N1_13 
REMARK    8  A    between atoms: N1_13  and  C12_15 
REMARK    9  A    between atoms: C12_15  and  C13_16 
REMARK   10  A    between atoms: C13_16  and  C14_17 
REMARK   11  A    between atoms: C14_17  and  C15_18 
REMARK   12  A    between atoms: C15_18  and  N2_19 
REMARK   13  A    between atoms: N2_19  and  C16_21 
REMARK   14  A    between atoms: C16_21  and  C17_22 
REMARK   15  A    between atoms: C17_22  and  N3_23 
ROOT
HETATM    1  N1  UNL     1      -3.306  19.368  10.969  1.00  0.00    -0.421 N 
ATOM      2  H1  UNL     1      -3.317  18.396  11.280  1.00  0.00     0.153 HD
ENDROOT
BRANCH   1   3
HETATM    3  C11 UNL     1      -3.015  19.733   9.616  1.00  0.00     0.113 C 
BRANCH   3   4
HETATM    4  C10 UNL     1      -3.880  18.778   8.754  1.00  0.00     0.019 C 
BRANCH   4   5
HETATM    5  C1  UNL     1      -3.354  17.371   8.990  1.00  0.00     0.002 C 
BRANCH   5   6
HETATM    6  C2  UNL     1      -4.164  16.400   8.167  1.00  0.00     0.000 C 
BRANCH   6   7
HETATM    7  C3  UNL     1      -3.346  15.124   8.067  1.00  0.00     0.002 C 
BRANCH   7   8
HETATM    8  C4  UNL     1      -3.572  14.236   9.239  1.00  0.00     0.032 C 
BRANCH   8   9
HETATM    9  C5  UNL     1      -4.967  13.657   9.241  1.00  0.00     0.121 C 
HETATM   10  C6  UNL     1      -4.937  12.145   9.148  1.00  0.00     0.032 C 
HETATM   11  C7  UNL     1      -4.072  11.652  10.292  1.00  0.00     0.004 C 
HETATM   12  C8  UNL     1      -4.757  12.086  11.580  1.00  0.00     0.026 C 
HETATM   13  C9  UNL     1      -5.102  13.537  11.553  1.00  0.00     0.168 C 
HETATM   14  O1  UNL     1      -5.646  14.007  10.388  1.00  0.00    -0.386 OA
ENDBRANCH   8   9
ENDBRANCH   7   8
ENDBRANCH   6   7
ENDBRANCH   5   6
ENDBRANCH   4   5
ENDBRANCH   3   4
ENDBRANCH   1   3
BRANCH   1  15
HETATM   15  C12 UNL     1      -3.576  20.440  11.845  1.00  0.00     0.113 C 
BRANCH  15  16
HETATM   16  C13 UNL     1      -2.424  20.911  12.676  1.00  0.00     0.021 C 
BRANCH  16  17
HETATM   17  C14 UNL     1      -2.447  20.176  14.008  1.00  0.00     0.021 C 
BRANCH  17  18
HETATM   18  C15 UNL     1      -1.040  19.799  14.361  1.00  0.00     0.114 C 
BRANCH  18  19
HETATM   19  N2  UNL     1      -0.142  19.958  13.235  1.00  0.00    -0.417 N 
ATOM     20  H2  UNL     1       0.000  20.857  12.773  1.00  0.00     0.153 HD
BRANCH  19  21
HETATM   21  C16 UNL     1       0.526  18.779  12.819  1.00  0.00     0.158 C 
BRANCH  21  22
HETATM   22  C17 UNL     1      -0.232  17.830  11.964  1.00  0.00     0.077 C 
BRANCH  22  23
HETATM   23  N3  UNL     1      -0.730  16.653  12.499  1.00  0.00    -0.392 N 
HETATM   24  C18 UNL     1      -0.168  15.398  12.255  1.00  0.00     0.122 C 
HETATM   25  C19 UNL     1      -1.392  14.458  12.149  1.00  0.00     0.021 C 
HETATM   26  C20 UNL     1      -2.297  15.123  13.193  1.00  0.00     0.021 C 
HETATM   27  C21 UNL     1      -2.096  16.581  12.849  1.00  0.00     0.122 C 
ENDBRANCH  22  23
ENDBRANCH  21  22
ENDBRANCH  19  21
ENDBRANCH  18  19
ENDBRANCH  17  18
ENDBRANCH  16  17
ENDBRANCH  15  16
ENDBRANCH   1  15
TORSDOF 15
ENDMDL
MODEL 5
REMARK VINA RESULT: -6.582644368      2.804      7.424
REMARK  15 active torsions:
REMARK  status: ('A' for Active; 'I' for Inactive)
REMARK    1  A    between atoms: C1_1  and  C2_2 
REMARK    2  A    between atoms: C1_1  and  C10_11 
REMARK    3  A    between atoms: C2_2  and  C3_3 
REMARK    4  A    between atoms: C3_3  and  C4_4 
REMARK    5  A    between atoms: C4_4  and  C5_5 
REMARK    6  A    between atoms: C10_11  and  C11_12 
REMARK    7  A    between atoms: C11_12  and  N1_13 
REMARK    8  A    between atoms: N1_13  and  C12_15 
REMARK    9  A    between atoms: C12_15  and  C13_16 
REMARK   10  A    between atoms: C13_16  and  C14_17 
REMARK   11  A    between atoms: C14_17  and  C15_18 
REMARK   12  A    between atoms: C15_18  and  N2_19 
REMARK   13  A    between atoms: N2_19  and  C16_21 
REMARK   14  A    between atoms: C16_21  and  C17_22 
REMARK   15  A    between atoms: C17_22  and  N3_23 
ROOT
HETATM    1  N1  UNL     1      -0.259  17.764  12.427  1.00  0.00    -0.421 N 
ATOM      2  H1  UNL     1       0.449  18.153  11.806  1.00  0.00     0.153 HD
ENDROOT
BRANCH   1   3
HETATM    3  C11 UNL     1      -0.568  16.366  12.453  1.00  0.00     0.113 C 
BRANCH   3   4
HETATM    4  C10 UNL     1      -2.067  16.300  12.842  1.00  0.00     0.019 C 
BRANCH   4   5
HETATM    5  C1  UNL     1      -2.376  14.847  13.167  1.00  0.00     0.002 C 
BRANCH   5   6
HETATM    6  C2  UNL     1      -1.189  13.996  12.787  1.00  0.00     0.000 C 
BRANCH   6   7
HETATM    7  C3  UNL     1      -1.741  12.672  12.290  1.00  0.00     0.002 C 
BRANCH   7   8
HETATM    8  C4  UNL     1      -2.689  12.865  11.160  1.00  0.00     0.032 C 
BRANCH   8   9
HETATM    9  C5  UNL     1      -3.898  11.968  11.284  1.00  0.00     0.121 C 
HETATM   10  C6  UNL     1      -5.137  12.759  11.652  1.00  0.00     0.032 C 
HETATM   11  C7  UNL     1      -5.290  13.844  10.605  1.00  0.00     0.004 C 
HETATM   12  C8  UNL     1      -5.492  13.142   9.270  1.00  0.00     0.026 C 
HETATM   13  C9  UNL     1      -4.448  12.104   9.036  1.00  0.00     0.168 C 
HETATM   14  O1  UNL     1      -4.144  11.302  10.103  1.00  0.00    -0.386 OA
ENDBRANCH   8   9
ENDBRANCH   7   8
ENDBRANCH   6   7
ENDBRANCH   5   6
ENDBRANCH   4   5
ENDBRANCH   3   4
ENDBRANCH   1   3
BRANCH   1  15
HETATM   15  C12 UNL     1      -1.001  18.568  13.318  1.00  0.00     0.113 C 
BRANCH  15  16
HETATM   16  C13 UNL     1      -0.526  19.978  13.475  1.00  0.00     0.021 C 
BRANCH  16  17
HETATM   17  C14 UNL     1      -1.314  20.870  12.526  1.00  0.00     0.021 C 
BRANCH  17  18
HETATM   18  C15 UNL     1      -2.757  20.823  12.928  1.00  0.00     0.114 C 
BRANCH  18  19
HETATM   19  N2  UNL     1      -3.615  20.479  11.811  1.00  0.00    -0.417 N 
ATOM     20  H2  UNL     1      -4.630  20.439  11.895  1.00  0.00     0.153 HD
BRANCH  19  21
HETATM   21  C16 UNL     1      -2.944  20.201  10.594  1.00  0.00     0.158 C 
BRANCH  21  22
HETATM   22  C17 UNL     1      -3.437  19.055   9.787  1.00  0.00     0.077 C 
BRANCH  22  23
HETATM   23  N3  UNL     1      -2.641  17.937   9.602  1.00  0.00    -0.392 N 
HETATM   24  C18 UNL     1      -1.343  17.992   9.090  1.00  0.00     0.122 C 
HETATM   25  C19 UNL     1      -1.241  16.727   8.204  1.00  0.00     0.021 C 
HETATM   26  C20 UNL     1      -2.100  15.775   9.044  1.00  0.00     0.021 C 
HETATM   27  C21 UNL     1      -3.255  16.681   9.401  1.00  0.00     0.122 C 
ENDBRANCH  22  23
ENDBRANCH  21  22
ENDBRANCH  19  21
ENDBRANCH  18  19
ENDBRANCH  17  18
ENDBRANCH  16  17
ENDBRANCH  15  16
ENDBRANCH   1  15
TORSDOF 15
ENDMDL
