MODEL 1
REMARK VINA RESULT: -6.156186490      0.000      0.000
REMARK  5 active torsions:
REMARK  status: ('A' for Active; 'I' for Inactive)
REMARK    1  A    between atoms: C2_2  and  O1_3 
REMARK    2  A    between atoms: C2_2  and  C3_5 
REMARK    3  A    between atoms: C2_2  and  C4_8 
REMARK    4  A    between atoms: C3_5  and  O2_6 
REMARK    5  A    between atoms: C8_13  and  C9_14 
ROOT
HETATM    1  C4  UNL     1       6.457   9.579  23.149  1.00  0.00     0.038 C 
HETATM    2  C5  UNL     1       7.306   9.341  24.373  1.00  0.00    -0.014 C 
HETATM    3  C6  UNL     1       6.881   8.474  25.447  1.00  0.00     0.002 C 
HETATM    4  C7  UNL     1       6.577   7.036  25.462  1.00  0.00     0.154 C 
HETATM    5  O3  UNL     1       7.549   6.182  24.872  1.00  0.00    -0.369 OA
HETATM    6  C8  UNL     1       6.753   5.385  24.012  1.00  0.00     0.081 C 
HETATM    7  C10 UNL     1       7.147   5.301  22.602  1.00  0.00     0.069 C 
HETATM    8  C11 UNL     1       7.036   6.364  21.607  1.00  0.00     0.276 C 
HETATM    9  N1  UNL     1       6.153   7.496  21.912  1.00  0.00     0.095 N 
HETATM   10  C12 UNL     1       6.871   8.812  21.870  1.00  0.00     0.289 C 
HETATM   11  C13 UNL     1       6.093   7.477  23.309  1.00  0.00     0.234 C 
HETATM   12  C14 UNL     1       5.275   8.711  23.486  1.00  0.00     0.055 C 
HETATM   13  C15 UNL     1       5.741   6.515  24.262  1.00  0.00     0.087 C 
ENDROOT
BRANCH   1  14
HETATM   14  C2  UNL     1       6.088  10.982  22.894  1.00  0.00     0.088 C 
HETATM   15  C1  UNL     1       6.795  11.565  21.701  1.00  0.00     0.049 C 
BRANCH  14  16
HETATM   16  O1  UNL     1       4.702  11.032  22.691  1.00  0.00    -0.387 OA
ATOM     17  H1  UNL     1       4.461  10.435  21.994  1.00  0.00     0.210 HD
ENDBRANCH  14  16
BRANCH  14  18
HETATM   18  C3  UNL     1       6.350  11.796  24.143  1.00  0.00     0.202 C 
BRANCH  18  19
HETATM   19  O2  UNL     1       5.572  12.977  24.105  1.00  0.00    -0.398 OA
ATOM     20  H2  UNL     1       6.033  13.674  24.557  1.00  0.00     0.209 HD
ENDBRANCH  18  19
ENDBRANCH  14  18
ENDBRANCH   1  14
BRANCH   6  21
HETATM   21  C9  UNL     1       6.282   4.112  24.623  1.00  0.00     0.124 C 
HETATM   22  S1  UNL     1       6.044   2.829  23.378  1.00  0.00    -0.095 SA
ENDBRANCH   6  21
TORSDOF 5
ENDMDL
MODEL 2
REMARK VINA RESULT: -6.127358954      1.910      2.541
REMARK  5 active torsions:
REMARK  status: ('A' for Active; 'I' for Inactive)
REMARK    1  A    between atoms: C2_2  and  O1_3 
REMARK    2  A    between atoms: C2_2  and  C3_5 
REMARK    3  A    between atoms: C2_2  and  C4_8 
REMARK    4  A    between atoms: C3_5  and  O2_6 
REMARK    5  A    between atoms: C8_13  and  C9_14 
ROOT
HETATM    1  C4  UNL     1       6.261   8.346  24.265  1.00  0.00     0.038 C 
HETATM    2  C5  UNL     1       6.905   7.253  25.081  1.00  0.00    -0.014 C 
HETATM    3  C6  UNL     1       6.435   5.887  25.042  1.00  0.00     0.002 C 
HETATM    4  C7  UNL     1       6.361   4.924  23.935  1.00  0.00     0.154 C 
HETATM    5  O3  UNL     1       7.543   4.763  23.161  1.00  0.00    -0.369 OA
HETATM    6  C8  UNL     1       7.046   4.893  21.839  1.00  0.00     0.081 C 
HETATM    7  C10 UNL     1       7.694   5.875  20.962  1.00  0.00     0.069 C 
HETATM    8  C11 UNL     1       7.599   7.327  21.068  1.00  0.00     0.276 C 
HETATM    9  N1  UNL     1       6.510   7.883  21.882  1.00  0.00     0.095 N 
HETATM   10  C12 UNL     1       7.010   8.772  22.980  1.00  0.00     0.289 C 
HETATM   11  C13 UNL     1       6.205   6.834  22.754  1.00  0.00     0.234 C 
HETATM   12  C14 UNL     1       5.187   7.551  23.573  1.00  0.00     0.055 C 
HETATM   13  C15 UNL     1       5.843   5.493  22.585  1.00  0.00     0.087 C 
ENDROOT
BRANCH   1  14
HETATM   14  C2  UNL     1       5.730   9.484  25.036  1.00  0.00     0.088 C 
HETATM   15  C1  UNL     1       6.238  10.812  24.543  1.00  0.00     0.049 C 
BRANCH  14  16
HETATM   16  O1  UNL     1       4.331   9.452  24.942  1.00  0.00    -0.387 OA
ATOM     17  H1  UNL     1       4.074   9.420  24.028  1.00  0.00     0.210 HD
ENDBRANCH  14  16
BRANCH  14  18
HETATM   18  C3  UNL     1       6.048   9.280  26.501  1.00  0.00     0.202 C 
BRANCH  18  19
HETATM   19  O2  UNL     1       4.988   9.791  27.287  1.00  0.00    -0.398 OA
ATOM     20  H2  UNL     1       4.347   9.106  27.437  1.00  0.00     0.209 HD
ENDBRANCH  18  19
ENDBRANCH  14  18
ENDBRANCH   1  14
BRANCH   6  21
HETATM   21  C9  UNL     1       6.679   3.603  21.197  1.00  0.00     0.124 C 
HETATM   22  S1  UNL     1       7.498   3.400  19.602  1.00  0.00    -0.095 SA
ENDBRANCH   6  21
TORSDOF 5
ENDMDL
MODEL 3
REMARK VINA RESULT: -6.106728301      2.946      5.347
REMARK  5 active torsions:
REMARK  status: ('A' for Active; 'I' for Inactive)
REMARK    1  A    between atoms: C2_2  and  O1_3 
REMARK    2  A    between atoms: C2_2  and  C3_5 
REMARK    3  A    between atoms: C2_2  and  C4_8 
REMARK    4  A    between atoms: C3_5  and  O2_6 
REMARK    5  A    between atoms: C8_13  and  C9_14 
ROOT
HETATM    1  C4  UNL     1       6.756   8.788  24.357  1.00  0.00     0.038 C 
HETATM    2  C5  UNL     1       5.856   9.956  24.673  1.00  0.00    -0.014 C 
HETATM    3  C6  UNL     1       6.202  11.312  24.316  1.00  0.00     0.002 C 
HETATM    4  C7  UNL     1       6.435  11.934  23.005  1.00  0.00     0.154 C 
HETATM    5  O3  UNL     1       5.443  11.700  22.013  1.00  0.00    -0.369 OA
HETATM    6  C8  UNL     1       6.229  11.287  20.907  1.00  0.00     0.081 C 
HETATM    7  C10 UNL     1       5.878  10.018  20.260  1.00  0.00     0.069 C 
HETATM    8  C11 UNL     1       6.074   8.681  20.812  1.00  0.00     0.276 C 
HETATM    9  N1  UNL     1       7.000   8.536  21.942  1.00  0.00     0.095 N 
HETATM   10  C12 UNL     1       6.349   7.920  23.143  1.00  0.00     0.289 C 
HETATM   11  C13 UNL     1       7.013   9.818  22.500  1.00  0.00     0.234 C 
HETATM   12  C14 UNL     1       7.883   9.512  23.671  1.00  0.00     0.055 C 
HETATM   13  C15 UNL     1       7.285  11.100  22.009  1.00  0.00     0.087 C 
ENDROOT
BRANCH   1  14
HETATM   14  C2  UNL     1       7.201   7.996  25.517  1.00  0.00     0.088 C 
HETATM   15  C1  UNL     1       6.066   7.586  26.416  1.00  0.00     0.049 C 
BRANCH  14  16
HETATM   16  O1  UNL     1       7.855   6.855  25.034  1.00  0.00    -0.387 OA
ATOM     17  H1  UNL     1       8.565   6.622  25.619  1.00  0.00     0.210 HD
ENDBRANCH  14  16
BRANCH  14  18
HETATM   18  C3  UNL     1       8.250   8.779  26.276  1.00  0.00     0.202 C 
BRANCH  18  19
HETATM   19  O2  UNL     1       9.469   8.061  26.267  1.00  0.00    -0.398 OA
ATOM     20  H2  UNL     1       9.589   7.655  25.417  1.00  0.00     0.209 HD
ENDBRANCH  18  19
ENDBRANCH  14  18
ENDBRANCH   1  14
BRANCH   6  21
HETATM   21  C9  UNL     1       6.616  12.390  19.988  1.00  0.00     0.124 C 
HETATM   22  S1  UNL     1       5.575  12.421  18.515  1.00  0.00    -0.095 SA
ENDBRANCH   6  21
TORSDOF 5
ENDMDL
MODEL 4
REMARK VINA RESULT: -6.072295334      3.315      5.440
REMARK  5 active torsions:
REMARK  status: ('A' for Active; 'I' for Inactive)
REMARK    1  A    between atoms: C2_2  and  O1_3 
REMARK    2  A    between atoms: C2_2  and  C3_5 
REMARK    3  A    between atoms: C2_2  and  C4_8 
REMARK    4  A    between atoms: C3_5  and  O2_6 
REMARK    5  A    between atoms: C8_13  and  C9_14 
ROOT
HETATM    1  C4  UNL     1       6.808   8.645  23.947  1.00  0.00     0.038 C 
HETATM    2  C5  UNL     1       7.075   7.852  22.692  1.00  0.00    -0.014 C 
HETATM    3  C6  UNL     1       6.066   7.657  21.677  1.00  0.00     0.002 C 
HETATM    4  C7  UNL     1       5.349   8.622  20.833  1.00  0.00     0.154 C 
HETATM    5  O3  UNL     1       6.149   9.581  20.154  1.00  0.00    -0.369 OA
HETATM    6  C8  UNL     1       5.487  10.793  20.473  1.00  0.00     0.081 C 
HETATM    7  C10 UNL     1       6.290  11.875  21.053  1.00  0.00     0.069 C 
HETATM    8  C11 UNL     1       6.856  11.908  22.399  1.00  0.00     0.276 C 
HETATM    9  N1  UNL     1       6.316  10.970  23.391  1.00  0.00     0.095 N 
HETATM   10  C12 UNL     1       7.373  10.086  23.979  1.00  0.00     0.289 C 
HETATM   11  C13 UNL     1       5.783   9.950  22.597  1.00  0.00     0.234 C 
HETATM   12  C14 UNL     1       5.376   9.036  23.703  1.00  0.00     0.055 C 
HETATM   13  C15 UNL     1       4.851   9.904  21.554  1.00  0.00     0.087 C 
ENDROOT
BRANCH   1  14
HETATM   14  C2  UNL     1       6.998   7.915  25.212  1.00  0.00     0.088 C 
HETATM   15  C1  UNL     1       5.701   7.597  25.906  1.00  0.00     0.049 C 
BRANCH  14  16
HETATM   16  O1  UNL     1       7.681   6.725  24.924  1.00  0.00    -0.387 OA
ATOM     17  H1  UNL     1       7.843   6.669  23.990  1.00  0.00     0.210 HD
ENDBRANCH  14  16
BRANCH  14  18
HETATM   18  C3  UNL     1       7.922   8.712  26.108  1.00  0.00     0.202 C 
BRANCH  18  19
HETATM   19  O2  UNL     1       9.205   8.114  26.109  1.00  0.00    -0.398 OA
ATOM     20  H2  UNL     1       9.838   8.727  26.464  1.00  0.00     0.209 HD
ENDBRANCH  18  19
ENDBRANCH  14  18
ENDBRANCH   1  14
BRANCH   6  21
HETATM   21  C9  UNL     1       4.471  11.215  19.473  1.00  0.00     0.124 C 
HETATM   22  S1  UNL     1       5.054  12.605  18.482  1.00  0.00    -0.095 SA
ENDBRANCH   6  21
TORSDOF 5
ENDMDL
MODEL 5
REMARK VINA RESULT: -5.996926063      3.279      4.406
REMARK  5 active torsions:
REMARK  status: ('A' for Active; 'I' for Inactive)
REMARK    1  A    between atoms: C2_2  and  O1_3 
REMARK    2  A    between atoms: C2_2  and  C3_5 
REMARK    3  A    between atoms: C2_2  and  C4_8 
REMARK    4  A    between atoms: C3_5  and  O2_6 
REMARK    5  A    between atoms: C8_13  and  C9_14 
ROOT
HETATM    1  C4  UNL     1       6.382   8.895  24.292  1.00  0.00     0.038 C 
HETATM    2  C5  UNL     1       5.664   9.962  25.079  1.00  0.00    -0.014 C 
HETATM    3  C6  UNL     1       4.940   9.665  26.293  1.00  0.00     0.002 C 
HETATM    4  C7  UNL     1       5.398   9.120  27.579  1.00  0.00     0.154 C 
HETATM    5  O3  UNL     1       6.536   9.746  28.158  1.00  0.00    -0.369 OA
HETATM    6  C8  UNL     1       7.358   8.632  28.463  1.00  0.00     0.081 C 
HETATM    7  C10 UNL     1       8.737   8.645  27.962  1.00  0.00     0.069 C 
HETATM    8  C11 UNL     1       9.154   8.487  26.572  1.00  0.00     0.276 C 
HETATM    9  N1  UNL     1       8.182   7.925  25.626  1.00  0.00     0.095 N 
HETATM   10  C12 UNL     1       7.919   8.835  24.464  1.00  0.00     0.289 C 
HETATM   11  C13 UNL     1       6.955   8.208  26.235  1.00  0.00     0.234 C 
HETATM   12  C14 UNL     1       6.075   7.696  25.146  1.00  0.00     0.055 C 
HETATM   13  C15 UNL     1       6.396   7.934  27.488  1.00  0.00     0.087 C 
ENDROOT
BRANCH   1  14
HETATM   14  C2  UNL     1       5.946   8.734  22.894  1.00  0.00     0.088 C 
HETATM   15  C1  UNL     1       7.084   8.439  21.955  1.00  0.00     0.049 C 
BRANCH  14  16
HETATM   16  O1  UNL     1       5.017   7.685  22.851  1.00  0.00    -0.387 OA
ATOM     17  H1  UNL     1       4.200   7.998  22.483  1.00  0.00     0.210 HD
ENDBRANCH  14  16
BRANCH  14  18
HETATM   18  C3  UNL     1       5.186   9.972  22.468  1.00  0.00     0.202 C 
BRANCH  18  19
HETATM   19  O2  UNL     1       4.377   9.665  21.349  1.00  0.00    -0.398 OA
ATOM     20  H2  UNL     1       3.461   9.739  21.591  1.00  0.00     0.209 HD
ENDBRANCH  18  19
ENDBRANCH  14  18
ENDBRANCH   1  14
BRANCH   6  21
HETATM   21  C9  UNL     1       7.183   8.105  29.843  1.00  0.00     0.124 C 
HETATM   22  S1  UNL     1       8.771   7.779  30.634  1.00  0.00    -0.095 SA
ENDBRANCH   6  21
TORSDOF 5
ENDMDL
