MODEL 1
REMARK VINA RESULT: -7.413015336      0.000      0.000
REMARK  6 active torsions:
REMARK  status: ('A' for Active; 'I' for Inactive)
REMARK    1  A    between atoms: C2_2  and  N1_3 
REMARK    2  A    between atoms: N1_3  and  C3_5 
REMARK    3  A    between atoms: C3_5  and  N2_7 
REMARK    4  A    between atoms: N2_7  and  N3_9 
REMARK       I    between atoms: N3_9  and  C4_11 
REMARK    5  A    between atoms: C4_11  and  C5_13 
REMARK    6  A    between atoms: C5_13  and  C6_14 
ROOT
HETATM    1  N3  UNL     1      27.503  13.077  25.088  1.00  0.00    -0.268 N 
ATOM      2  H3  UNL     1      27.308  13.533  25.979  1.00  0.00     0.190 HD
HETATM    3  C4  UNL     1      26.526  12.285  24.450  1.00  0.00     0.240 C 
HETATM    4  O1  UNL     1      26.777  11.738  23.359  1.00  0.00    -0.272 OA
ENDROOT
BRANCH   3   5
HETATM    5  C5  UNL     1      25.206  12.118  25.099  1.00  0.00     0.145 C 
BRANCH   5   6
HETATM    6  C6  UNL     1      24.674  10.768  24.945  1.00  0.00    -0.026 A 
HETATM    7  C7  UNL     1      23.777  10.439  23.963  1.00  0.00    -0.053 A 
HETATM    8  C8  UNL     1      23.287  11.461  23.018  1.00  0.00     0.049 C 
HETATM    9  C9  UNL     1      23.317   9.139  23.850  1.00  0.00     0.014 A 
HETATM   10  C10 UNL     1      23.765   8.173  24.735  1.00  0.00    -0.060 A 
HETATM   11  C11 UNL     1      23.258   6.782  24.594  1.00  0.00     0.048 C 
HETATM   12  C12 UNL     1      24.666   8.470  25.733  1.00  0.00     0.026 A 
HETATM   13  C13 UNL     1      25.096   9.775  25.808  1.00  0.00     0.018 A 
HETATM   14 BR1  UNL     1      26.356  10.206  27.196  1.00  0.00    -0.051 Br
ENDBRANCH   5   6
ENDBRANCH   3   5
BRANCH   1  15
HETATM   15  N2  UNL     1      28.753  13.220  24.459  1.00  0.00    -0.274 N 
ATOM     16  H2  UNL     1      29.392  12.431  24.357  1.00  0.00     0.189 HD
BRANCH  15  17
HETATM   17  C3  UNL     1      29.085  14.513  23.972  1.00  0.00     0.186 C 
HETATM   18  S1  UNL     1      30.345  15.361  24.562  1.00  0.00    -0.040 SA
BRANCH  17  19
HETATM   19  N1  UNL     1      28.295  15.077  22.943  1.00  0.00    -0.366 N 
ATOM     20  H1  UNL     1      27.293  15.207  23.082  1.00  0.00     0.161 HD
BRANCH  19  21
HETATM   21  C2  UNL     1      28.914  15.474  21.687  1.00  0.00     0.117 C 
HETATM   22  C1  UNL     1      29.356  14.212  20.988  1.00  0.00     0.026 C 
ENDBRANCH  19  21
ENDBRANCH  17  19
ENDBRANCH  15  17
ENDBRANCH   1  15
TORSDOF 6
ENDMDL
MODEL 2
REMARK VINA RESULT: -7.377419000      1.245      1.479
REMARK  6 active torsions:
REMARK  status: ('A' for Active; 'I' for Inactive)
REMARK    1  A    between atoms: C2_2  and  N1_3 
REMARK    2  A    between atoms: N1_3  and  C3_5 
REMARK    3  A    between atoms: C3_5  and  N2_7 
REMARK    4  A    between atoms: N2_7  and  N3_9 
REMARK       I    between atoms: N3_9  and  C4_11 
REMARK    5  A    between atoms: C4_11  and  C5_13 
REMARK    6  A    between atoms: C5_13  and  C6_14 
ROOT
HETATM    1  N3  UNL     1      27.211  13.495  24.678  1.00  0.00    -0.268 N 
ATOM      2  H3  UNL     1      26.934  14.125  25.431  1.00  0.00     0.190 HD
HETATM    3  C4  UNL     1      26.387  12.416  24.295  1.00  0.00     0.240 C 
HETATM    4  O1  UNL     1      26.737  11.657  23.370  1.00  0.00    -0.272 OA
ENDROOT
BRANCH   3   5
HETATM    5  C5  UNL     1      25.108  12.205  25.010  1.00  0.00     0.145 C 
BRANCH   5   6
HETATM    6  C6  UNL     1      24.617  10.837  24.886  1.00  0.00    -0.026 A 
HETATM    7  C7  UNL     1      23.734  10.458  23.910  1.00  0.00    -0.053 A 
HETATM    8  C8  UNL     1      23.217  11.443  22.940  1.00  0.00     0.049 C 
HETATM    9  C9  UNL     1      23.313   9.143  23.826  1.00  0.00     0.014 A 
HETATM   10  C10 UNL     1      23.787   8.211  24.735  1.00  0.00    -0.060 A 
HETATM   11  C11 UNL     1      23.323   6.803  24.625  1.00  0.00     0.048 C 
HETATM   12  C12 UNL     1      24.675   8.559  25.728  1.00  0.00     0.026 A 
HETATM   13  C13 UNL     1      25.066   9.877  25.773  1.00  0.00     0.018 A 
HETATM   14 BR1  UNL     1      26.308  10.378  27.154  1.00  0.00    -0.051 Br
ENDBRANCH   5   6
ENDBRANCH   3   5
BRANCH   1  15
HETATM   15  N2  UNL     1      28.425  13.676  23.991  1.00  0.00    -0.274 N 
ATOM     16  H2  UNL     1      29.218  13.050  24.135  1.00  0.00     0.189 HD
BRANCH  15  17
HETATM   17  C3  UNL     1      28.498  14.772  23.089  1.00  0.00     0.186 C 
HETATM   18  S1  UNL     1      29.238  14.651  21.643  1.00  0.00    -0.040 SA
BRANCH  17  19
HETATM   19  N1  UNL     1      27.910  16.002  23.463  1.00  0.00    -0.366 N 
ATOM     20  H1  UNL     1      27.813  16.243  24.449  1.00  0.00     0.161 HD
BRANCH  19  21
HETATM   21  C2  UNL     1      27.444  16.926  22.439  1.00  0.00     0.117 C 
HETATM   22  C1  UNL     1      27.805  18.318  22.894  1.00  0.00     0.026 C 
ENDBRANCH  19  21
ENDBRANCH  17  19
ENDBRANCH  15  17
ENDBRANCH   1  15
TORSDOF 6
ENDMDL
MODEL 3
REMARK VINA RESULT: -7.356766144      1.404      1.861
REMARK  6 active torsions:
REMARK  status: ('A' for Active; 'I' for Inactive)
REMARK    1  A    between atoms: C2_2  and  N1_3 
REMARK    2  A    between atoms: N1_3  and  C3_5 
REMARK    3  A    between atoms: C3_5  and  N2_7 
REMARK    4  A    between atoms: N2_7  and  N3_9 
REMARK       I    between atoms: N3_9  and  C4_11 
REMARK    5  A    between atoms: C4_11  and  C5_13 
REMARK    6  A    between atoms: C5_13  and  C6_14 
ROOT
HETATM    1  N3  UNL     1      27.888  12.769  25.403  1.00  0.00    -0.268 N 
ATOM      2  H3  UNL     1      27.786  13.050  26.377  1.00  0.00     0.190 HD
HETATM    3  C4  UNL     1      26.795  12.246  24.680  1.00  0.00     0.240 C 
HETATM    4  O1  UNL     1      26.935  11.912  23.487  1.00  0.00    -0.272 OA
ENDROOT
BRANCH   3   5
HETATM    5  C5  UNL     1      25.489  12.106  25.363  1.00  0.00     0.145 C 
BRANCH   5   6
HETATM    6  C6  UNL     1      24.879  10.800  25.137  1.00  0.00    -0.026 A 
HETATM    7  C7  UNL     1      23.975  10.574  24.132  1.00  0.00    -0.053 A 
HETATM    8  C8  UNL     1      23.559  11.669  23.235  1.00  0.00     0.049 C 
HETATM    9  C9  UNL     1      23.439   9.312  23.952  1.00  0.00     0.014 A 
HETATM   10  C10 UNL     1      23.818   8.278  24.792  1.00  0.00    -0.060 A 
HETATM   11  C11 UNL     1      23.230   6.929  24.578  1.00  0.00     0.048 C 
HETATM   12  C12 UNL     1      24.723   8.471  25.811  1.00  0.00     0.026 A 
HETATM   13  C13 UNL     1      25.230   9.742  25.954  1.00  0.00     0.018 A 
HETATM   14 BR1  UNL     1      26.497  10.028  27.372  1.00  0.00    -0.051 Br
ENDBRANCH   5   6
ENDBRANCH   3   5
BRANCH   1  15
HETATM   15  N2  UNL     1      29.123  12.891  24.739  1.00  0.00    -0.274 N 
ATOM     16  H2  UNL     1      29.622  12.073  24.388  1.00  0.00     0.189 HD
BRANCH  15  17
HETATM   17  C3  UNL     1      29.643  14.204  24.580  1.00  0.00     0.186 C 
HETATM   18  S1  UNL     1      28.882  15.331  23.684  1.00  0.00    -0.040 SA
BRANCH  17  19
HETATM   19  N1  UNL     1      30.859  14.537  25.220  1.00  0.00    -0.366 N 
ATOM     20  H1  UNL     1      30.997  14.310  26.205  1.00  0.00     0.161 HD
BRANCH  19  21
HETATM   21  C2  UNL     1      31.915  15.202  24.472  1.00  0.00     0.117 C 
HETATM   22  C1  UNL     1      32.289  16.448  25.238  1.00  0.00     0.026 C 
ENDBRANCH  19  21
ENDBRANCH  17  19
ENDBRANCH  15  17
ENDBRANCH   1  15
TORSDOF 6
ENDMDL
MODEL 4
REMARK VINA RESULT: -7.301392941      1.157      1.273
REMARK  6 active torsions:
REMARK  status: ('A' for Active; 'I' for Inactive)
REMARK    1  A    between atoms: C2_2  and  N1_3 
REMARK    2  A    between atoms: N1_3  and  C3_5 
REMARK    3  A    between atoms: C3_5  and  N2_7 
REMARK    4  A    between atoms: N2_7  and  N3_9 
REMARK       I    between atoms: N3_9  and  C4_11 
REMARK    5  A    between atoms: C4_11  and  C5_13 
REMARK    6  A    between atoms: C5_13  and  C6_14 
ROOT
HETATM    1  N3  UNL     1      27.139  13.634  24.469  1.00  0.00    -0.268 N 
ATOM      2  H3  UNL     1      26.844  14.318  25.165  1.00  0.00     0.190 HD
HETATM    3  C4  UNL     1      26.390  12.461  24.240  1.00  0.00     0.240 C 
HETATM    4  O1  UNL     1      26.761  11.637  23.381  1.00  0.00    -0.272 OA
ENDROOT
BRANCH   3   5
HETATM    5  C5  UNL     1      25.162  12.231  25.035  1.00  0.00     0.145 C 
BRANCH   5   6
HETATM    6  C6  UNL     1      24.660  10.868  24.907  1.00  0.00    -0.026 A 
HETATM    7  C7  UNL     1      23.763  10.502  23.938  1.00  0.00    -0.053 A 
HETATM    8  C8  UNL     1      23.242  11.497  22.982  1.00  0.00     0.049 C 
HETATM    9  C9  UNL     1      23.332   9.191  23.850  1.00  0.00     0.014 A 
HETATM   10  C10 UNL     1      23.810   8.249  24.746  1.00  0.00    -0.060 A 
HETATM   11  C11 UNL     1      23.334   6.845  24.631  1.00  0.00     0.048 C 
HETATM   12  C12 UNL     1      24.712   8.583  25.731  1.00  0.00     0.026 A 
HETATM   13  C13 UNL     1      25.113   9.898  25.782  1.00  0.00     0.018 A 
HETATM   14 BR1  UNL     1      26.374  10.380  27.151  1.00  0.00    -0.051 Br
ENDBRANCH   5   6
ENDBRANCH   3   5
BRANCH   1  15
HETATM   15  N2  UNL     1      28.305  13.833  23.707  1.00  0.00    -0.274 N 
ATOM     16  H2  UNL     1      29.030  13.117  23.644  1.00  0.00     0.189 HD
BRANCH  15  17
HETATM   17  C3  UNL     1      28.429  15.076  23.029  1.00  0.00     0.186 C 
HETATM   18  S1  UNL     1      27.371  16.293  23.258  1.00  0.00    -0.040 SA
BRANCH  17  19
HETATM   19  N1  UNL     1      29.504  15.256  22.128  1.00  0.00    -0.366 N 
ATOM     20  H1  UNL     1      30.243  14.557  22.068  1.00  0.00     0.161 HD
BRANCH  19  21
HETATM   21  C2  UNL     1      29.553  16.442  21.284  1.00  0.00     0.117 C 
HETATM   22  C1  UNL     1      30.709  17.285  21.765  1.00  0.00     0.026 C 
ENDBRANCH  19  21
ENDBRANCH  17  19
ENDBRANCH  15  17
ENDBRANCH   1  15
TORSDOF 6
ENDMDL
MODEL 5
REMARK VINA RESULT: -7.264331256      1.888      2.613
REMARK  6 active torsions:
REMARK  status: ('A' for Active; 'I' for Inactive)
REMARK    1  A    between atoms: C2_2  and  N1_3 
REMARK    2  A    between atoms: N1_3  and  C3_5 
REMARK    3  A    between atoms: C3_5  and  N2_7 
REMARK    4  A    between atoms: N2_7  and  N3_9 
REMARK       I    between atoms: N3_9  and  C4_11 
REMARK    5  A    between atoms: C4_11  and  C5_13 
REMARK    6  A    between atoms: C5_13  and  C6_14 
ROOT
HETATM    1  N3  UNL     1      28.142  12.023  25.124  1.00  0.00    -0.268 N 
ATOM      2  H3  UNL     1      27.480  12.648  24.663  1.00  0.00     0.190 HD
HETATM    3  C4  UNL     1      27.746  11.225  26.218  1.00  0.00     0.240 C 
HETATM    4  O1  UNL     1      28.566  10.464  26.767  1.00  0.00    -0.272 OA
ENDROOT
BRANCH   3   5
HETATM    5  C5  UNL     1      26.347  11.311  26.695  1.00  0.00     0.145 C 
BRANCH   5   6
HETATM    6  C6  UNL     1      25.464  10.377  26.006  1.00  0.00    -0.026 A 
HETATM    7  C7  UNL     1      25.301   9.080  26.416  1.00  0.00    -0.053 A 
HETATM    8  C8  UNL     1      26.045   8.560  27.578  1.00  0.00     0.049 C 
HETATM    9  C9  UNL     1      24.437   8.240  25.736  1.00  0.00     0.014 A 
HETATM   10  C10 UNL     1      23.737   8.716  24.640  1.00  0.00    -0.060 A 
HETATM   11  C11 UNL     1      22.813   7.796  23.926  1.00  0.00     0.048 C 
HETATM   12  C12 UNL     1      23.877  10.014  24.202  1.00  0.00     0.026 A 
HETATM   13  C13 UNL     1      24.747  10.813  24.907  1.00  0.00     0.018 A 
HETATM   14 BR1  UNL     1      24.952  12.630  24.310  1.00  0.00    -0.051 Br
ENDBRANCH   5   6
ENDBRANCH   3   5
BRANCH   1  15
HETATM   15  N2  UNL     1      29.477  11.933  24.687  1.00  0.00    -0.274 N 
ATOM     16  H2  UNL     1      29.990  11.052  24.723  1.00  0.00     0.189 HD
BRANCH  15  17
HETATM   17  C3  UNL     1      30.076  13.123  24.194  1.00  0.00     0.186 C 
HETATM   18  S1  UNL     1      30.239  14.455  25.117  1.00  0.00    -0.040 SA
BRANCH  17  19
HETATM   19  N1  UNL     1      30.544  13.147  22.859  1.00  0.00    -0.366 N 
ATOM     20  H1  UNL     1      31.545  13.187  22.669  1.00  0.00     0.161 HD
BRANCH  19  21
HETATM   21  C2  UNL     1      29.595  13.114  21.756  1.00  0.00     0.117 C 
HETATM   22  C1  UNL     1      29.252  14.545  21.418  1.00  0.00     0.026 C 
ENDBRANCH  19  21
ENDBRANCH  17  19
ENDBRANCH  15  17
ENDBRANCH   1  15
TORSDOF 6
ENDMDL
