MODEL 1
REMARK VINA RESULT: -8.277543505      0.000      0.000
REMARK  3 active torsions:
REMARK  status: ('A' for Active; 'I' for Inactive)
REMARK       I    between atoms: N1_2  and  C2_4 
REMARK       I    between atoms: C2_4  and  N2_6 
REMARK    1  A    between atoms: N2_6  and  C3_8 
REMARK    2  A    between atoms: C11_16  and  C12_17 
REMARK    3  A    between atoms: C12_17  and  N3_18 
REMARK       I    between atoms: N3_18  and  C13_20 
REMARK       I    between atoms: C13_20  and  N4_22 
ROOT
HETATM    1  C3  UNL     1      29.789  15.070  22.939  1.00  0.00     0.037 C 
HETATM    2  C4  UNL     1      29.503  14.162  21.762  1.00  0.00     0.033 C 
HETATM    3  C5  UNL     1      29.222  12.742  22.138  1.00  0.00     0.034 C 
HETATM    4  C6  UNL     1      28.430  12.569  23.392  1.00  0.00     0.123 C 
HETATM    5  C7  UNL     1      29.414  12.274  24.503  1.00  0.00     0.037 C 
HETATM    6  C8  UNL     1      29.983  13.586  24.993  1.00  0.00    -0.007 C 
HETATM    7  C9  UNL     1      30.664  14.383  23.960  1.00  0.00     0.036 C 
HETATM    8  C10 UNL     1      28.808  14.357  25.547  1.00  0.00     0.044 C 
HETATM    9  C11 UNL     1      27.846  14.604  24.400  1.00  0.00     0.080 C 
HETATM   10  C16 UNL     1      28.526  15.618  23.505  1.00  0.00     0.070 C 
HETATM   11  O3  UNL     1      27.518  13.519  23.673  1.00  0.00    -0.373 OA
ENDROOT
BRANCH   9  12
HETATM   12  C12 UNL     1      26.598  15.153  25.033  1.00  0.00     0.162 C 
BRANCH  12  13
HETATM   13  N3  UNL     1      26.801  15.812  26.275  1.00  0.00    -0.340 N 
HETATM   14  C13 UNL     1      26.386  17.150  26.418  1.00  0.00     0.317 C 
HETATM   15  O2  UNL     1      25.849  17.734  25.451  1.00  0.00    -0.247 OA
HETATM   16  N4  UNL     1      26.549  17.888  27.622  1.00  0.00    -0.343 N 
HETATM   17  C14 UNL     1      27.165  17.274  28.775  1.00  0.00     0.154 C 
HETATM   18  C15 UNL     1      26.108  19.264  27.739  1.00  0.00     0.154 C 
ATOM     19  H3  UNL     1      27.240  15.322  27.054  1.00  0.00     0.164 HD
ENDBRANCH  12  13
ENDBRANCH   9  12
BRANCH   1  20
HETATM   20  N2  UNL     1      30.570  16.179  22.419  1.00  0.00    -0.334 N 
HETATM   21  C2  UNL     1      30.109  17.169  21.537  1.00  0.00     0.316 C 
HETATM   22  N1  UNL     1      30.945  18.235  21.075  1.00  0.00    -0.347 N 
HETATM   23  O1  UNL     1      28.933  17.149  21.121  1.00  0.00    -0.247 OA
HETATM   24  C1  UNL     1      30.461  19.248  20.168  1.00  0.00     0.151 C 
ATOM     25  H1  UNL     1      31.912  18.280  21.397  1.00  0.00     0.163 HD
ATOM     26  H2  UNL     1      31.541  16.244  22.723  1.00  0.00     0.165 HD
ENDBRANCH   1  20
TORSDOF 3
ENDMDL
MODEL 2
REMARK VINA RESULT: -8.260006350      1.421      1.809
REMARK  3 active torsions:
REMARK  status: ('A' for Active; 'I' for Inactive)
REMARK       I    between atoms: N1_2  and  C2_4 
REMARK       I    between atoms: C2_4  and  N2_6 
REMARK    1  A    between atoms: N2_6  and  C3_8 
REMARK    2  A    between atoms: C11_16  and  C12_17 
REMARK    3  A    between atoms: C12_17  and  N3_18 
REMARK       I    between atoms: N3_18  and  C13_20 
REMARK       I    between atoms: C13_20  and  N4_22 
ROOT
HETATM    1  C3  UNL     1      29.017  17.169  22.331  1.00  0.00     0.037 C 
HETATM    2  C4  UNL     1      28.875  16.281  21.113  1.00  0.00     0.033 C 
HETATM    3  C5  UNL     1      29.262  14.856  21.346  1.00  0.00     0.034 C 
HETATM    4  C6  UNL     1      28.880  14.313  22.685  1.00  0.00     0.123 C 
HETATM    5  C7  UNL     1      30.109  14.396  23.565  1.00  0.00     0.037 C 
HETATM    6  C8  UNL     1      30.202  15.802  24.115  1.00  0.00    -0.007 C 
HETATM    7  C9  UNL     1      30.283  16.856  23.091  1.00  0.00     0.036 C 
HETATM    8  C10 UNL     1      28.960  15.993  24.954  1.00  0.00     0.044 C 
HETATM    9  C11 UNL     1      27.764  15.877  24.028  1.00  0.00     0.080 C 
HETATM   10  C16 UNL     1      27.788  17.122  23.168  1.00  0.00     0.070 C 
HETATM   11  O3  UNL     1      27.748  14.788  23.235  1.00  0.00    -0.373 OA
ENDROOT
BRANCH   9  12
HETATM   12  C12 UNL     1      26.561  15.832  24.929  1.00  0.00     0.162 C 
BRANCH  12  13
HETATM   13  N3  UNL     1      26.775  16.354  26.233  1.00  0.00    -0.340 N 
HETATM   14  C13 UNL     1      26.085  17.516  26.629  1.00  0.00     0.317 C 
HETATM   15  O2  UNL     1      25.300  18.068  25.827  1.00  0.00    -0.247 OA
HETATM   16  N4  UNL     1      26.236  18.108  27.912  1.00  0.00    -0.343 N 
HETATM   17  C14 UNL     1      27.130  17.523  28.884  1.00  0.00     0.154 C 
HETATM   18  C15 UNL     1      25.510  19.304  28.291  1.00  0.00     0.154 C 
ATOM     19  H3  UNL     1      27.418  15.892  26.875  1.00  0.00     0.164 HD
ENDBRANCH  12  13
ENDBRANCH   9  12
BRANCH   1  20
HETATM   20  N2  UNL     1      29.172  18.525  21.832  1.00  0.00    -0.334 N 
HETATM   21  C2  UNL     1      29.992  18.921  20.763  1.00  0.00     0.316 C 
HETATM   22  N1  UNL     1      30.084  20.282  20.329  1.00  0.00    -0.347 N 
HETATM   23  O1  UNL     1      30.679  18.081  20.147  1.00  0.00    -0.247 OA
HETATM   24  C1  UNL     1      30.930  20.678  19.229  1.00  0.00     0.151 C 
ATOM     25  H1  UNL     1      29.534  20.993  20.812  1.00  0.00     0.163 HD
ATOM     26  H2  UNL     1      28.636  19.255  22.301  1.00  0.00     0.165 HD
ENDBRANCH   1  20
TORSDOF 3
ENDMDL
MODEL 3
REMARK VINA RESULT: -8.198929346      3.372      6.417
REMARK  3 active torsions:
REMARK  status: ('A' for Active; 'I' for Inactive)
REMARK       I    between atoms: N1_2  and  C2_4 
REMARK       I    between atoms: C2_4  and  N2_6 
REMARK    1  A    between atoms: N2_6  and  C3_8 
REMARK    2  A    between atoms: C11_16  and  C12_17 
REMARK    3  A    between atoms: C12_17  and  N3_18 
REMARK       I    between atoms: N3_18  and  C13_20 
REMARK       I    between atoms: C13_20  and  N4_22 
ROOT
HETATM    1  C3  UNL     1      26.924  11.629  26.506  1.00  0.00     0.037 C 
HETATM    2  C4  UNL     1      26.045  10.439  26.183  1.00  0.00     0.033 C 
HETATM    3  C5  UNL     1      24.939  10.738  25.222  1.00  0.00     0.034 C 
HETATM    4  C6  UNL     1      25.298  11.689  24.127  1.00  0.00     0.123 C 
HETATM    5  C7  UNL     1      24.798  13.056  24.543  1.00  0.00     0.037 C 
HETATM    6  C8  UNL     1      25.821  13.672  25.471  1.00  0.00    -0.007 C 
HETATM    7  C9  UNL     1      26.103  12.884  26.681  1.00  0.00     0.036 C 
HETATM    8  C10 UNL     1      27.080  13.818  24.647  1.00  0.00     0.044 C 
HETATM    9  C11 UNL     1      27.521  12.426  24.240  1.00  0.00     0.080 C 
HETATM   10  C16 UNL     1      28.020  11.765  25.507  1.00  0.00     0.070 C 
HETATM   11  O3  UNL     1      26.568  11.655  23.682  1.00  0.00    -0.373 OA
ENDROOT
BRANCH   9  12
HETATM   12  C12 UNL     1      28.621  12.629  23.236  1.00  0.00     0.162 C 
BRANCH  12  13
HETATM   13  N3  UNL     1      29.128  13.955  23.170  1.00  0.00    -0.340 N 
HETATM   14  C13 UNL     1      30.382  14.240  23.746  1.00  0.00     0.317 C 
HETATM   15  O2  UNL     1      31.024  13.324  24.303  1.00  0.00    -0.247 OA
HETATM   16  N4  UNL     1      30.967  15.535  23.728  1.00  0.00    -0.343 N 
HETATM   17  C14 UNL     1      30.276  16.638  23.102  1.00  0.00     0.154 C 
HETATM   18  C15 UNL     1      32.261  15.796  24.326  1.00  0.00     0.154 C 
ATOM     19  H3  UNL     1      28.592  14.691  22.711  1.00  0.00     0.164 HD
ENDBRANCH  12  13
ENDBRANCH   9  12
BRANCH   1  20
HETATM   20  N2  UNL     1      27.524  11.355  27.800  1.00  0.00    -0.334 N 
HETATM   21  C2  UNL     1      28.446  12.174  28.471  1.00  0.00     0.316 C 
HETATM   22  N1  UNL     1      28.987  11.833  29.751  1.00  0.00    -0.347 N 
HETATM   23  O1  UNL     1      28.829  13.246  27.961  1.00  0.00    -0.247 OA
HETATM   24  C1  UNL     1      29.935  12.682  30.431  1.00  0.00     0.151 C 
ATOM     25  H1  UNL     1      28.694  10.962  30.195  1.00  0.00     0.163 HD
ATOM     26  H2  UNL     1      27.250  10.489  28.264  1.00  0.00     0.165 HD
ENDBRANCH   1  20
TORSDOF 3
ENDMDL
MODEL 4
REMARK VINA RESULT: -8.150788690      1.968      2.118
REMARK  3 active torsions:
REMARK  status: ('A' for Active; 'I' for Inactive)
REMARK       I    between atoms: N1_2  and  C2_4 
REMARK       I    between atoms: C2_4  and  N2_6 
REMARK    1  A    between atoms: N2_6  and  C3_8 
REMARK    2  A    between atoms: C11_16  and  C12_17 
REMARK    3  A    between atoms: C12_17  and  N3_18 
REMARK       I    between atoms: N3_18  and  C13_20 
REMARK       I    between atoms: C13_20  and  N4_22 
ROOT
HETATM    1  C3  UNL     1      29.986  14.387  23.717  1.00  0.00     0.037 C 
HETATM    2  C4  UNL     1      29.732  13.662  22.412  1.00  0.00     0.033 C 
HETATM    3  C5  UNL     1      29.010  12.361  22.565  1.00  0.00     0.034 C 
HETATM    4  C6  UNL     1      27.948  12.352  23.616  1.00  0.00     0.123 C 
HETATM    5  C7  UNL     1      28.554  11.730  24.855  1.00  0.00     0.037 C 
HETATM    6  C8  UNL     1      29.331  12.799  25.590  1.00  0.00    -0.007 C 
HETATM    7  C9  UNL     1      30.405  13.426  24.803  1.00  0.00     0.036 C 
HETATM    8  C10 UNL     1      28.311  13.840  25.989  1.00  0.00     0.044 C 
HETATM    9  C11 UNL     1      27.722  14.411  24.714  1.00  0.00     0.080 C 
HETATM   10  C16 UNL     1      28.823  15.239  24.087  1.00  0.00     0.070 C 
HETATM   11  O3  UNL     1      27.282  13.505  23.820  1.00  0.00    -0.373 OA
ENDROOT
BRANCH   9  12
HETATM   12  C12 UNL     1      26.557  15.256  25.151  1.00  0.00     0.162 C 
BRANCH  12  13
HETATM   13  N3  UNL     1      26.747  15.939  26.383  1.00  0.00    -0.340 N 
HETATM   14  C13 UNL     1      26.523  17.328  26.438  1.00  0.00     0.317 C 
HETATM   15  O2  UNL     1      26.163  17.935  25.406  1.00  0.00    -0.247 OA
HETATM   16  N4  UNL     1      26.688  18.093  27.625  1.00  0.00    -0.343 N 
HETATM   17  C14 UNL     1      27.105  17.454  28.851  1.00  0.00     0.154 C 
HETATM   18  C15 UNL     1      26.447  19.522  27.651  1.00  0.00     0.154 C 
ATOM     19  H3  UNL     1      27.040  15.429  27.216  1.00  0.00     0.164 HD
ENDBRANCH  12  13
ENDBRANCH   9  12
BRANCH   1  20
HETATM   20  N2  UNL     1      31.127  15.256  23.486  1.00  0.00    -0.334 N 
HETATM   21  C2  UNL     1      31.772  16.043  24.453  1.00  0.00     0.316 C 
HETATM   22  N1  UNL     1      32.898  16.871  24.143  1.00  0.00    -0.347 N 
HETATM   23  O1  UNL     1      31.376  16.044  25.636  1.00  0.00    -0.247 OA
HETATM   24  C1  UNL     1      33.553  17.677  25.145  1.00  0.00     0.151 C 
ATOM     25  H1  UNL     1      33.247  16.893  23.184  1.00  0.00     0.163 HD
ATOM     26  H2  UNL     1      31.492  15.298  22.535  1.00  0.00     0.165 HD
ENDBRANCH   1  20
TORSDOF 3
ENDMDL
MODEL 5
REMARK VINA RESULT: -8.095340520      3.343      4.743
REMARK  3 active torsions:
REMARK  status: ('A' for Active; 'I' for Inactive)
REMARK       I    between atoms: N1_2  and  C2_4 
REMARK       I    between atoms: C2_4  and  N2_6 
REMARK    1  A    between atoms: N2_6  and  C3_8 
REMARK    2  A    between atoms: C11_16  and  C12_17 
REMARK    3  A    between atoms: C12_17  and  N3_18 
REMARK       I    between atoms: N3_18  and  C13_20 
REMARK       I    between atoms: C13_20  and  N4_22 
ROOT
HETATM    1  C3  UNL     1      28.341  14.884  23.895  1.00  0.00     0.037 C 
HETATM    2  C4  UNL     1      28.850  14.336  22.579  1.00  0.00     0.033 C 
HETATM    3  C5  UNL     1      29.261  12.898  22.633  1.00  0.00     0.034 C 
HETATM    4  C6  UNL     1      28.399  12.031  23.492  1.00  0.00     0.123 C 
HETATM    5  C7  UNL     1      29.101  11.890  24.826  1.00  0.00     0.037 C 
HETATM    6  C8  UNL     1      28.779  13.109  25.661  1.00  0.00    -0.007 C 
HETATM    7  C9  UNL     1      29.175  14.390  25.053  1.00  0.00     0.036 C 
HETATM    8  C10 UNL     1      27.282  13.077  25.866  1.00  0.00     0.044 C 
HETATM    9  C11 UNL     1      26.634  13.198  24.501  1.00  0.00     0.080 C 
HETATM   10  C16 UNL     1      26.884  14.621  24.051  1.00  0.00     0.070 C 
HETATM   11  O3  UNL     1      27.093  12.348  23.562  1.00  0.00    -0.373 OA
ENDROOT
BRANCH   9  12
HETATM   12  C12 UNL     1      25.173  12.923  24.723  1.00  0.00     0.162 C 
BRANCH  12  13
HETATM   13  N3  UNL     1      24.838  11.546  24.839  1.00  0.00    -0.340 N 
HETATM   14  C13 UNL     1      23.977  10.966  23.888  1.00  0.00     0.317 C 
HETATM   15  O2  UNL     1      23.523  11.671  22.960  1.00  0.00    -0.247 OA
HETATM   16  N4  UNL     1      23.588   9.600  23.925  1.00  0.00    -0.343 N 
HETATM   17  C14 UNL     1      24.075   8.732  24.972  1.00  0.00     0.154 C 
HETATM   18  C15 UNL     1      22.703   9.031  22.928  1.00  0.00     0.154 C 
ATOM     19  H3  UNL     1      25.217  10.985  25.602  1.00  0.00     0.164 HD
ENDBRANCH  12  13
ENDBRANCH   9  12
BRANCH   1  20
HETATM   20  N2  UNL     1      28.538  16.322  23.842  1.00  0.00    -0.334 N 
HETATM   21  C2  UNL     1      29.745  16.979  23.551  1.00  0.00     0.316 C 
HETATM   22  N1  UNL     1      29.853  18.405  23.513  1.00  0.00    -0.347 N 
HETATM   23  O1  UNL     1      30.780  16.324  23.311  1.00  0.00    -0.247 OA
HETATM   24  C1  UNL     1      31.099  19.069  23.213  1.00  0.00     0.151 C 
ATOM     25  H1  UNL     1      29.025  18.969  23.704  1.00  0.00     0.163 HD
ATOM     26  H2  UNL     1      27.726  16.909  24.033  1.00  0.00     0.165 HD
ENDBRANCH   1  20
TORSDOF 3
ENDMDL
