MODEL 1
REMARK VINA RESULT: -5.851550974      0.000      0.000
REMARK  2 active torsions:
REMARK  status: ('A' for Active; 'I' for Inactive)
REMARK       I    between atoms: C1_2  and  N1_3 
REMARK    1  A    between atoms: C1_2  and  C8_13 
REMARK    2  A    between atoms: N1_3  and  C2_5 
ROOT
HETATM    1  O1  UNL     1      23.004  10.100  23.203  1.00  0.00    -0.271 OA
HETATM    2  C1  UNL     1      21.850  10.468  22.901  1.00  0.00     0.248 C 
HETATM    3  N1  UNL     1      21.604  11.149  21.714  1.00  0.00    -0.355 N 
ATOM      4  H1  UNL     1      20.636  11.417  21.536  1.00  0.00     0.162 HD
ENDROOT
BRANCH   3   5
HETATM    5  C2  UNL     1      22.563  11.517  20.713  1.00  0.00     0.085 C 
HETATM    6  C3  UNL     1      22.718  10.530  19.603  1.00  0.00     0.035 C 
HETATM    7  C4  UNL     1      24.183  10.328  19.257  1.00  0.00     0.079 C 
HETATM    8  S1  UNL     1      24.819  11.699  18.258  1.00  0.00    -0.132 SA
HETATM    9  C5  UNL     1      23.657  13.102  18.264  1.00  0.00     0.231 C 
HETATM   10  F1  UNL     1      24.236  14.134  17.566  1.00  0.00    -0.238 F 
HETATM   11  C6  UNL     1      23.397  13.588  19.673  1.00  0.00     0.050 C 
HETATM   12  C7  UNL     1      22.182  12.898  20.203  1.00  0.00     0.029 C 
ENDBRANCH   3   5
BRANCH   2  13
HETATM   13  C8  UNL     1      20.779  10.139  23.864  1.00  0.00     0.277 C 
HETATM   14  C9  UNL     1      19.649  11.139  23.765  1.00  0.00     0.044 C 
HETATM   15  C10 UNL     1      19.934  12.149  24.855  1.00  0.00     0.030 C 
HETATM   16  C11 UNL     1      20.745  11.367  25.842  1.00  0.00     0.233 C 
HETATM   17  N2  UNL     1      21.202  10.171  25.223  1.00  0.00    -0.062 N 
ATOM     18  H22 UNL     1      20.911   9.338  25.735  1.00  0.00     0.278 HD
ATOM     19  H21 UNL     1      22.212  10.054  25.313  1.00  0.00     0.278 HD
ENDBRANCH   2  13
TORSDOF 2
ENDMDL
MODEL 2
REMARK VINA RESULT: -5.744999233      1.043      1.078
REMARK  2 active torsions:
REMARK  status: ('A' for Active; 'I' for Inactive)
REMARK       I    between atoms: C1_2  and  N1_3 
REMARK    1  A    between atoms: C1_2  and  C8_13 
REMARK    2  A    between atoms: N1_3  and  C2_5 
ROOT
HETATM    1  O1  UNL     1      23.073  10.371  23.033  1.00  0.00    -0.271 OA
HETATM    2  C1  UNL     1      21.871  10.677  22.889  1.00  0.00     0.248 C 
HETATM    3  N1  UNL     1      21.475  11.577  21.906  1.00  0.00    -0.355 N 
ATOM      4  H1  UNL     1      20.476  11.777  21.849  1.00  0.00     0.162 HD
ENDROOT
BRANCH   3   5
HETATM    5  C2  UNL     1      22.317  12.254  20.964  1.00  0.00     0.085 C 
HETATM    6  C3  UNL     1      22.256  11.716  19.572  1.00  0.00     0.035 C 
HETATM    7  C4  UNL     1      23.646  11.621  18.966  1.00  0.00     0.079 C 
HETATM    8  S1  UNL     1      24.238  13.242  18.417  1.00  0.00    -0.132 SA
HETATM    9  C5  UNL     1      23.186  14.576  19.076  1.00  0.00     0.231 C 
HETATM   10  F1  UNL     1      23.737  15.776  18.698  1.00  0.00    -0.238 F 
HETATM   11  C6  UNL     1      23.147  14.543  20.588  1.00  0.00     0.050 C 
HETATM   12  C7  UNL     1      21.968  13.734  21.021  1.00  0.00     0.029 C 
ENDBRANCH   3   5
BRANCH   2  13
HETATM   13  C8  UNL     1      20.912  10.035  23.811  1.00  0.00     0.277 C 
HETATM   14  C9  UNL     1      19.581  10.753  23.780  1.00  0.00     0.044 C 
HETATM   15  C10 UNL     1      19.635  11.711  24.951  1.00  0.00     0.030 C 
HETATM   16  C11 UNL     1      20.611  11.058  25.881  1.00  0.00     0.233 C 
HETATM   17  N2  UNL     1      21.327  10.053  25.173  1.00  0.00    -0.062 N 
ATOM     18  H22 UNL     1      21.238   9.137  25.613  1.00  0.00     0.278 HD
ATOM     19  H21 UNL     1      22.336  10.164  25.264  1.00  0.00     0.278 HD
ENDBRANCH   2  13
TORSDOF 2
ENDMDL
MODEL 3
REMARK VINA RESULT: -5.732543044      5.195      6.545
REMARK  2 active torsions:
REMARK  status: ('A' for Active; 'I' for Inactive)
REMARK       I    between atoms: C1_2  and  N1_3 
REMARK    1  A    between atoms: C1_2  and  C8_13 
REMARK    2  A    between atoms: N1_3  and  C2_5 
ROOT
HETATM    1  O1  UNL     1      27.995  12.923  21.360  1.00  0.00    -0.271 OA
HETATM    2  C1  UNL     1      28.080  12.130  20.399  1.00  0.00     0.248 C 
HETATM    3  N1  UNL     1      27.161  12.169  19.357  1.00  0.00    -0.355 N 
ATOM      4  H1  UNL     1      27.294  11.490  18.607  1.00  0.00     0.162 HD
ENDROOT
BRANCH   3   5
HETATM    5  C2  UNL     1      26.045  13.059  19.221  1.00  0.00     0.085 C 
HETATM    6  C3  UNL     1      26.397  14.438  18.771  1.00  0.00     0.035 C 
HETATM    7  C4  UNL     1      25.629  15.481  19.565  1.00  0.00     0.079 C 
HETATM    8  S1  UNL     1      23.918  15.623  18.985  1.00  0.00    -0.132 SA
HETATM    9  C5  UNL     1      23.487  14.236  17.885  1.00  0.00     0.231 C 
HETATM   10  F1  UNL     1      22.159  14.355  17.554  1.00  0.00    -0.238 F 
HETATM   11  C6  UNL     1      23.669  12.907  18.587  1.00  0.00     0.050 C 
HETATM   12  C7  UNL     1      25.040  12.392  18.293  1.00  0.00     0.029 C 
ENDBRANCH   3   5
BRANCH   2  13
HETATM   13  C8  UNL     1      29.198  11.165  20.436  1.00  0.00     0.277 C 
HETATM   14  C9  UNL     1      28.688   9.753  20.253  1.00  0.00     0.044 C 
HETATM   15  C10 UNL     1      28.544   9.211  21.659  1.00  0.00     0.030 C 
HETATM   16  C11 UNL     1      29.526  10.027  22.442  1.00  0.00     0.233 C 
HETATM   17  N2  UNL     1      29.909  11.160  21.670  1.00  0.00    -0.062 N 
ATOM     18  H22 UNL     1      30.918  11.206  21.531  1.00  0.00     0.278 HD
ATOM     19  H21 UNL     1      29.790  12.032  22.184  1.00  0.00     0.278 HD
ENDBRANCH   2  13
TORSDOF 2
ENDMDL
MODEL 4
REMARK VINA RESULT: -5.678870448      3.467      4.226
REMARK  2 active torsions:
REMARK  status: ('A' for Active; 'I' for Inactive)
REMARK       I    between atoms: C1_2  and  N1_3 
REMARK    1  A    between atoms: C1_2  and  C8_13 
REMARK    2  A    between atoms: N1_3  and  C2_5 
ROOT
HETATM    1  O1  UNL     1      24.249   9.338  21.233  1.00  0.00    -0.271 OA
HETATM    2  C1  UNL     1      23.798  10.370  20.696  1.00  0.00     0.248 C 
HETATM    3  N1  UNL     1      24.635  11.431  20.369  1.00  0.00    -0.355 N 
ATOM      4  H1  UNL     1      24.193  12.241  19.932  1.00  0.00     0.162 HD
ENDROOT
BRANCH   3   5
HETATM    5  C2  UNL     1      26.050  11.513  20.580  1.00  0.00     0.085 C 
HETATM    6  C3  UNL     1      26.880  10.898  19.501  1.00  0.00     0.035 C 
HETATM    7  C4  UNL     1      28.023  10.089  20.089  1.00  0.00     0.079 C 
HETATM    8  S1  UNL     1      29.371  11.162  20.648  1.00  0.00    -0.132 SA
HETATM    9  C5  UNL     1      28.837  12.903  20.702  1.00  0.00     0.231 C 
HETATM   10  F1  UNL     1      29.871  13.648  21.215  1.00  0.00    -0.238 F 
HETATM   11  C6  UNL     1      27.644  13.079  21.617  1.00  0.00     0.050 C 
HETATM   12  C7  UNL     1      26.395  12.978  20.803  1.00  0.00     0.029 C 
ENDBRANCH   3   5
BRANCH   2  13
HETATM   13  C8  UNL     1      22.345  10.395  20.430  1.00  0.00     0.277 C 
HETATM   14  C9  UNL     1      21.828  11.816  20.426  1.00  0.00     0.044 C 
HETATM   15  C10 UNL     1      21.292  12.034  21.824  1.00  0.00     0.030 C 
HETATM   16  C11 UNL     1      20.952  10.648  22.280  1.00  0.00     0.233 C 
HETATM   17  N2  UNL     1      21.572   9.709  21.410  1.00  0.00    -0.062 N 
ATOM     18  H22 UNL     1      20.896   9.072  20.988  1.00  0.00     0.278 HD
ATOM     19  H21 UNL     1      22.125   9.021  21.921  1.00  0.00     0.278 HD
ENDBRANCH   2  13
TORSDOF 2
ENDMDL
MODEL 5
REMARK VINA RESULT: -5.674486685      4.472      6.394
REMARK  2 active torsions:
REMARK  status: ('A' for Active; 'I' for Inactive)
REMARK       I    between atoms: C1_2  and  N1_3 
REMARK    1  A    between atoms: C1_2  and  C8_13 
REMARK    2  A    between atoms: N1_3  and  C2_5 
ROOT
HETATM    1  O1  UNL     1      28.068  13.224  20.979  1.00  0.00    -0.271 OA
HETATM    2  C1  UNL     1      27.885  12.165  20.345  1.00  0.00     0.248 C 
HETATM    3  N1  UNL     1      26.664  11.898  19.735  1.00  0.00    -0.355 N 
ATOM      4  H1  UNL     1      26.590  11.012  19.234  1.00  0.00     0.162 HD
ENDROOT
BRANCH   3   5
HETATM    5  C2  UNL     1      25.498  12.732  19.733  1.00  0.00     0.085 C 
HETATM    6  C3  UNL     1      24.677  12.656  18.488  1.00  0.00     0.035 C 
HETATM    7  C4  UNL     1      24.229  14.039  18.047  1.00  0.00     0.079 C 
HETATM    8  S1  UNL     1      22.837  14.630  19.045  1.00  0.00    -0.132 SA
HETATM    9  C5  UNL     1      22.608  13.589  20.523  1.00  0.00     0.231 C 
HETATM   10  F1  UNL     1      21.600  14.140  21.277  1.00  0.00    -0.238 F 
HETATM   11  C6  UNL     1      23.859  13.565  21.373  1.00  0.00     0.050 C 
HETATM   12  C7  UNL     1      24.689  12.388  20.975  1.00  0.00     0.029 C 
ENDBRANCH   3   5
BRANCH   2  13
HETATM   13  C8  UNL     1      29.026  11.228  20.281  1.00  0.00     0.277 C 
HETATM   14  C9  UNL     1      28.537   9.803  20.146  1.00  0.00     0.044 C 
HETATM   15  C10 UNL     1      28.535   9.263  21.560  1.00  0.00     0.030 C 
HETATM   16  C11 UNL     1      29.563  10.106  22.250  1.00  0.00     0.233 C 
HETATM   17  N2  UNL     1      29.845  11.245  21.445  1.00  0.00    -0.062 N 
ATOM     18  H22 UNL     1      30.837  11.316  21.215  1.00  0.00     0.278 HD
ATOM     19  H21 UNL     1      29.752  12.116  21.967  1.00  0.00     0.278 HD
ENDBRANCH   2  13
TORSDOF 2
ENDMDL
