MODEL 1
REMARK VINA RESULT: -6.898233100      0.000      0.000
REMARK  3 active torsions:
REMARK  status: ('A' for Active; 'I' for Inactive)
REMARK       I    between atoms: C1_2  and  N1_3 
REMARK       I    between atoms: C1_2  and  N4_16 
REMARK    1  A    between atoms: N2_5  and  C2_7 
REMARK    2  A    between atoms: C4_13  and  O2_14 
REMARK    3  A    between atoms: N4_16  and  C5_18 
ROOT
HETATM    1  O1  UNL     1      18.019 -35.969 -26.953  1.00  0.00    -0.246 OA
HETATM    2  C1  UNL     1      17.289 -36.649 -26.194  1.00  0.00     0.335 C 
HETATM    3  N1  UNL     1      16.641 -36.042 -25.110  1.00  0.00    -0.251 N 
ATOM      4  H1  UNL     1      16.242 -35.108 -25.205  1.00  0.00     0.191 HD
HETATM    5  N2  UNL     1      16.557 -36.661 -24.016  1.00  0.00    -0.286 N 
ATOM      6  H2  UNL     1      16.951 -37.595 -23.900  1.00  0.00     0.188 HD
HETATM    7  N4  UNL     1      17.112 -38.037 -26.420  1.00  0.00    -0.337 N 
ATOM      8  H4  UNL     1      16.519 -38.593 -25.804  1.00  0.00     0.164 HD
ENDROOT
BRANCH   5   9
HETATM    9  C2  UNL     1      15.876 -35.984 -22.933  1.00  0.00     0.143 A 
HETATM   10  S1  UNL     1      15.932 -36.281 -21.253  1.00  0.00    -0.037 SA
HETATM   11  C3  UNL     1      14.861 -35.055 -20.748  1.00  0.00     0.146 A 
HETATM   12  S2  UNL     1      14.357 -34.653 -19.220  1.00  0.00    -0.052 SA
HETATM   13  N3  UNL     1      14.508 -34.472 -21.897  1.00  0.00    -0.320 N 
HETATM   14  C4  UNL     1      15.009 -34.928 -23.006  1.00  0.00     0.177 A 
ATOM     15  H3  UNL     1      13.858 -33.685 -21.904  1.00  0.00     0.169 HD
BRANCH  14  16
HETATM   16  O2  UNL     1      14.694 -34.374 -24.276  1.00  0.00    -0.344 OA
ATOM     17  H2  UNL     1      15.228 -33.668 -24.621  1.00  0.00     0.219 HD
ENDBRANCH  14  16
ENDBRANCH   5   9
BRANCH   7  18
HETATM   18  C5  UNL     1      17.783 -38.643 -27.534  1.00  0.00     0.090 C 
HETATM   19  C6  UNL     1      18.195 -40.096 -27.220  1.00  0.00     0.030 C 
HETATM   20  C7  UNL     1      17.520 -40.776 -28.377  1.00  0.00    -0.012 C 
HETATM   21  C8  UNL     1      16.130 -40.126 -28.329  1.00  0.00     0.011 C 
HETATM   22  C10 UNL     1      17.773 -39.851 -29.545  1.00  0.00     0.011 C 
HETATM   23  C9  UNL     1      16.925 -38.876 -28.726  1.00  0.00     0.009 C 
ENDBRANCH   7  18
TORSDOF 3
ENDMDL
MODEL 2
REMARK VINA RESULT: -6.778630001      3.515      7.579
REMARK  3 active torsions:
REMARK  status: ('A' for Active; 'I' for Inactive)
REMARK       I    between atoms: C1_2  and  N1_3 
REMARK       I    between atoms: C1_2  and  N4_16 
REMARK    1  A    between atoms: N2_5  and  C2_7 
REMARK    2  A    between atoms: C4_13  and  O2_14 
REMARK    3  A    between atoms: N4_16  and  C5_18 
ROOT
HETATM    1  O1  UNL     1      15.092 -38.155 -23.508  1.00  0.00    -0.246 OA
HETATM    2  C1  UNL     1      15.756 -37.192 -23.957  1.00  0.00     0.335 C 
HETATM    3  N1  UNL     1      16.496 -37.337 -25.139  1.00  0.00    -0.251 N 
ATOM      4  H1  UNL     1      16.118 -37.872 -25.921  1.00  0.00     0.191 HD
HETATM    5  N2  UNL     1      17.630 -36.798 -25.226  1.00  0.00    -0.286 N 
ATOM      6  H2  UNL     1      18.026 -36.259 -24.456  1.00  0.00     0.188 HD
HETATM    7  N4  UNL     1      15.771 -35.948 -23.277  1.00  0.00    -0.337 N 
ATOM      8  H4  UNL     1      16.311 -35.163 -23.640  1.00  0.00     0.164 HD
ENDROOT
BRANCH   5   9
HETATM    9  C2  UNL     1      18.346 -36.981 -26.471  1.00  0.00     0.143 A 
HETATM   10  S1  UNL     1      19.287 -35.870 -27.363  1.00  0.00    -0.037 SA
HETATM   11  C3  UNL     1      19.735 -36.899 -28.647  1.00  0.00     0.146 A 
HETATM   12  S2  UNL     1      20.675 -36.584 -29.976  1.00  0.00    -0.052 SA
HETATM   13  N3  UNL     1      19.139 -38.052 -28.331  1.00  0.00    -0.320 N 
HETATM   14  C4  UNL     1      18.436 -38.110 -27.239  1.00  0.00     0.177 A 
ATOM     15  H3  UNL     1      19.234 -38.870 -28.933  1.00  0.00     0.169 HD
BRANCH  14  16
HETATM   16  O2  UNL     1      17.765 -39.291 -26.820  1.00  0.00    -0.344 OA
ATOM     17  H2  UNL     1      18.249 -40.106 -26.767  1.00  0.00     0.219 HD
ENDBRANCH  14  16
ENDBRANCH   5   9
BRANCH   7  18
HETATM   18  C5  UNL     1      15.010 -35.817 -22.068  1.00  0.00     0.090 C 
HETATM   19  C6  UNL     1      15.885 -36.056 -20.822  1.00  0.00     0.030 C 
HETATM   20  C7  UNL     1      15.611 -34.766 -20.103  1.00  0.00    -0.012 C 
HETATM   21  C8  UNL     1      15.792 -33.751 -21.241  1.00  0.00     0.011 C 
HETATM   22  C10 UNL     1      14.131 -34.540 -20.308  1.00  0.00     0.011 C 
HETATM   23  C9  UNL     1      14.532 -34.439 -21.781  1.00  0.00     0.009 C 
ENDBRANCH   7  18
TORSDOF 3
ENDMDL
MODEL 3
REMARK VINA RESULT: -6.489697110      3.004      7.536
REMARK  3 active torsions:
REMARK  status: ('A' for Active; 'I' for Inactive)
REMARK       I    between atoms: C1_2  and  N1_3 
REMARK       I    between atoms: C1_2  and  N4_16 
REMARK    1  A    between atoms: N2_5  and  C2_7 
REMARK    2  A    between atoms: C4_13  and  O2_14 
REMARK    3  A    between atoms: N4_16  and  C5_18 
ROOT
HETATM    1  O1  UNL     1      14.568 -34.483 -24.402  1.00  0.00    -0.246 OA
HETATM    2  C1  UNL     1      15.440 -35.325 -24.082  1.00  0.00     0.335 C 
HETATM    3  N1  UNL     1      16.227 -35.932 -25.071  1.00  0.00    -0.251 N 
ATOM      4  H1  UNL     1      16.564 -35.391 -25.866  1.00  0.00     0.191 HD
HETATM    5  N2  UNL     1      16.513 -37.154 -24.966  1.00  0.00    -0.286 N 
ATOM      6  H2  UNL     1      16.186 -37.714 -24.179  1.00  0.00     0.188 HD
HETATM    7  N4  UNL     1      15.640 -35.674 -22.724  1.00  0.00    -0.337 N 
ATOM      8  H4  UNL     1      16.349 -36.359 -22.461  1.00  0.00     0.164 HD
ENDROOT
BRANCH   5   9
HETATM    9  C2  UNL     1      17.330 -37.726 -26.016  1.00  0.00     0.143 A 
HETATM   10  S1  UNL     1      17.286 -39.287 -26.705  1.00  0.00    -0.037 SA
HETATM   11  C3  UNL     1      18.554 -39.097 -27.829  1.00  0.00     0.146 A 
HETATM   12  S2  UNL     1      19.168 -40.182 -28.924  1.00  0.00    -0.052 SA
HETATM   13  N3  UNL     1      18.954 -37.840 -27.623  1.00  0.00    -0.320 N 
HETATM   14  C4  UNL     1      18.349 -37.136 -26.713  1.00  0.00     0.177 A 
ATOM     15  H3  UNL     1      19.719 -37.441 -28.168  1.00  0.00     0.169 HD
BRANCH  14  16
HETATM   16  O2  UNL     1      18.703 -35.791 -26.421  1.00  0.00    -0.344 OA
ATOM     17  H2  UNL     1      19.487 -35.617 -25.913  1.00  0.00     0.219 HD
ENDBRANCH  14  16
ENDBRANCH   5   9
BRANCH   7  18
HETATM   18  C5  UNL     1      14.826 -35.044 -21.725  1.00  0.00     0.090 C 
HETATM   19  C6  UNL     1      14.177 -36.084 -20.788  1.00  0.00     0.030 C 
HETATM   20  C7  UNL     1      14.672 -35.544 -19.476  1.00  0.00    -0.012 C 
HETATM   21  C8  UNL     1      16.155 -35.312 -19.795  1.00  0.00     0.011 C 
HETATM   22  C10 UNL     1      14.537 -34.046 -19.622  1.00  0.00     0.011 C 
HETATM   23  C9  UNL     1      15.577 -34.239 -20.727  1.00  0.00     0.009 C 
ENDBRANCH   7  18
TORSDOF 3
ENDMDL
MODEL 4
REMARK VINA RESULT: -6.465662348      0.944      1.399
REMARK  3 active torsions:
REMARK  status: ('A' for Active; 'I' for Inactive)
REMARK       I    between atoms: C1_2  and  N1_3 
REMARK       I    between atoms: C1_2  and  N4_16 
REMARK    1  A    between atoms: N2_5  and  C2_7 
REMARK    2  A    between atoms: C4_13  and  O2_14 
REMARK    3  A    between atoms: N4_16  and  C5_18 
ROOT
HETATM    1  O1  UNL     1      16.709 -36.384 -27.658  1.00  0.00    -0.246 OA
HETATM    2  C1  UNL     1      16.725 -37.046 -26.594  1.00  0.00     0.335 C 
HETATM    3  N1  UNL     1      16.145 -36.521 -25.430  1.00  0.00    -0.251 N 
ATOM      4  H1  UNL     1      15.272 -35.995 -25.481  1.00  0.00     0.191 HD
HETATM    5  N2  UNL     1      16.711 -36.707 -24.321  1.00  0.00    -0.286 N 
ATOM      6  H2  UNL     1      17.584 -37.229 -24.249  1.00  0.00     0.188 HD
HETATM    7  N4  UNL     1      17.328 -38.327 -26.552  1.00  0.00    -0.337 N 
ATOM      8  H4  UNL     1      17.342 -38.868 -25.687  1.00  0.00     0.164 HD
ENDROOT
BRANCH   5   9
HETATM    9  C2  UNL     1      16.065 -36.143 -23.155  1.00  0.00     0.143 A 
HETATM   10  S1  UNL     1      16.178 -36.604 -21.515  1.00  0.00    -0.037 SA
HETATM   11  C3  UNL     1      15.122 -35.438 -20.857  1.00  0.00     0.146 A 
HETATM   12  S2  UNL     1      14.668 -35.191 -19.281  1.00  0.00    -0.052 SA
HETATM   13  N3  UNL     1      14.730 -34.746 -21.930  1.00  0.00    -0.320 N 
HETATM   14  C4  UNL     1      15.195 -35.089 -23.095  1.00  0.00     0.177 A 
ATOM     15  H3  UNL     1      14.079 -33.966 -21.838  1.00  0.00     0.169 HD
BRANCH  14  16
HETATM   16  O2  UNL     1      14.836 -34.415 -24.294  1.00  0.00    -0.344 OA
ATOM     17  H2  UNL     1      13.979 -34.567 -24.674  1.00  0.00     0.219 HD
ENDBRANCH  14  16
ENDBRANCH   5   9
BRANCH   7  18
HETATM   18  C5  UNL     1      17.917 -38.849 -27.751  1.00  0.00     0.090 C 
HETATM   19  C6  UNL     1      19.409 -38.471 -27.856  1.00  0.00     0.030 C 
HETATM   20  C7  UNL     1      19.980 -39.852 -28.015  1.00  0.00    -0.012 C 
HETATM   21  C8  UNL     1      19.242 -40.605 -26.899  1.00  0.00     0.011 C 
HETATM   22  C10 UNL     1      19.013 -40.543 -28.947  1.00  0.00     0.011 C 
HETATM   23  C9  UNL     1      18.028 -40.331 -27.796  1.00  0.00     0.009 C 
ENDBRANCH   7  18
TORSDOF 3
ENDMDL
MODEL 5
REMARK VINA RESULT: -6.439673899      3.231      7.415
REMARK  3 active torsions:
REMARK  status: ('A' for Active; 'I' for Inactive)
REMARK       I    between atoms: C1_2  and  N1_3 
REMARK       I    between atoms: C1_2  and  N4_16 
REMARK    1  A    between atoms: N2_5  and  C2_7 
REMARK    2  A    between atoms: C4_13  and  O2_14 
REMARK    3  A    between atoms: N4_16  and  C5_18 
ROOT
HETATM    1  O1  UNL     1      14.981 -34.763 -24.312  1.00  0.00    -0.246 OA
HETATM    2  C1  UNL     1      15.751 -35.742 -24.173  1.00  0.00     0.335 C 
HETATM    3  N1  UNL     1      16.007 -36.596 -25.255  1.00  0.00    -0.251 N 
ATOM      4  H1  UNL     1      16.118 -36.217 -26.195  1.00  0.00     0.191 HD
HETATM    5  N2  UNL     1      16.098 -37.836 -25.054  1.00  0.00    -0.286 N 
ATOM      6  H2  UNL     1      15.989 -38.235 -24.122  1.00  0.00     0.188 HD
HETATM    7  N4  UNL     1      16.370 -36.000 -22.924  1.00  0.00    -0.337 N 
ATOM      8  H4  UNL     1      16.997 -36.796 -22.809  1.00  0.00     0.164 HD
ENDROOT
BRANCH   5   9
HETATM    9  C2  UNL     1      16.364 -38.667 -26.209  1.00  0.00     0.143 A 
HETATM   10  S1  UNL     1      17.836 -39.336 -26.757  1.00  0.00    -0.037 SA
HETATM   11  C3  UNL     1      17.243 -40.142 -28.137  1.00  0.00     0.146 A 
HETATM   12  S2  UNL     1      18.054 -41.060 -29.256  1.00  0.00    -0.052 SA
HETATM   13  N3  UNL     1      15.938 -39.859 -28.115  1.00  0.00    -0.320 N 
HETATM   14  C4  UNL     1      15.480 -39.117 -27.151  1.00  0.00     0.177 A 
ATOM     15  H3  UNL     1      15.315 -40.218 -28.838  1.00  0.00     0.169 HD
BRANCH  14  16
HETATM   16  O2  UNL     1      14.108 -38.762 -27.042  1.00  0.00    -0.344 OA
ATOM     17  H2  UNL     1      13.464 -39.231 -27.559  1.00  0.00     0.219 HD
ENDBRANCH  14  16
ENDBRANCH   5   9
BRANCH   7  18
HETATM   18  C5  UNL     1      16.097 -35.118 -21.827  1.00  0.00     0.090 C 
HETATM   19  C6  UNL     1      14.778 -34.347 -22.037  1.00  0.00     0.030 C 
HETATM   20  C7  UNL     1      14.086 -34.734 -20.761  1.00  0.00    -0.012 C 
HETATM   21  C8  UNL     1      14.337 -36.249 -20.739  1.00  0.00     0.011 C 
HETATM   22  C10 UNL     1      15.176 -34.667 -19.717  1.00  0.00     0.011 C 
HETATM   23  C9  UNL     1      15.790 -35.799 -20.542  1.00  0.00     0.009 C 
ENDBRANCH   7  18
TORSDOF 3
ENDMDL
