MODEL 1
REMARK VINA RESULT: -8.441171252      0.000      0.000
REMARK  16 active torsions:
REMARK  status: ('A' for Active; 'I' for Inactive)
REMARK    1  A    between atoms: O1_2  and  C2_3 
REMARK    2  A    between atoms: C2_3  and  C3_5 
REMARK    3  A    between atoms: C6_9  and  C7_10 
REMARK    4  A    between atoms: C7_10  and  O4_14 
REMARK    5  A    between atoms: O4_14  and  C8_15 
REMARK    6  A    between atoms: C8_15  and  C9_20 
REMARK    7  A    between atoms: N2_16  and  O5_18 
REMARK    8  A    between atoms: C9_20  and  C13_32 
REMARK    9  A    between atoms: N3_21  and  N4_23 
REMARK   10  A    between atoms: N4_23  and  C10_25 
REMARK   11  A    between atoms: C10_25  and  O6_26 
REMARK   12  A    between atoms: C10_25  and  C11_28 
REMARK   13  A    between atoms: C11_28  and  O8_30 
REMARK   14  A    between atoms: C13_32  and  N5_33 
REMARK   15  A    between atoms: C13_32  and  C16_38 
REMARK       I    between atoms: N5_33  and  C14_35 
REMARK   16  A    between atoms: C18_41  and  N6_42 
ROOT
HETATM    1  C9  UNL     1      25.349  -3.881   3.723  1.00  0.00     0.107 C 
HETATM    2  N3  UNL     1      25.847  -4.957   3.244  1.00  0.00    -0.300 N 
ATOM      3  H3  UNL     1      25.171  -5.594   2.823  1.00  0.00     0.186 HD
ENDROOT
BRANCH   1   4
HETATM    4  C8  UNL     1      26.255  -2.916   4.343  1.00  0.00     0.196 C 
HETATM    5  N2  UNL     1      25.977  -1.693   4.311  1.00  0.00    -0.245 N 
ATOM      6  H2  UNL     1      25.093  -1.523   3.830  1.00  0.00     0.196 HD
BRANCH   4   7
HETATM    7  O4  UNL     1      27.449  -3.316   4.981  1.00  0.00    -0.271 OA
BRANCH   7   8
HETATM    8  C7  UNL     1      27.551  -3.274   6.358  1.00  0.00     0.179 C 
HETATM    9  N1  UNL     1      26.987  -4.274   6.983  1.00  0.00    -0.377 N 
ATOM     10  H12 UNL     1      27.062  -4.243   8.000  1.00  0.00     0.158 HD
ATOM     11  H11 UNL     1      26.524  -4.996   6.432  1.00  0.00     0.158 HD
BRANCH   8  12
HETATM   12  C6  UNL     1      28.203  -2.256   7.136  1.00  0.00     0.142 A 
HETATM   13  C3  UNL     1      28.041  -1.848   8.430  1.00  0.00     0.079 A 
HETATM   14  C4  UNL     1      28.956  -0.801   8.656  1.00  0.00     0.045 A 
HETATM   15  C5  UNL     1      29.613  -0.652   7.462  1.00  0.00     0.144 A 
HETATM   16  O3  UNL     1      29.167  -1.502   6.590  1.00  0.00    -0.317 OA
BRANCH  13  17
HETATM   17  C2  UNL     1      27.140  -2.348   9.438  1.00  0.00     0.295 C 
HETATM   18  O2  UNL     1      25.900  -2.377   9.371  1.00  0.00    -0.259 OA
BRANCH  17  19
HETATM   19  O1  UNL     1      27.679  -2.862  10.633  1.00  0.00    -0.322 OA
HETATM   20  C1  UNL     1      27.643  -2.113  11.830  1.00  0.00     0.213 C 
ENDBRANCH  17  19
ENDBRANCH  13  17
ENDBRANCH   8  12
ENDBRANCH   7   8
ENDBRANCH   4   7
BRANCH   5  21
HETATM   21  O5  UNL     1      26.521  -0.567   4.732  1.00  0.00    -0.288 OA
ATOM     22  H5  UNL     1      26.416   0.362   4.563  1.00  0.00     0.244 HD
ENDBRANCH   5  21
ENDBRANCH   1   4
BRANCH   1  23
HETATM   23  C13 UNL     1      23.904  -3.672   3.614  1.00  0.00     0.191 C 
BRANCH  23  24
HETATM   24  N5  UNL     1      23.521  -2.934   2.442  1.00  0.00    -0.346 N 
HETATM   25  C14 UNL     1      22.350  -2.157   2.450  1.00  0.00     0.214 C 
HETATM   26  C15 UNL     1      21.926  -1.379   1.248  1.00  0.00     0.117 C 
HETATM   27  O9  UNL     1      21.642  -2.109   3.484  1.00  0.00    -0.274 OA
ATOM     28  H5  UNL     1      24.099  -2.973   1.602  1.00  0.00     0.163 HD
ENDBRANCH  23  24
BRANCH  23  29
HETATM   29  C16 UNL     1      23.161  -5.008   3.621  1.00  0.00     0.047 A 
HETATM   30  C17 UNL     1      22.180  -5.250   4.550  1.00  0.00     0.080 A 
HETATM   31  S1  UNL     1      21.682  -6.829   4.157  1.00  0.00    -0.064 SA
HETATM   32  C18 UNL     1      22.736  -7.102   2.844  1.00  0.00     0.142 A 
HETATM   33  N7  UNL     1      23.423  -5.966   2.767  1.00  0.00    -0.338 N 
ATOM     34  H7  UNL     1      24.142  -5.842   2.055  1.00  0.00     0.168 HD
BRANCH  32  35
HETATM   35  N6  UNL     1      22.863  -8.167   2.074  1.00  0.00    -0.380 N 
ATOM     36  H62 UNL     1      22.266  -8.440   1.294  1.00  0.00     0.158 HD
ATOM     37  H61 UNL     1      23.561  -8.910   2.103  1.00  0.00     0.158 HD
ENDBRANCH  32  35
ENDBRANCH  23  29
ENDBRANCH   1  23
BRANCH   2  38
HETATM   38  N4  UNL     1      27.140  -5.386   3.210  1.00  0.00    -0.299 N 
ATOM     39  H4  UNL     1      27.802  -4.833   2.667  1.00  0.00     0.183 HD
BRANCH  38  40
HETATM   40  C10 UNL     1      27.650  -6.565   3.882  1.00  0.00     0.334 C 
BRANCH  40  41
HETATM   41  O6  UNL     1      26.641  -7.169   4.627  1.00  0.00    -0.367 OA
ATOM     42  H6  UNL     1      26.277  -6.552   5.250  1.00  0.00     0.212 HD
ENDBRANCH  40  41
BRANCH  40  43
HETATM   43  C11 UNL     1      28.774  -6.256   4.783  1.00  0.00     0.308 C 
HETATM   44  O7  UNL     1      28.818  -6.722   5.942  1.00  0.00    -0.260 OA
BRANCH  43  45
HETATM   45  O8  UNL     1      29.794  -5.441   4.351  1.00  0.00    -0.323 OA
HETATM   46  C12 UNL     1      30.708  -4.787   5.191  1.00  0.00     0.213 C 
ENDBRANCH  43  45
ENDBRANCH  40  43
ENDBRANCH  38  40
ENDBRANCH   2  38
TORSDOF 16
ENDMDL
MODEL 2
REMARK VINA RESULT: -8.373867452      0.935      1.172
REMARK  16 active torsions:
REMARK  status: ('A' for Active; 'I' for Inactive)
REMARK    1  A    between atoms: O1_2  and  C2_3 
REMARK    2  A    between atoms: C2_3  and  C3_5 
REMARK    3  A    between atoms: C6_9  and  C7_10 
REMARK    4  A    between atoms: C7_10  and  O4_14 
REMARK    5  A    between atoms: O4_14  and  C8_15 
REMARK    6  A    between atoms: C8_15  and  C9_20 
REMARK    7  A    between atoms: N2_16  and  O5_18 
REMARK    8  A    between atoms: C9_20  and  C13_32 
REMARK    9  A    between atoms: N3_21  and  N4_23 
REMARK   10  A    between atoms: N4_23  and  C10_25 
REMARK   11  A    between atoms: C10_25  and  O6_26 
REMARK   12  A    between atoms: C10_25  and  C11_28 
REMARK   13  A    between atoms: C11_28  and  O8_30 
REMARK   14  A    between atoms: C13_32  and  N5_33 
REMARK   15  A    between atoms: C13_32  and  C16_38 
REMARK       I    between atoms: N5_33  and  C14_35 
REMARK   16  A    between atoms: C18_41  and  N6_42 
ROOT
HETATM    1  C9  UNL     1      25.077  -3.545   3.715  1.00  0.00     0.107 C 
HETATM    2  N3  UNL     1      25.680  -4.596   3.307  1.00  0.00    -0.300 N 
ATOM      3  H3  UNL     1      25.078  -5.302   2.883  1.00  0.00     0.186 HD
ENDROOT
BRANCH   1   4
HETATM    4  C8  UNL     1      25.873  -2.486   4.333  1.00  0.00     0.196 C 
HETATM    5  N2  UNL     1      25.414  -1.320   4.394  1.00  0.00    -0.245 N 
ATOM      6  H2  UNL     1      24.482  -1.263   3.984  1.00  0.00     0.196 HD
BRANCH   4   7
HETATM    7  O4  UNL     1      27.157  -2.731   4.865  1.00  0.00    -0.271 OA
BRANCH   7   8
HETATM    8  C7  UNL     1      27.342  -2.805   6.232  1.00  0.00     0.179 C 
HETATM    9  N1  UNL     1      26.675  -3.758   6.828  1.00  0.00    -0.377 N 
ATOM     10  H12 UNL     1      26.811  -3.813   7.837  1.00  0.00     0.158 HD
ATOM     11  H11 UNL     1      26.080  -4.365   6.263  1.00  0.00     0.158 HD
BRANCH   8  12
HETATM   12  C6  UNL     1      28.180  -1.950   7.028  1.00  0.00     0.142 A 
HETATM   13  C3  UNL     1      28.172  -1.642   8.359  1.00  0.00     0.079 A 
HETATM   14  C4  UNL     1      29.232  -0.743   8.586  1.00  0.00     0.045 A 
HETATM   15  C5  UNL     1      29.810  -0.572   7.356  1.00  0.00     0.144 A 
HETATM   16  O3  UNL     1      29.191  -1.277   6.462  1.00  0.00    -0.317 OA
BRANCH  13  17
HETATM   17  C2  UNL     1      27.291  -2.113   9.399  1.00  0.00     0.295 C 
HETATM   18  O2  UNL     1      26.049  -2.105   9.375  1.00  0.00    -0.259 OA
BRANCH  17  19
HETATM   19  O1  UNL     1      27.855  -2.643  10.576  1.00  0.00    -0.322 OA
HETATM   20  C1  UNL     1      27.697  -1.989  11.817  1.00  0.00     0.213 C 
ENDBRANCH  17  19
ENDBRANCH  13  17
ENDBRANCH   8  12
ENDBRANCH   7   8
ENDBRANCH   4   7
BRANCH   5  21
HETATM   21  O5  UNL     1      25.814  -0.147   4.848  1.00  0.00    -0.288 OA
ATOM     22  H5  UNL     1      26.270   0.612   4.506  1.00  0.00     0.244 HD
ENDBRANCH   5  21
ENDBRANCH   1   4
BRANCH   1  23
HETATM   23  C13 UNL     1      23.626  -3.458   3.532  1.00  0.00     0.191 C 
BRANCH  23  24
HETATM   24  N5  UNL     1      23.243  -2.805   2.311  1.00  0.00    -0.346 N 
HETATM   25  C14 UNL     1      22.060  -2.048   2.258  1.00  0.00     0.214 C 
HETATM   26  C15 UNL     1      21.636  -1.358   1.005  1.00  0.00     0.117 C 
HETATM   27  O9  UNL     1      21.341  -1.946   3.280  1.00  0.00    -0.274 OA
ATOM     28  H5  UNL     1      23.831  -2.889   1.481  1.00  0.00     0.163 HD
ENDBRANCH  23  24
BRANCH  23  29
HETATM   29  C16 UNL     1      22.991  -4.849   3.569  1.00  0.00     0.047 A 
HETATM   30  C17 UNL     1      22.038  -5.151   4.509  1.00  0.00     0.080 A 
HETATM   31  S1  UNL     1      21.664  -6.770   4.148  1.00  0.00    -0.064 SA
HETATM   32  C18 UNL     1      22.728  -6.983   2.832  1.00  0.00     0.142 A 
HETATM   33  N7  UNL     1      23.323  -5.798   2.730  1.00  0.00    -0.338 N 
ATOM     34  H7  UNL     1      24.026  -5.632   2.011  1.00  0.00     0.168 HD
BRANCH  32  35
HETATM   35  N6  UNL     1      22.933  -8.049   2.080  1.00  0.00    -0.380 N 
ATOM     36  H62 UNL     1      22.988  -9.020   2.386  1.00  0.00     0.158 HD
ATOM     37  H61 UNL     1      23.075  -8.115   1.073  1.00  0.00     0.158 HD
ENDBRANCH  32  35
ENDBRANCH  23  29
ENDBRANCH   1  23
BRANCH   2  38
HETATM   38  N4  UNL     1      27.003  -4.920   3.349  1.00  0.00    -0.299 N 
ATOM     39  H4  UNL     1      27.656  -4.287   2.887  1.00  0.00     0.183 HD
BRANCH  38  40
HETATM   40  C10 UNL     1      27.559  -6.092   3.997  1.00  0.00     0.334 C 
BRANCH  40  41
HETATM   41  O6  UNL     1      27.743  -7.114   3.070  1.00  0.00    -0.367 OA
ATOM     42  H6  UNL     1      27.353  -7.920   3.387  1.00  0.00     0.212 HD
ENDBRANCH  40  41
BRANCH  40  43
HETATM   43  C11 UNL     1      26.698  -6.595   5.082  1.00  0.00     0.308 C 
HETATM   44  O7  UNL     1      25.569  -7.073   4.839  1.00  0.00    -0.260 OA
BRANCH  43  45
HETATM   45  O8  UNL     1      27.135  -6.540   6.385  1.00  0.00    -0.323 OA
HETATM   46  C12 UNL     1      28.482  -6.565   6.780  1.00  0.00     0.213 C 
ENDBRANCH  43  45
ENDBRANCH  40  43
ENDBRANCH  38  40
ENDBRANCH   2  38
TORSDOF 16
ENDMDL
MODEL 3
REMARK VINA RESULT: -8.358838684      2.544      7.011
REMARK  16 active torsions:
REMARK  status: ('A' for Active; 'I' for Inactive)
REMARK    1  A    between atoms: O1_2  and  C2_3 
REMARK    2  A    between atoms: C2_3  and  C3_5 
REMARK    3  A    between atoms: C6_9  and  C7_10 
REMARK    4  A    between atoms: C7_10  and  O4_14 
REMARK    5  A    between atoms: O4_14  and  C8_15 
REMARK    6  A    between atoms: C8_15  and  C9_20 
REMARK    7  A    between atoms: N2_16  and  O5_18 
REMARK    8  A    between atoms: C9_20  and  C13_32 
REMARK    9  A    between atoms: N3_21  and  N4_23 
REMARK   10  A    between atoms: N4_23  and  C10_25 
REMARK   11  A    between atoms: C10_25  and  O6_26 
REMARK   12  A    between atoms: C10_25  and  C11_28 
REMARK   13  A    between atoms: C11_28  and  O8_30 
REMARK   14  A    between atoms: C13_32  and  N5_33 
REMARK   15  A    between atoms: C13_32  and  C16_38 
REMARK       I    between atoms: N5_33  and  C14_35 
REMARK   16  A    between atoms: C18_41  and  N6_42 
ROOT
HETATM    1  C9  UNL     1      28.118  -2.805   6.181  1.00  0.00     0.107 C 
HETATM    2  N3  UNL     1      28.022  -2.806   7.456  1.00  0.00    -0.300 N 
ATOM      3  H3  UNL     1      28.788  -3.268   7.946  1.00  0.00     0.186 HD
ENDROOT
BRANCH   1   4
HETATM    4  C8  UNL     1      27.059  -2.159   5.408  1.00  0.00     0.196 C 
HETATM    5  N2  UNL     1      26.525  -1.110   5.842  1.00  0.00    -0.245 N 
ATOM      6  H2  UNL     1      26.933  -0.825   6.733  1.00  0.00     0.196 HD
BRANCH   4   7
HETATM    7  O4  UNL     1      26.608  -2.683   4.177  1.00  0.00    -0.271 OA
BRANCH   7   8
HETATM    8  C7  UNL     1      25.338  -3.218   4.072  1.00  0.00     0.179 C 
HETATM    9  N1  UNL     1      24.400  -2.357   3.775  1.00  0.00    -0.377 N 
ATOM     10  H12 UNL     1      23.463  -2.752   3.697  1.00  0.00     0.158 HD
ATOM     11  H11 UNL     1      24.658  -1.378   3.645  1.00  0.00     0.158 HD
BRANCH   8  12
HETATM   12  C6  UNL     1      24.974  -4.596   4.255  1.00  0.00     0.142 A 
HETATM   13  C3  UNL     1      24.044  -5.387   3.642  1.00  0.00     0.079 A 
HETATM   14  C4  UNL     1      24.126  -6.663   4.231  1.00  0.00     0.045 A 
HETATM   15  C5  UNL     1      25.117  -6.547   5.171  1.00  0.00     0.144 A 
HETATM   16  O3  UNL     1      25.600  -5.344   5.174  1.00  0.00    -0.317 OA
BRANCH  13  17
HETATM   17  C2  UNL     1      23.125  -5.058   2.580  1.00  0.00     0.295 C 
HETATM   18  O2  UNL     1      23.128  -5.526   1.430  1.00  0.00    -0.259 OA
BRANCH  17  19
HETATM   19  O1  UNL     1      22.108  -4.117   2.832  1.00  0.00    -0.322 OA
HETATM   20  C1  UNL     1      21.274  -4.232   3.966  1.00  0.00     0.213 C 
ENDBRANCH  17  19
ENDBRANCH  13  17
ENDBRANCH   8  12
ENDBRANCH   7   8
ENDBRANCH   4   7
BRANCH   5  21
HETATM   21  O5  UNL     1      25.578  -0.277   5.455  1.00  0.00    -0.288 OA
ATOM     22  H5  UNL     1      25.443   0.663   5.438  1.00  0.00     0.244 HD
ENDBRANCH   5  21
ENDBRANCH   1   4
BRANCH   1  23
HETATM   23  C13 UNL     1      29.287  -3.442   5.569  1.00  0.00     0.191 C 
BRANCH  23  24
HETATM   24  N5  UNL     1      30.483  -3.315   6.355  1.00  0.00    -0.346 N 
HETATM   25  C14 UNL     1      31.743  -3.374   5.735  1.00  0.00     0.214 C 
HETATM   26  C15 UNL     1      33.002  -3.245   6.525  1.00  0.00     0.117 C 
HETATM   27  O9  UNL     1      31.818  -3.536   4.494  1.00  0.00    -0.274 OA
ATOM     28  H5  UNL     1      30.418  -3.182   7.365  1.00  0.00     0.163 HD
ENDBRANCH  23  24
BRANCH  23  29
HETATM   29  C16 UNL     1      29.021  -4.925   5.309  1.00  0.00     0.047 A 
HETATM   30  C17 UNL     1      29.332  -5.863   6.262  1.00  0.00     0.080 A 
HETATM   31  S1  UNL     1      28.870  -7.318   5.513  1.00  0.00    -0.064 SA
HETATM   32  C18 UNL     1      28.309  -6.670   4.038  1.00  0.00     0.142 A 
HETATM   33  N7  UNL     1      28.503  -5.364   4.189  1.00  0.00    -0.338 N 
ATOM     34  H7  UNL     1      28.253  -4.713   3.445  1.00  0.00     0.168 HD
BRANCH  32  35
HETATM   35  N6  UNL     1      27.803  -7.288   2.987  1.00  0.00    -0.380 N 
ATOM     36  H62 UNL     1      27.184  -8.098   2.985  1.00  0.00     0.158 HD
ATOM     37  H61 UNL     1      27.924  -7.086   1.995  1.00  0.00     0.158 HD
ENDBRANCH  32  35
ENDBRANCH  23  29
ENDBRANCH   1  23
BRANCH   2  38
HETATM   38  N4  UNL     1      27.056  -2.284   8.263  1.00  0.00    -0.299 N 
ATOM     39  H4  UNL     1      26.590  -1.434   7.946  1.00  0.00     0.183 HD
BRANCH  38  40
HETATM   40  C10 UNL     1      26.636  -2.839   9.535  1.00  0.00     0.334 C 
BRANCH  40  41
HETATM   41  O6  UNL     1      25.303  -2.525   9.782  1.00  0.00    -0.367 OA
ATOM     42  H6  UNL     1      25.015  -2.929  10.592  1.00  0.00     0.212 HD
ENDBRANCH  40  41
BRANCH  40  43
HETATM   43  C11 UNL     1      27.449  -2.344  10.660  1.00  0.00     0.308 C 
HETATM   44  O7  UNL     1      27.364  -2.862  11.793  1.00  0.00    -0.260 OA
BRANCH  43  45
HETATM   45  O8  UNL     1      28.316  -1.293  10.468  1.00  0.00    -0.323 OA
HETATM   46  C12 UNL     1      28.156  -0.012  11.018  1.00  0.00     0.213 C 
ENDBRANCH  43  45
ENDBRANCH  40  43
ENDBRANCH  38  40
ENDBRANCH   2  38
TORSDOF 16
ENDMDL
MODEL 4
REMARK VINA RESULT: -8.307118683      2.470      7.282
REMARK  16 active torsions:
REMARK  status: ('A' for Active; 'I' for Inactive)
REMARK    1  A    between atoms: O1_2  and  C2_3 
REMARK    2  A    between atoms: C2_3  and  C3_5 
REMARK    3  A    between atoms: C6_9  and  C7_10 
REMARK    4  A    between atoms: C7_10  and  O4_14 
REMARK    5  A    between atoms: O4_14  and  C8_15 
REMARK    6  A    between atoms: C8_15  and  C9_20 
REMARK    7  A    between atoms: N2_16  and  O5_18 
REMARK    8  A    between atoms: C9_20  and  C13_32 
REMARK    9  A    between atoms: N3_21  and  N4_23 
REMARK   10  A    between atoms: N4_23  and  C10_25 
REMARK   11  A    between atoms: C10_25  and  O6_26 
REMARK   12  A    between atoms: C10_25  and  C11_28 
REMARK   13  A    between atoms: C11_28  and  O8_30 
REMARK   14  A    between atoms: C13_32  and  N5_33 
REMARK   15  A    between atoms: C13_32  and  C16_38 
REMARK       I    between atoms: N5_33  and  C14_35 
REMARK   16  A    between atoms: C18_41  and  N6_42 
ROOT
HETATM    1  C9  UNL     1      28.137  -2.911   5.911  1.00  0.00     0.107 C 
HETATM    2  N3  UNL     1      28.091  -2.633   7.158  1.00  0.00    -0.300 N 
ATOM      3  H3  UNL     1      28.898  -2.943   7.699  1.00  0.00     0.186 HD
ENDROOT
BRANCH   1   4
HETATM    4  C8  UNL     1      27.017  -2.498   5.068  1.00  0.00     0.196 C 
HETATM    5  N2  UNL     1      26.402  -1.436   5.329  1.00  0.00    -0.245 N 
ATOM      6  H2  UNL     1      26.795  -0.968   6.146  1.00  0.00     0.196 HD
BRANCH   4   7
HETATM    7  O4  UNL     1      26.594  -3.262   3.959  1.00  0.00    -0.271 OA
BRANCH   7   8
HETATM    8  C7  UNL     1      25.427  -3.999   4.025  1.00  0.00     0.179 C 
HETATM    9  N1  UNL     1      25.496  -5.076   4.761  1.00  0.00    -0.377 N 
ATOM     10  H12 UNL     1      24.634  -5.620   4.810  1.00  0.00     0.158 HD
ATOM     11  H11 UNL     1      26.379  -5.297   5.223  1.00  0.00     0.158 HD
BRANCH   8  12
HETATM   12  C6  UNL     1      24.184  -3.689   3.374  1.00  0.00     0.142 A 
HETATM   13  C3  UNL     1      23.279  -4.467   2.710  1.00  0.00     0.079 A 
HETATM   14  C4  UNL     1      22.239  -3.622   2.275  1.00  0.00     0.045 A 
HETATM   15  C5  UNL     1      22.600  -2.375   2.716  1.00  0.00     0.144 A 
HETATM   16  O3  UNL     1      23.728  -2.428   3.351  1.00  0.00    -0.317 OA
BRANCH  13  17
HETATM   17  C2  UNL     1      23.302  -5.888   2.468  1.00  0.00     0.295 C 
HETATM   18  O2  UNL     1      24.313  -6.604   2.367  1.00  0.00    -0.259 OA
BRANCH  17  19
HETATM   19  O1  UNL     1      22.079  -6.571   2.324  1.00  0.00    -0.322 OA
HETATM   20  C1  UNL     1      22.027  -7.982   2.340  1.00  0.00     0.213 C 
ENDBRANCH  17  19
ENDBRANCH  13  17
ENDBRANCH   8  12
ENDBRANCH   7   8
ENDBRANCH   4   7
BRANCH   5  21
HETATM   21  O5  UNL     1      25.382  -0.762   4.832  1.00  0.00    -0.288 OA
ATOM     22  H5  UNL     1      24.627  -0.293   5.168  1.00  0.00     0.244 HD
ENDBRANCH   5  21
ENDBRANCH   1   4
BRANCH   1  23
HETATM   23  C13 UNL     1      29.312  -3.618   5.396  1.00  0.00     0.191 C 
BRANCH  23  24
HETATM   24  N5  UNL     1      30.477  -3.465   6.224  1.00  0.00    -0.346 N 
HETATM   25  C14 UNL     1      31.758  -3.462   5.644  1.00  0.00     0.214 C 
HETATM   26  C15 UNL     1      32.986  -3.306   6.477  1.00  0.00     0.117 C 
HETATM   27  O9  UNL     1      31.878  -3.591   4.403  1.00  0.00    -0.274 OA
ATOM     28  H5  UNL     1      30.375  -3.359   7.233  1.00  0.00     0.163 HD
ENDBRANCH  23  24
BRANCH  23  29
HETATM   29  C16 UNL     1      29.017  -5.109   5.228  1.00  0.00     0.047 A 
HETATM   30  C17 UNL     1      29.148  -5.965   6.292  1.00  0.00     0.080 A 
HETATM   31  S1  UNL     1      28.729  -7.467   5.611  1.00  0.00    -0.064 SA
HETATM   32  C18 UNL     1      28.411  -6.937   4.021  1.00  0.00     0.142 A 
HETATM   33  N7  UNL     1      28.642  -5.629   4.087  1.00  0.00    -0.338 N 
ATOM     34  H7  UNL     1      28.529  -5.041   3.262  1.00  0.00     0.168 HD
BRANCH  32  35
HETATM   35  N6  UNL     1      28.028  -7.630   2.964  1.00  0.00    -0.380 N 
ATOM     36  H62 UNL     1      28.377  -7.546   2.010  1.00  0.00     0.158 HD
ATOM     37  H61 UNL     1      27.328  -8.367   2.891  1.00  0.00     0.158 HD
ENDBRANCH  32  35
ENDBRANCH  23  29
ENDBRANCH   1  23
BRANCH   2  38
HETATM   38  N4  UNL     1      27.131  -1.987   7.877  1.00  0.00    -0.299 N 
ATOM     39  H4  UNL     1      26.555  -1.305   7.384  1.00  0.00     0.183 HD
BRANCH  38  40
HETATM   40  C10 UNL     1      26.861  -2.190   9.288  1.00  0.00     0.334 C 
BRANCH  40  41
HETATM   41  O6  UNL     1      25.491  -2.159   9.526  1.00  0.00    -0.367 OA
ATOM     42  H6  UNL     1      25.309  -1.706  10.341  1.00  0.00     0.212 HD
ENDBRANCH  40  41
BRANCH  40  43
HETATM   43  C11 UNL     1      27.506  -1.172  10.135  1.00  0.00     0.308 C 
HETATM   44  O7  UNL     1      27.288   0.045   9.958  1.00  0.00    -0.260 OA
BRANCH  43  45
HETATM   45  O8  UNL     1      28.364  -1.559  11.138  1.00  0.00    -0.323 OA
HETATM   46  C12 UNL     1      27.970  -1.906  12.440  1.00  0.00     0.213 C 
ENDBRANCH  43  45
ENDBRANCH  40  43
ENDBRANCH  38  40
ENDBRANCH   2  38
TORSDOF 16
ENDMDL
MODEL 5
REMARK VINA RESULT: -8.305069060      2.498      7.115
REMARK  16 active torsions:
REMARK  status: ('A' for Active; 'I' for Inactive)
REMARK    1  A    between atoms: O1_2  and  C2_3 
REMARK    2  A    between atoms: C2_3  and  C3_5 
REMARK    3  A    between atoms: C6_9  and  C7_10 
REMARK    4  A    between atoms: C7_10  and  O4_14 
REMARK    5  A    between atoms: O4_14  and  C8_15 
REMARK    6  A    between atoms: C8_15  and  C9_20 
REMARK    7  A    between atoms: N2_16  and  O5_18 
REMARK    8  A    between atoms: C9_20  and  C13_32 
REMARK    9  A    between atoms: N3_21  and  N4_23 
REMARK   10  A    between atoms: N4_23  and  C10_25 
REMARK   11  A    between atoms: C10_25  and  O6_26 
REMARK   12  A    between atoms: C10_25  and  C11_28 
REMARK   13  A    between atoms: C11_28  and  O8_30 
REMARK   14  A    between atoms: C13_32  and  N5_33 
REMARK   15  A    between atoms: C13_32  and  C16_38 
REMARK       I    between atoms: N5_33  and  C14_35 
REMARK   16  A    between atoms: C18_41  and  N6_42 
ROOT
HETATM    1  C9  UNL     1      28.600  -2.485   6.296  1.00  0.00     0.107 C 
HETATM    2  N3  UNL     1      28.846  -1.812   7.356  1.00  0.00    -0.300 N 
ATOM      3  H3  UNL     1      29.758  -1.989   7.776  1.00  0.00     0.186 HD
ENDROOT
BRANCH   1   4
HETATM    4  C8  UNL     1      27.313  -2.285   5.633  1.00  0.00     0.196 C 
HETATM    5  N2  UNL     1      26.996  -1.143   5.224  1.00  0.00    -0.245 N 
ATOM      6  H2  UNL     1      27.730  -0.460   5.415  1.00  0.00     0.196 HD
BRANCH   4   7
HETATM    7  O4  UNL     1      26.400  -3.345   5.439  1.00  0.00    -0.271 OA
BRANCH   7   8
HETATM    8  C7  UNL     1      26.009  -3.702   4.163  1.00  0.00     0.179 C 
HETATM    9  N1  UNL     1      26.982  -4.067   3.370  1.00  0.00    -0.377 N 
ATOM     10  H12 UNL     1      26.694  -4.331   2.428  1.00  0.00     0.158 HD
ATOM     11  H11 UNL     1      27.936  -4.065   3.734  1.00  0.00     0.158 HD
BRANCH   8  12
HETATM   12  C6  UNL     1      24.666  -3.705   3.650  1.00  0.00     0.142 A 
HETATM   13  C3  UNL     1      23.891  -4.698   3.123  1.00  0.00     0.079 A 
HETATM   14  C4  UNL     1      22.650  -4.124   2.783  1.00  0.00     0.045 A 
HETATM   15  C5  UNL     1      22.772  -2.805   3.136  1.00  0.00     0.144 A 
HETATM   16  O3  UNL     1      23.945  -2.576   3.638  1.00  0.00    -0.317 OA
BRANCH  13  17
HETATM   17  C2  UNL     1      24.201  -6.092   2.928  1.00  0.00     0.295 C 
HETATM   18  O2  UNL     1      23.754  -6.831   2.035  1.00  0.00    -0.259 OA
BRANCH  17  19
HETATM   19  O1  UNL     1      25.096  -6.718   3.818  1.00  0.00    -0.322 OA
HETATM   20  C1  UNL     1      24.696  -7.070   5.126  1.00  0.00     0.213 C 
ENDBRANCH  17  19
ENDBRANCH  13  17
ENDBRANCH   8  12
ENDBRANCH   7   8
ENDBRANCH   4   7
BRANCH   5  21
HETATM   21  O5  UNL     1      25.967  -0.586   4.612  1.00  0.00    -0.288 OA
ATOM     22  H5  UNL     1      25.515   0.248   4.632  1.00  0.00     0.244 HD
ENDBRANCH   5  21
ENDBRANCH   1   4
BRANCH   1  23
HETATM   23  C13 UNL     1      29.624  -3.409   5.803  1.00  0.00     0.191 C 
BRANCH  23  24
HETATM   24  N5  UNL     1      30.874  -3.302   6.504  1.00  0.00    -0.346 N 
HETATM   25  C14 UNL     1      32.086  -3.350   5.793  1.00  0.00     0.214 C 
HETATM   26  C15 UNL     1      33.399  -3.242   6.494  1.00  0.00     0.117 C 
HETATM   27  O9  UNL     1      32.071  -3.485   4.547  1.00  0.00    -0.274 OA
ATOM     28  H5  UNL     1      30.882  -3.192   7.518  1.00  0.00     0.163 HD
ENDBRANCH  23  24
BRANCH  23  29
HETATM   29  C16 UNL     1      29.133  -4.855   5.885  1.00  0.00     0.047 A 
HETATM   30  C17 UNL     1      28.960  -5.460   7.105  1.00  0.00     0.080 A 
HETATM   31  S1  UNL     1      28.428  -7.017   6.672  1.00  0.00    -0.064 SA
HETATM   32  C18 UNL     1      28.451  -6.824   4.977  1.00  0.00     0.142 A 
HETATM   33  N7  UNL     1      28.868  -5.571   4.822  1.00  0.00    -0.338 N 
ATOM     34  H7  UNL     1      28.978  -5.174   3.889  1.00  0.00     0.168 HD
BRANCH  32  35
HETATM   35  N6  UNL     1      28.139  -7.687   4.028  1.00  0.00    -0.380 N 
ATOM     36  H62 UNL     1      28.133  -8.705   4.096  1.00  0.00     0.158 HD
ATOM     37  H61 UNL     1      27.849  -7.517   3.066  1.00  0.00     0.158 HD
ENDBRANCH  32  35
ENDBRANCH  23  29
ENDBRANCH   1  23
BRANCH   2  38
HETATM   38  N4  UNL     1      28.080  -0.894   8.009  1.00  0.00    -0.299 N 
ATOM     39  H4  UNL     1      27.669  -0.145   7.452  1.00  0.00     0.183 HD
BRANCH  38  40
HETATM   40  C10 UNL     1      27.801  -0.897   9.432  1.00  0.00     0.334 C 
BRANCH  40  41
HETATM   41  O6  UNL     1      28.838  -0.284  10.128  1.00  0.00    -0.367 OA
ATOM     42  H6  UNL     1      28.582  -0.125  11.028  1.00  0.00     0.212 HD
ENDBRANCH  40  41
BRANCH  40  43
HETATM   43  C11 UNL     1      27.620  -2.258   9.967  1.00  0.00     0.308 C 
HETATM   44  O7  UNL     1      27.055  -3.145   9.292  1.00  0.00    -0.260 OA
BRANCH  43  45
HETATM   45  O8  UNL     1      28.075  -2.564  11.228  1.00  0.00    -0.323 OA
HETATM   46  C12 UNL     1      27.322  -2.430  12.406  1.00  0.00     0.213 C 
ENDBRANCH  43  45
ENDBRANCH  40  43
ENDBRANCH  38  40
ENDBRANCH   2  38
TORSDOF 16
ENDMDL
