MODEL 1
REMARK VINA RESULT: -8.353065470      0.000      0.000
REMARK  16 active torsions:
REMARK  status: ('A' for Active; 'I' for Inactive)
REMARK    1  A    between atoms: C2_2  and  C3_3 
REMARK    2  A    between atoms: C3_3  and  O1_4 
REMARK    3  A    between atoms: O1_4  and  C4_5 
REMARK    4  A    between atoms: C7_8  and  C8_9 
REMARK    5  A    between atoms: C8_9  and  O2_10 
REMARK    6  A    between atoms: O2_10  and  C9_11 
REMARK    7  A    between atoms: C12_17  and  C13_18 
REMARK    8  A    between atoms: C13_18  and  C14_19 
REMARK    9  A    between atoms: C14_19  and  C15_20 
REMARK   10  A    between atoms: C15_20  and  C16_21 
REMARK   11  A    between atoms: C16_21  and  N2_22 
REMARK   12  A    between atoms: C18_30  and  C19_31 
REMARK   13  A    between atoms: C19_31  and  C20_32 
REMARK   14  A    between atoms: C20_32  and  C21_33 
REMARK   15  A    between atoms: C21_33  and  C22_34 
REMARK   16  A    between atoms: C22_34  and  N4_35 
ROOT
HETATM    1  C9  UNL     1       8.551  25.269   2.506  1.00  0.00     0.231 C 
HETATM    2  C10 UNL     1       8.999  26.373   3.408  1.00  0.00     0.164 C 
HETATM    3  N1  UNL     1       8.414  27.651   3.213  1.00  0.00    -0.356 N 
ATOM      4  H1  UNL     1       7.935  28.047   4.021  1.00  0.00     0.162 HD
HETATM    5  C11 UNL     1       8.409  28.436   2.062  1.00  0.00     0.240 C 
HETATM    6  O3  UNL     1       7.331  29.081   1.805  1.00  0.00    -0.271 OA
HETATM    7  C12 UNL     1       9.479  28.645   1.074  1.00  0.00     0.176 C 
HETATM    8  N3  UNL     1      10.626  27.810   1.220  1.00  0.00    -0.346 N 
ATOM      9  H3  UNL     1      11.253  28.039   1.992  1.00  0.00     0.163 HD
HETATM   10  C17 UNL     1      10.997  26.709   0.430  1.00  0.00     0.241 C 
HETATM   11  O4  UNL     1      12.235  26.585   0.146  1.00  0.00    -0.271 OA
HETATM   12  C18 UNL     1      10.109  25.669  -0.112  1.00  0.00     0.176 C 
HETATM   13  N5  UNL     1       8.720  25.912   0.040  1.00  0.00    -0.346 N 
ATOM     14  H5  UNL     1       8.219  26.291  -0.763  1.00  0.00     0.163 HD
HETATM   15  C23 UNL     1       7.970  25.669   1.227  1.00  0.00     0.249 C 
HETATM   16  O5  UNL     1       6.702  25.807   1.177  1.00  0.00    -0.271 OA
ENDROOT
BRANCH   1  17
HETATM   17  O2  UNL     1       7.630  24.428   3.143  1.00  0.00    -0.370 OA
BRANCH  17  18
HETATM   18  C8  UNL     1       7.755  24.389   4.509  1.00  0.00     0.207 C 
BRANCH  18  19
HETATM   19  C7  UNL     1       6.495  23.850   5.056  1.00  0.00    -0.034 A 
HETATM   20  C6  UNL     1       6.498  22.817   5.963  1.00  0.00     0.012 A 
HETATM   21  C5  UNL     1       5.320  22.322   6.465  1.00  0.00     0.037 A 
HETATM   22  C4  UNL     1       4.080  22.866   6.056  1.00  0.00     0.069 A 
HETATM   23  C25 UNL     1       4.087  23.895   5.152  1.00  0.00     0.037 A 
HETATM   24  C24 UNL     1       5.298  24.382   4.656  1.00  0.00     0.012 A 
BRANCH  22  25
HETATM   25  O1  UNL     1       2.972  22.322   6.593  1.00  0.00    -0.348 OA
BRANCH  25  26
HETATM   26  C3  UNL     1       2.518  22.059   7.846  1.00  0.00     0.202 C 
BRANCH  26  27
HETATM   27  C2  UNL     1       1.608  20.901   8.018  1.00  0.00    -0.011 C 
HETATM   28  C1  UNL     1       0.359  20.965   8.438  1.00  0.00     0.009 C 
ENDBRANCH  26  27
ENDBRANCH  25  26
ENDBRANCH  22  25
ENDBRANCH  18  19
ENDBRANCH  17  18
ENDBRANCH   1  17
BRANCH  12  29
HETATM   29  C19 UNL     1      10.472  25.457  -1.563  1.00  0.00     0.035 C 
BRANCH  29  30
HETATM   30  C20 UNL     1       9.534  24.533  -2.281  1.00  0.00     0.004 C 
BRANCH  30  31
HETATM   31  C21 UNL     1      10.297  23.410  -2.910  1.00  0.00     0.027 C 
BRANCH  31  32
HETATM   32  C22 UNL     1      11.239  23.985  -3.951  1.00  0.00     0.229 C 
BRANCH  32  33
HETATM   33  N4  UNL     1      12.486  23.247  -4.006  1.00  0.00    -0.079 N 
ATOM     34  H43 UNL     1      12.329  22.264  -4.231  1.00  0.00     0.274 HD
ATOM     35  H42 UNL     1      13.040  23.509  -4.821  1.00  0.00     0.274 HD
ATOM     36  H41 UNL     1      13.020  23.350  -3.142  1.00  0.00     0.274 HD
ENDBRANCH  32  33
ENDBRANCH  31  32
ENDBRANCH  30  31
ENDBRANCH  29  30
ENDBRANCH  12  29
BRANCH   7  37
HETATM   37  C13 UNL     1       9.821  30.122   1.108  1.00  0.00     0.035 C 
BRANCH  37  38
HETATM   38  C14 UNL     1      10.598  30.505   2.322  1.00  0.00     0.004 C 
BRANCH  38  39
HETATM   39  C15 UNL     1       9.949  31.656   3.021  1.00  0.00     0.027 C 
BRANCH  39  40
HETATM   40  C16 UNL     1       9.285  31.252   4.319  1.00  0.00     0.229 C 
BRANCH  40  41
HETATM   41  N2  UNL     1       7.844  31.197   4.170  1.00  0.00    -0.079 N 
ATOM     42  H23 UNL     1       7.451  32.117   3.969  1.00  0.00     0.274 HD
ATOM     43  H22 UNL     1       7.572  30.722   3.309  1.00  0.00     0.274 HD
ATOM     44  H21 UNL     1       7.407  30.772   4.987  1.00  0.00     0.274 HD
ENDBRANCH  40  41
ENDBRANCH  39  40
ENDBRANCH  38  39
ENDBRANCH  37  38
ENDBRANCH   7  37
TORSDOF 16
ENDMDL
MODEL 2
REMARK VINA RESULT: -8.296479499      0.684      1.110
REMARK  16 active torsions:
REMARK  status: ('A' for Active; 'I' for Inactive)
REMARK    1  A    between atoms: C2_2  and  C3_3 
REMARK    2  A    between atoms: C3_3  and  O1_4 
REMARK    3  A    between atoms: O1_4  and  C4_5 
REMARK    4  A    between atoms: C7_8  and  C8_9 
REMARK    5  A    between atoms: C8_9  and  O2_10 
REMARK    6  A    between atoms: O2_10  and  C9_11 
REMARK    7  A    between atoms: C12_17  and  C13_18 
REMARK    8  A    between atoms: C13_18  and  C14_19 
REMARK    9  A    between atoms: C14_19  and  C15_20 
REMARK   10  A    between atoms: C15_20  and  C16_21 
REMARK   11  A    between atoms: C16_21  and  N2_22 
REMARK   12  A    between atoms: C18_30  and  C19_31 
REMARK   13  A    between atoms: C19_31  and  C20_32 
REMARK   14  A    between atoms: C20_32  and  C21_33 
REMARK   15  A    between atoms: C21_33  and  C22_34 
REMARK   16  A    between atoms: C22_34  and  N4_35 
ROOT
HETATM    1  C9  UNL     1       8.638  25.231   2.496  1.00  0.00     0.231 C 
HETATM    2  C10 UNL     1       9.119  26.300   3.424  1.00  0.00     0.164 C 
HETATM    3  N1  UNL     1       8.549  27.591   3.281  1.00  0.00    -0.356 N 
ATOM      4  H1  UNL     1       8.091  27.968   4.110  1.00  0.00     0.162 HD
HETATM    5  C11 UNL     1       8.533  28.412   2.155  1.00  0.00     0.240 C 
HETATM    6  O3  UNL     1       7.459  29.080   1.940  1.00  0.00    -0.271 OA
HETATM    7  C12 UNL     1       9.587  28.638   1.154  1.00  0.00     0.176 C 
HETATM    8  N3  UNL     1      10.724  27.783   1.251  1.00  0.00    -0.346 N 
ATOM      9  H3  UNL     1      11.369  27.979   2.017  1.00  0.00     0.163 HD
HETATM   10  C17 UNL     1      11.064  26.702   0.419  1.00  0.00     0.241 C 
HETATM   11  O4  UNL     1      12.294  26.571   0.107  1.00  0.00    -0.271 OA
HETATM   12  C18 UNL     1      10.151  25.692  -0.138  1.00  0.00     0.176 C 
HETATM   13  N5  UNL     1       8.769  25.950   0.050  1.00  0.00    -0.346 N 
ATOM     14  H5  UNL     1       8.257  26.360  -0.731  1.00  0.00     0.163 HD
HETATM   15  C23 UNL     1       8.038  25.679   1.242  1.00  0.00     0.249 C 
HETATM   16  O5  UNL     1       6.772  25.836   1.222  1.00  0.00    -0.271 OA
ENDROOT
BRANCH   1  17
HETATM   17  O2  UNL     1       7.718  24.382   3.124  1.00  0.00    -0.370 OA
BRANCH  17  18
HETATM   18  C8  UNL     1       7.836  24.337   4.491  1.00  0.00     0.207 C 
BRANCH  18  19
HETATM   19  C7  UNL     1       6.552  23.854   5.034  1.00  0.00    -0.034 A 
HETATM   20  C6  UNL     1       5.359  24.413   4.641  1.00  0.00     0.012 A 
HETATM   21  C5  UNL     1       4.169  23.956   5.155  1.00  0.00     0.037 A 
HETATM   22  C4  UNL     1       4.151  22.903   6.100  1.00  0.00     0.069 A 
HETATM   23  C25 UNL     1       5.346  22.354   6.484  1.00  0.00     0.037 A 
HETATM   24  C24 UNL     1       6.542  22.834   5.948  1.00  0.00     0.012 A 
BRANCH  22  25
HETATM   25  O1  UNL     1       2.945  22.517   6.555  1.00  0.00    -0.348 OA
BRANCH  25  26
HETATM   26  C3  UNL     1       2.376  22.314   7.771  1.00  0.00     0.202 C 
BRANCH  26  27
HETATM   27  C2  UNL     1       1.661  21.034   7.990  1.00  0.00    -0.011 C 
HETATM   28  C1  UNL     1       0.410  20.913   8.388  1.00  0.00     0.009 C 
ENDBRANCH  26  27
ENDBRANCH  25  26
ENDBRANCH  22  25
ENDBRANCH  18  19
ENDBRANCH  17  18
ENDBRANCH   1  17
BRANCH  12  29
HETATM   29  C19 UNL     1      10.483  25.522  -1.602  1.00  0.00     0.035 C 
BRANCH  29  30
HETATM   30  C20 UNL     1       9.357  25.906  -2.515  1.00  0.00     0.004 C 
BRANCH  30  31
HETATM   31  C21 UNL     1       8.869  24.708  -3.265  1.00  0.00     0.027 C 
BRANCH  31  32
HETATM   32  C22 UNL     1       9.933  23.627  -3.200  1.00  0.00     0.229 C 
BRANCH  32  33
HETATM   33  N4  UNL     1       9.675  22.569  -4.158  1.00  0.00    -0.079 N 
ATOM     34  H43 UNL     1       8.679  22.481  -4.359  1.00  0.00     0.274 HD
ATOM     35  H42 UNL     1      10.003  22.822  -5.090  1.00  0.00     0.274 HD
ATOM     36  H41 UNL     1      10.074  21.682  -3.850  1.00  0.00     0.274 HD
ENDBRANCH  32  33
ENDBRANCH  31  32
ENDBRANCH  30  31
ENDBRANCH  29  30
ENDBRANCH  12  29
BRANCH   7  37
HETATM   37  C13 UNL     1       9.950  30.108   1.227  1.00  0.00     0.035 C 
BRANCH  37  38
HETATM   38  C14 UNL     1      10.677  30.459   2.482  1.00  0.00     0.004 C 
BRANCH  38  39
HETATM   39  C15 UNL     1      10.193  31.766   3.023  1.00  0.00     0.027 C 
BRANCH  39  40
HETATM   40  C16 UNL     1       8.997  31.612   3.936  1.00  0.00     0.229 C 
BRANCH  40  41
HETATM   41  N2  UNL     1       9.269  30.658   4.993  1.00  0.00    -0.079 N 
ATOM     42  H23 UNL     1       9.688  29.802   4.627  1.00  0.00     0.274 HD
ATOM     43  H22 UNL     1      10.039  30.964   5.588  1.00  0.00     0.274 HD
ATOM     44  H21 UNL     1       8.429  30.463   5.536  1.00  0.00     0.274 HD
ENDBRANCH  40  41
ENDBRANCH  39  40
ENDBRANCH  38  39
ENDBRANCH  37  38
ENDBRANCH   7  37
TORSDOF 16
ENDMDL
MODEL 3
REMARK VINA RESULT: -8.228761910      1.228      1.544
REMARK  16 active torsions:
REMARK  status: ('A' for Active; 'I' for Inactive)
REMARK    1  A    between atoms: C2_2  and  C3_3 
REMARK    2  A    between atoms: C3_3  and  O1_4 
REMARK    3  A    between atoms: O1_4  and  C4_5 
REMARK    4  A    between atoms: C7_8  and  C8_9 
REMARK    5  A    between atoms: C8_9  and  O2_10 
REMARK    6  A    between atoms: O2_10  and  C9_11 
REMARK    7  A    between atoms: C12_17  and  C13_18 
REMARK    8  A    between atoms: C13_18  and  C14_19 
REMARK    9  A    between atoms: C14_19  and  C15_20 
REMARK   10  A    between atoms: C15_20  and  C16_21 
REMARK   11  A    between atoms: C16_21  and  N2_22 
REMARK   12  A    between atoms: C18_30  and  C19_31 
REMARK   13  A    between atoms: C19_31  and  C20_32 
REMARK   14  A    between atoms: C20_32  and  C21_33 
REMARK   15  A    between atoms: C21_33  and  C22_34 
REMARK   16  A    between atoms: C22_34  and  N4_35 
ROOT
HETATM    1  C9  UNL     1       8.664  25.297   2.525  1.00  0.00     0.231 C 
HETATM    2  C10 UNL     1       9.119  26.378   3.451  1.00  0.00     0.164 C 
HETATM    3  N1  UNL     1       8.530  27.660   3.296  1.00  0.00    -0.356 N 
ATOM      4  H1  UNL     1       8.058  28.033   4.119  1.00  0.00     0.162 HD
HETATM    5  C11 UNL     1       8.513  28.475   2.167  1.00  0.00     0.240 C 
HETATM    6  O3  UNL     1       7.431  29.125   1.937  1.00  0.00    -0.271 OA
HETATM    7  C12 UNL     1       9.573  28.712   1.175  1.00  0.00     0.176 C 
HETATM    8  N3  UNL     1      10.722  27.875   1.288  1.00  0.00    -0.346 N 
ATOM      9  H3  UNL     1      11.356  28.085   2.059  1.00  0.00     0.163 HD
HETATM   10  C17 UNL     1      11.088  26.796   0.465  1.00  0.00     0.241 C 
HETATM   11  O4  UNL     1      12.323  26.683   0.166  1.00  0.00    -0.271 OA
HETATM   12  C18 UNL     1      10.197  25.770  -0.096  1.00  0.00     0.176 C 
HETATM   13  N5  UNL     1       8.808  26.006   0.076  1.00  0.00    -0.346 N 
ATOM     14  H5  UNL     1       8.299  26.405  -0.712  1.00  0.00     0.163 HD
HETATM   15  C23 UNL     1       8.070  25.730   1.262  1.00  0.00     0.249 C 
HETATM   16  O5  UNL     1       6.802  25.867   1.229  1.00  0.00    -0.271 OA
ENDROOT
BRANCH   1  17
HETATM   17  O2  UNL     1       7.751  24.437   3.148  1.00  0.00    -0.370 OA
BRANCH  17  18
HETATM   18  C8  UNL     1       7.852  24.405   4.516  1.00  0.00     0.207 C 
BRANCH  18  19
HETATM   19  C7  UNL     1       6.576  23.887   5.045  1.00  0.00    -0.034 A 
HETATM   20  C6  UNL     1       5.373  24.423   4.650  1.00  0.00     0.012 A 
HETATM   21  C5  UNL     1       4.191  23.934   5.152  1.00  0.00     0.037 A 
HETATM   22  C4  UNL     1       4.191  22.872   6.085  1.00  0.00     0.069 A 
HETATM   23  C25 UNL     1       5.395  22.345   6.472  1.00  0.00     0.037 A 
HETATM   24  C24 UNL     1       6.583  22.858   5.949  1.00  0.00     0.012 A 
BRANCH  22  25
HETATM   25  O1  UNL     1       2.990  22.454   6.529  1.00  0.00    -0.348 OA
BRANCH  25  26
HETATM   26  C3  UNL     1       2.413  22.240   7.739  1.00  0.00     0.202 C 
BRANCH  26  27
HETATM   27  C2  UNL     1       1.624  20.997   7.914  1.00  0.00    -0.011 C 
HETATM   28  C1  UNL     1       0.377  20.935   8.337  1.00  0.00     0.009 C 
ENDBRANCH  26  27
ENDBRANCH  25  26
ENDBRANCH  22  25
ENDBRANCH  18  19
ENDBRANCH  17  18
ENDBRANCH   1  17
BRANCH  12  29
HETATM   29  C19 UNL     1      10.546  25.597  -1.556  1.00  0.00     0.035 C 
BRANCH  29  30
HETATM   30  C20 UNL     1       9.953  24.363  -2.167  1.00  0.00     0.004 C 
BRANCH  30  31
HETATM   31  C21 UNL     1       8.866  24.733  -3.125  1.00  0.00     0.027 C 
BRANCH  31  32
HETATM   32  C22 UNL     1       8.975  23.844  -4.350  1.00  0.00     0.229 C 
BRANCH  32  33
HETATM   33  N4  UNL     1       9.689  22.616  -4.055  1.00  0.00    -0.079 N 
ATOM     34  H43 UNL     1      10.618  22.613  -4.476  1.00  0.00     0.274 HD
ATOM     35  H42 UNL     1       9.961  22.570  -3.073  1.00  0.00     0.274 HD
ATOM     36  H41 UNL     1       9.151  21.795  -4.332  1.00  0.00     0.274 HD
ENDBRANCH  32  33
ENDBRANCH  31  32
ENDBRANCH  30  31
ENDBRANCH  29  30
ENDBRANCH  12  29
BRANCH   7  37
HETATM   37  C13 UNL     1       9.913  30.188   1.245  1.00  0.00     0.035 C 
BRANCH  37  38
HETATM   38  C14 UNL     1      10.644  30.552   2.493  1.00  0.00     0.004 C 
BRANCH  38  39
HETATM   39  C15 UNL     1      11.398  31.829   2.309  1.00  0.00     0.027 C 
BRANCH  39  40
HETATM   40  C16 UNL     1      11.816  32.454   3.622  1.00  0.00     0.229 C 
BRANCH  40  41
HETATM   41  N2  UNL     1      13.246  32.688   3.653  1.00  0.00    -0.079 N 
ATOM     42  H23 UNL     1      13.471  33.669   3.486  1.00  0.00     0.274 HD
ATOM     43  H22 UNL     1      13.621  32.602   4.598  1.00  0.00     0.274 HD
ATOM     44  H21 UNL     1      13.732  32.074   2.999  1.00  0.00     0.274 HD
ENDBRANCH  40  41
ENDBRANCH  39  40
ENDBRANCH  38  39
ENDBRANCH  37  38
ENDBRANCH   7  37
TORSDOF 16
ENDMDL
MODEL 4
REMARK VINA RESULT: -8.227640542      1.075      1.887
REMARK  16 active torsions:
REMARK  status: ('A' for Active; 'I' for Inactive)
REMARK    1  A    between atoms: C2_2  and  C3_3 
REMARK    2  A    between atoms: C3_3  and  O1_4 
REMARK    3  A    between atoms: O1_4  and  C4_5 
REMARK    4  A    between atoms: C7_8  and  C8_9 
REMARK    5  A    between atoms: C8_9  and  O2_10 
REMARK    6  A    between atoms: O2_10  and  C9_11 
REMARK    7  A    between atoms: C12_17  and  C13_18 
REMARK    8  A    between atoms: C13_18  and  C14_19 
REMARK    9  A    between atoms: C14_19  and  C15_20 
REMARK   10  A    between atoms: C15_20  and  C16_21 
REMARK   11  A    between atoms: C16_21  and  N2_22 
REMARK   12  A    between atoms: C18_30  and  C19_31 
REMARK   13  A    between atoms: C19_31  and  C20_32 
REMARK   14  A    between atoms: C20_32  and  C21_33 
REMARK   15  A    between atoms: C21_33  and  C22_34 
REMARK   16  A    between atoms: C22_34  and  N4_35 
ROOT
HETATM    1  C9  UNL     1       8.558  25.396   2.521  1.00  0.00     0.231 C 
HETATM    2  C10 UNL     1       8.970  26.593   3.315  1.00  0.00     0.164 C 
HETATM    3  N1  UNL     1       8.346  27.829   3.004  1.00  0.00    -0.356 N 
ATOM      4  H1  UNL     1       7.853  28.282   3.773  1.00  0.00     0.162 HD
HETATM    5  C11 UNL     1       8.317  28.503   1.785  1.00  0.00     0.240 C 
HETATM    6  O3  UNL     1       7.219  29.087   1.472  1.00  0.00    -0.271 OA
HETATM    7  C12 UNL     1       9.381  28.652   0.780  1.00  0.00     0.176 C 
HETATM    8  N3  UNL     1      10.553  27.870   1.000  1.00  0.00    -0.346 N 
ATOM      9  H3  UNL     1      11.171  28.190   1.746  1.00  0.00     0.163 HD
HETATM   10  C17 UNL     1      10.959  26.713   0.315  1.00  0.00     0.241 C 
HETATM   11  O4  UNL     1      12.200  26.602   0.040  1.00  0.00    -0.271 OA
HETATM   12  C18 UNL     1      10.104  25.600  -0.126  1.00  0.00     0.176 C 
HETATM   13  N5  UNL     1       8.708  25.813   0.006  1.00  0.00    -0.346 N 
ATOM     14  H5  UNL     1       8.196  26.099  -0.828  1.00  0.00     0.163 HD
HETATM   15  C23 UNL     1       7.965  25.657   1.212  1.00  0.00     0.249 C 
HETATM   16  O5  UNL     1       6.694  25.751   1.152  1.00  0.00    -0.271 OA
ENDROOT
BRANCH   1  17
HETATM   17  O2  UNL     1       7.663  24.589   3.235  1.00  0.00    -0.370 OA
BRANCH  17  18
HETATM   18  C8  UNL     1       7.589  24.881   4.574  1.00  0.00     0.207 C 
BRANCH  18  19
HETATM   19  C7  UNL     1       6.469  24.103   5.138  1.00  0.00    -0.034 A 
HETATM   20  C6  UNL     1       6.691  23.076   6.024  1.00  0.00     0.012 A 
HETATM   21  C5  UNL     1       5.641  22.358   6.542  1.00  0.00     0.037 A 
HETATM   22  C4  UNL     1       4.310  22.661   6.170  1.00  0.00     0.069 A 
HETATM   23  C25 UNL     1       4.099  23.686   5.286  1.00  0.00     0.037 A 
HETATM   24  C24 UNL     1       5.183  24.403   4.774  1.00  0.00     0.012 A 
BRANCH  22  25
HETATM   25  O1  UNL     1       3.340  21.908   6.721  1.00  0.00    -0.348 OA
BRANCH  25  26
HETATM   26  C3  UNL     1       2.510  22.009   7.791  1.00  0.00     0.202 C 
BRANCH  26  27
HETATM   27  C2  UNL     1       1.599  20.871   8.063  1.00  0.00    -0.011 C 
HETATM   28  C1  UNL     1       0.338  20.972   8.434  1.00  0.00     0.009 C 
ENDBRANCH  26  27
ENDBRANCH  25  26
ENDBRANCH  22  25
ENDBRANCH  18  19
ENDBRANCH  17  18
ENDBRANCH   1  17
BRANCH  12  29
HETATM   29  C19 UNL     1      10.475  25.266  -1.552  1.00  0.00     0.035 C 
BRANCH  29  30
HETATM   30  C20 UNL     1       9.477  24.377  -2.233  1.00  0.00     0.004 C 
BRANCH  30  31
HETATM   31  C21 UNL     1      10.181  23.328  -3.034  1.00  0.00     0.027 C 
BRANCH  31  32
HETATM   32  C22 UNL     1      11.231  24.001  -3.899  1.00  0.00     0.229 C 
BRANCH  32  33
HETATM   33  N4  UNL     1      12.435  23.198  -3.995  1.00  0.00    -0.079 N 
ATOM     34  H43 UNL     1      12.283  22.363  -4.560  1.00  0.00     0.274 HD
ATOM     35  H42 UNL     1      13.142  23.653  -4.573  1.00  0.00     0.274 HD
ATOM     36  H41 UNL     1      12.802  22.962  -3.073  1.00  0.00     0.274 HD
ENDBRANCH  32  33
ENDBRANCH  31  32
ENDBRANCH  30  31
ENDBRANCH  29  30
ENDBRANCH  12  29
BRANCH   7  37
HETATM   37  C13 UNL     1       9.675  30.136   0.676  1.00  0.00     0.035 C 
BRANCH  37  38
HETATM   38  C14 UNL     1      11.136  30.436   0.715  1.00  0.00     0.004 C 
BRANCH  38  39
HETATM   39  C15 UNL     1      11.588  31.026  -0.583  1.00  0.00     0.027 C 
BRANCH  39  40
HETATM   40  C16 UNL     1      12.048  29.977  -1.572  1.00  0.00     0.229 C 
BRANCH  40  41
HETATM   41  N2  UNL     1      13.190  29.245  -1.058  1.00  0.00    -0.079 N 
ATOM     42  H23 UNL     1      14.029  29.825  -1.036  1.00  0.00     0.274 HD
ATOM     43  H22 UNL     1      13.101  29.062  -0.059  1.00  0.00     0.274 HD
ATOM     44  H21 UNL     1      13.340  28.386  -1.585  1.00  0.00     0.274 HD
ENDBRANCH  40  41
ENDBRANCH  39  40
ENDBRANCH  38  39
ENDBRANCH  37  38
ENDBRANCH   7  37
TORSDOF 16
ENDMDL
MODEL 5
REMARK VINA RESULT: -8.103808090      1.268      1.721
REMARK  16 active torsions:
REMARK  status: ('A' for Active; 'I' for Inactive)
REMARK    1  A    between atoms: C2_2  and  C3_3 
REMARK    2  A    between atoms: C3_3  and  O1_4 
REMARK    3  A    between atoms: O1_4  and  C4_5 
REMARK    4  A    between atoms: C7_8  and  C8_9 
REMARK    5  A    between atoms: C8_9  and  O2_10 
REMARK    6  A    between atoms: O2_10  and  C9_11 
REMARK    7  A    between atoms: C12_17  and  C13_18 
REMARK    8  A    between atoms: C13_18  and  C14_19 
REMARK    9  A    between atoms: C14_19  and  C15_20 
REMARK   10  A    between atoms: C15_20  and  C16_21 
REMARK   11  A    between atoms: C16_21  and  N2_22 
REMARK   12  A    between atoms: C18_30  and  C19_31 
REMARK   13  A    between atoms: C19_31  and  C20_32 
REMARK   14  A    between atoms: C20_32  and  C21_33 
REMARK   15  A    between atoms: C21_33  and  C22_34 
REMARK   16  A    between atoms: C22_34  and  N4_35 
ROOT
HETATM    1  C9  UNL     1       8.662  25.303   2.557  1.00  0.00     0.231 C 
HETATM    2  C10 UNL     1       9.100  26.418   3.451  1.00  0.00     0.164 C 
HETATM    3  N1  UNL     1       8.480  27.681   3.270  1.00  0.00    -0.356 N 
ATOM      4  H1  UNL     1       8.007  28.064   4.088  1.00  0.00     0.162 HD
HETATM    5  C11 UNL     1       8.432  28.466   2.120  1.00  0.00     0.240 C 
HETATM    6  O3  UNL     1       7.333  29.084   1.886  1.00  0.00    -0.271 OA
HETATM    7  C12 UNL     1       9.476  28.703   1.112  1.00  0.00     0.176 C 
HETATM    8  N3  UNL     1      10.646  27.896   1.233  1.00  0.00    -0.346 N 
ATOM      9  H3  UNL     1      11.282  28.141   1.992  1.00  0.00     0.163 HD
HETATM   10  C17 UNL     1      11.029  26.805   0.434  1.00  0.00     0.241 C 
HETATM   11  O4  UNL     1      12.263  26.713   0.125  1.00  0.00    -0.271 OA
HETATM   12  C18 UNL     1      10.156  25.744  -0.091  1.00  0.00     0.176 C 
HETATM   13  N5  UNL     1       8.765  25.952   0.090  1.00  0.00    -0.346 N 
ATOM     14  H5  UNL     1       8.238  26.319  -0.703  1.00  0.00     0.163 HD
HETATM   15  C23 UNL     1       8.045  25.689   1.291  1.00  0.00     0.249 C 
HETATM   16  O5  UNL     1       6.774  25.796   1.267  1.00  0.00    -0.271 OA
ENDROOT
BRANCH   1  17
HETATM   17  O2  UNL     1       7.776  24.438   3.211  1.00  0.00    -0.370 OA
BRANCH  17  18
HETATM   18  C8  UNL     1       7.854  24.483   4.581  1.00  0.00     0.207 C 
BRANCH  18  19
HETATM   19  C7  UNL     1       6.598  23.926   5.118  1.00  0.00    -0.034 A 
HETATM   20  C6  UNL     1       6.609  22.921   6.055  1.00  0.00     0.012 A 
HETATM   21  C5  UNL     1       5.433  22.408   6.546  1.00  0.00     0.037 A 
HETATM   22  C4  UNL     1       4.188  22.906   6.095  1.00  0.00     0.069 A 
HETATM   23  C25 UNL     1       4.187  23.908   5.161  1.00  0.00     0.037 A 
HETATM   24  C24 UNL     1       5.396  24.413   4.677  1.00  0.00     0.012 A 
BRANCH  22  25
HETATM   25  O1  UNL     1       3.084  22.348   6.626  1.00  0.00    -0.348 OA
BRANCH  25  26
HETATM   26  C3  UNL     1       2.602  22.125   7.875  1.00  0.00     0.202 C 
BRANCH  26  27
HETATM   27  C2  UNL     1       1.727  20.945   8.074  1.00  0.00    -0.011 C 
HETATM   28  C1  UNL     1       0.467  20.983   8.460  1.00  0.00     0.009 C 
ENDBRANCH  26  27
ENDBRANCH  25  26
ENDBRANCH  22  25
ENDBRANCH  18  19
ENDBRANCH  17  18
ENDBRANCH   1  17
BRANCH  12  29
HETATM   29  C19 UNL     1      10.496  25.543  -1.549  1.00  0.00     0.035 C 
BRANCH  29  30
HETATM   30  C20 UNL     1       9.832  24.340  -2.152  1.00  0.00     0.004 C 
BRANCH  30  31
HETATM   31  C21 UNL     1       8.939  24.754  -3.279  1.00  0.00     0.027 C 
BRANCH  31  32
HETATM   32  C22 UNL     1       8.979  23.681  -4.350  1.00  0.00     0.229 C 
BRANCH  32  33
HETATM   33  N4  UNL     1       9.856  22.587  -3.976  1.00  0.00    -0.079 N 
ATOM     34  H43 UNL     1       9.660  21.748  -4.522  1.00  0.00     0.274 HD
ATOM     35  H42 UNL     1      10.814  22.756  -4.283  1.00  0.00     0.274 HD
ATOM     36  H41 UNL     1       9.812  22.399  -2.974  1.00  0.00     0.274 HD
ENDBRANCH  32  33
ENDBRANCH  31  32
ENDBRANCH  30  31
ENDBRANCH  29  30
ENDBRANCH  12  29
BRANCH   7  37
HETATM   37  C13 UNL     1       9.781  30.188   1.140  1.00  0.00     0.035 C 
BRANCH  37  38
HETATM   38  C14 UNL     1       9.792  30.798  -0.221  1.00  0.00     0.004 C 
BRANCH  38  39
HETATM   39  C15 UNL     1       8.480  31.451  -0.516  1.00  0.00     0.027 C 
BRANCH  39  40
HETATM   40  C16 UNL     1       7.638  30.654  -1.487  1.00  0.00     0.229 C 
BRANCH  40  41
HETATM   41  N2  UNL     1       6.493  30.066  -0.820  1.00  0.00    -0.079 N 
ATOM     42  H23 UNL     1       6.486  30.282   0.177  1.00  0.00     0.274 HD
ATOM     43  H22 UNL     1       5.623  30.529  -1.084  1.00  0.00     0.274 HD
ATOM     44  H21 UNL     1       6.449  29.061  -0.987  1.00  0.00     0.274 HD
ENDBRANCH  40  41
ENDBRANCH  39  40
ENDBRANCH  38  39
ENDBRANCH  37  38
ENDBRANCH   7  37
TORSDOF 16
ENDMDL
