MODEL 1
REMARK VINA RESULT: -8.850862936      0.000      0.000
REMARK  15 active torsions:
REMARK  status: ('A' for Active; 'I' for Inactive)
REMARK    1  A    between atoms: C3_5  and  C4_6 
REMARK    2  A    between atoms: C7_9  and  C8_10 
REMARK    3  A    between atoms: C8_10  and  C9_11 
REMARK    4  A    between atoms: C9_11  and  C10_12 
REMARK    5  A    between atoms: C10_12  and  N2_13 
REMARK    6  A    between atoms: N2_13  and  C11_14 
REMARK    7  A    between atoms: N2_13  and  N5_30 
REMARK    8  A    between atoms: C11_14  and  C12_15 
REMARK    9  A    between atoms: C13_16  and  C14_17 
REMARK   10  A    between atoms: C17_22  and  C18_23 
REMARK   11  A    between atoms: C18_23  and  C19_24 
REMARK   12  A    between atoms: C19_24  and  C20_25 
REMARK   13  A    between atoms: C20_25  and  O1_26 
REMARK   14  A    between atoms: N5_30  and  C22_32 
REMARK   15  A    between atoms: C23_33  and  C24_34 
ROOT
HETATM    1  N2  UNL     1      23.762  29.643  21.809  1.00  0.00    -0.212 NA
ENDROOT
BRANCH   1   2
HETATM    2  C10 UNL     1      25.047  30.185  21.505  1.00  0.00     0.119 C 
BRANCH   2   3
HETATM    3  C9  UNL     1      25.404  31.253  22.521  1.00  0.00     0.044 C 
BRANCH   3   4
HETATM    4  C8  UNL     1      24.385  32.315  22.491  1.00  0.00    -0.012 C 
BRANCH   4   5
HETATM    5  C7  UNL     1      24.711  33.578  22.418  1.00  0.00    -0.012 A 
HETATM    6  C2  UNL     1      24.763  34.320  21.243  1.00  0.00     0.033 A 
HETATM    7  C1  UNL     1      24.485  33.822  20.059  1.00  0.00     0.044 C 
HETATM    8  N1  UNL     1      25.133  35.554  21.594  1.00  0.00    -0.360 N 
HETATM    9  C3  UNL     1      25.318  35.642  22.907  1.00  0.00     0.010 A 
ATOM     10  H1  UNL     1      25.257  36.327  20.941  1.00  0.00     0.166 HD
HETATM   11  C6  UNL     1      25.059  34.399  23.467  1.00  0.00     0.038 A 
BRANCH   9  12
HETATM   12  C4  UNL     1      25.736  36.870  23.644  1.00  0.00     0.052 C 
HETATM   13  C5  UNL     1      25.407  38.045  22.755  1.00  0.00     0.011 C 
ENDBRANCH   9  12
ENDBRANCH   4   5
ENDBRANCH   3   4
ENDBRANCH   2   3
ENDBRANCH   1   2
BRANCH   1  14
HETATM   14  C11 UNL     1      23.776  28.610  22.781  1.00  0.00     0.208 C 
BRANCH  14  15
HETATM   15  C12 UNL     1      22.370  28.207  23.041  1.00  0.00    -0.083 C 
HETATM   16  C13 UNL     1      21.236  27.864  23.264  1.00  0.00    -0.045 C 
BRANCH  16  17
HETATM   17  C14 UNL     1      19.897  27.435  23.548  1.00  0.00     0.112 A 
HETATM   18  C15 UNL     1      18.977  26.861  22.699  1.00  0.00     0.042 A 
HETATM   19  C16 UNL     1      19.229  26.566  21.265  1.00  0.00     0.071 C 
HETATM   20  N3  UNL     1      17.834  26.607  23.344  1.00  0.00    -0.347 N 
HETATM   21  C17 UNL     1      18.002  27.017  24.631  1.00  0.00     0.084 A 
ATOM     22  H3  UNL     1      16.995  26.184  22.947  1.00  0.00     0.167 HD
HETATM   23  N4  UNL     1      19.254  27.518  24.744  1.00  0.00    -0.332 N 
HETATM   24  C21 UNL     1      19.829  28.072  25.954  1.00  0.00     0.158 C 
BRANCH  21  25
HETATM   25  C18 UNL     1      16.936  26.910  25.639  1.00  0.00     0.079 C 
BRANCH  25  26
HETATM   26  C19 UNL     1      16.547  28.180  26.310  1.00  0.00     0.033 C 
BRANCH  26  27
HETATM   27  C20 UNL     1      15.082  28.524  26.214  1.00  0.00     0.164 C 
BRANCH  27  28
HETATM   28  O1  UNL     1      14.649  28.472  24.874  1.00  0.00    -0.401 OA
ATOM     29  H1  UNL     1      13.701  28.520  24.828  1.00  0.00     0.209 HD
ENDBRANCH  27  28
ENDBRANCH  26  27
ENDBRANCH  25  26
ENDBRANCH  21  25
ENDBRANCH  16  17
ENDBRANCH  14  15
ENDBRANCH   1  14
BRANCH   1  30
HETATM   30  N5  UNL     1      22.983  29.421  20.693  1.00  0.00    -0.277 N 
ATOM     31  H5  UNL     1      23.018  28.526  20.205  1.00  0.00     0.191 HD
BRANCH  30  32
HETATM   32  C22 UNL     1      22.133  30.463  20.236  1.00  0.00     0.027 C 
HETATM   33  C23 UNL     1      21.418  31.350  19.826  1.00  0.00    -0.043 C 
BRANCH  33  34
HETATM   34  C24 UNL     1      20.582  32.400  19.317  1.00  0.00     0.019 A 
HETATM   35  C25 UNL     1      20.824  33.716  19.671  1.00  0.00     0.021 A 
HETATM   36  C26 UNL     1      20.058  34.770  19.215  1.00  0.00     0.008 A 
HETATM   37  C27 UNL     1      19.005  34.471  18.363  1.00  0.00    -0.062 A 
HETATM   38  C28 UNL     1      18.172  35.603  17.861  1.00  0.00     0.048 C 
HETATM   39  C29 UNL     1      18.721  33.181  17.980  1.00  0.00     0.008 A 
HETATM   40  C30 UNL     1      19.515  32.170  18.464  1.00  0.00     0.021 A 
ENDBRANCH  33  34
ENDBRANCH  30  32
ENDBRANCH   1  30
TORSDOF 15
ENDMDL
MODEL 2
REMARK VINA RESULT: -8.477947009      1.362      2.684
REMARK  15 active torsions:
REMARK  status: ('A' for Active; 'I' for Inactive)
REMARK    1  A    between atoms: C3_5  and  C4_6 
REMARK    2  A    between atoms: C7_9  and  C8_10 
REMARK    3  A    between atoms: C8_10  and  C9_11 
REMARK    4  A    between atoms: C9_11  and  C10_12 
REMARK    5  A    between atoms: C10_12  and  N2_13 
REMARK    6  A    between atoms: N2_13  and  C11_14 
REMARK    7  A    between atoms: N2_13  and  N5_30 
REMARK    8  A    between atoms: C11_14  and  C12_15 
REMARK    9  A    between atoms: C13_16  and  C14_17 
REMARK   10  A    between atoms: C17_22  and  C18_23 
REMARK   11  A    between atoms: C18_23  and  C19_24 
REMARK   12  A    between atoms: C19_24  and  C20_25 
REMARK   13  A    between atoms: C20_25  and  O1_26 
REMARK   14  A    between atoms: N5_30  and  C22_32 
REMARK   15  A    between atoms: C23_33  and  C24_34 
ROOT
HETATM    1  N2  UNL     1      23.658  29.588  21.906  1.00  0.00    -0.212 NA
ENDROOT
BRANCH   1   2
HETATM    2  C10 UNL     1      24.955  29.864  21.376  1.00  0.00     0.119 C 
BRANCH   2   3
HETATM    3  C9  UNL     1      25.261  31.342  21.521  1.00  0.00     0.044 C 
BRANCH   3   4
HETATM    4  C8  UNL     1      25.786  31.859  20.247  1.00  0.00    -0.012 C 
BRANCH   4   5
HETATM    5  C7  UNL     1      25.056  32.595  19.451  1.00  0.00    -0.012 A 
HETATM    6  C2  UNL     1      24.805  33.950  19.628  1.00  0.00     0.033 A 
HETATM    7  C1  UNL     1      25.281  34.651  20.633  1.00  0.00     0.044 C 
HETATM    8  N1  UNL     1      24.026  34.324  18.610  1.00  0.00    -0.360 N 
HETATM    9  C3  UNL     1      23.769  33.300  17.804  1.00  0.00     0.010 A 
ATOM     10  H1  UNL     1      23.675  35.271  18.469  1.00  0.00     0.166 HD
HETATM   11  C6  UNL     1      24.410  32.177  18.309  1.00  0.00     0.038 A 
BRANCH   9  12
HETATM   12  C4  UNL     1      22.933  33.355  16.570  1.00  0.00     0.052 C 
HETATM   13  C5  UNL     1      22.514  31.937  16.265  1.00  0.00     0.011 C 
ENDBRANCH   9  12
ENDBRANCH   4   5
ENDBRANCH   3   4
ENDBRANCH   2   3
ENDBRANCH   1   2
BRANCH   1  14
HETATM   14  C11 UNL     1      23.658  28.737  23.040  1.00  0.00     0.208 C 
BRANCH  14  15
HETATM   15  C12 UNL     1      22.257  28.310  23.292  1.00  0.00    -0.083 C 
HETATM   16  C13 UNL     1      21.127  27.943  23.491  1.00  0.00    -0.045 C 
BRANCH  16  17
HETATM   17  C14 UNL     1      19.789  27.479  23.725  1.00  0.00     0.112 A 
HETATM   18  C15 UNL     1      18.939  26.826  22.862  1.00  0.00     0.042 A 
HETATM   19  C16 UNL     1      19.280  26.465  21.461  1.00  0.00     0.071 C 
HETATM   20  N3  UNL     1      17.772  26.563  23.458  1.00  0.00    -0.347 N 
HETATM   21  C17 UNL     1      17.853  27.047  24.728  1.00  0.00     0.084 A 
ATOM     22  H3  UNL     1      16.971  26.088  23.040  1.00  0.00     0.167 HD
HETATM   23  N4  UNL     1      19.078  27.601  24.880  1.00  0.00    -0.332 N 
HETATM   24  C21 UNL     1      19.566  28.240  26.086  1.00  0.00     0.158 C 
BRANCH  21  25
HETATM   25  C18 UNL     1      16.738  26.953  25.681  1.00  0.00     0.079 C 
BRANCH  25  26
HETATM   26  C19 UNL     1      16.340  28.225  26.343  1.00  0.00     0.033 C 
BRANCH  26  27
HETATM   27  C20 UNL     1      14.884  28.588  26.193  1.00  0.00     0.164 C 
BRANCH  27  28
HETATM   28  O1  UNL     1      14.485  28.485  24.846  1.00  0.00    -0.401 OA
ATOM     29  H1  UNL     1      14.635  27.605  24.521  1.00  0.00     0.209 HD
ENDBRANCH  27  28
ENDBRANCH  26  27
ENDBRANCH  25  26
ENDBRANCH  21  25
ENDBRANCH  16  17
ENDBRANCH  14  15
ENDBRANCH   1  14
BRANCH   1  30
HETATM   30  N5  UNL     1      22.717  29.313  20.936  1.00  0.00    -0.277 N 
ATOM     31  H5  UNL     1      22.559  28.355  20.622  1.00  0.00     0.191 HD
BRANCH  30  32
HETATM   32  C22 UNL     1      21.972  30.389  20.383  1.00  0.00     0.027 C 
HETATM   33  C23 UNL     1      21.319  31.294  19.916  1.00  0.00    -0.043 C 
BRANCH  33  34
HETATM   34  C24 UNL     1      20.522  32.356  19.369  1.00  0.00     0.019 A 
HETATM   35  C25 UNL     1      20.763  33.668  19.739  1.00  0.00     0.021 A 
HETATM   36  C26 UNL     1      20.033  34.733  19.249  1.00  0.00     0.008 A 
HETATM   37  C27 UNL     1      19.020  34.449  18.346  1.00  0.00    -0.062 A 
HETATM   38  C28 UNL     1      18.227  35.593  17.807  1.00  0.00     0.048 C 
HETATM   39  C29 UNL     1      18.739  33.164  17.946  1.00  0.00     0.008 A 
HETATM   40  C30 UNL     1      19.495  32.142  18.465  1.00  0.00     0.021 A 
ENDBRANCH  33  34
ENDBRANCH  30  32
ENDBRANCH   1  30
TORSDOF 15
ENDMDL
MODEL 3
REMARK VINA RESULT: -8.441842103      4.300      7.998
REMARK  15 active torsions:
REMARK  status: ('A' for Active; 'I' for Inactive)
REMARK    1  A    between atoms: C3_5  and  C4_6 
REMARK    2  A    between atoms: C7_9  and  C8_10 
REMARK    3  A    between atoms: C8_10  and  C9_11 
REMARK    4  A    between atoms: C9_11  and  C10_12 
REMARK    5  A    between atoms: C10_12  and  N2_13 
REMARK    6  A    between atoms: N2_13  and  C11_14 
REMARK    7  A    between atoms: N2_13  and  N5_30 
REMARK    8  A    between atoms: C11_14  and  C12_15 
REMARK    9  A    between atoms: C13_16  and  C14_17 
REMARK   10  A    between atoms: C17_22  and  C18_23 
REMARK   11  A    between atoms: C18_23  and  C19_24 
REMARK   12  A    between atoms: C19_24  and  C20_25 
REMARK   13  A    between atoms: C20_25  and  O1_26 
REMARK   14  A    between atoms: N5_30  and  C22_32 
REMARK   15  A    between atoms: C23_33  and  C24_34 
ROOT
HETATM    1  N2  UNL     1      23.841  28.685  21.142  1.00  0.00    -0.212 NA
ENDROOT
BRANCH   1   2
HETATM    2  C10 UNL     1      23.736  29.090  22.507  1.00  0.00     0.119 C 
BRANCH   2   3
HETATM    3  C9  UNL     1      22.578  28.368  23.167  1.00  0.00     0.044 C 
BRANCH   3   4
HETATM    4  C8  UNL     1      21.375  28.511  22.331  1.00  0.00    -0.012 C 
BRANCH   4   5
HETATM    5  C7  UNL     1      20.270  27.867  22.601  1.00  0.00    -0.012 A 
HETATM    6  C2  UNL     1      19.518  27.154  21.674  1.00  0.00     0.033 A 
HETATM    7  C1  UNL     1      19.841  27.049  20.405  1.00  0.00     0.044 C 
HETATM    8  N1  UNL     1      18.478  26.651  22.343  1.00  0.00    -0.360 N 
HETATM    9  C3  UNL     1      18.521  26.995  23.625  1.00  0.00     0.010 A 
ATOM     10  H1  UNL     1      17.746  26.076  21.925  1.00  0.00     0.166 HD
HETATM   11  C6  UNL     1      19.653  27.774  23.828  1.00  0.00     0.038 A 
BRANCH   9  12
HETATM   12  C4  UNL     1      17.521  26.610  24.663  1.00  0.00     0.052 C 
HETATM   13  C5  UNL     1      17.574  27.672  25.735  1.00  0.00     0.011 C 
ENDBRANCH   9  12
ENDBRANCH   4   5
ENDBRANCH   3   4
ENDBRANCH   2   3
ENDBRANCH   1   2
BRANCH   1  14
HETATM   14  C11 UNL     1      24.508  27.450  20.946  1.00  0.00     0.208 C 
BRANCH  14  15
HETATM   15  C12 UNL     1      24.161  26.952  19.590  1.00  0.00    -0.083 C 
HETATM   16  C13 UNL     1      23.859  26.554  18.493  1.00  0.00    -0.045 C 
BRANCH  16  17
HETATM   17  C14 UNL     1      23.474  26.092  17.191  1.00  0.00     0.112 A 
HETATM   18  C15 UNL     1      23.263  24.801  16.761  1.00  0.00     0.042 A 
HETATM   19  C16 UNL     1      23.401  23.597  17.621  1.00  0.00     0.071 C 
HETATM   20  N3  UNL     1      22.917  24.784  15.470  1.00  0.00    -0.347 N 
HETATM   21  C17 UNL     1      22.900  26.077  15.044  1.00  0.00     0.084 A 
ATOM     22  H3  UNL     1      22.705  23.958  14.910  1.00  0.00     0.167 HD
HETATM   23  N4  UNL     1      23.239  26.862  16.093  1.00  0.00    -0.332 N 
HETATM   24  C21 UNL     1      23.349  28.307  16.058  1.00  0.00     0.158 C 
BRANCH  21  25
HETATM   25  C18 UNL     1      22.577  26.447  13.658  1.00  0.00     0.079 C 
BRANCH  25  26
HETATM   26  C19 UNL     1      21.733  25.479  12.907  1.00  0.00     0.033 C 
BRANCH  26  27
HETATM   27  C20 UNL     1      20.252  25.597  13.163  1.00  0.00     0.164 C 
BRANCH  27  28
HETATM   28  O1  UNL     1      19.928  25.077  14.432  1.00  0.00    -0.401 OA
ATOM     29  H1  UNL     1      19.014  24.818  14.461  1.00  0.00     0.209 HD
ENDBRANCH  27  28
ENDBRANCH  26  27
ENDBRANCH  25  26
ENDBRANCH  21  25
ENDBRANCH  16  17
ENDBRANCH  14  15
ENDBRANCH   1  14
BRANCH   1  30
HETATM   30  N5  UNL     1      24.195  29.712  20.292  1.00  0.00    -0.277 N 
ATOM     31  H5  UNL     1      25.151  29.794  19.946  1.00  0.00     0.191 HD
BRANCH  30  32
HETATM   32  C22 UNL     1      23.202  30.653  19.908  1.00  0.00     0.027 C 
HETATM   33  C23 UNL     1      22.345  31.450  19.600  1.00  0.00    -0.043 C 
BRANCH  33  34
HETATM   34  C24 UNL     1      21.316  32.391  19.257  1.00  0.00     0.019 A 
HETATM   35  C25 UNL     1      20.204  31.977  18.545  1.00  0.00     0.021 A 
HETATM   36  C26 UNL     1      19.181  32.831  18.185  1.00  0.00     0.008 A 
HETATM   37  C27 UNL     1      19.295  34.159  18.569  1.00  0.00    -0.062 A 
HETATM   38  C28 UNL     1      18.193  35.091  18.188  1.00  0.00     0.048 C 
HETATM   39  C29 UNL     1      20.379  34.623  19.277  1.00  0.00     0.008 A 
HETATM   40  C30 UNL     1      21.369  33.730  19.608  1.00  0.00     0.021 A 
ENDBRANCH  33  34
ENDBRANCH  30  32
ENDBRANCH   1  30
TORSDOF 15
ENDMDL
MODEL 4
REMARK VINA RESULT: -8.416928647      3.857      7.876
REMARK  15 active torsions:
REMARK  status: ('A' for Active; 'I' for Inactive)
REMARK    1  A    between atoms: C3_5  and  C4_6 
REMARK    2  A    between atoms: C7_9  and  C8_10 
REMARK    3  A    between atoms: C8_10  and  C9_11 
REMARK    4  A    between atoms: C9_11  and  C10_12 
REMARK    5  A    between atoms: C10_12  and  N2_13 
REMARK    6  A    between atoms: N2_13  and  C11_14 
REMARK    7  A    between atoms: N2_13  and  N5_30 
REMARK    8  A    between atoms: C11_14  and  C12_15 
REMARK    9  A    between atoms: C13_16  and  C14_17 
REMARK   10  A    between atoms: C17_22  and  C18_23 
REMARK   11  A    between atoms: C18_23  and  C19_24 
REMARK   12  A    between atoms: C19_24  and  C20_25 
REMARK   13  A    between atoms: C20_25  and  O1_26 
REMARK   14  A    between atoms: N5_30  and  C22_32 
REMARK   15  A    between atoms: C23_33  and  C24_34 
ROOT
HETATM    1  N2  UNL     1      23.640  28.887  22.314  1.00  0.00    -0.212 NA
ENDROOT
BRANCH   1   2
HETATM    2  C10 UNL     1      23.442  28.811  23.726  1.00  0.00     0.119 C 
BRANCH   2   3
HETATM    3  C9  UNL     1      22.325  27.834  24.033  1.00  0.00     0.044 C 
BRANCH   3   4
HETATM    4  C8  UNL     1      21.136  28.187  23.239  1.00  0.00    -0.012 C 
BRANCH   4   5
HETATM    5  C7  UNL     1      19.955  27.701  23.516  1.00  0.00    -0.012 A 
HETATM    6  C2  UNL     1      19.161  26.984  22.629  1.00  0.00     0.033 A 
HETATM    7  C1  UNL     1      19.519  26.712  21.393  1.00  0.00     0.044 C 
HETATM    8  N1  UNL     1      18.046  26.671  23.292  1.00  0.00    -0.360 N 
HETATM    9  C3  UNL     1      18.080  27.140  24.534  1.00  0.00     0.010 A 
ATOM     10  H1  UNL     1      17.269  26.141  22.896  1.00  0.00     0.166 HD
HETATM   11  C6  UNL     1      19.285  27.805  24.714  1.00  0.00     0.038 A 
BRANCH   9  12
HETATM   12  C4  UNL     1      17.003  26.978  25.553  1.00  0.00     0.052 C 
HETATM   13  C5  UNL     1      17.016  28.226  26.403  1.00  0.00     0.011 C 
ENDBRANCH   9  12
ENDBRANCH   4   5
ENDBRANCH   3   4
ENDBRANCH   2   3
ENDBRANCH   1   2
BRANCH   1  14
HETATM   14  C11 UNL     1      24.393  27.817  21.769  1.00  0.00     0.208 C 
BRANCH  14  15
HETATM   15  C12 UNL     1      24.042  27.697  20.330  1.00  0.00    -0.083 C 
HETATM   16  C13 UNL     1      23.750  27.579  19.167  1.00  0.00    -0.045 C 
BRANCH  16  17
HETATM   17  C14 UNL     1      23.389  27.415  17.788  1.00  0.00     0.112 A 
HETATM   18  C15 UNL     1      23.035  28.378  16.868  1.00  0.00     0.042 A 
HETATM   19  C16 UNL     1      22.966  29.833  17.162  1.00  0.00     0.071 C 
HETATM   20  N3  UNL     1      22.765  27.822  15.683  1.00  0.00    -0.347 N 
HETATM   21  C17 UNL     1      22.943  26.479  15.822  1.00  0.00     0.084 A 
ATOM     22  H3  UNL     1      22.480  28.311  14.835  1.00  0.00     0.167 HD
HETATM   23  N4  UNL     1      23.320  26.243  17.100  1.00  0.00    -0.332 N 
HETATM   24  C21 UNL     1      23.601  24.937  17.664  1.00  0.00     0.158 C 
BRANCH  21  25
HETATM   25  C18 UNL     1      22.717  25.534  14.718  1.00  0.00     0.079 C 
BRANCH  25  26
HETATM   26  C19 UNL     1      22.030  26.088  13.520  1.00  0.00     0.033 C 
BRANCH  26  27
HETATM   27  C20 UNL     1      20.682  25.481  13.226  1.00  0.00     0.164 C 
BRANCH  27  28
HETATM   28  O1  UNL     1      20.048  25.084  14.420  1.00  0.00    -0.401 OA
ATOM     29  H1  UNL     1      19.661  24.222  14.320  1.00  0.00     0.209 HD
ENDBRANCH  27  28
ENDBRANCH  26  27
ENDBRANCH  25  26
ENDBRANCH  21  25
ENDBRANCH  16  17
ENDBRANCH  14  15
ENDBRANCH   1  14
BRANCH   1  30
HETATM   30  N5  UNL     1      23.971  30.153  21.876  1.00  0.00    -0.277 N 
ATOM     31  H5  UNL     1      24.904  30.532  22.039  1.00  0.00     0.191 HD
BRANCH  30  32
HETATM   32  C22 UNL     1      22.987  30.917  21.193  1.00  0.00     0.027 C 
HETATM   33  C23 UNL     1      22.163  31.586  20.613  1.00  0.00    -0.043 C 
BRANCH  33  34
HETATM   34  C24 UNL     1      21.200  32.401  19.924  1.00  0.00     0.019 A 
HETATM   35  C25 UNL     1      21.199  33.774  20.100  1.00  0.00     0.021 A 
HETATM   36  C26 UNL     1      20.302  34.611  19.468  1.00  0.00     0.008 A 
HETATM   37  C27 UNL     1      19.372  34.027  18.622  1.00  0.00    -0.062 A 
HETATM   38  C28 UNL     1      18.399  34.923  17.930  1.00  0.00     0.048 C 
HETATM   39  C29 UNL     1      19.330  32.668  18.412  1.00  0.00     0.008 A 
HETATM   40  C30 UNL     1      20.244  31.881  19.067  1.00  0.00     0.021 A 
ENDBRANCH  33  34
ENDBRANCH  30  32
ENDBRANCH   1  30
TORSDOF 15
ENDMDL
MODEL 5
REMARK VINA RESULT: -8.413893948      1.579      5.266
REMARK  15 active torsions:
REMARK  status: ('A' for Active; 'I' for Inactive)
REMARK    1  A    between atoms: C3_5  and  C4_6 
REMARK    2  A    between atoms: C7_9  and  C8_10 
REMARK    3  A    between atoms: C8_10  and  C9_11 
REMARK    4  A    between atoms: C9_11  and  C10_12 
REMARK    5  A    between atoms: C10_12  and  N2_13 
REMARK    6  A    between atoms: N2_13  and  C11_14 
REMARK    7  A    between atoms: N2_13  and  N5_30 
REMARK    8  A    between atoms: C11_14  and  C12_15 
REMARK    9  A    between atoms: C13_16  and  C14_17 
REMARK   10  A    between atoms: C17_22  and  C18_23 
REMARK   11  A    between atoms: C18_23  and  C19_24 
REMARK   12  A    between atoms: C19_24  and  C20_25 
REMARK   13  A    between atoms: C20_25  and  O1_26 
REMARK   14  A    between atoms: N5_30  and  C22_32 
REMARK   15  A    between atoms: C23_33  and  C24_34 
ROOT
HETATM    1  N2  UNL     1      23.506  30.517  21.608  1.00  0.00    -0.212 NA
ENDROOT
BRANCH   1   2
HETATM    2  C10 UNL     1      22.410  30.796  20.737  1.00  0.00     0.119 C 
BRANCH   2   3
HETATM    3  C9  UNL     1      22.774  30.408  19.318  1.00  0.00     0.044 C 
BRANCH   3   4
HETATM    4  C8  UNL     1      21.544  30.157  18.550  1.00  0.00    -0.012 C 
BRANCH   4   5
HETATM    5  C7  UNL     1      20.848  31.132  18.027  1.00  0.00    -0.012 A 
HETATM    6  C2  UNL     1      20.979  31.593  16.723  1.00  0.00     0.033 A 
HETATM    7  C1  UNL     1      21.831  31.089  15.858  1.00  0.00     0.044 C 
HETATM    8  N1  UNL     1      20.099  32.587  16.585  1.00  0.00    -0.360 N 
HETATM    9  C3  UNL     1      19.422  32.786  17.711  1.00  0.00     0.010 A 
ATOM     10  H1  UNL     1      19.963  33.123  15.728  1.00  0.00     0.166 HD
HETATM   11  C6  UNL     1      19.874  31.875  18.656  1.00  0.00     0.038 A 
BRANCH   9  12
HETATM   12  C4  UNL     1      18.362  33.814  17.917  1.00  0.00     0.052 C 
HETATM   13  C5  UNL     1      19.010  34.968  18.644  1.00  0.00     0.011 C 
ENDBRANCH   9  12
ENDBRANCH   4   5
ENDBRANCH   3   4
ENDBRANCH   2   3
ENDBRANCH   1   2
BRANCH   1  14
HETATM   14  C11 UNL     1      23.699  29.140  21.886  1.00  0.00     0.208 C 
BRANCH  14  15
HETATM   15  C12 UNL     1      22.399  28.575  22.331  1.00  0.00    -0.083 C 
HETATM   16  C13 UNL     1      21.334  28.127  22.675  1.00  0.00    -0.045 C 
BRANCH  16  17
HETATM   17  C14 UNL     1      20.056  27.602  23.059  1.00  0.00     0.112 A 
HETATM   18  C15 UNL     1      19.132  26.929  22.290  1.00  0.00     0.042 A 
HETATM   19  C16 UNL     1      19.313  26.611  20.851  1.00  0.00     0.071 C 
HETATM   20  N3  UNL     1      18.059  26.605  23.018  1.00  0.00    -0.347 N 
HETATM   21  C17 UNL     1      18.276  27.068  24.280  1.00  0.00     0.084 A 
ATOM     22  H3  UNL     1      17.233  26.105  22.689  1.00  0.00     0.167 HD
HETATM   23  N4  UNL     1      19.488  27.671  24.295  1.00  0.00    -0.332 N 
HETATM   24  C21 UNL     1      20.093  28.307  25.448  1.00  0.00     0.158 C 
BRANCH  21  25
HETATM   25  C18 UNL     1      17.291  26.908  25.359  1.00  0.00     0.079 C 
BRANCH  25  26
HETATM   26  C19 UNL     1      16.836  28.164  26.015  1.00  0.00     0.033 C 
BRANCH  26  27
HETATM   27  C20 UNL     1      15.340  28.304  26.144  1.00  0.00     0.164 C 
BRANCH  27  28
HETATM   28  O1  UNL     1      14.755  28.540  24.885  1.00  0.00    -0.401 OA
ATOM     29  H1  UNL     1      14.980  29.408  24.571  1.00  0.00     0.209 HD
ENDBRANCH  27  28
ENDBRANCH  26  27
ENDBRANCH  25  26
ENDBRANCH  21  25
ENDBRANCH  16  17
ENDBRANCH  14  15
ENDBRANCH   1  14
BRANCH   1  30
HETATM   30  N5  UNL     1      23.580  31.373  22.687  1.00  0.00    -0.277 N 
ATOM     31  H5  UNL     1      23.244  31.083  23.605  1.00  0.00     0.191 HD
BRANCH  30  32
HETATM   32  C22 UNL     1      24.133  32.668  22.494  1.00  0.00     0.027 C 
HETATM   33  C23 UNL     1      24.583  33.779  22.331  1.00  0.00    -0.043 C 
BRANCH  33  34
HETATM   34  C24 UNL     1      25.093  35.108  22.141  1.00  0.00     0.019 A 
HETATM   35  C25 UNL     1      25.807  35.423  20.998  1.00  0.00     0.021 A 
HETATM   36  C26 UNL     1      26.322  36.680  20.755  1.00  0.00     0.008 A 
HETATM   37  C27 UNL     1      26.100  37.656  21.715  1.00  0.00    -0.062 A 
HETATM   38  C28 UNL     1      26.650  39.020  21.462  1.00  0.00     0.048 C 
HETATM   39  C29 UNL     1      25.398  37.396  22.869  1.00  0.00     0.008 A 
HETATM   40  C30 UNL     1      24.908  36.128  23.060  1.00  0.00     0.021 A 
ENDBRANCH  33  34
ENDBRANCH  30  32
ENDBRANCH   1  30
TORSDOF 15
ENDMDL
