MODEL 1
REMARK VINA RESULT: -9.004879823      0.000      0.000
REMARK  10 active torsions:
REMARK  status: ('A' for Active; 'I' for Inactive)
REMARK    1  A    between atoms: N1_2  and  C3_4 
REMARK    2  A    between atoms: C5_8  and  C6_9 
REMARK    3  A    between atoms: C6_9  and  C7_10 
REMARK    4  A    between atoms: C9_14  and  C10_15 
REMARK    5  A    between atoms: C10_15  and  C11_16 
REMARK    6  A    between atoms: C11_16  and  C12_17 
REMARK    7  A    between atoms: C12_17  and  C13_18 
REMARK    8  A    between atoms: C13_18  and  C14_19 
REMARK    9  A    between atoms: C14_19  and  C15_20 
REMARK   10  A    between atoms: C15_20  and  C16_21 
ROOT
HETATM    1  C13 UNL     1      22.128  32.168  20.949  1.00  0.00     0.000 C 
ENDROOT
BRANCH   1   2
HETATM    2  C12 UNL     1      22.326  30.841  20.225  1.00  0.00     0.000 C 
BRANCH   2   3
HETATM    3  C11 UNL     1      21.028  30.416  19.585  1.00  0.00     0.006 C 
BRANCH   3   4
HETATM    4  C10 UNL     1      21.075  28.989  19.206  1.00  0.00     0.057 C 
BRANCH   4   5
HETATM    5  C9  UNL     1      20.434  28.137  20.235  1.00  0.00     0.009 A 
HETATM    6  N3  UNL     1      19.365  27.332  20.195  1.00  0.00    -0.369 N 
HETATM    7  C8  UNL     1      19.158  26.732  21.376  1.00  0.00     0.095 A 
ATOM      8  H3  UNL     1      18.781  27.193  19.370  1.00  0.00     0.165 HD
HETATM    9  C7  UNL     1      20.129  27.150  22.250  1.00  0.00    -0.035 A 
HETATM   10  C28 UNL     1      20.924  28.024  21.549  1.00  0.00     0.033 A 
BRANCH   9  11
HETATM   11  C6  UNL     1      20.298  26.743  23.690  1.00  0.00     0.099 C 
BRANCH  11  12
HETATM   12  C5  UNL     1      19.029  27.092  24.426  1.00  0.00     0.046 A 
HETATM   13  C4  UNL     1      17.783  26.530  24.254  1.00  0.00     0.132 A 
HETATM   14  N2  UNL     1      16.955  27.149  25.120  1.00  0.00    -0.200 N 
HETATM   15  C3  UNL     1      17.617  28.074  25.829  1.00  0.00     0.679 A 
ATOM     16  H2  UNL     1      15.961  26.942  25.222  1.00  0.00     0.183 HD
HETATM   17  N6  UNL     1      18.905  28.025  25.384  1.00  0.00    -0.194 N 
ATOM     18  H6  UNL     1      19.665  28.611  25.729  1.00  0.00     0.184 HD
BRANCH  15  19
HETATM   19  N1  UNL     1      17.162  28.860  26.743  1.00  0.00    -0.226 N 
HETATM   20  C1  UNL     1      18.027  29.902  27.245  1.00  0.00     0.168 C 
HETATM   21  C2  UNL     1      15.839  28.724  27.261  1.00  0.00     0.168 C 
ENDBRANCH  15  19
ENDBRANCH  11  12
ENDBRANCH   9  11
ENDBRANCH   4   5
ENDBRANCH   3   4
ENDBRANCH   2   3
ENDBRANCH   1   2
BRANCH   1  22
HETATM   22  C14 UNL     1      20.832  32.823  20.616  1.00  0.00     0.001 C 
BRANCH  22  23
HETATM   23  C15 UNL     1      21.047  34.217  20.124  1.00  0.00     0.010 C 
BRANCH  23  24
HETATM   24  C16 UNL     1      20.680  34.289  18.675  1.00  0.00    -0.027 A 
HETATM   25  C17 UNL     1      19.417  34.973  18.217  1.00  0.00     0.017 A 
HETATM   26  C18 UNL     1      19.507  33.519  18.200  1.00  0.00     0.021 A 
HETATM   27  C19 UNL     1      19.663  32.662  17.008  1.00  0.00     0.239 C 
HETATM   28  N4  UNL     1      20.410  33.086  15.906  1.00  0.00    -0.056 N 
HETATM   29  C20 UNL     1      21.792  32.628  15.952  1.00  0.00     0.217 C 
ATOM     30  H42 UNL     1      19.961  32.810  15.033  1.00  0.00     0.278 HD
ATOM     31  H41 UNL     1      20.364  34.099  15.802  1.00  0.00     0.278 HD
HETATM   32  C21 UNL     1      21.888  31.183  15.570  1.00  0.00     0.171 C 
HETATM   33  C23 UNL     1      22.657  33.311  14.961  1.00  0.00     0.254 C 
HETATM   34  C24 UNL     1      22.240  32.908  17.356  1.00  0.00     0.062 A 
HETATM   35  N5  UNL     1      23.243  31.060  15.114  1.00  0.00    -0.352 N 
HETATM   36  C22 UNL     1      23.547  32.281  14.418  1.00  0.00     0.290 C 
ATOM     37  H5  UNL     1      23.867  30.266  15.256  1.00  0.00     0.162 HD
HETATM   38  O1  UNL     1      24.414  32.428  13.517  1.00  0.00    -0.264 OA
HETATM   39  O2  UNL     1      22.702  34.511  14.587  1.00  0.00    -0.284 OA
HETATM   40  C25 UNL     1      23.542  33.340  17.723  1.00  0.00    -0.022 A 
HETATM   41  C27 UNL     1      21.798  34.293  17.671  1.00  0.00     0.027 A 
HETATM   42  C26 UNL     1      23.171  34.545  18.015  1.00  0.00    -0.024 A 
ENDBRANCH  23  24
ENDBRANCH  22  23
ENDBRANCH   1  22
TORSDOF 10
ENDMDL
MODEL 2
REMARK VINA RESULT: -8.910052714      1.442      1.916
REMARK  10 active torsions:
REMARK  status: ('A' for Active; 'I' for Inactive)
REMARK    1  A    between atoms: N1_2  and  C3_4 
REMARK    2  A    between atoms: C5_8  and  C6_9 
REMARK    3  A    between atoms: C6_9  and  C7_10 
REMARK    4  A    between atoms: C9_14  and  C10_15 
REMARK    5  A    between atoms: C10_15  and  C11_16 
REMARK    6  A    between atoms: C11_16  and  C12_17 
REMARK    7  A    between atoms: C12_17  and  C13_18 
REMARK    8  A    between atoms: C13_18  and  C14_19 
REMARK    9  A    between atoms: C14_19  and  C15_20 
REMARK   10  A    between atoms: C15_20  and  C16_21 
ROOT
HETATM    1  C13 UNL     1      22.373  33.957  21.434  1.00  0.00     0.000 C 
ENDROOT
BRANCH   1   2
HETATM    2  C12 UNL     1      23.367  32.863  21.809  1.00  0.00     0.000 C 
BRANCH   2   3
HETATM    3  C11 UNL     1      23.400  31.816  20.724  1.00  0.00     0.006 C 
BRANCH   3   4
HETATM    4  C10 UNL     1      23.823  30.511  21.270  1.00  0.00     0.057 C 
BRANCH   4   5
HETATM    5  C9  UNL     1      22.663  29.735  21.770  1.00  0.00     0.009 A 
HETATM    6  N3  UNL     1      21.359  29.775  21.468  1.00  0.00    -0.369 N 
HETATM    7  C8  UNL     1      20.666  28.862  22.164  1.00  0.00     0.095 A 
ATOM      8  H3  UNL     1      20.945  30.420  20.794  1.00  0.00     0.165 HD
HETATM    9  C7  UNL     1      21.540  28.177  22.969  1.00  0.00    -0.035 A 
HETATM   10  C28 UNL     1      22.782  28.714  22.730  1.00  0.00     0.033 A 
BRANCH   9  11
HETATM   11  C6  UNL     1      21.215  27.060  23.927  1.00  0.00     0.099 C 
BRANCH  11  12
HETATM   12  C5  UNL     1      19.786  27.233  24.377  1.00  0.00     0.046 A 
HETATM   13  C4  UNL     1      18.669  26.613  23.861  1.00  0.00     0.132 A 
HETATM   14  N2  UNL     1      17.613  27.066  24.569  1.00  0.00    -0.200 N 
HETATM   15  C3  UNL     1      18.010  27.941  25.503  1.00  0.00     0.679 A 
ATOM     16  H2  UNL     1      16.646  26.782  24.413  1.00  0.00     0.183 HD
HETATM   17  N6  UNL     1      19.364  28.032  25.370  1.00  0.00    -0.194 N 
ATOM     18  H6  UNL     1      19.969  28.622  25.941  1.00  0.00     0.184 HD
BRANCH  15  19
HETATM   19  N1  UNL     1      17.290  28.578  26.361  1.00  0.00    -0.226 N 
HETATM   20  C1  UNL     1      15.890  28.242  26.465  1.00  0.00     0.168 C 
HETATM   21  C2  UNL     1      17.840  29.594  27.198  1.00  0.00     0.168 C 
ENDBRANCH  15  19
ENDBRANCH  11  12
ENDBRANCH   9  11
ENDBRANCH   4   5
ENDBRANCH   3   4
ENDBRANCH   2   3
ENDBRANCH   1   2
BRANCH   1  22
HETATM   22  C14 UNL     1      21.098  33.418  20.881  1.00  0.00     0.001 C 
BRANCH  22  23
HETATM   23  C15 UNL     1      20.626  34.238  19.726  1.00  0.00     0.010 C 
BRANCH  23  24
HETATM   24  C16 UNL     1      20.460  33.353  18.531  1.00  0.00    -0.027 A 
HETATM   25  C17 UNL     1      19.108  32.813  18.135  1.00  0.00     0.017 A 
HETATM   26  C18 UNL     1      20.097  31.933  18.743  1.00  0.00     0.021 A 
HETATM   27  C19 UNL     1      20.889  30.893  18.056  1.00  0.00     0.239 C 
HETATM   28  N4  UNL     1      21.316  31.065  16.738  1.00  0.00    -0.056 N 
HETATM   29  C20 UNL     1      22.662  31.617  16.648  1.00  0.00     0.217 C 
ATOM     30  H42 UNL     1      21.243  30.193  16.213  1.00  0.00     0.278 HD
ATOM     31  H41 UNL     1      20.653  31.632  16.209  1.00  0.00     0.278 HD
HETATM   32  C21 UNL     1      23.689  30.566  16.936  1.00  0.00     0.171 C 
HETATM   33  C23 UNL     1      23.005  32.078  15.282  1.00  0.00     0.254 C 
HETATM   34  C24 UNL     1      22.674  32.752  17.630  1.00  0.00     0.062 A 
HETATM   35  N5  UNL     1      24.858  31.069  16.272  1.00  0.00    -0.352 N 
HETATM   36  C22 UNL     1      24.398  31.684  15.056  1.00  0.00     0.290 C 
ATOM     37  H5  UNL     1      25.823  31.003  16.597  1.00  0.00     0.162 HD
HETATM   38  O1  UNL     1      25.071  31.849  14.006  1.00  0.00    -0.264 OA
HETATM   39  O2  UNL     1      22.323  32.685  14.416  1.00  0.00    -0.284 OA
HETATM   40  C25 UNL     1      23.361  33.981  17.443  1.00  0.00    -0.022 A 
HETATM   41  C27 UNL     1      21.426  33.527  17.394  1.00  0.00     0.027 A 
HETATM   42  C26 UNL     1      22.283  34.671  17.250  1.00  0.00    -0.024 A 
ENDBRANCH  23  24
ENDBRANCH  22  23
ENDBRANCH   1  22
TORSDOF 10
ENDMDL
MODEL 3
REMARK VINA RESULT: -8.763072095      2.307      3.534
REMARK  10 active torsions:
REMARK  status: ('A' for Active; 'I' for Inactive)
REMARK    1  A    between atoms: N1_2  and  C3_4 
REMARK    2  A    between atoms: C5_8  and  C6_9 
REMARK    3  A    between atoms: C6_9  and  C7_10 
REMARK    4  A    between atoms: C9_14  and  C10_15 
REMARK    5  A    between atoms: C10_15  and  C11_16 
REMARK    6  A    between atoms: C11_16  and  C12_17 
REMARK    7  A    between atoms: C12_17  and  C13_18 
REMARK    8  A    between atoms: C13_18  and  C14_19 
REMARK    9  A    between atoms: C14_19  and  C15_20 
REMARK   10  A    between atoms: C15_20  and  C16_21 
ROOT
HETATM    1  C13 UNL     1      21.556  30.763  20.105  1.00  0.00     0.000 C 
ENDROOT
BRANCH   1   2
HETATM    2  C12 UNL     1      20.966  29.809  19.073  1.00  0.00     0.000 C 
BRANCH   2   3
HETATM    3  C11 UNL     1      21.153  28.386  19.534  1.00  0.00     0.006 C 
BRANCH   3   4
HETATM    4  C10 UNL     1      19.847  27.740  19.779  1.00  0.00     0.057 C 
BRANCH   4   5
HETATM    5  C9  UNL     1      19.644  27.464  21.220  1.00  0.00     0.009 A 
HETATM    6  N3  UNL     1      18.726  26.743  21.875  1.00  0.00    -0.369 N 
HETATM    7  C8  UNL     1      18.943  26.756  23.199  1.00  0.00     0.095 A 
ATOM      8  H3  UNL     1      17.957  26.247  21.425  1.00  0.00     0.165 HD
HETATM    9  C7  UNL     1      20.057  27.518  23.446  1.00  0.00    -0.035 A 
HETATM   10  C28 UNL     1      20.496  27.962  22.223  1.00  0.00     0.033 A 
BRANCH   9  11
HETATM   11  C6  UNL     1      20.680  27.817  24.785  1.00  0.00     0.099 C 
BRANCH  11  12
HETATM   12  C5  UNL     1      22.158  28.025  24.576  1.00  0.00     0.046 A 
HETATM   13  C4  UNL     1      23.156  27.081  24.677  1.00  0.00     0.132 A 
HETATM   14  N2  UNL     1      24.318  27.713  24.409  1.00  0.00    -0.200 N 
HETATM   15  C3  UNL     1      24.101  29.010  24.147  1.00  0.00     0.679 A 
ATOM     16  H2  UNL     1      25.235  27.266  24.407  1.00  0.00     0.183 HD
HETATM   17  N6  UNL     1      22.753  29.186  24.255  1.00  0.00    -0.194 N 
ATOM     18  H6  UNL     1      22.266  30.071  24.112  1.00  0.00     0.184 HD
BRANCH  15  19
HETATM   19  N1  UNL     1      24.962  29.921  23.852  1.00  0.00    -0.226 N 
HETATM   20  C1  UNL     1      24.571  30.960  22.928  1.00  0.00     0.168 C 
HETATM   21  C2  UNL     1      26.274  29.926  24.412  1.00  0.00     0.168 C 
ENDBRANCH  15  19
ENDBRANCH  11  12
ENDBRANCH   9  11
ENDBRANCH   4   5
ENDBRANCH   3   4
ENDBRANCH   2   3
ENDBRANCH   1   2
BRANCH   1  22
HETATM   22  C14 UNL     1      20.583  31.795  20.565  1.00  0.00     0.001 C 
BRANCH  22  23
HETATM   23  C15 UNL     1      21.177  33.163  20.488  1.00  0.00     0.010 C 
BRANCH  23  24
HETATM   24  C16 UNL     1      20.811  33.784  19.177  1.00  0.00    -0.027 A 
HETATM   25  C17 UNL     1      19.612  34.690  19.044  1.00  0.00     0.017 A 
HETATM   26  C18 UNL     1      19.570  33.339  18.502  1.00  0.00     0.021 A 
HETATM   27  C19 UNL     1      19.641  32.962  17.076  1.00  0.00     0.239 C 
HETATM   28  N4  UNL     1      20.417  33.692  16.173  1.00  0.00    -0.056 N 
HETATM   29  C20 UNL     1      21.753  33.136  15.998  1.00  0.00     0.217 C 
ATOM     30  H42 UNL     1      19.941  33.789  15.276  1.00  0.00     0.278 HD
ATOM     31  H41 UNL     1      20.463  34.675  16.442  1.00  0.00     0.278 HD
HETATM   32  C21 UNL     1      21.715  31.925  15.119  1.00  0.00     0.171 C 
HETATM   33  C23 UNL     1      22.671  34.057  15.288  1.00  0.00     0.254 C 
HETATM   34  C24 UNL     1      22.231  32.851  17.391  1.00  0.00     0.062 A 
HETATM   35  N5  UNL     1      23.051  31.863  14.598  1.00  0.00    -0.352 N 
HETATM   36  C22 UNL     1      23.461  33.224  14.377  1.00  0.00     0.290 C 
ATOM     37  H5  UNL     1      23.600  31.022  14.421  1.00  0.00     0.162 HD
HETATM   38  O1  UNL     1      24.332  33.614  13.557  1.00  0.00    -0.264 OA
HETATM   39  O2  UNL     1      22.822  35.303  15.369  1.00  0.00    -0.284 OA
HETATM   40  C25 UNL     1      23.569  33.011  17.840  1.00  0.00    -0.022 A 
HETATM   41  C27 UNL     1      21.919  34.060  18.201  1.00  0.00     0.027 A 
HETATM   42  C26 UNL     1      23.311  34.055  18.560  1.00  0.00    -0.024 A 
ENDBRANCH  23  24
ENDBRANCH  22  23
ENDBRANCH   1  22
TORSDOF 10
ENDMDL
MODEL 4
REMARK VINA RESULT: -8.726183477      1.272      1.915
REMARK  10 active torsions:
REMARK  status: ('A' for Active; 'I' for Inactive)
REMARK    1  A    between atoms: N1_2  and  C3_4 
REMARK    2  A    between atoms: C5_8  and  C6_9 
REMARK    3  A    between atoms: C6_9  and  C7_10 
REMARK    4  A    between atoms: C9_14  and  C10_15 
REMARK    5  A    between atoms: C10_15  and  C11_16 
REMARK    6  A    between atoms: C11_16  and  C12_17 
REMARK    7  A    between atoms: C12_17  and  C13_18 
REMARK    8  A    between atoms: C13_18  and  C14_19 
REMARK    9  A    between atoms: C14_19  and  C15_20 
REMARK   10  A    between atoms: C15_20  and  C16_21 
ROOT
HETATM    1  C13 UNL     1      21.736  31.143  20.459  1.00  0.00     0.000 C 
ENDROOT
BRANCH   1   2
HETATM    2  C12 UNL     1      23.042  31.500  21.161  1.00  0.00     0.000 C 
BRANCH   2   3
HETATM    3  C11 UNL     1      23.757  30.238  21.570  1.00  0.00     0.006 C 
BRANCH   3   4
HETATM    4  C10 UNL     1      23.775  30.101  23.041  1.00  0.00     0.057 C 
BRANCH   4   5
HETATM    5  C9  UNL     1      22.946  28.956  23.486  1.00  0.00     0.009 A 
HETATM    6  N3  UNL     1      23.024  28.152  24.553  1.00  0.00    -0.369 N 
HETATM    7  C8  UNL     1      22.034  27.248  24.561  1.00  0.00     0.095 A 
ATOM      8  H3  UNL     1      23.747  28.218  25.270  1.00  0.00     0.165 HD
HETATM    9  C7  UNL     1      21.253  27.453  23.451  1.00  0.00    -0.035 A 
HETATM   10  C28 UNL     1      21.814  28.511  22.779  1.00  0.00     0.033 A 
BRANCH   9  11
HETATM   11  C6  UNL     1      20.028  26.678  23.043  1.00  0.00     0.099 C 
BRANCH  11  12
HETATM   12  C5  UNL     1      18.934  26.975  24.037  1.00  0.00     0.046 A 
HETATM   13  C4  UNL     1      17.741  26.303  24.191  1.00  0.00     0.132 A 
HETATM   14  N2  UNL     1      17.078  26.913  25.195  1.00  0.00    -0.200 N 
HETATM   15  C3  UNL     1      17.794  27.938  25.680  1.00  0.00     0.679 A 
ATOM     16  H2  UNL     1      16.159  26.634  25.538  1.00  0.00     0.183 HD
HETATM   17  N6  UNL     1      18.944  27.962  24.949  1.00  0.00    -0.194 N 
ATOM     18  H6  UNL     1      19.703  28.631  25.075  1.00  0.00     0.184 HD
BRANCH  15  19
HETATM   19  N1  UNL     1      17.487  28.748  26.634  1.00  0.00    -0.226 N 
HETATM   20  C1  UNL     1      16.146  28.702  27.168  1.00  0.00     0.168 C 
HETATM   21  C2  UNL     1      18.432  29.675  27.166  1.00  0.00     0.168 C 
ENDBRANCH  15  19
ENDBRANCH  11  12
ENDBRANCH   9  11
ENDBRANCH   4   5
ENDBRANCH   3   4
ENDBRANCH   2   3
ENDBRANCH   1   2
BRANCH   1  22
HETATM   22  C14 UNL     1      20.647  32.126  20.724  1.00  0.00     0.001 C 
BRANCH  22  23
HETATM   23  C15 UNL     1      21.123  33.525  20.505  1.00  0.00     0.010 C 
BRANCH  23  24
HETATM   24  C16 UNL     1      20.736  33.966  19.129  1.00  0.00    -0.027 A 
HETATM   25  C17 UNL     1      19.514  34.819  18.893  1.00  0.00     0.017 A 
HETATM   26  C18 UNL     1      19.503  33.409  18.525  1.00  0.00     0.021 A 
HETATM   27  C19 UNL     1      19.577  32.856  17.158  1.00  0.00     0.239 C 
HETATM   28  N4  UNL     1      20.330  33.485  16.165  1.00  0.00    -0.056 N 
HETATM   29  C20 UNL     1      21.679  32.943  16.051  1.00  0.00     0.217 C 
ATOM     30  H42 UNL     1      19.848  33.456  15.266  1.00  0.00     0.278 HD
ATOM     31  H41 UNL     1      20.353  34.495  16.307  1.00  0.00     0.278 HD
HETATM   32  C21 UNL     1      21.666  31.630  15.332  1.00  0.00     0.171 C 
HETATM   33  C23 UNL     1      22.570  33.790  15.223  1.00  0.00     0.254 C 
HETATM   34  C24 UNL     1      22.170  32.848  17.465  1.00  0.00     0.062 A 
HETATM   35  N5  UNL     1      23.001  31.535  14.813  1.00  0.00    -0.352 N 
HETATM   36  C22 UNL     1      23.376  32.867  14.418  1.00  0.00     0.290 C 
ATOM     37  H5  UNL     1      23.571  30.692  14.740  1.00  0.00     0.162 HD
HETATM   38  O1  UNL     1      24.234  33.171  13.549  1.00  0.00    -0.264 OA
HETATM   39  O2  UNL     1      22.691  35.039  15.145  1.00  0.00    -0.284 OA
HETATM   40  C25 UNL     1      23.506  33.096  17.879  1.00  0.00    -0.022 A 
HETATM   41  C27 UNL     1      21.832  34.142  18.117  1.00  0.00     0.027 A 
HETATM   42  C26 UNL     1      23.225  34.217  18.464  1.00  0.00    -0.024 A 
ENDBRANCH  23  24
ENDBRANCH  22  23
ENDBRANCH   1  22
TORSDOF 10
ENDMDL
MODEL 5
REMARK VINA RESULT: -8.658059054      3.114      4.452
REMARK  10 active torsions:
REMARK  status: ('A' for Active; 'I' for Inactive)
REMARK    1  A    between atoms: N1_2  and  C3_4 
REMARK    2  A    between atoms: C5_8  and  C6_9 
REMARK    3  A    between atoms: C6_9  and  C7_10 
REMARK    4  A    between atoms: C9_14  and  C10_15 
REMARK    5  A    between atoms: C10_15  and  C11_16 
REMARK    6  A    between atoms: C11_16  and  C12_17 
REMARK    7  A    between atoms: C12_17  and  C13_18 
REMARK    8  A    between atoms: C13_18  and  C14_19 
REMARK    9  A    between atoms: C14_19  and  C15_20 
REMARK   10  A    between atoms: C15_20  and  C16_21 
ROOT
HETATM    1  C13 UNL     1      20.725  31.243  17.235  1.00  0.00     0.000 C 
ENDROOT
BRANCH   1   2
HETATM    2  C12 UNL     1      19.923  31.422  18.519  1.00  0.00     0.000 C 
BRANCH   2   3
HETATM    3  C11 UNL     1      20.319  30.363  19.515  1.00  0.00     0.006 C 
BRANCH   3   4
HETATM    4  C10 UNL     1      21.590  29.722  19.118  1.00  0.00     0.057 C 
BRANCH   4   5
HETATM    5  C9  UNL     1      22.265  29.099  20.281  1.00  0.00     0.009 A 
HETATM    6  N3  UNL     1      23.351  28.322  20.378  1.00  0.00    -0.369 N 
HETATM    7  C8  UNL     1      23.613  28.001  21.653  1.00  0.00     0.095 A 
ATOM      8  H3  UNL     1      23.910  28.014  19.582  1.00  0.00     0.165 HD
HETATM    9  C7  UNL     1      22.662  28.587  22.451  1.00  0.00    -0.035 A 
HETATM   10  C28 UNL     1      21.822  29.269  21.605  1.00  0.00     0.033 A 
BRANCH   9  11
HETATM   11  C6  UNL     1      22.552  28.503  23.951  1.00  0.00     0.099 C 
BRANCH  11  12
HETATM   12  C5  UNL     1      21.144  28.087  24.293  1.00  0.00     0.046 A 
HETATM   13  C4  UNL     1      20.422  27.053  23.739  1.00  0.00     0.132 A 
HETATM   14  N2  UNL     1      19.217  27.051  24.346  1.00  0.00    -0.200 N 
HETATM   15  C3  UNL     1      19.144  28.034  25.254  1.00  0.00     0.679 A 
ATOM     16  H2  UNL     1      18.465  26.393  24.142  1.00  0.00     0.183 HD
HETATM   17  N6  UNL     1      20.351  28.668  25.208  1.00  0.00    -0.194 N 
ATOM     18  H6  UNL     1      20.613  29.467  25.784  1.00  0.00     0.184 HD
BRANCH  15  19
HETATM   19  N1  UNL     1      18.157  28.342  26.023  1.00  0.00    -0.226 N 
HETATM   20  C1  UNL     1      16.959  27.539  25.956  1.00  0.00     0.168 C 
HETATM   21  C2  UNL     1      18.224  29.444  26.928  1.00  0.00     0.168 C 
ENDBRANCH  15  19
ENDBRANCH  11  12
ENDBRANCH   9  11
ENDBRANCH   4   5
ENDBRANCH   3   4
ENDBRANCH   2   3
ENDBRANCH   1   2
BRANCH   1  22
HETATM   22  C14 UNL     1      21.270  32.527  16.707  1.00  0.00     0.001 C 
BRANCH  22  23
HETATM   23  C15 UNL     1      21.170  33.611  17.728  1.00  0.00     0.010 C 
BRANCH  23  24
HETATM   24  C16 UNL     1      22.546  33.997  18.171  1.00  0.00    -0.027 A 
HETATM   25  C17 UNL     1      23.436  34.859  17.311  1.00  0.00     0.017 A 
HETATM   26  C18 UNL     1      23.709  33.435  17.447  1.00  0.00     0.021 A 
HETATM   27  C19 UNL     1      24.798  32.820  18.232  1.00  0.00     0.239 C 
HETATM   28  N4  UNL     1      25.236  33.390  19.429  1.00  0.00    -0.056 N 
HETATM   29  C20 UNL     1      24.579  32.820  20.599  1.00  0.00     0.217 C 
ATOM     30  H42 UNL     1      26.251  33.329  19.513  1.00  0.00     0.278 HD
ATOM     31  H41 UNL     1      25.133  34.404  19.410  1.00  0.00     0.278 HD
HETATM   32  C21 UNL     1      25.151  31.476  20.929  1.00  0.00     0.171 C 
HETATM   33  C23 UNL     1      24.810  33.613  21.830  1.00  0.00     0.254 C 
HETATM   34  C24 UNL     1      23.124  32.780  20.236  1.00  0.00     0.062 A 
HETATM   35  N5  UNL     1      24.854  31.335  22.326  1.00  0.00    -0.352 N 
HETATM   36  C22 UNL     1      25.017  32.640  22.907  1.00  0.00     0.290 C 
ATOM     37  H5  UNL     1      24.580  30.480  22.810  1.00  0.00     0.162 HD
HETATM   38  O1  UNL     1      25.285  32.890  24.111  1.00  0.00    -0.264 OA
HETATM   39  O2  UNL     1      24.845  34.855  22.023  1.00  0.00    -0.284 OA
HETATM   40  C25 UNL     1      22.055  33.024  21.139  1.00  0.00    -0.022 A 
HETATM   41  C27 UNL     1      22.800  34.108  19.648  1.00  0.00     0.027 A 
HETATM   42  C26 UNL     1      21.751  34.174  20.629  1.00  0.00    -0.024 A 
ENDBRANCH  23  24
ENDBRANCH  22  23
ENDBRANCH   1  22
TORSDOF 10
ENDMDL
