MODEL 1
REMARK VINA RESULT: -9.360421240      0.000      0.000
REMARK  14 active torsions:
REMARK  status: ('A' for Active; 'I' for Inactive)
REMARK    1  A    between atoms: C2_2  and  C3_3 
REMARK    2  A    between atoms: C3_3  and  C5_5 
REMARK    3  A    between atoms: N3_15  and  C9_16 
REMARK    4  A    between atoms: C9_16  and  C10_17 
REMARK    5  A    between atoms: C10_17  and  C11_18 
REMARK    6  A    between atoms: C11_18  and  C12_19 
REMARK    7  A    between atoms: C12_19  and  N4_20 
REMARK    8  A    between atoms: C13_22  and  C14_23 
REMARK    9  A    between atoms: C14_23  and  O3_24 
REMARK   10  A    between atoms: C14_23  and  C15_26 
REMARK   11  A    between atoms: C15_26  and  C16_27 
REMARK   12  A    between atoms: C15_26  and  C18_29 
REMARK   13  A    between atoms: C18_29  and  C19_30 
REMARK   14  A    between atoms: C19_30  and  C20_31 
ROOT
HETATM    1  C11 UNL     1       7.386  22.761   4.879  1.00  0.00     0.046 C 
ENDROOT
BRANCH   1   2
HETATM    2  C10 UNL     1       7.717  24.145   4.303  1.00  0.00     0.025 C 
BRANCH   2   3
HETATM    3  C9  UNL     1       8.630  24.929   5.201  1.00  0.00     0.137 C 
BRANCH   3   4
HETATM    4  N3  UNL     1       8.789  26.257   4.641  1.00  0.00    -0.268 N 
HETATM    5  C8  UNL     1       9.802  26.363   3.650  1.00  0.00     0.325 C 
HETATM    6  N2  UNL     1      10.158  27.284   2.614  1.00  0.00    -0.334 N 
HETATM    7  O2  UNL     1      10.610  25.380   3.686  1.00  0.00    -0.247 OA
HETATM    8  C7  UNL     1       9.705  28.670   2.416  1.00  0.00     0.227 C 
ATOM      9  H2  UNL     1      10.815  26.932   1.918  1.00  0.00     0.164 HD
HETATM   10  C6  UNL     1       9.763  29.374   3.711  1.00  0.00     0.236 C 
HETATM   11  N1  UNL     1       9.102  29.192   4.979  1.00  0.00    -0.346 N 
HETATM   12  O1  UNL     1      10.564  30.337   3.699  1.00  0.00    -0.272 OA
HETATM   13  C5  UNL     1       7.867  28.646   5.457  1.00  0.00     0.181 C 
ATOM     14  H1  UNL     1       9.670  29.550   5.746  1.00  0.00     0.163 HD
HETATM   15  C25 UNL     1       7.854  27.173   5.240  1.00  0.00     0.251 C 
HETATM   16  O4  UNL     1       6.836  26.592   5.646  1.00  0.00    -0.271 OA
BRANCH  13  17
HETATM   17  C3  UNL     1       7.466  29.114   6.791  1.00  0.00     0.013 C 
HETATM   18  C4  UNL     1       7.381  30.644   6.897  1.00  0.00     0.012 C 
BRANCH  17  19
HETATM   19  C2  UNL     1       8.238  28.618   7.939  1.00  0.00     0.002 C 
HETATM   20  C1  UNL     1       7.570  28.598   9.258  1.00  0.00     0.005 C 
ENDBRANCH  17  19
ENDBRANCH  13  17
ENDBRANCH   3   4
ENDBRANCH   2   3
ENDBRANCH   1   2
BRANCH   1  21
HETATM   21  C12 UNL     1       6.852  23.037   6.266  1.00  0.00     0.060 C 
BRANCH  21  22
HETATM   22  N4  UNL     1       5.764  22.296   6.670  1.00  0.00    -0.380 N 
HETATM   23  C13 UNL     1       4.538  22.230   6.098  1.00  0.00     0.096 C 
ATOM     24  H4  UNL     1       5.897  21.725   7.505  1.00  0.00     0.164 HD
BRANCH  23  25
HETATM   25  C14 UNL     1       3.504  23.313   6.156  1.00  0.00     0.185 C 
BRANCH  25  26
HETATM   26  O3  UNL     1       3.145  23.470   4.780  1.00  0.00    -0.386 OA
ATOM     27  H3  UNL     1       2.990  24.405   4.714  1.00  0.00     0.210 HD
ENDBRANCH  25  26
BRANCH  25  28
HETATM   28  C15 UNL     1       2.290  23.077   6.949  1.00  0.00    -0.047 C 
BRANCH  28  29
HETATM   29  C16 UNL     1       2.474  22.089   8.103  1.00  0.00     0.033 C 
HETATM   30  C17 UNL     1       1.575  20.879   7.983  1.00  0.00     0.010 C 
ENDBRANCH  28  29
BRANCH  28  31
HETATM   31  C18 UNL     1       0.977  22.921   6.306  1.00  0.00     0.004 C 
BRANCH  31  32
HETATM   32  C19 UNL     1      -0.189  23.726   6.645  1.00  0.00     0.006 C 
BRANCH  32  33
HETATM   33  C20 UNL     1      -1.427  23.153   7.177  1.00  0.00     0.208 C 
HETATM   34  C21 UNL     1      -1.871  21.790   6.810  1.00  0.00     0.037 C 
HETATM   35  C22 UNL     1      -2.666  21.225   8.012  1.00  0.00     0.004 C 
HETATM   36  C23 UNL     1      -3.350  22.357   8.700  1.00  0.00     0.027 C 
HETATM   37  C24 UNL     1      -3.711  23.408   7.705  1.00  0.00     0.233 C 
HETATM   38  N5  UNL     1      -2.589  24.028   7.049  1.00  0.00    -0.068 N 
ATOM     39  H52 UNL     1      -2.407  24.970   7.396  1.00  0.00     0.277 HD
ATOM     40  H51 UNL     1      -2.789  24.270   6.079  1.00  0.00     0.277 HD
ENDBRANCH  32  33
ENDBRANCH  31  32
ENDBRANCH  28  31
ENDBRANCH  25  28
ENDBRANCH  23  25
ENDBRANCH  21  22
ENDBRANCH   1  21
TORSDOF 14
ENDMDL
MODEL 2
REMARK VINA RESULT: -9.336561299      3.083     10.678
REMARK  14 active torsions:
REMARK  status: ('A' for Active; 'I' for Inactive)
REMARK    1  A    between atoms: C2_2  and  C3_3 
REMARK    2  A    between atoms: C3_3  and  C5_5 
REMARK    3  A    between atoms: N3_15  and  C9_16 
REMARK    4  A    between atoms: C9_16  and  C10_17 
REMARK    5  A    between atoms: C10_17  and  C11_18 
REMARK    6  A    between atoms: C11_18  and  C12_19 
REMARK    7  A    between atoms: C12_19  and  N4_20 
REMARK    8  A    between atoms: C13_22  and  C14_23 
REMARK    9  A    between atoms: C14_23  and  O3_24 
REMARK   10  A    between atoms: C14_23  and  C15_26 
REMARK   11  A    between atoms: C15_26  and  C16_27 
REMARK   12  A    between atoms: C15_26  and  C18_29 
REMARK   13  A    between atoms: C18_29  and  C19_30 
REMARK   14  A    between atoms: C19_30  and  C20_31 
ROOT
HETATM    1  C11 UNL     1       1.359  20.796   8.529  1.00  0.00     0.046 C 
ENDROOT
BRANCH   1   2
HETATM    2  C10 UNL     1      -0.037  21.220   8.053  1.00  0.00     0.025 C 
BRANCH   2   3
HETATM    3  C9  UNL     1       0.024  22.192   6.911  1.00  0.00     0.137 C 
BRANCH   3   4
HETATM    4  N3  UNL     1      -0.777  23.351   7.256  1.00  0.00    -0.268 N 
HETATM    5  C8  UNL     1      -0.026  24.501   7.619  1.00  0.00     0.325 C 
HETATM    6  N2  UNL     1      -0.262  25.908   7.739  1.00  0.00    -0.334 N 
HETATM    7  O2  UNL     1       1.177  24.212   7.916  1.00  0.00    -0.247 OA
HETATM    8  C7  UNL     1      -1.544  26.627   7.794  1.00  0.00     0.227 C 
ATOM      9  H2  UNL     1       0.573  26.491   7.794  1.00  0.00     0.164 HD
HETATM   10  C6  UNL     1      -2.442  25.919   8.726  1.00  0.00     0.236 C 
HETATM   11  N1  UNL     1      -3.022  24.600   8.747  1.00  0.00    -0.346 N 
HETATM   12  O1  UNL     1      -2.766  26.623   9.710  1.00  0.00    -0.272 OA
HETATM   13  C5  UNL     1      -3.398  23.595   7.797  1.00  0.00     0.181 C 
ATOM     14  H1  UNL     1      -3.219  24.299   9.702  1.00  0.00     0.163 HD
HETATM   15  C25 UNL     1      -2.180  23.048   7.140  1.00  0.00     0.251 C 
HETATM   16  O4  UNL     1      -2.390  22.146   6.315  1.00  0.00    -0.271 OA
BRANCH  13  17
HETATM   17  C3  UNL     1      -4.370  22.613   8.297  1.00  0.00     0.013 C 
HETATM   18  C4  UNL     1      -5.380  23.209   9.288  1.00  0.00     0.012 C 
BRANCH  17  19
HETATM   19  C2  UNL     1      -3.836  21.373   8.876  1.00  0.00     0.002 C 
HETATM   20  C1  UNL     1      -4.511  20.105   8.525  1.00  0.00     0.005 C 
ENDBRANCH  17  19
ENDBRANCH  13  17
ENDBRANCH   3   4
ENDBRANCH   2   3
ENDBRANCH   1   2
BRANCH   1  21
HETATM   21  C12 UNL     1       2.220  20.835   7.286  1.00  0.00     0.060 C 
BRANCH  21  22
HETATM   22  N4  UNL     1       3.472  21.394   7.417  1.00  0.00    -0.380 N 
HETATM   23  C13 UNL     1       3.885  22.621   7.020  1.00  0.00     0.096 C 
ATOM     24  H4  UNL     1       4.176  20.811   7.869  1.00  0.00     0.164 HD
BRANCH  23  25
HETATM   25  C14 UNL     1       4.129  23.028   5.599  1.00  0.00     0.185 C 
BRANCH  25  26
HETATM   26  O3  UNL     1       3.236  24.134   5.437  1.00  0.00    -0.386 OA
ATOM     27  H3  UNL     1       2.591  23.790   4.830  1.00  0.00     0.210 HD
ENDBRANCH  25  26
BRANCH  25  28
HETATM   28  C15 UNL     1       5.485  23.439   5.214  1.00  0.00    -0.047 C 
BRANCH  28  29
HETATM   29  C16 UNL     1       6.598  22.803   6.050  1.00  0.00     0.033 C 
HETATM   30  C17 UNL     1       7.736  22.280   5.203  1.00  0.00     0.010 C 
ENDBRANCH  28  29
BRANCH  28  31
HETATM   31  C18 UNL     1       5.792  24.837   4.878  1.00  0.00     0.004 C 
BRANCH  31  32
HETATM   32  C19 UNL     1       7.035  25.502   5.245  1.00  0.00     0.006 C 
BRANCH  32  33
HETATM   33  C20 UNL     1       8.006  25.980   4.259  1.00  0.00     0.208 C 
HETATM   34  C21 UNL     1       8.481  27.382   4.255  1.00  0.00     0.037 C 
HETATM   35  C22 UNL     1       9.926  27.377   3.701  1.00  0.00     0.004 C 
HETATM   36  C23 UNL     1      10.050  26.268   2.712  1.00  0.00     0.027 C 
HETATM   37  C24 UNL     1       8.744  26.061   2.021  1.00  0.00     0.233 C 
HETATM   38  N5  UNL     1       7.668  25.641   2.880  1.00  0.00    -0.068 N 
ATOM     39  H52 UNL     1       7.441  24.653   2.766  1.00  0.00     0.277 HD
ATOM     40  H51 UNL     1       6.768  26.027   2.594  1.00  0.00     0.277 HD
ENDBRANCH  32  33
ENDBRANCH  31  32
ENDBRANCH  28  31
ENDBRANCH  25  28
ENDBRANCH  23  25
ENDBRANCH  21  22
ENDBRANCH   1  21
TORSDOF 14
ENDMDL
MODEL 3
REMARK VINA RESULT: -9.229008127      0.723      1.056
REMARK  14 active torsions:
REMARK  status: ('A' for Active; 'I' for Inactive)
REMARK    1  A    between atoms: C2_2  and  C3_3 
REMARK    2  A    between atoms: C3_3  and  C5_5 
REMARK    3  A    between atoms: N3_15  and  C9_16 
REMARK    4  A    between atoms: C9_16  and  C10_17 
REMARK    5  A    between atoms: C10_17  and  C11_18 
REMARK    6  A    between atoms: C11_18  and  C12_19 
REMARK    7  A    between atoms: C12_19  and  N4_20 
REMARK    8  A    between atoms: C13_22  and  C14_23 
REMARK    9  A    between atoms: C14_23  and  O3_24 
REMARK   10  A    between atoms: C14_23  and  C15_26 
REMARK   11  A    between atoms: C15_26  and  C16_27 
REMARK   12  A    between atoms: C15_26  and  C18_29 
REMARK   13  A    between atoms: C18_29  and  C19_30 
REMARK   14  A    between atoms: C19_30  and  C20_31 
ROOT
HETATM    1  C11 UNL     1       7.481  22.797   4.784  1.00  0.00     0.046 C 
ENDROOT
BRANCH   1   2
HETATM    2  C10 UNL     1       7.824  24.183   4.218  1.00  0.00     0.025 C 
BRANCH   2   3
HETATM    3  C9  UNL     1       8.632  25.004   5.180  1.00  0.00     0.137 C 
BRANCH   3   4
HETATM    4  N3  UNL     1       8.795  26.331   4.622  1.00  0.00    -0.268 N 
HETATM    5  C8  UNL     1       9.801  26.432   3.622  1.00  0.00     0.325 C 
HETATM    6  N2  UNL     1      10.155  27.352   2.585  1.00  0.00    -0.334 N 
HETATM    7  O2  UNL     1      10.603  25.445   3.651  1.00  0.00    -0.247 OA
HETATM    8  C7  UNL     1       9.710  28.742   2.392  1.00  0.00     0.227 C 
ATOM      9  H2  UNL     1      10.804  26.997   1.883  1.00  0.00     0.164 HD
HETATM   10  C6  UNL     1       9.782  29.443   3.687  1.00  0.00     0.236 C 
HETATM   11  N1  UNL     1       9.130  29.264   4.960  1.00  0.00    -0.346 N 
HETATM   12  O1  UNL     1      10.588  30.402   3.670  1.00  0.00    -0.272 OA
HETATM   13  C5  UNL     1       7.894  28.725   5.448  1.00  0.00     0.181 C 
ATOM     14  H1  UNL     1       9.706  29.618   5.723  1.00  0.00     0.163 HD
HETATM   15  C25 UNL     1       7.871  27.253   5.228  1.00  0.00     0.251 C 
HETATM   16  O4  UNL     1       6.852  26.678   5.642  1.00  0.00    -0.271 OA
BRANCH  13  17
HETATM   17  C3  UNL     1       7.507  29.195   6.785  1.00  0.00     0.013 C 
HETATM   18  C4  UNL     1       7.528  30.724   6.921  1.00  0.00     0.012 C 
BRANCH  17  19
HETATM   19  C2  UNL     1       8.224  28.622   7.932  1.00  0.00     0.002 C 
HETATM   20  C1  UNL     1       7.532  28.614   9.239  1.00  0.00     0.005 C 
ENDBRANCH  17  19
ENDBRANCH  13  17
ENDBRANCH   3   4
ENDBRANCH   2   3
ENDBRANCH   1   2
BRANCH   1  21
HETATM   21  C12 UNL     1       7.076  23.054   6.218  1.00  0.00     0.060 C 
BRANCH  21  22
HETATM   22  N4  UNL     1       6.009  22.329   6.699  1.00  0.00    -0.380 N 
HETATM   23  C13 UNL     1       4.772  22.206   6.163  1.00  0.00     0.096 C 
ATOM     24  H4  UNL     1       6.171  21.821   7.569  1.00  0.00     0.164 HD
BRANCH  23  25
HETATM   25  C14 UNL     1       3.723  23.275   6.170  1.00  0.00     0.185 C 
BRANCH  25  26
HETATM   26  O3  UNL     1       3.447  23.445   4.776  1.00  0.00    -0.386 OA
ATOM     27  H3  UNL     1       4.226  23.085   4.368  1.00  0.00     0.210 HD
ENDBRANCH  25  26
BRANCH  25  28
HETATM   28  C15 UNL     1       2.466  23.015   6.884  1.00  0.00    -0.047 C 
BRANCH  28  29
HETATM   29  C16 UNL     1       2.573  21.956   7.983  1.00  0.00     0.033 C 
HETATM   30  C17 UNL     1       1.346  21.075   8.064  1.00  0.00     0.010 C 
ENDBRANCH  28  29
BRANCH  28  31
HETATM   31  C18 UNL     1       1.185  22.925   6.167  1.00  0.00     0.004 C 
BRANCH  31  32
HETATM   32  C19 UNL     1       0.224  24.017   6.087  1.00  0.00     0.006 C 
BRANCH  32  33
HETATM   33  C20 UNL     1      -0.892  24.168   7.022  1.00  0.00     0.208 C 
HETATM   34  C21 UNL     1      -0.678  24.202   8.486  1.00  0.00     0.037 C 
HETATM   35  C22 UNL     1      -1.794  25.086   9.094  1.00  0.00     0.004 C 
HETATM   36  C23 UNL     1      -3.020  24.941   8.258  1.00  0.00     0.027 C 
HETATM   37  C24 UNL     1      -3.075  23.567   7.679  1.00  0.00     0.233 C 
HETATM   38  N5  UNL     1      -2.001  23.249   6.776  1.00  0.00    -0.068 N 
ATOM     39  H52 UNL     1      -2.298  23.250   5.801  1.00  0.00     0.277 HD
ATOM     40  H51 UNL     1      -1.717  22.271   6.836  1.00  0.00     0.277 HD
ENDBRANCH  32  33
ENDBRANCH  31  32
ENDBRANCH  28  31
ENDBRANCH  25  28
ENDBRANCH  23  25
ENDBRANCH  21  22
ENDBRANCH   1  21
TORSDOF 14
ENDMDL
MODEL 4
REMARK VINA RESULT: -9.068719268      1.350      3.431
REMARK  14 active torsions:
REMARK  status: ('A' for Active; 'I' for Inactive)
REMARK    1  A    between atoms: C2_2  and  C3_3 
REMARK    2  A    between atoms: C3_3  and  C5_5 
REMARK    3  A    between atoms: N3_15  and  C9_16 
REMARK    4  A    between atoms: C9_16  and  C10_17 
REMARK    5  A    between atoms: C10_17  and  C11_18 
REMARK    6  A    between atoms: C11_18  and  C12_19 
REMARK    7  A    between atoms: C12_19  and  N4_20 
REMARK    8  A    between atoms: C13_22  and  C14_23 
REMARK    9  A    between atoms: C14_23  and  O3_24 
REMARK   10  A    between atoms: C14_23  and  C15_26 
REMARK   11  A    between atoms: C15_26  and  C16_27 
REMARK   12  A    between atoms: C15_26  and  C18_29 
REMARK   13  A    between atoms: C18_29  and  C19_30 
REMARK   14  A    between atoms: C19_30  and  C20_31 
ROOT
HETATM    1  C11 UNL     1       6.138  24.154   4.807  1.00  0.00     0.046 C 
ENDROOT
BRANCH   1   2
HETATM    2  C10 UNL     1       7.454  24.508   4.101  1.00  0.00     0.025 C 
BRANCH   2   3
HETATM    3  C9  UNL     1       8.471  25.076   5.047  1.00  0.00     0.137 C 
BRANCH   3   4
HETATM    4  N3  UNL     1       8.804  26.416   4.608  1.00  0.00    -0.268 N 
HETATM    5  C8  UNL     1       8.051  27.447   5.232  1.00  0.00     0.325 C 
HETATM    6  N2  UNL     1       8.162  28.864   5.406  1.00  0.00    -0.334 N 
HETATM    7  O2  UNL     1       6.998  26.999   5.788  1.00  0.00    -0.247 OA
HETATM    8  C7  UNL     1       9.025  29.816   4.691  1.00  0.00     0.227 C 
ATOM      9  H2  UNL     1       7.559  29.268   6.123  1.00  0.00     0.164 HD
HETATM   10  C6  UNL     1       8.956  29.524   3.248  1.00  0.00     0.236 C 
HETATM   11  N1  UNL     1       9.309  28.384   2.440  1.00  0.00    -0.346 N 
HETATM   12  O1  UNL     1       8.485  30.478   2.586  1.00  0.00    -0.272 OA
HETATM   13  C5  UNL     1      10.230  27.289   2.503  1.00  0.00     0.181 C 
ATOM     14  H1  UNL     1       8.748  28.347   1.589  1.00  0.00     0.163 HD
HETATM   15  C25 UNL     1       9.850  26.380   3.619  1.00  0.00     0.251 C 
HETATM   16  O4  UNL     1      10.569  25.377   3.746  1.00  0.00    -0.271 OA
BRANCH  13  17
HETATM   17  C3  UNL     1      10.517  26.654   1.209  1.00  0.00     0.013 C 
HETATM   18  C4  UNL     1      11.053  27.635   0.157  1.00  0.00     0.012 C 
BRANCH  17  19
HETATM   19  C2  UNL     1       9.441  25.864   0.594  1.00  0.00     0.002 C 
HETATM   20  C1  UNL     1       9.825  24.838  -0.399  1.00  0.00     0.005 C 
ENDBRANCH  17  19
ENDBRANCH  13  17
ENDBRANCH   3   4
ENDBRANCH   2   3
ENDBRANCH   1   2
BRANCH   1  21
HETATM   21  C12 UNL     1       6.510  23.077   5.801  1.00  0.00     0.060 C 
BRANCH  21  22
HETATM   22  N4  UNL     1       5.485  22.287   6.272  1.00  0.00    -0.380 N 
HETATM   23  C13 UNL     1       4.185  22.289   5.890  1.00  0.00     0.096 C 
ATOM     24  H4  UNL     1       5.735  21.617   7.000  1.00  0.00     0.164 HD
BRANCH  23  25
HETATM   25  C14 UNL     1       3.189  23.351   6.239  1.00  0.00     0.185 C 
BRANCH  25  26
HETATM   26  O3  UNL     1       2.720  23.768   4.952  1.00  0.00    -0.386 OA
ATOM     27  H3  UNL     1       2.262  24.575   5.153  1.00  0.00     0.210 HD
ENDBRANCH  25  26
BRANCH  25  28
HETATM   28  C15 UNL     1       2.040  22.982   7.077  1.00  0.00    -0.047 C 
BRANCH  28  29
HETATM   29  C16 UNL     1       2.332  21.879   8.096  1.00  0.00     0.033 C 
HETATM   30  C17 UNL     1       1.316  20.760   8.050  1.00  0.00     0.010 C 
ENDBRANCH  28  29
BRANCH  28  31
HETATM   31  C18 UNL     1       0.691  22.851   6.508  1.00  0.00     0.004 C 
BRANCH  31  32
HETATM   32  C19 UNL     1      -0.450  23.645   6.942  1.00  0.00     0.006 C 
BRANCH  32  33
HETATM   33  C20 UNL     1      -1.719  23.053   7.370  1.00  0.00     0.208 C 
HETATM   34  C21 UNL     1      -2.149  21.717   6.898  1.00  0.00     0.037 C 
HETATM   35  C22 UNL     1      -3.013  21.089   8.019  1.00  0.00     0.004 C 
HETATM   36  C23 UNL     1      -3.728  22.185   8.734  1.00  0.00     0.027 C 
HETATM   37  C24 UNL     1      -4.027  23.296   7.784  1.00  0.00     0.233 C 
HETATM   38  N5  UNL     1      -2.867  23.944   7.230  1.00  0.00    -0.068 N 
ATOM     39  H52 UNL     1      -2.701  24.862   7.641  1.00  0.00     0.277 HD
ATOM     40  H51 UNL     1      -3.012  24.245   6.266  1.00  0.00     0.277 HD
ENDBRANCH  32  33
ENDBRANCH  31  32
ENDBRANCH  28  31
ENDBRANCH  25  28
ENDBRANCH  23  25
ENDBRANCH  21  22
ENDBRANCH   1  21
TORSDOF 14
ENDMDL
MODEL 5
REMARK VINA RESULT: -9.033287857      1.756      3.718
REMARK  14 active torsions:
REMARK  status: ('A' for Active; 'I' for Inactive)
REMARK    1  A    between atoms: C2_2  and  C3_3 
REMARK    2  A    between atoms: C3_3  and  C5_5 
REMARK    3  A    between atoms: N3_15  and  C9_16 
REMARK    4  A    between atoms: C9_16  and  C10_17 
REMARK    5  A    between atoms: C10_17  and  C11_18 
REMARK    6  A    between atoms: C11_18  and  C12_19 
REMARK    7  A    between atoms: C12_19  and  N4_20 
REMARK    8  A    between atoms: C13_22  and  C14_23 
REMARK    9  A    between atoms: C14_23  and  O3_24 
REMARK   10  A    between atoms: C14_23  and  C15_26 
REMARK   11  A    between atoms: C15_26  and  C16_27 
REMARK   12  A    between atoms: C15_26  and  C18_29 
REMARK   13  A    between atoms: C18_29  and  C19_30 
REMARK   14  A    between atoms: C19_30  and  C20_31 
ROOT
HETATM    1  C11 UNL     1       7.453  22.761   4.816  1.00  0.00     0.046 C 
ENDROOT
BRANCH   1   2
HETATM    2  C10 UNL     1       7.728  24.143   4.208  1.00  0.00     0.025 C 
BRANCH   2   3
HETATM    3  C9  UNL     1       8.795  24.889   4.955  1.00  0.00     0.137 C 
BRANCH   3   4
HETATM    4  N3  UNL     1       8.850  26.243   4.439  1.00  0.00    -0.268 N 
HETATM    5  C8  UNL     1       7.896  27.131   5.008  1.00  0.00     0.325 C 
HETATM    6  N2  UNL     1       7.713  28.547   5.101  1.00  0.00    -0.334 N 
HETATM    7  O2  UNL     1       6.952  26.508   5.591  1.00  0.00    -0.247 OA
HETATM    8  C7  UNL     1       8.369  29.616   4.332  1.00  0.00     0.227 C 
ATOM      9  H2  UNL     1       7.035  28.859   5.797  1.00  0.00     0.164 HD
HETATM   10  C6  UNL     1       8.373  29.236   2.907  1.00  0.00     0.236 C 
HETATM   11  N1  UNL     1       8.959  28.149   2.163  1.00  0.00    -0.346 N 
HETATM   12  O1  UNL     1       7.723  30.035   2.194  1.00  0.00    -0.272 OA
HETATM   13  C5  UNL     1      10.085  27.271   2.285  1.00  0.00     0.181 C 
ATOM     14  H1  UNL     1       8.424  27.951   1.317  1.00  0.00     0.163 HD
HETATM   15  C25 UNL     1       9.889  26.367   3.451  1.00  0.00     0.251 C 
HETATM   16  O4  UNL     1      10.797  25.541   3.632  1.00  0.00    -0.271 OA
BRANCH  13  17
HETATM   17  C3  UNL     1      10.506  26.637   1.028  1.00  0.00     0.013 C 
HETATM   18  C4  UNL     1      11.172  27.616   0.048  1.00  0.00     0.012 C 
BRANCH  17  19
HETATM   19  C2  UNL     1       9.495  25.868   0.291  1.00  0.00     0.002 C 
HETATM   20  C1  UNL     1       9.943  24.653  -0.424  1.00  0.00     0.005 C 
ENDBRANCH  17  19
ENDBRANCH  13  17
ENDBRANCH   3   4
ENDBRANCH   2   3
ENDBRANCH   1   2
BRANCH   1  21
HETATM   21  C12 UNL     1       7.129  23.034   6.268  1.00  0.00     0.060 C 
BRANCH  21  22
HETATM   22  N4  UNL     1       6.089  22.317   6.816  1.00  0.00    -0.380 N 
HETATM   23  C13 UNL     1       4.847  22.127   6.311  1.00  0.00     0.096 C 
ATOM     24  H4  UNL     1       6.278  21.874   7.715  1.00  0.00     0.164 HD
BRANCH  23  25
HETATM   25  C14 UNL     1       3.771  23.169   6.263  1.00  0.00     0.185 C 
BRANCH  25  26
HETATM   26  O3  UNL     1       3.486  23.252   4.863  1.00  0.00    -0.386 OA
ATOM     27  H3  UNL     1       2.994  22.454   4.706  1.00  0.00     0.210 HD
ENDBRANCH  25  26
BRANCH  25  28
HETATM   28  C15 UNL     1       2.524  22.917   6.997  1.00  0.00    -0.047 C 
BRANCH  28  29
HETATM   29  C16 UNL     1       2.637  21.844   8.082  1.00  0.00     0.033 C 
HETATM   30  C17 UNL     1       1.301  21.226   8.431  1.00  0.00     0.010 C 
ENDBRANCH  28  29
BRANCH  28  31
HETATM   31  C18 UNL     1       1.229  22.852   6.303  1.00  0.00     0.004 C 
BRANCH  31  32
HETATM   32  C19 UNL     1       0.437  24.025   5.959  1.00  0.00     0.006 C 
BRANCH  32  33
HETATM   33  C20 UNL     1      -0.543  24.621   6.868  1.00  0.00     0.208 C 
HETATM   34  C21 UNL     1      -1.907  24.063   7.012  1.00  0.00     0.037 C 
HETATM   35  C22 UNL     1      -2.374  24.355   8.459  1.00  0.00     0.004 C 
HETATM   36  C23 UNL     1      -1.757  25.637   8.905  1.00  0.00     0.027 C 
HETATM   37  C24 UNL     1      -1.588  26.549   7.736  1.00  0.00     0.233 C 
HETATM   38  N5  UNL     1      -0.689  26.067   6.721  1.00  0.00    -0.068 N 
ATOM     39  H52 UNL     1       0.208  26.551   6.733  1.00  0.00     0.277 HD
ATOM     40  H51 UNL     1      -0.982  26.335   5.781  1.00  0.00     0.277 HD
ENDBRANCH  32  33
ENDBRANCH  31  32
ENDBRANCH  28  31
ENDBRANCH  25  28
ENDBRANCH  23  25
ENDBRANCH  21  22
ENDBRANCH   1  21
TORSDOF 14
ENDMDL
