MODEL 1
REMARK VINA RESULT: -8.267402542      0.000      0.000
REMARK  10 active torsions:
REMARK  status: ('A' for Active; 'I' for Inactive)
REMARK    1  A    between atoms: N2_4  and  C3_5 
REMARK    2  A    between atoms: C3_5  and  C4_6 
REMARK    3  A    between atoms: C4_6  and  N3_7 
REMARK    4  A    between atoms: C4_6  and  C5_11 
REMARK    5  A    between atoms: C5_11  and  C6_12 
REMARK    6  A    between atoms: C12_22  and  C13_23 
REMARK    7  A    between atoms: C13_23  and  C14_24 
REMARK    8  A    between atoms: C14_24  and  C15_25 
REMARK    9  A    between atoms: C15_25  and  N6_26 
REMARK   10  A    between atoms: C17_30  and  N8_31 
ROOT
HETATM    1  C1  UNL     1      21.304  -5.882  12.901  1.00  0.00     0.157 C 
HETATM    2  N1  UNL     1      19.969  -6.247  12.469  1.00  0.00    -0.347 N 
HETATM    3  C2  UNL     1      18.960  -5.357  12.356  1.00  0.00     0.185 A 
HETATM    4  N2  UNL     1      17.737  -5.690  11.959  1.00  0.00    -0.350 N 
HETATM    5  C9  UNL     1      17.497  -6.974  11.658  1.00  0.00     0.105 A 
HETATM    6  C10 UNL     1      18.514  -7.932  11.761  1.00  0.00     0.007 A 
HETATM    7  C11 UNL     1      18.226  -9.231  11.444  1.00  0.00     0.022 A 
HETATM    8  C12 UNL     1      19.209 -10.230  11.531  1.00  0.00    -0.057 A 
HETATM    9  C18 UNL     1      20.439  -9.811  11.943  1.00  0.00     0.009 A 
HETATM   10  C19 UNL     1      20.740  -8.496  12.267  1.00  0.00     0.031 A 
HETATM   11  C20 UNL     1      19.757  -7.554  12.171  1.00  0.00     0.046 A 
ENDROOT
BRANCH   4  12
HETATM   12  C3  UNL     1      16.682  -4.736  11.846  1.00  0.00     0.162 C 
BRANCH  12  13
HETATM   13  C4  UNL     1      16.895  -3.677  10.837  1.00  0.00     0.207 C 
BRANCH  13  14
HETATM   14  N3  UNL     1      15.968  -2.551  11.048  1.00  0.00    -0.073 N 
ATOM     15  H33 UNL     1      15.442  -2.655  11.915  1.00  0.00     0.274 HD
ATOM     16  H32 UNL     1      16.468  -1.691  11.272  1.00  0.00     0.274 HD
ATOM     17  H31 UNL     1      15.351  -2.429  10.246  1.00  0.00     0.274 HD
ENDBRANCH  13  14
BRANCH  13  18
HETATM   18  C5  UNL     1      16.692  -4.187   9.456  1.00  0.00     0.092 C 
BRANCH  18  19
HETATM   19  C6  UNL     1      17.747  -3.945   8.478  1.00  0.00     0.027 A 
HETATM   20  C7  UNL     1      19.097  -3.823   8.646  1.00  0.00     0.114 A 
HETATM   21  N4  UNL     1      19.702  -3.582   7.470  1.00  0.00    -0.360 N 
HETATM   22  C8  UNL     1      18.734  -3.549   6.547  1.00  0.00     0.180 A 
ATOM     23  H4  UNL     1      20.701  -3.450   7.313  1.00  0.00     0.166 HD
HETATM   24  N5  UNL     1      17.556  -3.765   7.132  1.00  0.00    -0.355 N 
ATOM     25  H5  UNL     1      16.655  -3.791   6.654  1.00  0.00     0.166 HD
ENDBRANCH  18  19
ENDBRANCH  13  18
ENDBRANCH  12  13
ENDBRANCH   4  12
BRANCH   8  26
HETATM   26  C13 UNL     1      18.863 -11.608  11.151  1.00  0.00     0.040 C 
BRANCH  26  27
HETATM   27  C14 UNL     1      17.512 -11.830  10.610  1.00  0.00     0.026 C 
BRANCH  27  28
HETATM   28  C15 UNL     1      16.775 -13.080  10.928  1.00  0.00     0.151 C 
BRANCH  28  29
HETATM   29  N6  UNL     1      16.841 -14.118   9.939  1.00  0.00    -0.273 N 
HETATM   30  C16 UNL     1      17.708 -15.087   9.716  1.00  0.00     0.218 A 
HETATM   31  N7  UNL     1      17.332 -15.815   8.627  1.00  0.00    -0.185 N 
HETATM   32  C17 UNL     1      16.199 -15.272   8.172  1.00  0.00     0.691 A 
ATOM     33  H7  UNL     1      17.821 -16.621   8.235  1.00  0.00     0.185 HD
HETATM   34  N9  UNL     1      15.920 -14.256   8.971  1.00  0.00    -0.129 N 
ATOM     35  H9  UNL     1      15.105 -13.651   8.866  1.00  0.00     0.206 HD
BRANCH  32  36
HETATM   36  N8  UNL     1      15.551 -15.713   7.136  1.00  0.00    -0.233 N 
ATOM     37  H82 UNL     1      15.889 -16.254   6.340  1.00  0.00     0.174 HD
ATOM     38  H81 UNL     1      14.555 -15.559   6.982  1.00  0.00     0.174 HD
ENDBRANCH  32  36
ENDBRANCH  28  29
ENDBRANCH  27  28
ENDBRANCH  26  27
ENDBRANCH   8  26
TORSDOF 10
ENDMDL
MODEL 2
REMARK VINA RESULT: -8.194320725      1.589      2.418
REMARK  10 active torsions:
REMARK  status: ('A' for Active; 'I' for Inactive)
REMARK    1  A    between atoms: N2_4  and  C3_5 
REMARK    2  A    between atoms: C3_5  and  C4_6 
REMARK    3  A    between atoms: C4_6  and  N3_7 
REMARK    4  A    between atoms: C4_6  and  C5_11 
REMARK    5  A    between atoms: C5_11  and  C6_12 
REMARK    6  A    between atoms: C12_22  and  C13_23 
REMARK    7  A    between atoms: C13_23  and  C14_24 
REMARK    8  A    between atoms: C14_24  and  C15_25 
REMARK    9  A    between atoms: C15_25  and  N6_26 
REMARK   10  A    between atoms: C17_30  and  N8_31 
ROOT
HETATM    1  C1  UNL     1      14.967  -8.815  14.083  1.00  0.00     0.157 C 
HETATM    2  N1  UNL     1      15.958  -8.246  13.191  1.00  0.00    -0.347 N 
HETATM    3  C2  UNL     1      15.968  -6.945  12.831  1.00  0.00     0.185 A 
HETATM    4  N2  UNL     1      16.877  -6.422  12.015  1.00  0.00    -0.350 N 
HETATM    5  C9  UNL     1      17.827  -7.230  11.527  1.00  0.00     0.105 A 
HETATM    6  C10 UNL     1      17.857  -8.587  11.872  1.00  0.00     0.007 A 
HETATM    7  C11 UNL     1      18.845  -9.376  11.352  1.00  0.00     0.022 A 
HETATM    8  C12 UNL     1      18.918 -10.743  11.666  1.00  0.00    -0.057 A 
HETATM    9  C18 UNL     1      17.954 -11.205  12.510  1.00  0.00     0.009 A 
HETATM   10  C19 UNL     1      16.947 -10.412  13.043  1.00  0.00     0.031 A 
HETATM   11  C20 UNL     1      16.909  -9.088  12.713  1.00  0.00     0.046 A 
ENDROOT
BRANCH   4  12
HETATM   12  C3  UNL     1      16.871  -5.045  11.645  1.00  0.00     0.162 C 
BRANCH  12  13
HETATM   13  C4  UNL     1      17.845  -4.667  10.600  1.00  0.00     0.207 C 
BRANCH  13  14
HETATM   14  N3  UNL     1      19.005  -3.971  11.183  1.00  0.00    -0.073 N 
ATOM     15  H33 UNL     1      19.026  -2.987  10.916  1.00  0.00     0.274 HD
ATOM     16  H32 UNL     1      18.906  -3.856  12.191  1.00  0.00     0.274 HD
ATOM     17  H31 UNL     1      19.876  -4.444  10.942  1.00  0.00     0.274 HD
ENDBRANCH  13  14
BRANCH  13  18
HETATM   18  C5  UNL     1      17.236  -3.774   9.580  1.00  0.00     0.092 C 
BRANCH  18  19
HETATM   19  C6  UNL     1      17.879  -3.694   8.273  1.00  0.00     0.027 A 
HETATM   20  C7  UNL     1      19.199  -3.581   7.942  1.00  0.00     0.114 A 
HETATM   21  N4  UNL     1      19.351  -3.519   6.608  1.00  0.00    -0.360 N 
HETATM   22  C8  UNL     1      18.122  -3.591   6.084  1.00  0.00     0.180 A 
ATOM     23  H4  UNL     1      20.229  -3.434   6.096  1.00  0.00     0.166 HD
HETATM   24  N5  UNL     1      17.227  -3.696   7.066  1.00  0.00    -0.355 N 
ATOM     25  H5  UNL     1      16.217  -3.768   6.940  1.00  0.00     0.166 HD
ENDBRANCH  18  19
ENDBRANCH  13  18
ENDBRANCH  12  13
ENDBRANCH   4  12
BRANCH   8  26
HETATM   26  C13 UNL     1      20.016 -11.547  11.107  1.00  0.00     0.040 C 
BRANCH  26  27
HETATM   27  C14 UNL     1      19.738 -12.277   9.859  1.00  0.00     0.026 C 
BRANCH  27  28
HETATM   28  C15 UNL     1      19.235 -13.674   9.906  1.00  0.00     0.151 C 
BRANCH  28  29
HETATM   29  N6  UNL     1      17.901 -13.879   9.417  1.00  0.00    -0.273 N 
HETATM   30  C16 UNL     1      16.737 -13.350   9.744  1.00  0.00     0.218 A 
HETATM   31  N7  UNL     1      15.743 -13.893   8.988  1.00  0.00    -0.185 N 
HETATM   32  C17 UNL     1      16.319 -14.782   8.173  1.00  0.00     0.691 A 
ATOM     33  H7  UNL     1      14.749 -13.666   9.034  1.00  0.00     0.185 HD
HETATM   34  N9  UNL     1      17.614 -14.759   8.444  1.00  0.00    -0.129 N 
ATOM     35  H9  UNL     1      18.308 -15.339   7.973  1.00  0.00     0.206 HD
BRANCH  32  36
HETATM   36  N8  UNL     1      15.668 -15.495   7.305  1.00  0.00    -0.233 N 
ATOM     37  H82 UNL     1      14.777 -15.983   7.401  1.00  0.00     0.174 HD
ATOM     38  H81 UNL     1      15.992 -15.667   6.353  1.00  0.00     0.174 HD
ENDBRANCH  32  36
ENDBRANCH  28  29
ENDBRANCH  27  28
ENDBRANCH  26  27
ENDBRANCH   8  26
TORSDOF 10
ENDMDL
MODEL 3
REMARK VINA RESULT: -8.137115299      1.711      2.750
REMARK  10 active torsions:
REMARK  status: ('A' for Active; 'I' for Inactive)
REMARK    1  A    between atoms: N2_4  and  C3_5 
REMARK    2  A    between atoms: C3_5  and  C4_6 
REMARK    3  A    between atoms: C4_6  and  N3_7 
REMARK    4  A    between atoms: C4_6  and  C5_11 
REMARK    5  A    between atoms: C5_11  and  C6_12 
REMARK    6  A    between atoms: C12_22  and  C13_23 
REMARK    7  A    between atoms: C13_23  and  C14_24 
REMARK    8  A    between atoms: C14_24  and  C15_25 
REMARK    9  A    between atoms: C15_25  and  N6_26 
REMARK   10  A    between atoms: C17_30  and  N8_31 
ROOT
HETATM    1  C1  UNL     1      16.134  -8.855  14.574  1.00  0.00     0.157 C 
HETATM    2  N1  UNL     1      16.999  -8.541  13.453  1.00  0.00    -0.347 N 
HETATM    3  C2  UNL     1      17.463  -7.297  13.202  1.00  0.00     0.185 A 
HETATM    4  N2  UNL     1      18.256  -7.009  12.178  1.00  0.00    -0.350 N 
HETATM    5  C9  UNL     1      18.610  -8.004  11.353  1.00  0.00     0.105 A 
HETATM    6  C10 UNL     1      18.154  -9.310  11.573  1.00  0.00     0.007 A 
HETATM    7  C11 UNL     1      18.540 -10.295  10.707  1.00  0.00     0.022 A 
HETATM    8  C12 UNL     1      18.109 -11.621  10.883  1.00  0.00    -0.057 A 
HETATM    9  C18 UNL     1      17.300 -11.838  11.957  1.00  0.00     0.009 A 
HETATM   10  C19 UNL     1      16.902 -10.844  12.841  1.00  0.00     0.031 A 
HETATM   11  C20 UNL     1      17.342  -9.568  12.636  1.00  0.00     0.046 A 
ENDROOT
BRANCH   4  12
HETATM   12  C3  UNL     1      18.735  -5.689  11.928  1.00  0.00     0.162 C 
BRANCH  12  13
HETATM   13  C4  UNL     1      19.286  -5.462  10.575  1.00  0.00     0.207 C 
BRANCH  13  14
HETATM   14  N3  UNL     1      20.752  -5.605  10.569  1.00  0.00    -0.073 N 
ATOM     15  H33 UNL     1      21.170  -5.230  11.420  1.00  0.00     0.274 HD
ATOM     16  H32 UNL     1      21.035  -6.580  10.674  1.00  0.00     0.274 HD
ATOM     17  H31 UNL     1      21.158  -5.184   9.734  1.00  0.00     0.274 HD
ENDBRANCH  13  14
BRANCH  13  18
HETATM   18  C5  UNL     1      18.954  -4.105  10.069  1.00  0.00     0.092 C 
BRANCH  18  19
HETATM   19  C6  UNL     1      18.678  -3.958   8.644  1.00  0.00     0.027 A 
HETATM   20  C7  UNL     1      17.523  -3.623   7.997  1.00  0.00     0.114 A 
HETATM   21  N4  UNL     1      17.708  -3.622   6.665  1.00  0.00    -0.360 N 
HETATM   22  C8  UNL     1      18.987  -3.958   6.460  1.00  0.00     0.180 A 
ATOM     23  H4  UNL     1      17.011  -3.407   5.952  1.00  0.00     0.166 HD
HETATM   24  N5  UNL     1      19.585  -4.163   7.634  1.00  0.00    -0.355 N 
ATOM     25  H5  UNL     1      20.561  -4.430   7.762  1.00  0.00     0.166 HD
ENDBRANCH  18  19
ENDBRANCH  13  18
ENDBRANCH  12  13
ENDBRANCH   4  12
BRANCH   8  26
HETATM   26  C13 UNL     1      18.574 -12.653   9.945  1.00  0.00     0.040 C 
BRANCH  26  27
HETATM   27  C14 UNL     1      17.596 -13.679   9.544  1.00  0.00     0.026 C 
BRANCH  27  28
HETATM   28  C15 UNL     1      17.828 -15.107   9.880  1.00  0.00     0.151 C 
BRANCH  28  29
HETATM   29  N6  UNL     1      17.152 -16.066   9.053  1.00  0.00    -0.273 N 
HETATM   30  C16 UNL     1      17.384 -17.337   8.786  1.00  0.00     0.218 A 
HETATM   31  N7  UNL     1      16.450 -17.813   7.914  1.00  0.00    -0.185 N 
HETATM   32  C17 UNL     1      15.624 -16.798   7.642  1.00  0.00     0.691 A 
ATOM     33  H7  UNL     1      16.393 -18.761   7.542  1.00  0.00     0.185 HD
HETATM   34  N9  UNL     1      16.061 -15.759   8.334  1.00  0.00    -0.129 N 
ATOM     35  H9  UNL     1      15.623 -14.838   8.323  1.00  0.00     0.206 HD
BRANCH  32  36
HETATM   36  N8  UNL     1      14.607 -16.891   6.839  1.00  0.00    -0.233 N 
ATOM     37  H82 UNL     1      14.369 -17.625   6.173  1.00  0.00     0.174 HD
ATOM     38  H81 UNL     1      13.870 -16.188   6.774  1.00  0.00     0.174 HD
ENDBRANCH  32  36
ENDBRANCH  28  29
ENDBRANCH  27  28
ENDBRANCH  26  27
ENDBRANCH   8  26
TORSDOF 10
ENDMDL
MODEL 4
REMARK VINA RESULT: -8.049852767      2.194      8.769
REMARK  10 active torsions:
REMARK  status: ('A' for Active; 'I' for Inactive)
REMARK    1  A    between atoms: N2_4  and  C3_5 
REMARK    2  A    between atoms: C3_5  and  C4_6 
REMARK    3  A    between atoms: C4_6  and  N3_7 
REMARK    4  A    between atoms: C4_6  and  C5_11 
REMARK    5  A    between atoms: C5_11  and  C6_12 
REMARK    6  A    between atoms: C12_22  and  C13_23 
REMARK    7  A    between atoms: C13_23  and  C14_24 
REMARK    8  A    between atoms: C14_24  and  C15_25 
REMARK    9  A    between atoms: C15_25  and  N6_26 
REMARK   10  A    between atoms: C17_30  and  N8_31 
ROOT
HETATM    1  C1  UNL     1      15.624 -11.422  14.409  1.00  0.00     0.157 C 
HETATM    2  N1  UNL     1      16.753 -10.943  13.635  1.00  0.00    -0.347 N 
HETATM    3  C2  UNL     1      17.807 -11.720  13.307  1.00  0.00     0.185 A 
HETATM    4  N2  UNL     1      18.841 -11.282  12.597  1.00  0.00    -0.350 N 
HETATM    5  C9  UNL     1      18.833 -10.006  12.190  1.00  0.00     0.105 A 
HETATM    6  C10 UNL     1      17.761  -9.162  12.507  1.00  0.00     0.007 A 
HETATM    7  C11 UNL     1      17.793  -7.867  12.071  1.00  0.00     0.022 A 
HETATM    8  C12 UNL     1      16.743  -6.980  12.362  1.00  0.00    -0.057 A 
HETATM    9  C18 UNL     1      15.718  -7.502  13.092  1.00  0.00     0.009 A 
HETATM   10  C19 UNL     1      15.677  -8.816  13.539  1.00  0.00     0.031 A 
HETATM   11  C20 UNL     1      16.717  -9.646  13.236  1.00  0.00     0.046 A 
ENDROOT
BRANCH   4  12
HETATM   12  C3  UNL     1      19.947 -12.118  12.261  1.00  0.00     0.162 C 
BRANCH  12  13
HETATM   13  C4  UNL     1      19.607 -13.341  11.504  1.00  0.00     0.207 C 
BRANCH  13  14
HETATM   14  N3  UNL     1      20.729 -14.296  11.507  1.00  0.00    -0.073 N 
ATOM     15  H33 UNL     1      21.176 -14.352  10.592  1.00  0.00     0.274 HD
ATOM     16  H32 UNL     1      21.520 -13.943  12.045  1.00  0.00     0.274 HD
ATOM     17  H31 UNL     1      20.429 -15.213  11.836  1.00  0.00     0.274 HD
ENDBRANCH  13  14
BRANCH  13  18
HETATM   18  C5  UNL     1      19.268 -13.034  10.090  1.00  0.00     0.092 C 
BRANCH  18  19
HETATM   19  C6  UNL     1      17.954 -13.439   9.600  1.00  0.00     0.027 A 
HETATM   20  C7  UNL     1      16.709 -12.987   9.931  1.00  0.00     0.114 A 
HETATM   21  N4  UNL     1      15.764 -13.656   9.250  1.00  0.00    -0.360 N 
HETATM   22  C8  UNL     1      16.408 -14.541   8.479  1.00  0.00     0.180 A 
ATOM     23  H4  UNL     1      14.755 -13.517   9.307  1.00  0.00     0.166 HD
HETATM   24  N5  UNL     1      17.721 -14.425   8.675  1.00  0.00    -0.355 N 
ATOM     25  H5  UNL     1      18.439 -14.982   8.212  1.00  0.00     0.166 HD
ENDBRANCH  18  19
ENDBRANCH  13  18
ENDBRANCH  12  13
ENDBRANCH   4  12
BRANCH   8  26
HETATM   26  C13 UNL     1      16.806  -5.604  11.847  1.00  0.00     0.040 C 
BRANCH  26  27
HETATM   27  C14 UNL     1      17.882  -5.301  10.889  1.00  0.00     0.026 C 
BRANCH  27  28
HETATM   28  C15 UNL     1      18.088  -3.909  10.411  1.00  0.00     0.151 C 
BRANCH  28  29
HETATM   29  N6  UNL     1      18.306  -3.754   9.001  1.00  0.00    -0.273 N 
HETATM   30  C16 UNL     1      17.600  -3.182   8.044  1.00  0.00     0.218 A 
HETATM   31  N7  UNL     1      18.235  -3.314   6.846  1.00  0.00    -0.185 N 
HETATM   32  C17 UNL     1      19.363  -3.990   7.080  1.00  0.00     0.691 A 
ATOM     33  H7  UNL     1      17.910  -2.965   5.943  1.00  0.00     0.185 HD
HETATM   34  N9  UNL     1      19.389  -4.244   8.378  1.00  0.00    -0.129 N 
ATOM     35  H9  UNL     1      20.140  -4.751   8.847  1.00  0.00     0.206 HD
BRANCH  32  36
HETATM   36  N8  UNL     1      20.224  -4.301   6.158  1.00  0.00    -0.233 N 
ATOM     37  H82 UNL     1      20.696  -3.701   5.481  1.00  0.00     0.174 HD
ATOM     38  H81 UNL     1      20.555  -5.250   5.987  1.00  0.00     0.174 HD
ENDBRANCH  32  36
ENDBRANCH  28  29
ENDBRANCH  27  28
ENDBRANCH  26  27
ENDBRANCH   8  26
TORSDOF 10
ENDMDL
MODEL 5
REMARK VINA RESULT: -7.908842649      1.684      2.572
REMARK  10 active torsions:
REMARK  status: ('A' for Active; 'I' for Inactive)
REMARK    1  A    between atoms: N2_4  and  C3_5 
REMARK    2  A    between atoms: C3_5  and  C4_6 
REMARK    3  A    between atoms: C4_6  and  N3_7 
REMARK    4  A    between atoms: C4_6  and  C5_11 
REMARK    5  A    between atoms: C5_11  and  C6_12 
REMARK    6  A    between atoms: C12_22  and  C13_23 
REMARK    7  A    between atoms: C13_23  and  C14_24 
REMARK    8  A    between atoms: C14_24  and  C15_25 
REMARK    9  A    between atoms: C15_25  and  N6_26 
REMARK   10  A    between atoms: C17_30  and  N8_31 
ROOT
HETATM    1  C1  UNL     1      16.831  -7.983  15.647  1.00  0.00     0.157 C 
HETATM    2  N1  UNL     1      17.390  -7.861  14.314  1.00  0.00    -0.347 N 
HETATM    3  C2  UNL     1      17.937  -6.720  13.843  1.00  0.00     0.185 A 
HETATM    4  N2  UNL     1      18.450  -6.608  12.624  1.00  0.00    -0.350 N 
HETATM    5  C9  UNL     1      18.420  -7.683  11.824  1.00  0.00     0.105 A 
HETATM    6  C10 UNL     1      17.863  -8.888  12.269  1.00  0.00     0.007 A 
HETATM    7  C11 UNL     1      17.853  -9.960  11.421  1.00  0.00     0.022 A 
HETATM    8  C12 UNL     1      17.305 -11.191  11.819  1.00  0.00    -0.057 A 
HETATM    9  C18 UNL     1      16.800 -11.229  13.084  1.00  0.00     0.009 A 
HETATM   10  C19 UNL     1      16.805 -10.145  13.952  1.00  0.00     0.031 A 
HETATM   11  C20 UNL     1      17.346  -8.966  13.528  1.00  0.00     0.046 A 
ENDROOT
BRANCH   4  12
HETATM   12  C3  UNL     1      19.023  -5.393  12.143  1.00  0.00     0.162 C 
BRANCH  12  13
HETATM   13  C4  UNL     1      19.269  -5.345  10.686  1.00  0.00     0.207 C 
BRANCH  13  14
HETATM   14  N3  UNL     1      20.665  -5.696  10.372  1.00  0.00    -0.073 N 
ATOM     15  H33 UNL     1      20.924  -5.398   9.432  1.00  0.00     0.274 HD
ATOM     16  H32 UNL     1      21.323  -5.126  10.902  1.00  0.00     0.274 HD
ATOM     17  H31 UNL     1      20.832  -6.692  10.510  1.00  0.00     0.274 HD
ENDBRANCH  13  14
BRANCH  13  18
HETATM   18  C5  UNL     1      18.998  -3.993  10.130  1.00  0.00     0.092 C 
BRANCH  18  19
HETATM   19  C6  UNL     1      18.671  -3.893   8.711  1.00  0.00     0.027 A 
HETATM   20  C7  UNL     1      17.478  -3.652   8.094  1.00  0.00     0.114 A 
HETATM   21  N4  UNL     1      17.623  -3.663   6.758  1.00  0.00    -0.360 N 
HETATM   22  C8  UNL     1      18.916  -3.913   6.520  1.00  0.00     0.180 A 
ATOM     23  H4  UNL     1      16.893  -3.511   6.063  1.00  0.00     0.166 HD
HETATM   24  N5  UNL     1      19.560  -4.053   7.679  1.00  0.00    -0.355 N 
ATOM     25  H5  UNL     1      20.556  -4.249   7.781  1.00  0.00     0.166 HD
ENDBRANCH  18  19
ENDBRANCH  13  18
ENDBRANCH  12  13
ENDBRANCH   4  12
BRANCH   8  26
HETATM   26  C13 UNL     1      17.344 -12.326  10.885  1.00  0.00     0.040 C 
BRANCH  26  27
HETATM   27  C14 UNL     1      18.601 -12.539  10.147  1.00  0.00     0.026 C 
BRANCH  27  28
HETATM   28  C15 UNL     1      19.043 -13.915   9.804  1.00  0.00     0.151 C 
BRANCH  28  29
HETATM   29  N6  UNL     1      18.005 -14.835   9.433  1.00  0.00    -0.273 N 
HETATM   30  C16 UNL     1      17.558 -15.947   9.983  1.00  0.00     0.218 A 
HETATM   31  N7  UNL     1      16.551 -16.474   9.231  1.00  0.00    -0.185 N 
HETATM   32  C17 UNL     1      16.379 -15.655   8.189  1.00  0.00     0.691 A 
ATOM     33  H7  UNL     1      16.029 -17.329   9.426  1.00  0.00     0.185 HD
HETATM   34  N9  UNL     1      17.260 -14.678   8.328  1.00  0.00    -0.129 N 
ATOM     35  H9  UNL     1      17.360 -13.901   7.675  1.00  0.00     0.206 HD
BRANCH  32  36
HETATM   36  N8  UNL     1      15.495 -15.848   7.257  1.00  0.00    -0.233 N 
ATOM     37  H82 UNL     1      14.520 -16.135   7.335  1.00  0.00     0.174 HD
ATOM     38  H81 UNL     1      15.684 -15.726   6.262  1.00  0.00     0.174 HD
ENDBRANCH  32  36
ENDBRANCH  28  29
ENDBRANCH  27  28
ENDBRANCH  26  27
ENDBRANCH   8  26
TORSDOF 10
ENDMDL
