MODEL 1
REMARK VINA RESULT: -8.413142996      0.000      0.000
REMARK  8 active torsions:
REMARK  status: ('A' for Active; 'I' for Inactive)
REMARK    1  A    between atoms: C2_2  and  O1_3 
REMARK    2  A    between atoms: O1_3  and  C3_4 
REMARK    3  A    between atoms: C3_4  and  C4_5 
REMARK    4  A    between atoms: C4_5  and  N1_6 
REMARK    5  A    between atoms: C9_11  and  C10_12 
REMARK    6  A    between atoms: C11_13  and  N2_14 
REMARK    7  A    between atoms: C14_17  and  C15_18 
REMARK    8  A    between atoms: C15_18  and  N3_19 
ROOT
HETATM    1  N2  UNL     1      16.048  -6.555  12.954  1.00  0.00    -0.279 N 
HETATM    2  C12 UNL     1      16.437  -5.752  13.970  1.00  0.00     0.117 A 
HETATM    3  C13 UNL     1      16.769  -4.517  13.463  1.00  0.00     0.047 A 
HETATM    4  C14 UNL     1      16.574  -4.584  12.104  1.00  0.00     0.046 A 
HETATM    5  N6  UNL     1      16.137  -5.840  11.855  1.00  0.00    -0.297 N 
ATOM      6  H6  UNL     1      15.906  -6.191  10.926  1.00  0.00     0.187 HD
ENDROOT
BRANCH   1   7
HETATM    7  C11 UNL     1      15.621  -7.944  13.104  1.00  0.00     0.118 C 
HETATM    8  C10 UNL     1      16.496  -8.824  13.434  1.00  0.00     0.049 C 
BRANCH   8   9
HETATM    9  C9  UNL     1      16.422 -10.234  13.654  1.00  0.00     0.035 A 
HETATM   10  N1  UNL     1      16.945 -11.173  12.870  1.00  0.00    -0.355 N 
HETATM   11  C5  UNL     1      16.688 -12.507  13.136  1.00  0.00     0.091 A 
HETATM   12  C6  UNL     1      15.902 -12.849  14.201  1.00  0.00     0.017 A 
HETATM   13  C7  UNL     1      15.349 -11.912  15.030  1.00  0.00     0.004 A 
HETATM   14  C8  UNL     1      15.609 -10.604  14.757  1.00  0.00     0.029 A 
BRANCH  10  15
HETATM   15  C4  UNL     1      17.873 -10.958  11.793  1.00  0.00     0.154 C 
BRANCH  15  16
HETATM   16  C3  UNL     1      17.418 -11.711  10.537  1.00  0.00     0.187 C 
BRANCH  16  17
HETATM   17  O1  UNL     1      18.365 -12.598  10.107  1.00  0.00    -0.390 OA
BRANCH  17  18
HETATM   18  C2  UNL     1      17.730 -13.640   9.446  1.00  0.00     0.163 C 
HETATM   19  C1  UNL     1      16.228 -13.535   9.499  1.00  0.00     0.033 C 
ENDBRANCH  17  18
ENDBRANCH  16  17
ENDBRANCH  15  16
ENDBRANCH  10  15
ENDBRANCH   8   9
ENDBRANCH   1   7
BRANCH   4  20
HETATM   20  C15 UNL     1      16.791  -3.504  11.086  1.00  0.00     0.190 C 
BRANCH  20  21
HETATM   21  N3  UNL     1      17.872  -3.869  10.212  1.00  0.00    -0.322 N 
HETATM   22  C16 UNL     1      19.073  -4.359  10.538  1.00  0.00     0.185 A 
HETATM   23  N4  UNL     1      19.798  -4.570   9.406  1.00  0.00    -0.346 N 
HETATM   24  C17 UNL     1      19.044  -4.209   8.349  1.00  0.00     0.134 A 
ATOM     25  H4  UNL     1      20.748  -4.938   9.365  1.00  0.00     0.167 HD
HETATM   26  C18 UNL     1      17.841  -3.772   8.860  1.00  0.00     0.143 A 
HETATM   27  C20 UNL     1      19.046  -4.118   6.894  1.00  0.00     0.269 A 
HETATM   28  N5  UNL     1      17.029  -3.386   7.755  1.00  0.00    -0.304 N 
HETATM   29  C19 UNL     1      17.738  -3.585   6.532  1.00  0.00     0.299 A 
ATOM     30  H5  UNL     1      16.079  -3.020   7.827  1.00  0.00     0.171 HD
HETATM   31  O2  UNL     1      17.286  -3.336   5.385  1.00  0.00    -0.264 OA
HETATM   32  O3  UNL     1      19.971  -4.428   6.085  1.00  0.00    -0.280 OA
ENDBRANCH  20  21
ENDBRANCH   4  20
TORSDOF 8
ENDMDL
MODEL 2
REMARK VINA RESULT: -8.350701697      2.241      3.827
REMARK  8 active torsions:
REMARK  status: ('A' for Active; 'I' for Inactive)
REMARK    1  A    between atoms: C2_2  and  O1_3 
REMARK    2  A    between atoms: O1_3  and  C3_4 
REMARK    3  A    between atoms: C3_4  and  C4_5 
REMARK    4  A    between atoms: C4_5  and  N1_6 
REMARK    5  A    between atoms: C9_11  and  C10_12 
REMARK    6  A    between atoms: C11_13  and  N2_14 
REMARK    7  A    between atoms: C14_17  and  C15_18 
REMARK    8  A    between atoms: C15_18  and  N3_19 
ROOT
HETATM    1  N2  UNL     1      18.585  -9.197  11.506  1.00  0.00    -0.279 N 
HETATM    2  C12 UNL     1      18.415  -9.214  12.847  1.00  0.00     0.117 A 
HETATM    3  C13 UNL     1      18.515  -7.928  13.328  1.00  0.00     0.047 A 
HETATM    4  C14 UNL     1      18.751  -7.119  12.242  1.00  0.00     0.046 A 
HETATM    5  N6  UNL     1      18.782  -7.943  11.168  1.00  0.00    -0.297 N 
ATOM      6  H6  UNL     1      18.941  -7.627  10.211  1.00  0.00     0.187 HD
ENDROOT
BRANCH   1   7
HETATM    7  C11 UNL     1      18.546 -10.376  10.644  1.00  0.00     0.118 C 
HETATM    8  C10 UNL     1      17.948 -11.430  11.071  1.00  0.00     0.049 C 
BRANCH   8   9
HETATM    9  C9  UNL     1      17.734 -12.723  10.503  1.00  0.00     0.035 A 
HETATM   10  N1  UNL     1      18.634 -13.700  10.428  1.00  0.00    -0.355 N 
HETATM   11  C5  UNL     1      18.329 -14.860   9.737  1.00  0.00     0.091 A 
HETATM   12  C6  UNL     1      17.108 -14.994   9.138  1.00  0.00     0.017 A 
HETATM   13  C7  UNL     1      16.156 -14.012   9.196  1.00  0.00     0.004 A 
HETATM   14  C8  UNL     1      16.469 -12.877   9.878  1.00  0.00     0.029 A 
BRANCH  10  15
HETATM   15  C4  UNL     1      19.904 -13.734  11.101  1.00  0.00     0.154 C 
BRANCH  15  16
HETATM   16  C3  UNL     1      21.047 -13.569  10.092  1.00  0.00     0.187 C 
BRANCH  16  17
HETATM   17  O1  UNL     1      21.491 -12.277  10.036  1.00  0.00    -0.390 OA
BRANCH  17  18
HETATM   18  C2  UNL     1      21.268 -11.786   8.757  1.00  0.00     0.163 C 
HETATM   19  C1  UNL     1      21.699 -12.747   7.680  1.00  0.00     0.033 C 
ENDBRANCH  17  18
ENDBRANCH  16  17
ENDBRANCH  15  16
ENDBRANCH  10  15
ENDBRANCH   8   9
ENDBRANCH   1   7
BRANCH   4  20
HETATM   20  C15 UNL     1      18.939  -5.631  12.223  1.00  0.00     0.190 C 
BRANCH  20  21
HETATM   21  N3  UNL     1      18.035  -5.038  11.276  1.00  0.00    -0.322 N 
HETATM   22  C16 UNL     1      16.738  -4.754  11.434  1.00  0.00     0.185 A 
HETATM   23  N4  UNL     1      16.255  -4.197  10.290  1.00  0.00    -0.346 N 
HETATM   24  C17 UNL     1      17.261  -4.130   9.396  1.00  0.00     0.134 A 
ATOM     25  H4  UNL     1      15.297  -3.885  10.135  1.00  0.00     0.167 HD
HETATM   26  C18 UNL     1      18.372  -4.657  10.019  1.00  0.00     0.143 A 
HETATM   27  C20 UNL     1      17.588  -3.708   8.039  1.00  0.00     0.269 A 
HETATM   28  N5  UNL     1      19.448  -4.593   9.088  1.00  0.00    -0.304 N 
HETATM   29  C19 UNL     1      19.001  -4.016   7.860  1.00  0.00     0.299 A 
ATOM     30  H5  UNL     1      20.399  -4.914   9.271  1.00  0.00     0.171 HD
HETATM   31  O2  UNL     1      19.721  -3.828   6.846  1.00  0.00    -0.264 OA
HETATM   32  O3  UNL     1      16.827  -3.182   7.172  1.00  0.00    -0.280 OA
ENDBRANCH  20  21
ENDBRANCH   4  20
TORSDOF 8
ENDMDL
MODEL 3
REMARK VINA RESULT: -8.202399468      2.335      3.702
REMARK  8 active torsions:
REMARK  status: ('A' for Active; 'I' for Inactive)
REMARK    1  A    between atoms: C2_2  and  O1_3 
REMARK    2  A    between atoms: O1_3  and  C3_4 
REMARK    3  A    between atoms: C3_4  and  C4_5 
REMARK    4  A    between atoms: C4_5  and  N1_6 
REMARK    5  A    between atoms: C9_11  and  C10_12 
REMARK    6  A    between atoms: C11_13  and  N2_14 
REMARK    7  A    between atoms: C14_17  and  C15_18 
REMARK    8  A    between atoms: C15_18  and  N3_19 
ROOT
HETATM    1  N2  UNL     1      17.749  -8.987  12.709  1.00  0.00    -0.279 N 
HETATM    2  C12 UNL     1      17.544  -8.493  13.951  1.00  0.00     0.117 A 
HETATM    3  C13 UNL     1      17.935  -7.174  13.979  1.00  0.00     0.047 A 
HETATM    4  C14 UNL     1      18.387  -6.870  12.716  1.00  0.00     0.046 A 
HETATM    5  N6  UNL     1      18.251  -8.006  11.993  1.00  0.00    -0.297 N 
ATOM      6  H6  UNL     1      18.507  -8.090  11.009  1.00  0.00     0.187 HD
ENDROOT
BRANCH   1   7
HETATM    7  C11 UNL     1      17.454 -10.356  12.295  1.00  0.00     0.118 C 
HETATM    8  C10 UNL     1      17.951 -10.786  11.192  1.00  0.00     0.049 C 
BRANCH   8   9
HETATM    9  C9  UNL     1      17.862 -12.036  10.506  1.00  0.00     0.035 A 
HETATM   10  N1  UNL     1      18.882 -12.716   9.990  1.00  0.00    -0.355 N 
HETATM   11  C5  UNL     1      18.637 -13.853   9.239  1.00  0.00     0.091 A 
HETATM   12  C6  UNL     1      17.351 -14.269   9.035  1.00  0.00     0.017 A 
HETATM   13  C7  UNL     1      16.276 -13.597   9.552  1.00  0.00     0.004 A 
HETATM   14  C8  UNL     1      16.532 -12.480  10.288  1.00  0.00     0.029 A 
BRANCH  10  15
HETATM   15  C4  UNL     1      20.277 -12.454  10.219  1.00  0.00     0.154 C 
BRANCH  15  16
HETATM   16  C3  UNL     1      20.892 -11.738   9.010  1.00  0.00     0.187 C 
BRANCH  16  17
HETATM   17  O1  UNL     1      22.031 -12.359   8.578  1.00  0.00    -0.390 OA
BRANCH  17  18
HETATM   18  C2  UNL     1      21.839 -12.780   7.270  1.00  0.00     0.163 C 
HETATM   19  C1  UNL     1      23.040 -13.493   6.704  1.00  0.00     0.033 C 
ENDBRANCH  17  18
ENDBRANCH  16  17
ENDBRANCH  15  16
ENDBRANCH  10  15
ENDBRANCH   8   9
ENDBRANCH   1   7
BRANCH   4  20
HETATM   20  C15 UNL     1      18.925  -5.562  12.219  1.00  0.00     0.190 C 
BRANCH  20  21
HETATM   21  N3  UNL     1      18.019  -4.996  11.258  1.00  0.00    -0.322 N 
HETATM   22  C16 UNL     1      16.717  -4.727  11.404  1.00  0.00     0.185 A 
HETATM   23  N4  UNL     1      16.233  -4.196  10.249  1.00  0.00    -0.346 N 
HETATM   24  C17 UNL     1      17.243  -4.128   9.359  1.00  0.00     0.134 A 
ATOM     25  H4  UNL     1      15.271  -3.899  10.084  1.00  0.00     0.167 HD
HETATM   26  C18 UNL     1      18.358  -4.630   9.997  1.00  0.00     0.143 A 
HETATM   27  C20 UNL     1      17.572  -3.723   7.998  1.00  0.00     0.269 A 
HETATM   28  N5  UNL     1      19.438  -4.566   9.071  1.00  0.00    -0.304 N 
HETATM   29  C19 UNL     1      18.990  -4.014   7.832  1.00  0.00     0.299 A 
ATOM     30  H5  UNL     1      20.392  -4.870   9.264  1.00  0.00     0.171 HD
HETATM   31  O2  UNL     1      19.713  -3.831   6.819  1.00  0.00    -0.264 OA
HETATM   32  O3  UNL     1      16.809  -3.221   7.119  1.00  0.00    -0.280 OA
ENDBRANCH  20  21
ENDBRANCH   4  20
TORSDOF 8
ENDMDL
MODEL 4
REMARK VINA RESULT: -8.149009403      2.036      4.159
REMARK  8 active torsions:
REMARK  status: ('A' for Active; 'I' for Inactive)
REMARK    1  A    between atoms: C2_2  and  O1_3 
REMARK    2  A    between atoms: O1_3  and  C3_4 
REMARK    3  A    between atoms: C3_4  and  C4_5 
REMARK    4  A    between atoms: C4_5  and  N1_6 
REMARK    5  A    between atoms: C9_11  and  C10_12 
REMARK    6  A    between atoms: C11_13  and  N2_14 
REMARK    7  A    between atoms: C14_17  and  C15_18 
REMARK    8  A    between atoms: C15_18  and  N3_19 
ROOT
HETATM    1  N2  UNL     1      18.233  -9.938  11.259  1.00  0.00    -0.279 N 
HETATM    2  C12 UNL     1      17.390  -9.725  12.294  1.00  0.00     0.117 A 
HETATM    3  C13 UNL     1      17.524  -8.422  12.719  1.00  0.00     0.047 A 
HETATM    4  C14 UNL     1      18.475  -7.841  11.914  1.00  0.00     0.046 A 
HETATM    5  N6  UNL     1      18.867  -8.806  11.050  1.00  0.00    -0.297 N 
ATOM      6  H6  UNL     1      19.571  -8.671  10.324  1.00  0.00     0.187 HD
ENDROOT
BRANCH   1   7
HETATM    7  C11 UNL     1      18.374 -11.204  10.543  1.00  0.00     0.118 C 
HETATM    8  C10 UNL     1      17.539 -12.148  10.794  1.00  0.00     0.049 C 
BRANCH   8   9
HETATM    9  C9  UNL     1      17.396 -13.478  10.292  1.00  0.00     0.035 A 
HETATM   10  N1  UNL     1      18.109 -14.534  10.671  1.00  0.00    -0.355 N 
HETATM   11  C5  UNL     1      17.952 -15.740  10.010  1.00  0.00     0.091 A 
HETATM   12  C6  UNL     1      17.064 -15.837   8.975  1.00  0.00     0.017 A 
HETATM   13  C7  UNL     1      16.310 -14.773   8.559  1.00  0.00     0.004 A 
HETATM   14  C8  UNL     1      16.476 -13.593   9.217  1.00  0.00     0.029 A 
BRANCH  10  15
HETATM   15  C4  UNL     1      18.989 -14.599  11.806  1.00  0.00     0.154 C 
BRANCH  15  16
HETATM   16  C3  UNL     1      18.212 -15.015  13.061  1.00  0.00     0.187 C 
BRANCH  16  17
HETATM   17  O1  UNL     1      18.024 -13.963  13.914  1.00  0.00    -0.390 OA
BRANCH  17  18
HETATM   18  C2  UNL     1      16.711 -13.983  14.362  1.00  0.00     0.163 C 
HETATM   19  C1  UNL     1      15.949 -12.738  13.991  1.00  0.00     0.033 C 
ENDBRANCH  17  18
ENDBRANCH  16  17
ENDBRANCH  15  16
ENDBRANCH  10  15
ENDBRANCH   8   9
ENDBRANCH   1   7
BRANCH   4  20
HETATM   20  C15 UNL     1      18.989  -6.433  11.962  1.00  0.00     0.190 C 
BRANCH  20  21
HETATM   21  N3  UNL     1      18.125  -5.573  11.201  1.00  0.00    -0.322 N 
HETATM   22  C16 UNL     1      16.875  -5.191  11.486  1.00  0.00     0.185 A 
HETATM   23  N4  UNL     1      16.418  -4.372  10.501  1.00  0.00    -0.346 N 
HETATM   24  C17 UNL     1      17.391  -4.233   9.580  1.00  0.00     0.134 A 
ATOM     25  H4  UNL     1      15.496  -3.937  10.466  1.00  0.00     0.167 HD
HETATM   26  C18 UNL     1      18.457  -4.987  10.025  1.00  0.00     0.143 A 
HETATM   27  C20 UNL     1      17.715  -3.588   8.313  1.00  0.00     0.269 A 
HETATM   28  N5  UNL     1      19.499  -4.853   9.062  1.00  0.00    -0.304 N 
HETATM   29  C19 UNL     1      19.076  -4.000   7.997  1.00  0.00     0.299 A 
ATOM     30  H5  UNL     1      20.413  -5.301   9.124  1.00  0.00     0.171 HD
HETATM   31  O2  UNL     1      19.776  -3.691   6.999  1.00  0.00    -0.264 OA
HETATM   32  O3  UNL     1      16.988  -2.824   7.610  1.00  0.00    -0.280 OA
ENDBRANCH  20  21
ENDBRANCH   4  20
TORSDOF 8
ENDMDL
MODEL 5
REMARK VINA RESULT: -8.051935121      0.899      1.147
REMARK  8 active torsions:
REMARK  status: ('A' for Active; 'I' for Inactive)
REMARK    1  A    between atoms: C2_2  and  O1_3 
REMARK    2  A    between atoms: O1_3  and  C3_4 
REMARK    3  A    between atoms: C3_4  and  C4_5 
REMARK    4  A    between atoms: C4_5  and  N1_6 
REMARK    5  A    between atoms: C9_11  and  C10_12 
REMARK    6  A    between atoms: C11_13  and  N2_14 
REMARK    7  A    between atoms: C14_17  and  C15_18 
REMARK    8  A    between atoms: C15_18  and  N3_19 
ROOT
HETATM    1  N2  UNL     1      16.113  -6.594  12.965  1.00  0.00    -0.279 N 
HETATM    2  C12 UNL     1      16.498  -5.801  13.990  1.00  0.00     0.117 A 
HETATM    3  C13 UNL     1      16.823  -4.558  13.497  1.00  0.00     0.047 A 
HETATM    4  C14 UNL     1      16.625  -4.610  12.138  1.00  0.00     0.046 A 
HETATM    5  N6  UNL     1      16.196  -5.866  11.875  1.00  0.00    -0.297 N 
ATOM      6  H6  UNL     1      15.965  -6.206  10.941  1.00  0.00     0.187 HD
ENDROOT
BRANCH   1   7
HETATM    7  C11 UNL     1      15.694  -7.987  13.099  1.00  0.00     0.118 C 
HETATM    8  C10 UNL     1      16.598  -8.892  13.222  1.00  0.00     0.049 C 
BRANCH   8   9
HETATM    9  C9  UNL     1      16.539 -10.312  13.364  1.00  0.00     0.035 A 
HETATM   10  N1  UNL     1      17.019 -11.202  12.500  1.00  0.00    -0.355 N 
HETATM   11  C5  UNL     1      16.780 -12.550  12.702  1.00  0.00     0.091 A 
HETATM   12  C6  UNL     1      16.056 -12.957  13.787  1.00  0.00     0.017 A 
HETATM   13  C7  UNL     1      15.548 -12.072  14.699  1.00  0.00     0.004 A 
HETATM   14  C8  UNL     1      15.790 -10.749  14.488  1.00  0.00     0.029 A 
BRANCH  10  15
HETATM   15  C4  UNL     1      17.884 -10.920  11.387  1.00  0.00     0.154 C 
BRANCH  15  16
HETATM   16  C3  UNL     1      17.835 -12.065  10.368  1.00  0.00     0.187 C 
BRANCH  16  17
HETATM   17  O1  UNL     1      19.080 -12.569  10.110  1.00  0.00    -0.390 OA
BRANCH  17  18
HETATM   18  C2  UNL     1      19.960 -11.511   9.938  1.00  0.00     0.163 C 
HETATM   19  C1  UNL     1      21.021 -11.796   8.906  1.00  0.00     0.033 C 
ENDBRANCH  17  18
ENDBRANCH  16  17
ENDBRANCH  15  16
ENDBRANCH  10  15
ENDBRANCH   8   9
ENDBRANCH   1   7
BRANCH   4  20
HETATM   20  C15 UNL     1      16.835  -3.516  11.133  1.00  0.00     0.190 C 
BRANCH  20  21
HETATM   21  N3  UNL     1      17.904  -3.872  10.242  1.00  0.00    -0.322 N 
HETATM   22  C16 UNL     1      19.114  -4.353  10.549  1.00  0.00     0.185 A 
HETATM   23  N4  UNL     1      19.823  -4.557   9.406  1.00  0.00    -0.346 N 
HETATM   24  C17 UNL     1      19.050  -4.201   8.360  1.00  0.00     0.134 A 
ATOM     25  H4  UNL     1      20.775  -4.918   9.349  1.00  0.00     0.167 HD
HETATM   26  C18 UNL     1      17.852  -3.774   8.891  1.00  0.00     0.143 A 
HETATM   27  C20 UNL     1      19.028  -4.109   6.906  1.00  0.00     0.269 A 
HETATM   28  N5  UNL     1      17.020  -3.393   7.799  1.00  0.00    -0.304 N 
HETATM   29  C19 UNL     1      17.712  -3.585   6.564  1.00  0.00     0.299 A 
ATOM     30  H5  UNL     1      16.069  -3.034   7.885  1.00  0.00     0.171 HD
HETATM   31  O2  UNL     1      17.239  -3.338   5.425  1.00  0.00    -0.264 OA
HETATM   32  O3  UNL     1      19.944  -4.410   6.083  1.00  0.00    -0.280 OA
ENDBRANCH  20  21
ENDBRANCH   4  20
TORSDOF 8
ENDMDL
