MODEL 1
REMARK VINA RESULT: -6.204158528      0.000      0.000
REMARK  9 active torsions:
REMARK  status: ('A' for Active; 'I' for Inactive)
REMARK    1  A    between atoms: C2_2  and  C3_3 
REMARK    2  A    between atoms: C3_3  and  C4_4 
REMARK    3  A    between atoms: C4_4  and  C5_5 
REMARK    4  A    between atoms: C5_5  and  N1_6 
REMARK    5  A    between atoms: C6_7  and  C7_8 
REMARK    6  A    between atoms: C7_8  and  C8_9 
REMARK    7  A    between atoms: C10_11  and  N2_12 
REMARK    8  A    between atoms: N5_19  and  C13_20 
REMARK    9  A    between atoms: C13_20  and  C14_21 
ROOT
HETATM    1  C14 UNL     1      20.377  -7.747  14.364  1.00  0.00    -0.087 C 
HETATM    2  C15 UNL     1      19.650  -7.511  15.292  1.00  0.00    -0.109 C 
HETATM    3  C16 UNL     1      18.746  -7.233  16.411  1.00  0.00     0.112 C 
ENDROOT
BRANCH   1   4
HETATM    4  C13 UNL     1      21.248  -8.032  13.211  1.00  0.00     0.220 C 
BRANCH   4   5
HETATM    5  N5  UNL     1      21.793  -6.789  12.767  1.00  0.00    -0.335 N 
HETATM    6  C8  UNL     1      21.301  -6.030  11.613  1.00  0.00     0.096 C 
HETATM    7  C9  UNL     1      21.589  -4.619  12.065  1.00  0.00     0.060 C 
HETATM    8  C10 UNL     1      23.055  -4.788  12.502  1.00  0.00     0.178 C 
HETATM    9  C12 UNL     1      22.899  -6.043  13.322  1.00  0.00     0.243 C 
HETATM   10  O1  UNL     1      23.559  -6.426  14.301  1.00  0.00    -0.271 OA
BRANCH   6  11
HETATM   11  C7  UNL     1      19.873  -6.345  11.396  1.00  0.00     0.084 C 
BRANCH  11  12
HETATM   12  C6  UNL     1      19.018  -5.347  10.789  1.00  0.00     0.031 A 
HETATM   13  N1  UNL     1      17.992  -4.808  11.497  1.00  0.00    -0.331 N 
HETATM   14  C20 UNL     1      17.203  -3.925  10.866  1.00  0.00     0.169 A 
HETATM   15  C19 UNL     1      17.383  -3.549   9.566  1.00  0.00     0.168 A 
HETATM   16  N8  UNL     1      16.144  -3.073  10.859  1.00  0.00    -0.281 N 
HETATM   17  N6  UNL     1      18.385  -4.066   8.853  1.00  0.00    -0.342 N 
HETATM   18  N7  UNL     1      16.325  -2.714   9.595  1.00  0.00    -0.281 N 
HETATM   19  C17 UNL     1      19.199  -4.966   9.471  1.00  0.00     0.117 A 
HETATM   20  C18 UNL     1      18.608  -3.684   7.451  1.00  0.00     0.157 C 
ATOM     21  H7  UNL     1      15.866  -2.084   8.937  1.00  0.00     0.188 HD
ATOM     22  H8  UNL     1      15.459  -2.808  11.567  1.00  0.00     0.188 HD
BRANCH  13  23
HETATM   23  C5  UNL     1      17.755  -5.149  12.866  1.00  0.00     0.131 C 
BRANCH  23  24
HETATM   24  C4  UNL     1      16.351  -5.629  13.105  1.00  0.00     0.024 C 
BRANCH  24  25
HETATM   25  C3  UNL     1      16.462  -7.109  13.501  1.00  0.00     0.028 C 
BRANCH  25  26
HETATM   26  C2  UNL     1      16.580  -7.978  12.312  1.00  0.00    -0.037 C 
HETATM   27  C1  UNL     1      17.368  -9.039  12.322  1.00  0.00     0.007 C 
ENDBRANCH  25  26
ENDBRANCH  24  25
ENDBRANCH  23  24
ENDBRANCH  13  23
ENDBRANCH  11  12
ENDBRANCH   6  11
BRANCH   8  28
HETATM   28  N2  UNL     1      23.489  -3.689  13.304  1.00  0.00    -0.354 N 
HETATM   29  C11 UNL     1      24.381  -2.893  12.872  1.00  0.00     0.197 C 
HETATM   30  N3  UNL     1      24.962  -3.088  11.572  1.00  0.00    -0.067 NA
HETATM   31  N4  UNL     1      24.815  -1.800  13.663  1.00  0.00    -0.067 NA
ATOM     32  H2  UNL     1      23.081  -3.541  14.227  1.00  0.00     0.162 HD
ENDBRANCH   8  28
ENDBRANCH   4   5
ENDBRANCH   1   4
TORSDOF 9
ENDMDL
MODEL 2
REMARK VINA RESULT: -6.144627394      3.152      6.132
REMARK  9 active torsions:
REMARK  status: ('A' for Active; 'I' for Inactive)
REMARK    1  A    between atoms: C2_2  and  C3_3 
REMARK    2  A    between atoms: C3_3  and  C4_4 
REMARK    3  A    between atoms: C4_4  and  C5_5 
REMARK    4  A    between atoms: C5_5  and  N1_6 
REMARK    5  A    between atoms: C6_7  and  C7_8 
REMARK    6  A    between atoms: C7_8  and  C8_9 
REMARK    7  A    between atoms: C10_11  and  N2_12 
REMARK    8  A    between atoms: N5_19  and  C13_20 
REMARK    9  A    between atoms: C13_20  and  C14_21 
ROOT
HETATM    1  C14 UNL     1      15.556  -3.777  15.487  1.00  0.00    -0.087 C 
HETATM    2  C15 UNL     1      14.605  -3.660  16.214  1.00  0.00    -0.109 C 
HETATM    3  C16 UNL     1      13.458  -3.501  17.112  1.00  0.00     0.112 C 
ENDROOT
BRANCH   1   4
HETATM    4  C13 UNL     1      16.736  -3.915  14.617  1.00  0.00     0.220 C 
BRANCH   4   5
HETATM    5  N5  UNL     1      16.550  -5.086  13.823  1.00  0.00    -0.335 N 
HETATM    6  C8  UNL     1      16.421  -5.088  12.362  1.00  0.00     0.096 C 
HETATM    7  C9  UNL     1      17.047  -6.420  12.029  1.00  0.00     0.060 C 
HETATM    8  C10 UNL     1      16.286  -7.313  13.024  1.00  0.00     0.178 C 
HETATM    9  C12 UNL     1      16.448  -6.460  14.256  1.00  0.00     0.243 C 
HETATM   10  O1  UNL     1      16.493  -6.806  15.448  1.00  0.00    -0.271 OA
BRANCH   6  11
HETATM   11  C7  UNL     1      17.118  -3.907  11.810  1.00  0.00     0.084 C 
BRANCH  11  12
HETATM   12  C6  UNL     1      17.462  -3.888  10.404  1.00  0.00     0.031 A 
HETATM   13  N1  UNL     1      18.765  -3.877  10.022  1.00  0.00    -0.331 N 
HETATM   14  C20 UNL     1      19.022  -3.809   8.706  1.00  0.00     0.169 A 
HETATM   15  C19 UNL     1      18.049  -3.752   7.751  1.00  0.00     0.168 A 
HETATM   16  N8  UNL     1      19.900  -3.761   7.670  1.00  0.00    -0.281 N 
HETATM   17  N6  UNL     1      16.763  -3.761   8.105  1.00  0.00    -0.342 N 
HETATM   18  N7  UNL     1      18.949  -3.705   6.747  1.00  0.00    -0.281 N 
HETATM   19  C17 UNL     1      16.476  -3.829   9.434  1.00  0.00     0.117 A 
HETATM   20  C18 UNL     1      15.689  -3.700   7.102  1.00  0.00     0.157 C 
ATOM     21  H7  UNL     1      18.914  -3.650   5.729  1.00  0.00     0.188 HD
ATOM     22  H8  UNL     1      20.920  -3.767   7.620  1.00  0.00     0.188 HD
BRANCH  13  23
HETATM   23  C5  UNL     1      19.833  -3.948  10.971  1.00  0.00     0.131 C 
BRANCH  23  24
HETATM   24  C4  UNL     1      20.484  -5.302  11.006  1.00  0.00     0.024 C 
BRANCH  24  25
HETATM   25  C3  UNL     1      20.779  -5.601  12.483  1.00  0.00     0.028 C 
BRANCH  25  26
HETATM   26  C2  UNL     1      22.210  -5.890  12.700  1.00  0.00    -0.037 C 
HETATM   27  C1  UNL     1      22.877  -5.320  13.689  1.00  0.00     0.007 C 
ENDBRANCH  25  26
ENDBRANCH  24  25
ENDBRANCH  23  24
ENDBRANCH  13  23
ENDBRANCH  11  12
ENDBRANCH   6  11
BRANCH   8  28
HETATM   28  N2  UNL     1      16.922  -8.582  13.178  1.00  0.00    -0.354 N 
HETATM   29  C11 UNL     1      16.272  -9.575  13.632  1.00  0.00     0.197 C 
HETATM   30  N3  UNL     1      14.888  -9.435  13.995  1.00  0.00    -0.067 NA
HETATM   31  N4  UNL     1      16.899 -10.837  13.786  1.00  0.00    -0.067 NA
ATOM     32  H2  UNL     1      17.903  -8.693  12.922  1.00  0.00     0.162 HD
ENDBRANCH   8  28
ENDBRANCH   4   5
ENDBRANCH   1   4
TORSDOF 9
ENDMDL
MODEL 3
REMARK VINA RESULT: -6.121276858      2.955      6.339
REMARK  9 active torsions:
REMARK  status: ('A' for Active; 'I' for Inactive)
REMARK    1  A    between atoms: C2_2  and  C3_3 
REMARK    2  A    between atoms: C3_3  and  C4_4 
REMARK    3  A    between atoms: C4_4  and  C5_5 
REMARK    4  A    between atoms: C5_5  and  N1_6 
REMARK    5  A    between atoms: C6_7  and  C7_8 
REMARK    6  A    between atoms: C7_8  and  C8_9 
REMARK    7  A    between atoms: C10_11  and  N2_12 
REMARK    8  A    between atoms: N5_19  and  C13_20 
REMARK    9  A    between atoms: C13_20  and  C14_21 
ROOT
HETATM    1  C14 UNL     1      16.425  -4.591  14.185  1.00  0.00    -0.087 C 
HETATM    2  C15 UNL     1      16.552  -3.770  15.053  1.00  0.00    -0.109 C 
HETATM    3  C16 UNL     1      16.683  -2.774  16.120  1.00  0.00     0.112 C 
ENDROOT
BRANCH   1   4
HETATM    4  C13 UNL     1      16.245  -5.590  13.118  1.00  0.00     0.220 C 
BRANCH   4   5
HETATM    5  N5  UNL     1      17.047  -5.185  12.009  1.00  0.00    -0.335 N 
HETATM    6  C8  UNL     1      18.410  -5.660  11.751  1.00  0.00     0.096 C 
HETATM    7  C9  UNL     1      18.437  -5.624  10.243  1.00  0.00     0.060 C 
HETATM    8  C10 UNL     1      17.895  -4.203  10.013  1.00  0.00     0.178 C 
HETATM    9  C12 UNL     1      16.715  -4.261  10.949  1.00  0.00     0.243 C 
HETATM   10  O1  UNL     1      15.632  -3.658  10.882  1.00  0.00    -0.271 OA
BRANCH   6  11
HETATM   11  C7  UNL     1      18.583  -6.997  12.355  1.00  0.00     0.084 C 
BRANCH  11  12
HETATM   12  C6  UNL     1      19.891  -7.616  12.331  1.00  0.00     0.031 A 
HETATM   13  N1  UNL     1      20.004  -8.970  12.310  1.00  0.00    -0.331 N 
HETATM   14  C20 UNL     1      21.242  -9.487  12.338  1.00  0.00     0.169 A 
HETATM   15  C19 UNL     1      22.374  -8.725  12.386  1.00  0.00     0.168 A 
HETATM   16  N8  UNL     1      22.082 -10.555  12.344  1.00  0.00    -0.281 N 
HETATM   17  N6  UNL     1      22.286  -7.395  12.407  1.00  0.00    -0.342 N 
HETATM   18  N7  UNL     1      23.178  -9.809  12.391  1.00  0.00    -0.281 N 
HETATM   19  C17 UNL     1      21.040  -6.846  12.380  1.00  0.00     0.117 A 
HETATM   20  C18 UNL     1      23.485  -6.546  12.458  1.00  0.00     0.157 C 
ATOM     21  H7  UNL     1      24.183  -9.980  12.418  1.00  0.00     0.188 HD
ATOM     22  H8  UNL     1      21.926 -11.563  12.321  1.00  0.00     0.188 HD
BRANCH  13  23
HETATM   23  C5  UNL     1      18.858  -9.823  12.248  1.00  0.00     0.131 C 
BRANCH  23  24
HETATM   24  C4  UNL     1      18.746 -10.541  10.933  1.00  0.00     0.024 C 
BRANCH  24  25
HETATM   25  C3  UNL     1      17.438 -11.346  10.991  1.00  0.00     0.028 C 
BRANCH  25  26
HETATM   26  C2  UNL     1      17.516 -12.562  10.156  1.00  0.00    -0.037 C 
HETATM   27  C1  UNL     1      16.420 -13.200   9.783  1.00  0.00     0.007 C 
ENDBRANCH  25  26
ENDBRANCH  24  25
ENDBRANCH  23  24
ENDBRANCH  13  23
ENDBRANCH  11  12
ENDBRANCH   6  11
BRANCH   8  28
HETATM   28  N2  UNL     1      17.482  -4.016   8.659  1.00  0.00    -0.354 N 
HETATM   29  C11 UNL     1      18.321  -3.652   7.777  1.00  0.00     0.197 C 
HETATM   30  N3  UNL     1      19.696  -3.426   8.129  1.00  0.00    -0.067 NA
HETATM   31  N4  UNL     1      17.916  -3.465   6.431  1.00  0.00    -0.067 NA
ATOM     32  H2  UNL     1      16.509  -4.175   8.399  1.00  0.00     0.162 HD
ENDBRANCH   8  28
ENDBRANCH   4   5
ENDBRANCH   1   4
TORSDOF 9
ENDMDL
MODEL 4
REMARK VINA RESULT: -6.113763408      2.783      3.622
REMARK  9 active torsions:
REMARK  status: ('A' for Active; 'I' for Inactive)
REMARK    1  A    between atoms: C2_2  and  C3_3 
REMARK    2  A    between atoms: C3_3  and  C4_4 
REMARK    3  A    between atoms: C4_4  and  C5_5 
REMARK    4  A    between atoms: C5_5  and  N1_6 
REMARK    5  A    between atoms: C6_7  and  C7_8 
REMARK    6  A    between atoms: C7_8  and  C8_9 
REMARK    7  A    between atoms: C10_11  and  N2_12 
REMARK    8  A    between atoms: N5_19  and  C13_20 
REMARK    9  A    between atoms: C13_20  and  C14_21 
ROOT
HETATM    1  C14 UNL     1      18.486  -9.986  12.316  1.00  0.00    -0.087 C 
HETATM    2  C15 UNL     1      17.981 -10.765  11.553  1.00  0.00    -0.109 C 
HETATM    3  C16 UNL     1      17.384 -11.731  10.626  1.00  0.00     0.112 C 
ENDROOT
BRANCH   1   4
HETATM    4  C13 UNL     1      19.128  -9.040  13.245  1.00  0.00     0.220 C 
BRANCH   4   5
HETATM    5  N5  UNL     1      20.375  -8.650  12.669  1.00  0.00    -0.335 N 
HETATM    6  C8  UNL     1      20.624  -7.358  12.023  1.00  0.00     0.096 C 
HETATM    7  C9  UNL     1      22.084  -7.161  12.349  1.00  0.00     0.060 C 
HETATM    8  C10 UNL     1      22.629  -8.532  11.913  1.00  0.00     0.178 C 
HETATM    9  C12 UNL     1      21.605  -9.404  12.592  1.00  0.00     0.243 C 
HETATM   10  O1  UNL     1      21.726 -10.560  13.029  1.00  0.00    -0.271 OA
BRANCH   6  11
HETATM   11  C7  UNL     1      19.708  -6.345  12.588  1.00  0.00     0.084 C 
BRANCH  11  12
HETATM   12  C6  UNL     1      18.846  -5.601  11.695  1.00  0.00     0.031 A 
HETATM   13  N1  UNL     1      17.531  -5.438  11.997  1.00  0.00    -0.331 N 
HETATM   14  C20 UNL     1      16.771  -4.781  11.107  1.00  0.00     0.169 A 
HETATM   15  C19 UNL     1      17.252  -4.276   9.933  1.00  0.00     0.168 A 
HETATM   16  N8  UNL     1      15.571  -4.278  10.714  1.00  0.00    -0.281 N 
HETATM   17  N6  UNL     1      18.539  -4.425   9.619  1.00  0.00    -0.342 N 
HETATM   18  N7  UNL     1      16.045  -3.791   9.575  1.00  0.00    -0.281 N 
HETATM   19  C17 UNL     1      19.332  -5.089  10.504  1.00  0.00     0.117 A 
HETATM   20  C18 UNL     1      19.090  -3.894   8.363  1.00  0.00     0.157 C 
ATOM     21  H7  UNL     1      15.665  -3.277   8.780  1.00  0.00     0.188 HD
ATOM     22  H8  UNL     1      14.644  -4.276  11.140  1.00  0.00     0.188 HD
BRANCH  13  23
HETATM   23  C5  UNL     1      16.968  -5.931  13.215  1.00  0.00     0.131 C 
BRANCH  23  24
HETATM   24  C4  UNL     1      15.966  -7.027  12.983  1.00  0.00     0.024 C 
BRANCH  24  25
HETATM   25  C3  UNL     1      15.797  -7.749  14.328  1.00  0.00     0.028 C 
BRANCH  25  26
HETATM   26  C2  UNL     1      14.916  -8.927  14.202  1.00  0.00    -0.037 C 
HETATM   27  C1  UNL     1      15.355 -10.139  14.494  1.00  0.00     0.007 C 
ENDBRANCH  25  26
ENDBRANCH  24  25
ENDBRANCH  23  24
ENDBRANCH  13  23
ENDBRANCH  11  12
ENDBRANCH   6  11
BRANCH   8  28
HETATM   28  N2  UNL     1      23.940  -8.761  12.431  1.00  0.00    -0.354 N 
HETATM   29  C11 UNL     1      24.811  -9.364  11.730  1.00  0.00     0.197 C 
HETATM   30  N3  UNL     1      24.489  -9.822  10.406  1.00  0.00    -0.067 NA
HETATM   31  N4  UNL     1      26.113  -9.594  12.239  1.00  0.00    -0.067 NA
ATOM     32  H2  UNL     1      24.178  -8.439  13.369  1.00  0.00     0.162 HD
ENDBRANCH   8  28
ENDBRANCH   4   5
ENDBRANCH   1   4
TORSDOF 9
ENDMDL
MODEL 5
REMARK VINA RESULT: -6.097258460      4.333      7.467
REMARK  9 active torsions:
REMARK  status: ('A' for Active; 'I' for Inactive)
REMARK    1  A    between atoms: C2_2  and  C3_3 
REMARK    2  A    between atoms: C3_3  and  C4_4 
REMARK    3  A    between atoms: C4_4  and  C5_5 
REMARK    4  A    between atoms: C5_5  and  N1_6 
REMARK    5  A    between atoms: C6_7  and  C7_8 
REMARK    6  A    between atoms: C7_8  and  C8_9 
REMARK    7  A    between atoms: C10_11  and  N2_12 
REMARK    8  A    between atoms: N5_19  and  C13_20 
REMARK    9  A    between atoms: C13_20  and  C14_21 
ROOT
HETATM    1  C14 UNL     1      18.925  -6.419  11.553  1.00  0.00    -0.087 C 
HETATM    2  C15 UNL     1      20.093  -6.138  11.516  1.00  0.00    -0.109 C 
HETATM    3  C16 UNL     1      21.523  -5.818  11.464  1.00  0.00     0.112 C 
ENDROOT
BRANCH   1   4
HETATM    4  C13 UNL     1      17.500  -6.787  11.605  1.00  0.00     0.220 C 
BRANCH   4   5
HETATM    5  N5  UNL     1      16.965  -6.264  12.821  1.00  0.00    -0.335 N 
HETATM    6  C8  UNL     1      16.627  -7.074  13.996  1.00  0.00     0.096 C 
HETATM    7  C9  UNL     1      16.911  -6.089  15.103  1.00  0.00     0.060 C 
HETATM    8  C10 UNL     1      16.135  -4.874  14.565  1.00  0.00     0.178 C 
HETATM    9  C12 UNL     1      16.646  -4.894  13.148  1.00  0.00     0.243 C 
HETATM   10  O1  UNL     1      16.793  -3.950  12.354  1.00  0.00    -0.271 OA
BRANCH   6  11
HETATM   11  C7  UNL     1      17.464  -8.293  14.005  1.00  0.00     0.084 C 
BRANCH  11  12
HETATM   12  C6  UNL     1      16.820  -9.587  14.079  1.00  0.00     0.031 A 
HETATM   13  N1  UNL     1      17.266 -10.615  13.311  1.00  0.00    -0.331 N 
HETATM   14  C20 UNL     1      16.599 -11.776  13.386  1.00  0.00     0.169 A 
HETATM   15  C19 UNL     1      15.510 -11.969  14.186  1.00  0.00     0.168 A 
HETATM   16  N8  UNL     1      16.426 -13.071  13.011  1.00  0.00    -0.281 N 
HETATM   17  N6  UNL     1      15.056 -10.973  14.948  1.00  0.00    -0.342 N 
HETATM   18  N7  UNL     1      15.368 -13.251  13.791  1.00  0.00    -0.281 N 
HETATM   19  C17 UNL     1      15.715  -9.783  14.889  1.00  0.00     0.117 A 
HETATM   20  C18 UNL     1      13.886 -11.146  15.821  1.00  0.00     0.157 C 
ATOM     21  H7  UNL     1      14.730 -14.019  13.999  1.00  0.00     0.188 HD
ATOM     22  H8  UNL     1      16.927 -13.682  12.365  1.00  0.00     0.188 HD
BRANCH  13  23
HETATM   23  C5  UNL     1      18.409 -10.482  12.460  1.00  0.00     0.131 C 
BRANCH  23  24
HETATM   24  C4  UNL     1      18.053 -10.568  11.003  1.00  0.00     0.024 C 
BRANCH  24  25
HETATM   25  C3  UNL     1      19.160 -11.398  10.337  1.00  0.00     0.028 C 
BRANCH  25  26
HETATM   26  C2  UNL     1      18.784 -12.824  10.245  1.00  0.00    -0.037 C 
HETATM   27  C1  UNL     1      17.662 -13.193   9.653  1.00  0.00     0.007 C 
ENDBRANCH  25  26
ENDBRANCH  24  25
ENDBRANCH  23  24
ENDBRANCH  13  23
ENDBRANCH  11  12
ENDBRANCH   6  11
BRANCH   8  28
HETATM   28  N2  UNL     1      16.513  -3.674  15.242  1.00  0.00    -0.354 N 
HETATM   29  C11 UNL     1      15.629  -2.926  15.763  1.00  0.00     0.197 C 
HETATM   30  N3  UNL     1      14.237  -3.277  15.681  1.00  0.00    -0.067 NA
HETATM   31  N4  UNL     1      15.998  -1.734  16.436  1.00  0.00    -0.067 NA
ATOM     32  H2  UNL     1      17.498  -3.416  15.307  1.00  0.00     0.162 HD
ENDBRANCH   8  28
ENDBRANCH   4   5
ENDBRANCH   1   4
TORSDOF 9
ENDMDL
