MODEL 1
REMARK VINA RESULT: -7.457688062      0.000      0.000
REMARK  7 active torsions:
REMARK  status: ('A' for Active; 'I' for Inactive)
REMARK    1  A    between atoms: N2_5  and  C4_6 
REMARK    2  A    between atoms: C4_6  and  C5_7 
REMARK    3  A    between atoms: C5_7  and  C6_8 
REMARK    4  A    between atoms: C6_8  and  C7_9 
REMARK    5  A    between atoms: C7_9  and  C8_10 
REMARK    6  A    between atoms: C8_10  and  O1_11 
REMARK    7  A    between atoms: C12_19  and  O2_20 
ROOT
HETATM    1  C5  UNL     1       5.549  -7.221   8.326  1.00  0.00     0.031 C 
ENDROOT
BRANCH   1   2
HETATM    2  C4  UNL     1       7.017  -7.061   8.565  1.00  0.00     0.276 C 
BRANCH   2   3
HETATM    3  N2  UNL     1       7.730  -8.304   8.760  1.00  0.00     0.120 N 
HETATM    4  C3  UNL     1       9.059  -8.118   8.205  1.00  0.00     0.306 C 
HETATM    5  C2  UNL     1       9.828  -9.386   8.509  1.00  0.00     0.302 C 
HETATM    6  N1  UNL     1      10.199  -9.314   9.906  1.00  0.00     0.090 N 
HETATM    7  C1  UNL     1      11.468  -8.571   9.937  1.00  0.00     0.310 C 
HETATM    8  C13 UNL     1       9.218  -8.630  10.708  1.00  0.00     0.335 C 
HETATM    9  C12 UNL     1       7.830  -8.686  10.142  1.00  0.00     0.385 C 
BRANCH   9  10
HETATM   10  O2  UNL     1       7.314  -9.969  10.317  1.00  0.00    -0.366 OA
ATOM     11  H2  UNL     1       7.973 -10.532  10.705  1.00  0.00     0.212 HD
ENDBRANCH   9  10
ENDBRANCH   2   3
ENDBRANCH   1   2
BRANCH   1  12
HETATM   12  C6  UNL     1       5.210  -6.716   6.947  1.00  0.00     0.015 C 
BRANCH  12  13
HETATM   13  C7  UNL     1       3.771  -6.422   6.717  1.00  0.00     0.006 C 
HETATM   14  C9  UNL     1       3.016  -7.581   6.101  1.00  0.00     0.041 C 
HETATM   15  C10 UNL     1       1.848  -6.863   5.452  1.00  0.00     0.233 C 
HETATM   16  N3  UNL     1       2.552  -5.755   4.788  1.00  0.00    -0.074 N 
HETATM   17  C11 UNL     1       3.466  -5.268   5.832  1.00  0.00     0.243 C 
ATOM     18  H32 UNL     1       3.005  -6.006   3.909  1.00  0.00     0.277 HD
ATOM     19  H31 UNL     1       1.941  -5.041   4.390  1.00  0.00     0.277 HD
BRANCH  13  20
HETATM   20  C8  UNL     1       3.139  -6.203   8.096  1.00  0.00     0.175 C 
BRANCH  20  21
HETATM   21  O1  UNL     1       3.022  -4.852   8.394  1.00  0.00    -0.400 OA
ATOM     22  H1  UNL     1       2.165  -4.516   8.158  1.00  0.00     0.209 HD
ENDBRANCH  20  21
ENDBRANCH  13  20
ENDBRANCH  12  13
ENDBRANCH   1  12
TORSDOF 7
ENDMDL
MODEL 2
REMARK VINA RESULT: -7.326967411      2.121      2.781
REMARK  7 active torsions:
REMARK  status: ('A' for Active; 'I' for Inactive)
REMARK    1  A    between atoms: N2_5  and  C4_6 
REMARK    2  A    between atoms: C4_6  and  C5_7 
REMARK    3  A    between atoms: C5_7  and  C6_8 
REMARK    4  A    between atoms: C6_8  and  C7_9 
REMARK    5  A    between atoms: C7_9  and  C8_10 
REMARK    6  A    between atoms: C8_10  and  O1_11 
REMARK    7  A    between atoms: C12_19  and  O2_20 
ROOT
HETATM    1  C5  UNL     1       4.590  -6.327   7.991  1.00  0.00     0.031 C 
ENDROOT
BRANCH   1   2
HETATM    2  C4  UNL     1       5.790  -6.978   7.379  1.00  0.00     0.276 C 
BRANCH   2   3
HETATM    3  N2  UNL     1       6.981  -6.927   8.198  1.00  0.00     0.120 N 
HETATM    4  C3  UNL     1       6.557  -7.136   9.570  1.00  0.00     0.306 C 
HETATM    5  C2  UNL     1       7.820  -7.185  10.403  1.00  0.00     0.302 C 
HETATM    6  N1  UNL     1       8.400  -8.493  10.187  1.00  0.00     0.090 N 
HETATM    7  C1  UNL     1       7.753  -9.376  11.169  1.00  0.00     0.310 C 
HETATM    8  C13 UNL     1       8.167  -8.994   8.858  1.00  0.00     0.335 C 
HETATM    9  C12 UNL     1       7.958  -7.916   7.835  1.00  0.00     0.385 C 
BRANCH   9  10
HETATM   10  O2  UNL     1       9.178  -7.300   7.561  1.00  0.00    -0.366 OA
ATOM     11  H2  UNL     1       9.888  -7.915   7.700  1.00  0.00     0.212 HD
ENDBRANCH   9  10
ENDBRANCH   2   3
ENDBRANCH   1   2
BRANCH   1  12
HETATM   12  C6  UNL     1       3.344  -7.018   7.504  1.00  0.00     0.015 C 
BRANCH  12  13
HETATM   13  C7  UNL     1       2.553  -6.262   6.497  1.00  0.00     0.006 C 
HETATM   14  C9  UNL     1       3.379  -5.260   5.719  1.00  0.00     0.041 C 
HETATM   15  C10 UNL     1       2.311  -4.285   5.263  1.00  0.00     0.233 C 
HETATM   16  N3  UNL     1       1.566  -4.099   6.518  1.00  0.00    -0.074 N 
HETATM   17  C11 UNL     1       1.405  -5.474   7.016  1.00  0.00     0.243 C 
ATOM     18  H32 UNL     1       2.001  -3.456   7.179  1.00  0.00     0.277 HD
ATOM     19  H31 UNL     1       0.695  -3.577   6.423  1.00  0.00     0.277 HD
BRANCH  13  20
HETATM   20  C8  UNL     1       2.061  -7.283   5.465  1.00  0.00     0.175 C 
BRANCH  20  21
HETATM   21  O1  UNL     1       3.060  -8.185   5.125  1.00  0.00    -0.400 OA
ATOM     22  H1  UNL     1       2.837  -9.069   5.392  1.00  0.00     0.209 HD
ENDBRANCH  20  21
ENDBRANCH  13  20
ENDBRANCH  12  13
ENDBRANCH   1  12
TORSDOF 7
ENDMDL
MODEL 3
REMARK VINA RESULT: -7.271938599      1.897      7.212
REMARK  7 active torsions:
REMARK  status: ('A' for Active; 'I' for Inactive)
REMARK    1  A    between atoms: N2_5  and  C4_6 
REMARK    2  A    between atoms: C4_6  and  C5_7 
REMARK    3  A    between atoms: C5_7  and  C6_8 
REMARK    4  A    between atoms: C6_8  and  C7_9 
REMARK    5  A    between atoms: C7_9  and  C8_10 
REMARK    6  A    between atoms: C8_10  and  O1_11 
REMARK    7  A    between atoms: C12_19  and  O2_20 
ROOT
HETATM    1  C5  UNL     1       5.793  -6.954   8.207  1.00  0.00     0.031 C 
ENDROOT
BRANCH   1   2
HETATM    2  C4  UNL     1       4.954  -6.808   6.977  1.00  0.00     0.276 C 
BRANCH   2   3
HETATM    3  N2  UNL     1       4.086  -5.651   6.980  1.00  0.00     0.120 N 
HETATM    4  C3  UNL     1       3.597  -5.490   5.622  1.00  0.00     0.306 C 
HETATM    5  C2  UNL     1       2.609  -4.343   5.660  1.00  0.00     0.302 C 
HETATM    6  N1  UNL     1       1.392  -4.872   6.234  1.00  0.00     0.090 N 
HETATM    7  C1  UNL     1       0.641  -5.442   5.105  1.00  0.00     0.310 C 
HETATM    8  C13 UNL     1       1.637  -5.894   7.219  1.00  0.00     0.335 C 
HETATM    9  C12 UNL     1       2.977  -5.781   7.884  1.00  0.00     0.385 C 
BRANCH   9  10
HETATM   10  O2  UNL     1       2.960  -4.706   8.771  1.00  0.00    -0.366 OA
ATOM     11  H2  UNL     1       2.587  -4.978   9.601  1.00  0.00     0.212 HD
ENDBRANCH   9  10
ENDBRANCH   2   3
ENDBRANCH   1   2
BRANCH   1  12
HETATM   12  C6  UNL     1       7.191  -7.357   7.813  1.00  0.00     0.015 C 
BRANCH  12  13
HETATM   13  C7  UNL     1       8.042  -7.859   8.924  1.00  0.00     0.006 C 
HETATM   14  C9  UNL     1       7.565  -9.179   9.492  1.00  0.00     0.041 C 
HETATM   15  C10 UNL     1       8.172  -9.141  10.881  1.00  0.00     0.233 C 
HETATM   16  N3  UNL     1       7.819  -7.773  11.289  1.00  0.00    -0.074 N 
HETATM   17  C11 UNL     1       8.173  -6.971  10.108  1.00  0.00     0.243 C 
ATOM     18  H32 UNL     1       6.856  -7.659  11.607  1.00  0.00     0.277 HD
ATOM     19  H31 UNL     1       8.252  -7.462  12.159  1.00  0.00     0.277 HD
BRANCH  13  20
HETATM   20  C8  UNL     1       9.425  -8.141   8.327  1.00  0.00     0.175 C 
BRANCH  20  21
HETATM   21  O1  UNL     1       9.562  -7.572   7.068  1.00  0.00    -0.400 OA
ATOM     22  H1  UNL     1       9.339  -8.189   6.381  1.00  0.00     0.209 HD
ENDBRANCH  20  21
ENDBRANCH  13  20
ENDBRANCH  12  13
ENDBRANCH   1  12
TORSDOF 7
ENDMDL
MODEL 4
REMARK VINA RESULT: -7.210931301      2.326      3.216
REMARK  7 active torsions:
REMARK  status: ('A' for Active; 'I' for Inactive)
REMARK    1  A    between atoms: N2_5  and  C4_6 
REMARK    2  A    between atoms: C4_6  and  C5_7 
REMARK    3  A    between atoms: C5_7  and  C6_8 
REMARK    4  A    between atoms: C6_8  and  C7_9 
REMARK    5  A    between atoms: C7_9  and  C8_10 
REMARK    6  A    between atoms: C8_10  and  O1_11 
REMARK    7  A    between atoms: C12_19  and  O2_20 
ROOT
HETATM    1  C5  UNL     1       4.418  -6.981   6.637  1.00  0.00     0.031 C 
ENDROOT
BRANCH   1   2
HETATM    2  C4  UNL     1       4.495  -6.893   8.128  1.00  0.00     0.276 C 
BRANCH   2   3
HETATM    3  N2  UNL     1       5.830  -6.693   8.647  1.00  0.00     0.120 N 
HETATM    4  C3  UNL     1       5.807  -7.106  10.038  1.00  0.00     0.306 C 
HETATM    5  C2  UNL     1       7.232  -6.994  10.539  1.00  0.00     0.302 C 
HETATM    6  N1  UNL     1       7.940  -8.141  10.016  1.00  0.00     0.090 N 
HETATM    7  C1  UNL     1       7.714  -9.219  10.991  1.00  0.00     0.310 C 
HETATM    8  C13 UNL     1       7.461  -8.551   8.722  1.00  0.00     0.335 C 
HETATM    9  C12 UNL     1       6.830  -7.441   7.934  1.00  0.00     0.385 C 
BRANCH   9  10
HETATM   10  O2  UNL     1       7.824  -6.582   7.471  1.00  0.00    -0.366 OA
ATOM     11  H2  UNL     1       7.694  -5.713   7.832  1.00  0.00     0.212 HD
ENDBRANCH   9  10
ENDBRANCH   2   3
ENDBRANCH   1   2
BRANCH   1  12
HETATM   12  C6  UNL     1       3.004  -7.307   6.229  1.00  0.00     0.015 C 
BRANCH  12  13
HETATM   13  C7  UNL     1       2.236  -6.176   5.646  1.00  0.00     0.006 C 
HETATM   14  C9  UNL     1       3.118  -5.055   5.138  1.00  0.00     0.041 C 
HETATM   15  C10 UNL     1       2.160  -3.880   5.180  1.00  0.00     0.233 C 
HETATM   16  N3  UNL     1       1.570  -4.065   6.515  1.00  0.00    -0.074 N 
HETATM   17  C11 UNL     1       1.265  -5.503   6.548  1.00  0.00     0.243 C 
ATOM     18  H32 UNL     1       2.152  -3.735   7.286  1.00  0.00     0.277 HD
ATOM     19  H31 UNL     1       0.777  -3.457   6.717  1.00  0.00     0.277 HD
BRANCH  13  20
HETATM   20  C8  UNL     1       1.510  -6.723   4.413  1.00  0.00     0.175 C 
BRANCH  20  21
HETATM   21  O1  UNL     1       0.359  -7.415   4.765  1.00  0.00    -0.400 OA
ATOM     22  H1  UNL     1      -0.408  -7.060   4.330  1.00  0.00     0.209 HD
ENDBRANCH  20  21
ENDBRANCH  13  20
ENDBRANCH  12  13
ENDBRANCH   1  12
TORSDOF 7
ENDMDL
MODEL 5
REMARK VINA RESULT: -7.107601112      1.417      1.724
REMARK  7 active torsions:
REMARK  status: ('A' for Active; 'I' for Inactive)
REMARK    1  A    between atoms: N2_5  and  C4_6 
REMARK    2  A    between atoms: C4_6  and  C5_7 
REMARK    3  A    between atoms: C5_7  and  C6_8 
REMARK    4  A    between atoms: C6_8  and  C7_9 
REMARK    5  A    between atoms: C7_9  and  C8_10 
REMARK    6  A    between atoms: C8_10  and  O1_11 
REMARK    7  A    between atoms: C12_19  and  O2_20 
ROOT
HETATM    1  C5  UNL     1       5.356  -7.194   8.500  1.00  0.00     0.031 C 
ENDROOT
BRANCH   1   2
HETATM    2  C4  UNL     1       6.836  -7.026   8.643  1.00  0.00     0.276 C 
BRANCH   2   3
HETATM    3  N2  UNL     1       7.569  -8.267   8.766  1.00  0.00     0.120 N 
HETATM    4  C3  UNL     1       8.850  -8.065   8.115  1.00  0.00     0.306 C 
HETATM    5  C2  UNL     1       9.647  -9.332   8.342  1.00  0.00     0.302 C 
HETATM    6  N1  UNL     1      10.122  -9.276   9.707  1.00  0.00     0.090 N 
HETATM    7  C1  UNL     1      11.386  -8.526   9.652  1.00  0.00     0.310 C 
HETATM    8  C13 UNL     1       9.202  -8.610  10.591  1.00  0.00     0.335 C 
HETATM    9  C12 UNL     1       7.775  -8.668  10.131  1.00  0.00     0.385 C 
BRANCH   9  10
HETATM   10  O2  UNL     1       7.280  -9.955  10.327  1.00  0.00    -0.366 OA
ATOM     11  H2  UNL     1       7.996 -10.580  10.324  1.00  0.00     0.212 HD
ENDBRANCH   9  10
ENDBRANCH   2   3
ENDBRANCH   1   2
BRANCH   1  12
HETATM   12  C6  UNL     1       4.920  -6.653   7.163  1.00  0.00     0.015 C 
BRANCH  12  13
HETATM   13  C7  UNL     1       3.453  -6.468   7.002  1.00  0.00     0.006 C 
HETATM   14  C9  UNL     1       3.094  -5.403   5.988  1.00  0.00     0.041 C 
HETATM   15  C10 UNL     1       1.700  -5.015   6.446  1.00  0.00     0.233 C 
HETATM   16  N3  UNL     1       1.923  -4.882   7.894  1.00  0.00    -0.074 N 
HETATM   17  C11 UNL     1       2.699  -6.087   8.224  1.00  0.00     0.243 C 
ATOM     18  H32 UNL     1       2.360  -4.004   8.177  1.00  0.00     0.277 HD
ATOM     19  H31 UNL     1       1.074  -4.758   8.446  1.00  0.00     0.277 HD
BRANCH  13  20
HETATM   20  C8  UNL     1       2.902  -7.781   6.437  1.00  0.00     0.175 C 
BRANCH  20  21
HETATM   21  O1  UNL     1       3.258  -7.950   5.105  1.00  0.00    -0.400 OA
ATOM     22  H1  UNL     1       3.003  -8.808   4.783  1.00  0.00     0.209 HD
ENDBRANCH  20  21
ENDBRANCH  13  20
ENDBRANCH  12  13
ENDBRANCH   1  12
TORSDOF 7
ENDMDL
