MODEL 1
REMARK VINA RESULT: -6.352156328      0.000      0.000
REMARK  2 active torsions:
REMARK  status: ('A' for Active; 'I' for Inactive)
REMARK    1  A    between atoms: N1_4  and  C4_5 
REMARK    2  A    between atoms: C4_5  and  C5_6 
ROOT
HETATM    1  C5  UNL     1       2.912  -5.445   6.027  1.00  0.00     0.175 C 
HETATM    2  C6  UNL     1       1.844  -6.041   5.149  1.00  0.00     0.265 C 
HETATM    3  N2  UNL     1       2.266  -5.780   3.767  1.00  0.00    -0.071 N 
ATOM      4  H21 UNL     1       1.601  -6.144   3.085  1.00  0.00     0.277 HD
ATOM      5  H22 UNL     1       3.072  -6.343   3.496  1.00  0.00     0.277 HD
HETATM    6  C7  UNL     1       2.504  -4.372   3.601  1.00  0.00     0.258 C 
HETATM    7  C8  UNL     1       2.150  -3.580   4.840  1.00  0.00     0.196 C 
HETATM    8  O1  UNL     1       2.732  -4.059   5.973  1.00  0.00    -0.381 OA
ENDROOT
BRANCH   1   9
HETATM    9  C4  UNL     1       2.749  -5.826   7.483  1.00  0.00     0.305 C 
BRANCH   9  10
HETATM   10  N1  UNL     1       4.120  -5.906   8.020  1.00  0.00     0.090 N 
HETATM   11  C3  UNL     1       4.013  -6.768   9.194  1.00  0.00     0.272 C 
HETATM   12  C2  UNL     1       5.325  -7.023   9.839  1.00  0.00     0.030 C 
HETATM   13  C1  UNL     1       6.490  -6.629   8.961  1.00  0.00     0.003 C 
HETATM   14  C10 UNL     1       6.263  -7.042   7.533  1.00  0.00     0.030 C 
HETATM   15  C9  UNL     1       4.933  -6.559   6.998  1.00  0.00     0.272 C 
ENDBRANCH   9  10
ENDBRANCH   1   9
TORSDOF 2
ENDMDL
MODEL 2
REMARK VINA RESULT: -6.337456529      4.060      6.649
REMARK  2 active torsions:
REMARK  status: ('A' for Active; 'I' for Inactive)
REMARK    1  A    between atoms: N1_4  and  C4_5 
REMARK    2  A    between atoms: C4_5  and  C5_6 
ROOT
HETATM    1  C5  UNL     1       8.592  -8.463   8.550  1.00  0.00     0.175 C 
HETATM    2  C6  UNL     1       9.596  -7.820   7.631  1.00  0.00     0.265 C 
HETATM    3  N2  UNL     1      10.113  -8.899   6.781  1.00  0.00    -0.071 N 
ATOM      4  H21 UNL     1      10.813  -8.566   6.118  1.00  0.00     0.277 HD
ATOM      5  H22 UNL     1       9.421  -9.226   6.108  1.00  0.00     0.277 HD
HETATM    6  C7  UNL     1      10.611  -9.961   7.612  1.00  0.00     0.258 C 
HETATM    7  C8  UNL     1      10.557  -9.613   9.083  1.00  0.00     0.196 C 
HETATM    8  O1  UNL     1       9.333  -9.184   9.493  1.00  0.00    -0.381 OA
ENDROOT
BRANCH   1   9
HETATM    9  C4  UNL     1       7.793  -7.449   9.341  1.00  0.00     0.305 C 
BRANCH   9  10
HETATM   10  N1  UNL     1       6.420  -7.537   8.811  1.00  0.00     0.090 N 
HETATM   11  C3  UNL     1       5.596  -6.823   9.782  1.00  0.00     0.272 C 
HETATM   12  C2  UNL     1       4.170  -6.746   9.379  1.00  0.00     0.030 C 
HETATM   13  C1  UNL     1       3.957  -7.110   7.929  1.00  0.00     0.003 C 
HETATM   14  C10 UNL     1       5.019  -6.505   7.051  1.00  0.00     0.030 C 
HETATM   15  C9  UNL     1       6.416  -6.821   7.538  1.00  0.00     0.272 C 
ENDBRANCH   9  10
ENDBRANCH   1   9
TORSDOF 2
ENDMDL
MODEL 3
REMARK VINA RESULT: -6.313136770      3.662      6.691
REMARK  2 active torsions:
REMARK  status: ('A' for Active; 'I' for Inactive)
REMARK    1  A    between atoms: N1_4  and  C4_5 
REMARK    2  A    between atoms: C4_5  and  C5_6 
ROOT
HETATM    1  C5  UNL     1       8.257  -7.726   9.253  1.00  0.00     0.175 C 
HETATM    2  C6  UNL     1       7.949  -9.161   9.591  1.00  0.00     0.265 C 
HETATM    3  N2  UNL     1       8.391  -9.353  10.977  1.00  0.00    -0.071 N 
ATOM      4  H21 UNL     1       8.230 -10.305  11.306  1.00  0.00     0.277 HD
ATOM      5  H22 UNL     1       7.794  -8.866  11.645  1.00  0.00     0.277 HD
HETATM    6  C7  UNL     1       9.770  -8.961  11.094  1.00  0.00     0.258 C 
HETATM    7  C8  UNL     1      10.373  -8.581   9.760  1.00  0.00     0.196 C 
HETATM    8  O1  UNL     1       9.644  -7.656   9.080  1.00  0.00    -0.381 OA
ENDROOT
BRANCH   1   9
HETATM    9  C4  UNL     1       7.654  -7.296   7.933  1.00  0.00     0.305 C 
BRANCH   9  10
HETATM   10  N1  UNL     1       6.194  -7.373   8.130  1.00  0.00     0.090 N 
HETATM   11  C3  UNL     1       5.942  -6.633   9.363  1.00  0.00     0.272 C 
HETATM   12  C2  UNL     1       4.498  -6.543   9.693  1.00  0.00     0.030 C 
HETATM   13  C1  UNL     1       3.612  -6.927   8.530  1.00  0.00     0.003 C 
HETATM   14  C10 UNL     1       4.125  -6.350   7.239  1.00  0.00     0.030 C 
HETATM   15  C9  UNL     1       5.582  -6.677   7.001  1.00  0.00     0.272 C 
ENDBRANCH   9  10
ENDBRANCH   1   9
TORSDOF 2
ENDMDL
MODEL 4
REMARK VINA RESULT: -6.119321432      3.116      4.932
REMARK  2 active torsions:
REMARK  status: ('A' for Active; 'I' for Inactive)
REMARK    1  A    between atoms: N1_4  and  C4_5 
REMARK    2  A    between atoms: C4_5  and  C5_6 
ROOT
HETATM    1  C5  UNL     1       5.912  -7.116   8.833  1.00  0.00     0.175 C 
HETATM    2  C6  UNL     1       4.663  -6.451   9.349  1.00  0.00     0.265 C 
HETATM    3  N2  UNL     1       3.543  -7.117   8.673  1.00  0.00    -0.071 N 
ATOM      4  H21 UNL     1       2.640  -6.733   8.952  1.00  0.00     0.277 HD
ATOM      5  H22 UNL     1       3.403  -8.071   9.004  1.00  0.00     0.277 HD
HETATM    6  C7  UNL     1       3.745  -7.058   7.251  1.00  0.00     0.258 C 
HETATM    7  C8  UNL     1       4.967  -6.249   6.877  1.00  0.00     0.196 C 
HETATM    8  O1  UNL     1       6.095  -6.640   7.529  1.00  0.00    -0.381 OA
ENDROOT
BRANCH   1   9
HETATM    9  C4  UNL     1       7.150  -6.705   9.600  1.00  0.00     0.305 C 
BRANCH   9  10
HETATM   10  N1  UNL     1       8.001  -7.909   9.637  1.00  0.00     0.090 N 
HETATM   11  C3  UNL     1       9.115  -7.610   8.742  1.00  0.00     0.272 C 
HETATM   12  C2  UNL     1      10.126  -8.695   8.701  1.00  0.00     0.030 C 
HETATM   13  C1  UNL     1       9.958  -9.687   9.828  1.00  0.00     0.003 C 
HETATM   14  C10 UNL     1       9.653  -8.993  11.127  1.00  0.00     0.030 C 
HETATM   15  C9  UNL     1       8.489  -8.035  11.009  1.00  0.00     0.272 C 
ENDBRANCH   9  10
ENDBRANCH   1   9
TORSDOF 2
ENDMDL
MODEL 5
REMARK VINA RESULT: -6.101039066      0.471      1.429
REMARK  2 active torsions:
REMARK  status: ('A' for Active; 'I' for Inactive)
REMARK    1  A    between atoms: N1_4  and  C4_5 
REMARK    2  A    between atoms: C4_5  and  C5_6 
ROOT
HETATM    1  C5  UNL     1       2.862  -5.670   6.177  1.00  0.00     0.175 C 
HETATM    2  C6  UNL     1       1.795  -6.190   5.250  1.00  0.00     0.265 C 
HETATM    3  N2  UNL     1       2.254  -5.875   3.891  1.00  0.00    -0.071 N 
ATOM      4  H21 UNL     1       1.593  -6.185   3.179  1.00  0.00     0.277 HD
ATOM      5  H22 UNL     1       3.049  -6.449   3.609  1.00  0.00     0.277 HD
HETATM    6  C7  UNL     1       2.537  -4.469   3.799  1.00  0.00     0.258 C 
HETATM    7  C8  UNL     1       2.181  -3.727   5.068  1.00  0.00     0.196 C 
HETATM    8  O1  UNL     1       2.724  -4.277   6.187  1.00  0.00    -0.381 OA
ENDROOT
BRANCH   1   9
HETATM    9  C4  UNL     1       2.657  -6.115   7.609  1.00  0.00     0.305 C 
BRANCH   9  10
HETATM   10  N1  UNL     1       3.886  -6.846   7.968  1.00  0.00     0.090 N 
HETATM   11  C3  UNL     1       4.912  -6.316   7.075  1.00  0.00     0.272 C 
HETATM   12  C2  UNL     1       6.255  -6.892   7.337  1.00  0.00     0.030 C 
HETATM   13  C1  UNL     1       6.326  -7.619   8.659  1.00  0.00     0.003 C 
HETATM   14  C10 UNL     1       5.612  -6.856   9.741  1.00  0.00     0.030 C 
HETATM   15  C9  UNL     1       4.199  -6.486   9.349  1.00  0.00     0.272 C 
ENDBRANCH   9  10
ENDBRANCH   1   9
TORSDOF 2
ENDMDL
