MODEL 1
REMARK VINA RESULT: -6.786633751      0.000      0.000
REMARK  2 active torsions:
REMARK  status: ('A' for Active; 'I' for Inactive)
REMARK    1  A    between atoms: N1_4  and  C4_5 
REMARK    2  A    between atoms: C4_5  and  C5_6 
ROOT
HETATM    1  C5  UNL     1       8.061  -7.716   8.801  1.00  0.00     0.151 C 
HETATM    2  C6  UNL     1       9.318  -8.071   8.081  1.00  0.00     0.061 C 
HETATM    3  C7  UNL     1      10.362  -8.343   9.182  1.00  0.00     0.235 C 
HETATM    4  N2  UNL     1       9.944  -9.477   9.929  1.00  0.00    -0.073 N 
ATOM      5  H21 UNL     1      10.749 -10.025  10.233  1.00  0.00     0.277 HD
ATOM      6  H22 UNL     1       9.491 -10.160   9.322  1.00  0.00     0.277 HD
HETATM    7  C8  UNL     1       9.095  -9.151  11.053  1.00  0.00     0.258 C 
HETATM    8  C9  UNL     1       7.643  -9.041  10.665  1.00  0.00     0.195 C 
HETATM    9  O1  UNL     1       7.478  -8.885   9.293  1.00  0.00    -0.382 OA
ENDROOT
BRANCH   1  10
HETATM   10  C4  UNL     1       7.074  -6.880   8.084  1.00  0.00     0.304 C 
BRANCH  10  11
HETATM   11  N1  UNL     1       5.716  -7.275   8.113  1.00  0.00     0.090 N 
HETATM   12  C3  UNL     1       4.979  -6.778   7.009  1.00  0.00     0.272 C 
HETATM   13  C2  UNL     1       3.561  -6.527   7.484  1.00  0.00     0.032 C 
HETATM   14  C1  UNL     1       3.575  -6.801   8.989  1.00  0.00     0.032 C 
HETATM   15  C10 UNL     1       5.060  -6.710   9.267  1.00  0.00     0.272 C 
ENDBRANCH  10  11
ENDBRANCH   1  10
TORSDOF 2
ENDMDL
MODEL 2
REMARK VINA RESULT: -6.525536395      1.133      1.951
REMARK  2 active torsions:
REMARK  status: ('A' for Active; 'I' for Inactive)
REMARK    1  A    between atoms: N1_4  and  C4_5 
REMARK    2  A    between atoms: C4_5  and  C5_6 
ROOT
HETATM    1  C5  UNL     1       8.457  -7.955   9.815  1.00  0.00     0.151 C 
HETATM    2  C6  UNL     1       9.064  -8.181  11.158  1.00  0.00     0.061 C 
HETATM    3  C7  UNL     1       9.694  -9.587  11.095  1.00  0.00     0.235 C 
HETATM    4  N2  UNL     1      10.741  -9.569  10.134  1.00  0.00    -0.073 N 
ATOM      5  H21 UNL     1      11.504 -10.181  10.421  1.00  0.00     0.277 HD
ATOM      6  H22 UNL     1      11.227  -8.672  10.148  1.00  0.00     0.277 HD
HETATM    7  C8  UNL     1      10.304  -9.892   8.794  1.00  0.00     0.258 C 
HETATM    8  C9  UNL     1       9.786  -8.688   8.052  1.00  0.00     0.195 C 
HETATM    9  O1  UNL     1       9.473  -7.638   8.909  1.00  0.00    -0.382 OA
ENDROOT
BRANCH   1  10
HETATM   10  C4  UNL     1       7.334  -6.998   9.723  1.00  0.00     0.304 C 
BRANCH  10  11
HETATM   11  N1  UNL     1       6.192  -7.376   8.979  1.00  0.00     0.090 N 
HETATM   12  C3  UNL     1       6.248  -6.936   7.633  1.00  0.00     0.272 C 
HETATM   13  C2  UNL     1       4.827  -6.642   7.191  1.00  0.00     0.032 C 
HETATM   14  C1  UNL     1       3.959  -6.829   8.437  1.00  0.00     0.032 C 
HETATM   15  C10 UNL     1       5.015  -6.738   9.518  1.00  0.00     0.272 C 
ENDBRANCH  10  11
ENDBRANCH   1  10
TORSDOF 2
ENDMDL
MODEL 3
REMARK VINA RESULT: -6.495070395      1.319      1.654
REMARK  2 active torsions:
REMARK  status: ('A' for Active; 'I' for Inactive)
REMARK    1  A    between atoms: N1_4  and  C4_5 
REMARK    2  A    between atoms: C4_5  and  C5_6 
ROOT
HETATM    1  C5  UNL     1       8.892  -8.103   9.623  1.00  0.00     0.151 C 
HETATM    2  C6  UNL     1       8.816  -9.179   8.594  1.00  0.00     0.061 C 
HETATM    3  C7  UNL     1      10.268  -9.653   8.384  1.00  0.00     0.235 C 
HETATM    4  N2  UNL     1      10.732 -10.233   9.596  1.00  0.00    -0.073 N 
ATOM      5  H21 UNL     1      11.361 -11.013   9.405  1.00  0.00     0.277 HD
ATOM      6  H22 UNL     1       9.978 -10.733  10.067  1.00  0.00     0.277 HD
HETATM    7  C8  UNL     1      11.353  -9.284  10.493  1.00  0.00     0.258 C 
HETATM    8  C9  UNL     1      10.350  -8.581  11.371  1.00  0.00     0.195 C 
HETATM    9  O1  UNL     1       9.054  -8.692  10.879  1.00  0.00    -0.382 OA
ENDROOT
BRANCH   1  10
HETATM   10  C4  UNL     1       7.815  -7.090   9.636  1.00  0.00     0.304 C 
BRANCH  10  11
HETATM   11  N1  UNL     1       6.568  -7.432   9.064  1.00  0.00     0.090 N 
HETATM   12  C3  UNL     1       6.393  -6.884   7.769  1.00  0.00     0.272 C 
HETATM   13  C2  UNL     1       4.916  -6.588   7.595  1.00  0.00     0.032 C 
HETATM   14  C1  UNL     1       4.271  -6.894   8.949  1.00  0.00     0.032 C 
HETATM   15  C10 UNL     1       5.492  -6.867   9.842  1.00  0.00     0.272 C 
ENDBRANCH  10  11
ENDBRANCH   1  10
TORSDOF 2
ENDMDL
MODEL 4
REMARK VINA RESULT: -6.379241062      2.029      3.447
REMARK  2 active torsions:
REMARK  status: ('A' for Active; 'I' for Inactive)
REMARK    1  A    between atoms: N1_4  and  C4_5 
REMARK    2  A    between atoms: C4_5  and  C5_6 
ROOT
HETATM    1  C5  UNL     1       5.476  -6.873   8.019  1.00  0.00     0.151 C 
HETATM    2  C6  UNL     1       4.914  -6.447   9.334  1.00  0.00     0.061 C 
HETATM    3  C7  UNL     1       5.484  -7.439  10.367  1.00  0.00     0.235 C 
HETATM    4  N2  UNL     1       6.895  -7.277  10.415  1.00  0.00    -0.073 N 
ATOM      5  H21 UNL     1       7.243  -7.425  11.363  1.00  0.00     0.277 HD
ATOM      6  H22 UNL     1       7.149  -6.297  10.291  1.00  0.00     0.277 HD
HETATM    7  C8  UNL     1       7.609  -8.112   9.475  1.00  0.00     0.258 C 
HETATM    8  C9  UNL     1       7.719  -7.479   8.112  1.00  0.00     0.195 C 
HETATM    9  O1  UNL     1       6.804  -6.447   7.938  1.00  0.00    -0.382 OA
ENDROOT
BRANCH   1  10
HETATM   10  C4  UNL     1       4.718  -6.513   6.802  1.00  0.00     0.304 C 
BRANCH  10  11
HETATM   11  N1  UNL     1       3.306  -6.479   6.878  1.00  0.00     0.090 N 
HETATM   12  C3  UNL     1       2.685  -7.249   5.863  1.00  0.00     0.272 C 
HETATM   13  C2  UNL     1       1.379  -6.565   5.508  1.00  0.00     0.032 C 
HETATM   14  C1  UNL     1       1.360  -5.265   6.316  1.00  0.00     0.032 C 
HETATM   15  C10 UNL     1       2.829  -5.135   6.654  1.00  0.00     0.272 C 
ENDBRANCH  10  11
ENDBRANCH   1  10
TORSDOF 2
ENDMDL
MODEL 5
REMARK VINA RESULT: -6.291822978      1.264      5.096
REMARK  2 active torsions:
REMARK  status: ('A' for Active; 'I' for Inactive)
REMARK    1  A    between atoms: N1_4  and  C4_5 
REMARK    2  A    between atoms: C4_5  and  C5_6 
ROOT
HETATM    1  C5  UNL     1       6.704  -7.748   8.608  1.00  0.00     0.151 C 
HETATM    2  C6  UNL     1       6.666  -6.939   7.356  1.00  0.00     0.061 C 
HETATM    3  C7  UNL     1       5.170  -6.717   7.054  1.00  0.00     0.235 C 
HETATM    4  N2  UNL     1       4.610  -5.937   8.101  1.00  0.00    -0.073 N 
ATOM      5  H21 UNL     1       3.891  -5.310   7.740  1.00  0.00     0.277 HD
ATOM      6  H22 UNL     1       5.284  -5.248   8.437  1.00  0.00     0.277 HD
HETATM    7  C8  UNL     1       4.095  -6.724   9.199  1.00  0.00     0.258 C 
HETATM    8  C9  UNL     1       5.159  -7.070  10.209  1.00  0.00     0.195 C 
HETATM    9  O1  UNL     1       6.442  -6.910   9.694  1.00  0.00    -0.382 OA
ENDROOT
BRANCH   1  10
HETATM   10  C4  UNL     1       7.901  -8.583   8.847  1.00  0.00     0.304 C 
BRANCH  10  11
HETATM   11  N1  UNL     1       8.911  -8.078   9.697  1.00  0.00     0.090 N 
HETATM   12  C3  UNL     1      10.202  -8.159   9.119  1.00  0.00     0.272 C 
HETATM   13  C2  UNL     1      11.192  -8.390  10.246  1.00  0.00     0.032 C 
HETATM   14  C1  UNL     1      10.346  -8.561  11.510  1.00  0.00     0.032 C 
HETATM   15  C10 UNL     1       9.001  -8.879  10.894  1.00  0.00     0.272 C 
ENDBRANCH  10  11
ENDBRANCH   1  10
TORSDOF 2
ENDMDL
