MODEL 1
REMARK VINA RESULT: -8.206295642      0.000      0.000
REMARK  1 active torsions:
REMARK  status: ('A' for Active; 'I' for Inactive)
REMARK    1  A    between atoms: C8_11  and  C9_12 
ROOT
HETATM    1  C1  UNL     1      29.285  21.274  18.060  1.00  0.00     0.032 C 
HETATM    2  C2  UNL     1      28.036  22.138  18.095  1.00  0.00     0.078 C 
HETATM    3  C3  UNL     1      26.914  21.362  18.651  1.00  0.00     0.103 C 
HETATM    4  C4  UNL     1      25.861  21.126  17.552  1.00  0.00     0.252 C 
HETATM    5  F1  UNL     1      26.423  20.277  16.659  1.00  0.00    -0.206 F 
HETATM    6  F2  UNL     1      24.757  20.515  18.123  1.00  0.00    -0.206 F 
HETATM    7  C5  UNL     1      25.476  22.473  17.087  1.00  0.00     0.099 C 
HETATM    8  C6  UNL     1      24.744  22.686  15.819  1.00  0.00     0.115 C 
HETATM    9  C7  UNL     1      23.934  23.875  15.682  1.00  0.00     0.065 C 
HETATM   10  N1  UNL     1      23.270  24.807  15.573  1.00  0.00    -0.197 NA
HETATM   11  C8  UNL     1      26.077  22.772  15.119  1.00  0.00     0.066 C 
HETATM   12  C15 UNL     1      26.647  23.228  16.452  1.00  0.00     0.098 C 
HETATM   13  N2  UNL     1      27.873  22.622  16.745  1.00  0.00    -0.412 N 
ATOM     14  H2  UNL     1      28.610  22.527  16.045  1.00  0.00     0.154 HD
ENDROOT
BRANCH  11  15
HETATM   15  C9  UNL     1      26.187  23.687  14.011  1.00  0.00     0.030 A 
HETATM   16  C10 UNL     1      25.345  23.440  12.927  1.00  0.00     0.126 A 
HETATM   17  F3  UNL     1      24.364  22.491  13.024  1.00  0.00    -0.205 F 
HETATM   18  C11 UNL     1      25.435  24.135  11.756  1.00  0.00     0.046 A 
HETATM   19  C12 UNL     1      26.390  25.133  11.599  1.00  0.00     0.048 A 
HETATM   20  C13 UNL     1      27.216  25.390  12.632  1.00  0.00     0.155 A 
HETATM   21  F4  UNL     1      28.188  26.360  12.506  1.00  0.00    -0.203 F 
HETATM   22  C14 UNL     1      27.112  24.676  13.817  1.00  0.00     0.164 A 
HETATM   23  F5  UNL     1      27.997  24.988  14.752  1.00  0.00    -0.202 F 
ENDBRANCH  11  15
TORSDOF 1
ENDMDL
MODEL 2
REMARK VINA RESULT: -7.669551750      0.726      1.999
REMARK  1 active torsions:
REMARK  status: ('A' for Active; 'I' for Inactive)
REMARK    1  A    between atoms: C8_11  and  C9_12 
ROOT
HETATM    1  C1  UNL     1      29.163  21.270  18.148  1.00  0.00     0.032 C 
HETATM    2  C2  UNL     1      27.978  22.219  18.100  1.00  0.00     0.078 C 
HETATM    3  C3  UNL     1      26.822  21.600  18.773  1.00  0.00     0.103 C 
HETATM    4  C4  UNL     1      25.723  21.306  17.735  1.00  0.00     0.252 C 
HETATM    5  F1  UNL     1      26.198  20.315  16.944  1.00  0.00    -0.206 F 
HETATM    6  F2  UNL     1      24.597  20.850  18.402  1.00  0.00    -0.206 F 
HETATM    7  C5  UNL     1      25.417  22.609  17.114  1.00  0.00     0.099 C 
HETATM    8  C6  UNL     1      24.664  22.715  15.844  1.00  0.00     0.115 C 
HETATM    9  C7  UNL     1      23.934  23.934  15.577  1.00  0.00     0.065 C 
HETATM   10  N1  UNL     1      23.331  24.891  15.366  1.00  0.00    -0.197 NA
HETATM   11  C8  UNL     1      25.978  22.619  15.111  1.00  0.00     0.066 C 
HETATM   12  C15 UNL     1      26.618  23.194  16.364  1.00  0.00     0.098 C 
HETATM   13  N2  UNL     1      27.808  22.543  16.704  1.00  0.00    -0.412 N 
ATOM     14  H2  UNL     1      28.515  22.310  16.006  1.00  0.00     0.154 HD
ENDROOT
BRANCH  11  15
HETATM   15  C9  UNL     1      26.116  23.380  13.895  1.00  0.00     0.030 A 
HETATM   16  C10 UNL     1      27.173  24.290  13.858  1.00  0.00     0.126 A 
HETATM   17  F3  UNL     1      28.105  24.297  14.860  1.00  0.00    -0.205 F 
HETATM   18  C11 UNL     1      27.344  25.174  12.833  1.00  0.00     0.046 A 
HETATM   19  C12 UNL     1      26.450  25.202  11.768  1.00  0.00     0.048 A 
HETATM   20  C13 UNL     1      25.419  24.333  11.781  1.00  0.00     0.155 A 
HETATM   21  F4  UNL     1      24.503  24.344  10.752  1.00  0.00    -0.203 F 
HETATM   22  C14 UNL     1      25.260  23.438  12.830  1.00  0.00     0.164 A 
HETATM   23  F5  UNL     1      24.194  22.655  12.755  1.00  0.00    -0.202 F 
ENDBRANCH  11  15
TORSDOF 1
ENDMDL
MODEL 3
REMARK VINA RESULT: -6.898237295      1.875      5.758
REMARK  1 active torsions:
REMARK  status: ('A' for Active; 'I' for Inactive)
REMARK    1  A    between atoms: C8_11  and  C9_12 
ROOT
HETATM    1  C1  UNL     1      26.988  24.596  10.956  1.00  0.00     0.032 C 
HETATM    2  C2  UNL     1      26.016  24.621  12.123  1.00  0.00     0.078 C 
HETATM    3  C3  UNL     1      25.678  26.016  12.455  1.00  0.00     0.103 C 
HETATM    4  C4  UNL     1      26.249  26.366  13.842  1.00  0.00     0.252 C 
HETATM    5  F1  UNL     1      27.596  26.388  13.707  1.00  0.00    -0.206 F 
HETATM    6  F2  UNL     1      25.809  27.631  14.194  1.00  0.00    -0.206 F 
HETATM    7  C5  UNL     1      25.656  25.379  14.765  1.00  0.00     0.099 C 
HETATM    8  C6  UNL     1      26.197  25.152  16.124  1.00  0.00     0.115 C 
HETATM    9  C7  UNL     1      25.311  24.631  17.140  1.00  0.00     0.065 C 
HETATM   10  N1  UNL     1      24.607  24.238  17.960  1.00  0.00    -0.197 NA
HETATM   11  C8  UNL     1      27.121  24.117  15.532  1.00  0.00     0.066 C 
HETATM   12  C15 UNL     1      26.081  23.944  14.437  1.00  0.00     0.098 C 
HETATM   13  N2  UNL     1      26.655  23.852  13.164  1.00  0.00    -0.412 N 
ATOM     14  H2  UNL     1      27.477  23.276  12.983  1.00  0.00     0.154 HD
ENDROOT
BRANCH  11  15
HETATM   15  C9  UNL     1      27.424  22.961  16.337  1.00  0.00     0.030 A 
HETATM   16  C10 UNL     1      28.713  22.904  16.867  1.00  0.00     0.126 A 
HETATM   17  F3  UNL     1      29.546  23.985  16.759  1.00  0.00    -0.205 F 
HETATM   18  C11 UNL     1      29.185  21.809  17.530  1.00  0.00     0.046 A 
HETATM   19  C12 UNL     1      28.383  20.686  17.701  1.00  0.00     0.048 A 
HETATM   20  C13 UNL     1      27.133  20.716  17.196  1.00  0.00     0.155 A 
HETATM   21  F4  UNL     1      26.315  19.615  17.331  1.00  0.00    -0.203 F 
HETATM   22  C14 UNL     1      26.666  21.838  16.527  1.00  0.00     0.164 A 
HETATM   23  F5  UNL     1      25.436  21.744  16.044  1.00  0.00    -0.202 F 
ENDBRANCH  11  15
TORSDOF 1
ENDMDL
MODEL 4
REMARK VINA RESULT: -6.689373450      2.521      4.781
REMARK  1 active torsions:
REMARK  status: ('A' for Active; 'I' for Inactive)
REMARK    1  A    between atoms: C8_11  and  C9_12 
ROOT
HETATM    1  C1  UNL     1      28.575  20.606  20.120  1.00  0.00     0.032 C 
HETATM    2  C2  UNL     1      28.290  20.562  18.628  1.00  0.00     0.078 C 
HETATM    3  C3  UNL     1      29.322  21.326  17.906  1.00  0.00     0.103 C 
HETATM    4  C4  UNL     1      28.684  22.576  17.272  1.00  0.00     0.252 C 
HETATM    5  F1  UNL     1      28.342  23.393  18.296  1.00  0.00    -0.206 F 
HETATM    6  F2  UNL     1      29.636  23.208  16.488  1.00  0.00    -0.206 F 
HETATM    7  C5  UNL     1      27.610  22.063  16.400  1.00  0.00     0.099 C 
HETATM    8  C6  UNL     1      26.542  22.941  15.871  1.00  0.00     0.115 C 
HETATM    9  C7  UNL     1      25.880  22.558  14.645  1.00  0.00     0.065 C 
HETATM   10  N1  UNL     1      25.363  22.273  13.657  1.00  0.00    -0.197 NA
HETATM   11  C8  UNL     1      25.743  22.640  17.114  1.00  0.00     0.066 C 
HETATM   12  C15 UNL     1      26.517  21.334  17.188  1.00  0.00     0.098 C 
HETATM   13  N2  UNL     1      26.932  21.030  18.488  1.00  0.00    -0.412 N 
ATOM     14  H2  UNL     1      26.311  21.133  19.292  1.00  0.00     0.154 HD
ENDROOT
BRANCH  11  15
HETATM   15  C9  UNL     1      24.312  22.548  16.977  1.00  0.00     0.030 A 
HETATM   16  C10 UNL     1      23.682  23.639  16.378  1.00  0.00     0.126 A 
HETATM   17  F3  UNL     1      24.430  24.630  15.804  1.00  0.00    -0.205 F 
HETATM   18  C11 UNL     1      22.324  23.753  16.307  1.00  0.00     0.046 A 
HETATM   19  C12 UNL     1      21.504  22.768  16.845  1.00  0.00     0.048 A 
HETATM   20  C13 UNL     1      22.088  21.705  17.431  1.00  0.00     0.155 A 
HETATM   21  F4  UNL     1      21.306  20.717  17.991  1.00  0.00    -0.203 F 
HETATM   22  C14 UNL     1      23.471  21.601  17.493  1.00  0.00     0.164 A 
HETATM   23  F5  UNL     1      23.935  20.531  18.122  1.00  0.00    -0.202 F 
ENDBRANCH  11  15
TORSDOF 1
ENDMDL
MODEL 5
REMARK VINA RESULT: -6.276815570      2.078      5.477
REMARK  1 active torsions:
REMARK  status: ('A' for Active; 'I' for Inactive)
REMARK    1  A    between atoms: C8_11  and  C9_12 
ROOT
HETATM    1  C1  UNL     1      26.874  24.627  10.934  1.00  0.00     0.032 C 
HETATM    2  C2  UNL     1      25.935  24.669  12.128  1.00  0.00     0.078 C 
HETATM    3  C3  UNL     1      25.666  26.071  12.494  1.00  0.00     0.103 C 
HETATM    4  C4  UNL     1      26.288  26.369  13.871  1.00  0.00     0.252 C 
HETATM    5  F1  UNL     1      27.631  26.337  13.700  1.00  0.00    -0.206 F 
HETATM    6  F2  UNL     1      25.912  27.644  14.259  1.00  0.00    -0.206 F 
HETATM    7  C5  UNL     1      25.679  25.389  14.792  1.00  0.00     0.099 C 
HETATM    8  C6  UNL     1      26.246  25.113  16.131  1.00  0.00     0.115 C 
HETATM    9  C7  UNL     1      25.366  24.610  17.161  1.00  0.00     0.065 C 
HETATM   10  N1  UNL     1      24.669  24.231  17.994  1.00  0.00    -0.197 NA
HETATM   11  C8  UNL     1      27.109  24.052  15.495  1.00  0.00     0.066 C 
HETATM   12  C15 UNL     1      26.034  23.945  14.426  1.00  0.00     0.098 C 
HETATM   13  N2  UNL     1      26.569  23.854  13.137  1.00  0.00    -0.412 N 
ATOM     14  H2  UNL     1      27.361  23.248  12.921  1.00  0.00     0.154 HD
ENDROOT
BRANCH  11  15
HETATM   15  C9  UNL     1      27.384  22.869  16.269  1.00  0.00     0.030 A 
HETATM   16  C10 UNL     1      26.364  21.920  16.323  1.00  0.00     0.126 A 
HETATM   17  F3  UNL     1      25.259  22.057  15.527  1.00  0.00    -0.205 F 
HETATM   18  C11 UNL     1      26.428  20.819  17.127  1.00  0.00     0.046 A 
HETATM   19  C12 UNL     1      27.534  20.602  17.941  1.00  0.00     0.048 A 
HETATM   20  C13 UNL     1      28.533  21.506  17.908  1.00  0.00     0.155 A 
HETATM   21  F4  UNL     1      29.638  21.333  18.715  1.00  0.00    -0.203 F 
HETATM   22  C14 UNL     1      28.455  22.619  17.083  1.00  0.00     0.164 A 
HETATM   23  F5  UNL     1      29.478  23.458  17.158  1.00  0.00    -0.202 F 
ENDBRANCH  11  15
TORSDOF 1
ENDMDL
