MODEL 1
REMARK VINA RESULT: -6.617899791      0.000      0.000
REMARK  6 active torsions:
REMARK  status: ('A' for Active; 'I' for Inactive)
REMARK    1  A    between atoms: N2_4  and  N3_6 
REMARK    2  A    between atoms: C1_8  and  C2_9 
REMARK    3  A    between atoms: C2_9  and  C3_10 
REMARK    4  A    between atoms: C3_10  and  N5_14 
REMARK    5  A    between atoms: N5_14  and  C4_16 
REMARK    6  A    between atoms: C4_16  and  C5_20 
ROOT
HETATM    1  C3  UNL     1      23.522 -15.936   7.026  1.00  0.00     0.081 C 
HETATM    2  N4  UNL     1      23.793 -16.742   7.992  1.00  0.00    -0.389 N 
ATOM      3  H41 UNL     1      23.698 -17.755   7.926  1.00  0.00     0.157 HD
ATOM      4  H42 UNL     1      24.122 -16.365   8.881  1.00  0.00     0.157 HD
ENDROOT
BRANCH   1   5
HETATM    5  C2  UNL     1      23.661 -14.459   7.123  1.00  0.00     0.122 C 
BRANCH   5   6
HETATM    6  C1  UNL     1      25.096 -14.158   7.339  1.00  0.00     0.089 C 
HETATM    7  N3  UNL     1      25.531 -12.999   7.000  1.00  0.00    -0.301 N 
ATOM      8  H3  UNL     1      24.903 -12.307   6.592  1.00  0.00     0.187 HD
BRANCH   7   9
HETATM    9  N2  UNL     1      26.877 -12.708   7.200  1.00  0.00    -0.250 N 
HETATM   10  N1  UNL     1      27.538 -13.358   8.057  1.00  0.00    -0.331 N 
ATOM     11  H12 UNL     1      27.072 -14.091   8.592  1.00  0.00     0.178 HD
ATOM     12  H11 UNL     1      28.524 -13.145   8.204  1.00  0.00     0.178 HD
ATOM     13  H2  UNL     1      27.328 -11.972   6.657  1.00  0.00     0.207 HD
ENDBRANCH   7   9
ENDBRANCH   5   6
ENDBRANCH   1   5
BRANCH   1  14
HETATM   14  N5  UNL     1      23.064 -16.461   5.790  1.00  0.00    -0.330 N 
ATOM     15  H5  UNL     1      23.638 -17.099   5.238  1.00  0.00     0.168 HD
BRANCH  14  16
HETATM   16  C4  UNL     1      21.771 -16.059   5.353  1.00  0.00     0.138 C 
HETATM   17  N6  UNL     1      21.639 -15.662   4.136  1.00  0.00    -0.383 N 
ATOM     18  H62 UNL     1      22.437 -15.635   3.501  1.00  0.00     0.157 HD
ATOM     19  H61 UNL     1      20.712 -15.374   3.823  1.00  0.00     0.157 HD
BRANCH  16  20
HETATM   20  C5  UNL     1      20.625 -16.096   6.266  1.00  0.00     0.306 C 
HETATM   21  O1  UNL     1      19.632 -15.370   6.147  1.00  0.00    -0.298 OA
ENDBRANCH  16  20
ENDBRANCH  14  16
ENDBRANCH   1  14
TORSDOF 6
ENDMDL
MODEL 2
REMARK VINA RESULT: -6.532649496      1.601      2.486
REMARK  6 active torsions:
REMARK  status: ('A' for Active; 'I' for Inactive)
REMARK    1  A    between atoms: N2_4  and  N3_6 
REMARK    2  A    between atoms: C1_8  and  C2_9 
REMARK    3  A    between atoms: C2_9  and  C3_10 
REMARK    4  A    between atoms: C3_10  and  N5_14 
REMARK    5  A    between atoms: N5_14  and  C4_16 
REMARK    6  A    between atoms: C4_16  and  C5_20 
ROOT
HETATM    1  C3  UNL     1      22.143 -16.401   5.435  1.00  0.00     0.081 C 
HETATM    2  N4  UNL     1      22.350 -15.830   4.300  1.00  0.00    -0.389 N 
ATOM      3  H41 UNL     1      21.664 -15.808   3.545  1.00  0.00     0.157 HD
ATOM      4  H42 UNL     1      23.243 -15.368   4.128  1.00  0.00     0.157 HD
ENDROOT
BRANCH   1   5
HETATM    5  C2  UNL     1      23.143 -16.432   6.535  1.00  0.00     0.122 C 
BRANCH   5   6
HETATM    6  C1  UNL     1      23.433 -15.028   6.916  1.00  0.00     0.089 C 
HETATM    7  N3  UNL     1      24.609 -14.568   6.686  1.00  0.00    -0.301 N 
ATOM      8  H3  UNL     1      25.322 -15.155   6.254  1.00  0.00     0.187 HD
BRANCH   7   9
HETATM    9  N2  UNL     1      24.889 -13.252   7.039  1.00  0.00    -0.250 N 
HETATM   10  N1  UNL     1      26.004 -12.745   6.734  1.00  0.00    -0.331 N 
ATOM     11  H12 UNL     1      26.686 -13.311   6.230  1.00  0.00     0.178 HD
ATOM     12  H11 UNL     1      26.209 -11.780   6.993  1.00  0.00     0.178 HD
ATOM     13  H2  UNL     1      24.196 -12.699   7.544  1.00  0.00     0.207 HD
ENDBRANCH   7   9
ENDBRANCH   5   6
ENDBRANCH   1   5
BRANCH   1  14
HETATM   14  N5  UNL     1      20.901 -17.042   5.675  1.00  0.00    -0.330 N 
ATOM     15  H5  UNL     1      20.615 -17.864   5.143  1.00  0.00     0.168 HD
BRANCH  14  16
HETATM   16  C4  UNL     1      20.069 -16.489   6.689  1.00  0.00     0.138 C 
HETATM   17  N6  UNL     1      19.763 -17.231   7.694  1.00  0.00    -0.383 N 
ATOM     18  H62 UNL     1      20.106 -18.189   7.764  1.00  0.00     0.157 HD
ATOM     19  H61 UNL     1      19.168 -16.835   8.420  1.00  0.00     0.157 HD
BRANCH  16  20
HETATM   20  C5  UNL     1      19.577 -15.112   6.587  1.00  0.00     0.306 C 
HETATM   21  O1  UNL     1      18.395 -14.823   6.373  1.00  0.00    -0.298 OA
ENDBRANCH  16  20
ENDBRANCH  14  16
ENDBRANCH   1  14
TORSDOF 6
ENDMDL
MODEL 3
REMARK VINA RESULT: -6.452380631      3.166      5.691
REMARK  6 active torsions:
REMARK  status: ('A' for Active; 'I' for Inactive)
REMARK    1  A    between atoms: N2_4  and  N3_6 
REMARK    2  A    between atoms: C1_8  and  C2_9 
REMARK    3  A    between atoms: C2_9  and  C3_10 
REMARK    4  A    between atoms: C3_10  and  N5_14 
REMARK    5  A    between atoms: N5_14  and  C4_16 
REMARK    6  A    between atoms: C4_16  and  C5_20 
ROOT
HETATM    1  C3  UNL     1      22.773 -15.353   6.526  1.00  0.00     0.081 C 
HETATM    2  N4  UNL     1      22.951 -15.721   5.306  1.00  0.00    -0.389 N 
ATOM      3  H41 UNL     1      23.618 -15.278   4.673  1.00  0.00     0.157 HD
ATOM      4  H42 UNL     1      22.405 -16.497   4.933  1.00  0.00     0.157 HD
ENDROOT
BRANCH   1   5
HETATM    5  C2  UNL     1      21.802 -16.000   7.448  1.00  0.00     0.122 C 
BRANCH   5   6
HETATM    6  C1  UNL     1      20.521 -15.260   7.339  1.00  0.00     0.089 C 
HETATM    7  N3  UNL     1      19.535 -15.838   6.755  1.00  0.00    -0.301 N 
ATOM      8  H3  UNL     1      19.633 -16.780   6.378  1.00  0.00     0.187 HD
BRANCH   7   9
HETATM    9  N2  UNL     1      18.330 -15.151   6.649  1.00  0.00    -0.250 N 
HETATM   10  N1  UNL     1      18.324 -13.889   6.664  1.00  0.00    -0.331 N 
ATOM     11  H12 UNL     1      19.209 -13.389   6.754  1.00  0.00     0.178 HD
ATOM     12  H11 UNL     1      17.441 -13.385   6.586  1.00  0.00     0.178 HD
ATOM     13  H2  UNL     1      17.454 -15.665   6.560  1.00  0.00     0.207 HD
ENDBRANCH   7   9
ENDBRANCH   5   6
ENDBRANCH   1   5
BRANCH   1  14
HETATM   14  N5  UNL     1      23.533 -14.274   7.045  1.00  0.00    -0.330 N 
ATOM     15  H5  UNL     1      23.134 -13.340   7.143  1.00  0.00     0.168 HD
BRANCH  14  16
HETATM   16  C4  UNL     1      24.878 -14.548   7.422  1.00  0.00     0.138 C 
HETATM   17  N6  UNL     1      25.124 -15.659   8.023  1.00  0.00    -0.383 N 
ATOM     18  H62 UNL     1      24.378 -16.325   8.224  1.00  0.00     0.157 HD
ATOM     19  H61 UNL     1      26.087 -15.856   8.293  1.00  0.00     0.157 HD
BRANCH  16  20
HETATM   20  C5  UNL     1      25.949 -13.590   7.133  1.00  0.00     0.306 C 
HETATM   21  O1  UNL     1      26.841 -13.792   6.303  1.00  0.00    -0.298 OA
ENDBRANCH  16  20
ENDBRANCH  14  16
ENDBRANCH   1  14
TORSDOF 6
ENDMDL
MODEL 4
REMARK VINA RESULT: -6.442277029      3.011      5.535
REMARK  6 active torsions:
REMARK  status: ('A' for Active; 'I' for Inactive)
REMARK    1  A    between atoms: N2_4  and  N3_6 
REMARK    2  A    between atoms: C1_8  and  C2_9 
REMARK    3  A    between atoms: C2_9  and  C3_10 
REMARK    4  A    between atoms: C3_10  and  N5_14 
REMARK    5  A    between atoms: N5_14  and  C4_16 
REMARK    6  A    between atoms: C4_16  and  C5_20 
ROOT
HETATM    1  C3  UNL     1      22.644 -15.438   6.488  1.00  0.00     0.081 C 
HETATM    2  N4  UNL     1      21.717 -15.832   7.290  1.00  0.00    -0.389 N 
ATOM      3  H41 UNL     1      21.558 -15.427   8.212  1.00  0.00     0.157 HD
ATOM      4  H42 UNL     1      21.098 -16.591   7.004  1.00  0.00     0.157 HD
ENDROOT
BRANCH   1   5
HETATM    5  C2  UNL     1      22.876 -16.030   5.144  1.00  0.00     0.122 C 
BRANCH   5   6
HETATM    6  C1  UNL     1      22.414 -17.438   5.189  1.00  0.00     0.089 C 
HETATM    7  N3  UNL     1      22.757 -18.219   4.231  1.00  0.00    -0.301 N 
ATOM      8  H3  UNL     1      23.330 -17.877   3.460  1.00  0.00     0.187 HD
BRANCH   7   9
HETATM    9  N2  UNL     1      22.328 -19.543   4.266  1.00  0.00    -0.250 N 
HETATM   10  N1  UNL     1      22.559 -20.250   5.286  1.00  0.00    -0.331 N 
ATOM     11  H12 UNL     1      23.059 -19.837   6.073  1.00  0.00     0.178 HD
ATOM     12  H11 UNL     1      22.244 -21.220   5.312  1.00  0.00     0.178 HD
ATOM     13  H2  UNL     1      21.830 -19.941   3.470  1.00  0.00     0.207 HD
ENDBRANCH   7   9
ENDBRANCH   5   6
ENDBRANCH   1   5
BRANCH   1  14
HETATM   14  N5  UNL     1      23.505 -14.383   6.886  1.00  0.00    -0.330 N 
ATOM     15  H5  UNL     1      23.227 -13.406   6.790  1.00  0.00     0.168 HD
BRANCH  14  16
HETATM   16  C4  UNL     1      24.772 -14.746   7.422  1.00  0.00     0.138 C 
HETATM   17  N6  UNL     1      24.870 -15.872   8.037  1.00  0.00    -0.383 N 
ATOM     18  H62 UNL     1      24.064 -16.489   8.138  1.00  0.00     0.157 HD
ATOM     19  H61 UNL     1      25.778 -16.131   8.422  1.00  0.00     0.157 HD
BRANCH  16  20
HETATM   20  C5  UNL     1      25.929 -13.859   7.278  1.00  0.00     0.306 C 
HETATM   21  O1  UNL     1      26.676 -13.864   6.293  1.00  0.00    -0.298 OA
ENDBRANCH  16  20
ENDBRANCH  14  16
ENDBRANCH   1  14
TORSDOF 6
ENDMDL
MODEL 5
REMARK VINA RESULT: -6.422821069      1.647      1.825
REMARK  6 active torsions:
REMARK  status: ('A' for Active; 'I' for Inactive)
REMARK    1  A    between atoms: N2_4  and  N3_6 
REMARK    2  A    between atoms: C1_8  and  C2_9 
REMARK    3  A    between atoms: C2_9  and  C3_10 
REMARK    4  A    between atoms: C3_10  and  N5_14 
REMARK    5  A    between atoms: N5_14  and  C4_16 
REMARK    6  A    between atoms: C4_16  and  C5_20 
ROOT
HETATM    1  C3  UNL     1      23.374 -15.679   7.944  1.00  0.00     0.081 C 
HETATM    2  N4  UNL     1      24.117 -16.722   8.081  1.00  0.00    -0.389 N 
ATOM      3  H41 UNL     1      23.871 -17.517   8.672  1.00  0.00     0.157 HD
ATOM      4  H42 UNL     1      25.003 -16.774   7.579  1.00  0.00     0.157 HD
ENDROOT
BRANCH   1   5
HETATM    5  C2  UNL     1      23.732 -14.521   7.084  1.00  0.00     0.122 C 
BRANCH   5   6
HETATM    6  C1  UNL     1      25.126 -14.135   7.411  1.00  0.00     0.089 C 
HETATM    7  N3  UNL     1      25.570 -13.020   6.955  1.00  0.00    -0.301 N 
ATOM      8  H3  UNL     1      24.977 -12.419   6.383  1.00  0.00     0.187 HD
BRANCH   7   9
HETATM    9  N2  UNL     1      26.876 -12.650   7.257  1.00  0.00    -0.250 N 
HETATM   10  N1  UNL     1      27.562 -13.358   8.046  1.00  0.00    -0.331 N 
ATOM     11  H12 UNL     1      27.144 -14.196   8.451  1.00  0.00     0.178 HD
ATOM     12  H11 UNL     1      28.520 -13.087   8.268  1.00  0.00     0.178 HD
ATOM     13  H2  UNL     1      27.279 -11.809   6.844  1.00  0.00     0.207 HD
ENDBRANCH   7   9
ENDBRANCH   5   6
ENDBRANCH   1   5
BRANCH   1  14
HETATM   14  N5  UNL     1      22.142 -15.607   8.642  1.00  0.00    -0.330 N 
ATOM     15  H5  UNL     1      22.089 -15.770   9.648  1.00  0.00     0.168 HD
BRANCH  14  16
HETATM   16  C4  UNL     1      20.981 -15.297   7.879  1.00  0.00     0.138 C 
HETATM   17  N6  UNL     1      20.310 -14.246   8.196  1.00  0.00    -0.383 N 
ATOM     18  H62 UNL     1      20.601 -13.649   8.971  1.00  0.00     0.157 HD
ATOM     19  H61 UNL     1      19.479 -14.024   7.650  1.00  0.00     0.157 HD
BRANCH  16  20
HETATM   20  C5  UNL     1      20.564 -16.154   6.766  1.00  0.00     0.306 C 
HETATM   21  O1  UNL     1      20.437 -15.753   5.605  1.00  0.00    -0.298 OA
ENDBRANCH  16  20
ENDBRANCH  14  16
ENDBRANCH   1  14
TORSDOF 6
ENDMDL
