MODEL 1
REMARK VINA RESULT: -9.525965075      0.000      0.000
REMARK  7 active torsions:
REMARK  status: ('A' for Active; 'I' for Inactive)
REMARK    1  A    between atoms: C2_2  and  O1_3 
REMARK    2  A    between atoms: C2_2  and  C3_5 
REMARK    3  A    between atoms: N1_8  and  C6_9 
REMARK    4  A    between atoms: C12_15  and  C13_16 
REMARK    5  A    between atoms: C13_16  and  C14_17 
REMARK       I    between atoms: C14_17  and  N2_19 
REMARK    6  A    between atoms: N2_19  and  C15_21 
REMARK    7  A    between atoms: C15_21  and  C16_22 
ROOT
HETATM    1  C3  UNL     1     -25.071   7.894  -0.212  1.00  0.00    -0.011 C 
HETATM    2  C4  UNL     1     -24.805   9.349  -0.594  1.00  0.00     0.031 C 
HETATM    3  C5  UNL     1     -24.102   9.292  -1.918  1.00  0.00     0.119 C 
HETATM    4  N1  UNL     1     -24.956   8.583  -2.854  1.00  0.00    -0.399 N 
HETATM    5  C12 UNL     1     -25.107   7.240  -2.497  1.00  0.00     0.037 C 
HETATM    6  C22 UNL     1     -23.793   6.732  -1.878  1.00  0.00     0.032 C 
HETATM    7  C23 UNL     1     -23.771   7.164  -0.454  1.00  0.00     0.014 C 
HETATM    8  C24 UNL     1     -25.982   7.252  -1.230  1.00  0.00     0.043 C 
ENDROOT
BRANCH   5   9
HETATM    9  C13 UNL     1     -25.648   6.283  -3.479  1.00  0.00     0.134 C 
BRANCH   9  10
HETATM   10  C14 UNL     1     -25.618   4.836  -3.147  1.00  0.00     0.223 C 
HETATM   11  O2  UNL     1     -26.258   4.237  -2.273  1.00  0.00    -0.273 OA
HETATM   12  N2  UNL     1     -24.740   3.964  -3.913  1.00  0.00    -0.339 N 
ATOM     13  H2  UNL     1     -24.188   4.394  -4.655  1.00  0.00     0.167 HD
BRANCH  12  14
HETATM   14  C15 UNL     1     -24.587   2.584  -3.720  1.00  0.00     0.089 C 
BRANCH  14  15
HETATM   15  C16 UNL     1     -23.558   2.142  -2.697  1.00  0.00     0.119 C 
HETATM   16  C17 UNL     1     -22.655   1.083  -3.198  1.00  0.00     0.030 C 
HETATM   17  C18 UNL     1     -23.078  -0.322  -3.083  1.00  0.00     0.003 C 
HETATM   18  C19 UNL     1     -22.463  -0.908  -1.815  1.00  0.00     0.005 C 
HETATM   19  C20 UNL     1     -22.673   0.156  -0.734  1.00  0.00     0.044 C 
HETATM   20  C21 UNL     1     -24.079   0.628  -0.849  1.00  0.00     0.056 C 
HETATM   21  N3  UNL     1     -24.305   1.835  -1.521  1.00  0.00    -0.393 N 
ATOM     22  H3  UNL     1     -25.002   2.493  -1.171  1.00  0.00     0.159 HD
ENDBRANCH  14  15
ENDBRANCH  12  14
ENDBRANCH   9  10
ENDBRANCH   5   9
BRANCH   4  23
HETATM   23  C6  UNL     1     -25.125   9.201  -4.050  1.00  0.00     0.080 C 
HETATM   24  C7  UNL     1     -26.407  10.081  -3.974  1.00  0.00     0.025 C 
HETATM   25  C8  UNL     1     -26.155  11.353  -4.748  1.00  0.00     0.002 C 
HETATM   26  C9  UNL     1     -25.365  10.994  -6.006  1.00  0.00     0.000 C 
HETATM   27  C10 UNL     1     -25.807   9.623  -6.401  1.00  0.00     0.002 C 
HETATM   28  C11 UNL     1     -25.233   8.584  -5.380  1.00  0.00     0.025 C 
ENDBRANCH   4  23
BRANCH   1  29
HETATM   29  C2  UNL     1     -25.550   7.796   1.195  1.00  0.00     0.122 C 
HETATM   30  C1  UNL     1     -26.493   6.668   1.446  1.00  0.00     0.040 C 
BRANCH  29  31
HETATM   31  O1  UNL     1     -26.116   8.993   1.649  1.00  0.00    -0.395 OA
ATOM     32  H1  UNL     1     -25.555   9.722   1.414  1.00  0.00     0.210 HD
ENDBRANCH  29  31
ENDBRANCH   1  29
TORSDOF 7
ENDMDL
MODEL 2
REMARK VINA RESULT: -9.401145810      1.356      2.026
REMARK  7 active torsions:
REMARK  status: ('A' for Active; 'I' for Inactive)
REMARK    1  A    between atoms: C2_2  and  O1_3 
REMARK    2  A    between atoms: C2_2  and  C3_5 
REMARK    3  A    between atoms: N1_8  and  C6_9 
REMARK    4  A    between atoms: C12_15  and  C13_16 
REMARK    5  A    between atoms: C13_16  and  C14_17 
REMARK       I    between atoms: C14_17  and  N2_19 
REMARK    6  A    between atoms: N2_19  and  C15_21 
REMARK    7  A    between atoms: C15_21  and  C16_22 
ROOT
HETATM    1  C3  UNL     1     -24.784   8.425  -0.441  1.00  0.00    -0.011 C 
HETATM    2  C4  UNL     1     -24.495   9.520  -1.467  1.00  0.00     0.031 C 
HETATM    3  C5  UNL     1     -23.996   8.803  -2.687  1.00  0.00     0.119 C 
HETATM    4  N1  UNL     1     -25.018   7.858  -3.103  1.00  0.00    -0.399 N 
HETATM    5  C12 UNL     1     -25.190   6.839  -2.164  1.00  0.00     0.037 C 
HETATM    6  C22 UNL     1     -23.831   6.507  -1.523  1.00  0.00     0.032 C 
HETATM    7  C23 UNL     1     -23.577   7.518  -0.461  1.00  0.00     0.014 C 
HETATM    8  C24 UNL     1     -25.869   7.511  -0.956  1.00  0.00     0.043 C 
ENDROOT
BRANCH   5   9
HETATM    9  C13 UNL     1     -25.922   5.616  -2.542  1.00  0.00     0.134 C 
BRANCH   9  10
HETATM   10  C14 UNL     1     -25.869   4.448  -1.627  1.00  0.00     0.223 C 
HETATM   11  O2  UNL     1     -26.241   4.380  -0.448  1.00  0.00    -0.273 OA
HETATM   12  N2  UNL     1     -25.316   3.198  -2.125  1.00  0.00    -0.339 N 
ATOM     13  H2  UNL     1     -24.996   3.183  -3.094  1.00  0.00     0.167 HD
BRANCH  12  14
HETATM   14  C15 UNL     1     -25.185   2.011  -1.391  1.00  0.00     0.089 C 
BRANCH  14  15
HETATM   15  C16 UNL     1     -23.851   1.294  -1.475  1.00  0.00     0.119 C 
HETATM   16  C17 UNL     1     -23.147   1.518  -2.756  1.00  0.00     0.030 C 
HETATM   17  C18 UNL     1     -23.461   0.647  -3.899  1.00  0.00     0.003 C 
HETATM   18  C19 UNL     1     -22.427  -0.474  -3.949  1.00  0.00     0.005 C 
HETATM   19  C20 UNL     1     -22.280  -0.955  -2.503  1.00  0.00     0.044 C 
HETATM   20  C21 UNL     1     -23.652  -1.097  -1.947  1.00  0.00     0.056 C 
HETATM   21  N3  UNL     1     -24.134  -0.063  -1.135  1.00  0.00    -0.393 N 
ATOM     22  H3  UNL     1     -24.685  -0.279  -0.304  1.00  0.00     0.159 HD
ENDBRANCH  14  15
ENDBRANCH  12  14
ENDBRANCH   9  10
ENDBRANCH   5   9
BRANCH   4  23
HETATM   23  C6  UNL     1     -25.324   7.899  -4.425  1.00  0.00     0.080 C 
HETATM   24  C7  UNL     1     -24.309   7.005  -5.195  1.00  0.00     0.025 C 
HETATM   25  C8  UNL     1     -25.046   6.302  -6.310  1.00  0.00     0.002 C 
HETATM   26  C9  UNL     1     -26.039   7.293  -6.919  1.00  0.00     0.000 C 
HETATM   27  C10 UNL     1     -25.412   8.643  -6.794  1.00  0.00     0.002 C 
HETATM   28  C11 UNL     1     -25.435   9.082  -5.291  1.00  0.00     0.025 C 
ENDBRANCH   4  23
BRANCH   1  29
HETATM   29  C2  UNL     1     -25.057   9.016   0.899  1.00  0.00     0.122 C 
HETATM   30  C1  UNL     1     -23.987   8.769   1.908  1.00  0.00     0.040 C 
BRANCH  29  31
HETATM   31  O1  UNL     1     -26.295   8.616   1.416  1.00  0.00    -0.395 OA
ATOM     32  H1  UNL     1     -26.995   9.024   0.922  1.00  0.00     0.210 HD
ENDBRANCH  29  31
ENDBRANCH   1  29
TORSDOF 7
ENDMDL
MODEL 3
REMARK VINA RESULT: -9.373367434      3.531      8.243
REMARK  7 active torsions:
REMARK  status: ('A' for Active; 'I' for Inactive)
REMARK    1  A    between atoms: C2_2  and  O1_3 
REMARK    2  A    between atoms: C2_2  and  C3_5 
REMARK    3  A    between atoms: N1_8  and  C6_9 
REMARK    4  A    between atoms: C12_15  and  C13_16 
REMARK    5  A    between atoms: C13_16  and  C14_17 
REMARK       I    between atoms: C14_17  and  N2_19 
REMARK    6  A    between atoms: N2_19  and  C15_21 
REMARK    7  A    between atoms: C15_21  and  C16_22 
ROOT
HETATM    1  C3  UNL     1     -23.699   8.283  -1.240  1.00  0.00    -0.011 C 
HETATM    2  C4  UNL     1     -23.066   7.107  -1.982  1.00  0.00     0.031 C 
HETATM    3  C5  UNL     1     -24.206   6.395  -2.647  1.00  0.00     0.119 C 
HETATM    4  N1  UNL     1     -24.887   7.342  -3.513  1.00  0.00    -0.399 N 
HETATM    5  C12 UNL     1     -25.509   8.354  -2.778  1.00  0.00     0.037 C 
HETATM    6  C22 UNL     1     -26.033   7.769  -1.455  1.00  0.00     0.032 C 
HETATM    7  C23 UNL     1     -24.889   7.710  -0.506  1.00  0.00     0.014 C 
HETATM    8  C24 UNL     1     -24.361   9.217  -2.223  1.00  0.00     0.043 C 
ENDROOT
BRANCH   5   9
HETATM    9  C13 UNL     1     -26.518   9.210  -3.428  1.00  0.00     0.134 C 
BRANCH   9  10
HETATM   10  C14 UNL     1     -26.086  10.518  -3.981  1.00  0.00     0.223 C 
HETATM   11  O2  UNL     1     -26.056  11.618  -3.414  1.00  0.00    -0.273 OA
HETATM   12  N2  UNL     1     -25.633  10.574  -5.363  1.00  0.00    -0.339 N 
ATOM     13  H2  UNL     1     -25.627   9.699  -5.887  1.00  0.00     0.167 HD
BRANCH  12  14
HETATM   14  C15 UNL     1     -25.204  11.727  -6.037  1.00  0.00     0.089 C 
BRANCH  14  15
HETATM   15  C16 UNL     1     -25.989  12.135  -7.269  1.00  0.00     0.119 C 
HETATM   16  C17 UNL     1     -25.151  12.258  -8.481  1.00  0.00     0.030 C 
HETATM   17  C18 UNL     1     -24.463  13.533  -8.742  1.00  0.00     0.003 C 
HETATM   18  C19 UNL     1     -25.322  14.357  -9.697  1.00  0.00     0.005 C 
HETATM   19  C20 UNL     1     -26.752  14.231  -9.168  1.00  0.00     0.044 C 
HETATM   20  C21 UNL     1     -26.695  14.437  -7.696  1.00  0.00     0.056 C 
HETATM   21  N3  UNL     1     -26.717  13.300  -6.880  1.00  0.00    -0.393 N 
ATOM     22  H3  UNL     1     -27.251  13.303  -6.010  1.00  0.00     0.159 HD
ENDBRANCH  14  15
ENDBRANCH  12  14
ENDBRANCH   9  10
ENDBRANCH   5   9
BRANCH   4  23
HETATM   23  C6  UNL     1     -25.126   6.892  -4.770  1.00  0.00     0.080 C 
HETATM   24  C7  UNL     1     -24.753   5.381  -4.833  1.00  0.00     0.025 C 
HETATM   25  C8  UNL     1     -25.755   4.682  -5.721  1.00  0.00     0.002 C 
HETATM   26  C9  UNL     1     -26.060   5.599  -6.905  1.00  0.00     0.000 C 
HETATM   27  C10 UNL     1     -24.805   6.363  -7.177  1.00  0.00     0.002 C 
HETATM   28  C11 UNL     1     -24.585   7.412  -6.035  1.00  0.00     0.025 C 
ENDBRANCH   4  23
BRANCH   1  29
HETATM   29  C2  UNL     1     -22.707   8.934  -0.338  1.00  0.00     0.122 C 
HETATM   30  C1  UNL     1     -21.333   9.033  -0.908  1.00  0.00     0.040 C 
BRANCH  29  31
HETATM   31  O1  UNL     1     -22.653   8.326   0.921  1.00  0.00    -0.395 OA
ATOM     32  H1  UNL     1     -22.616   7.383   0.821  1.00  0.00     0.210 HD
ENDBRANCH  29  31
ENDBRANCH   1  29
TORSDOF 7
ENDMDL
MODEL 4
REMARK VINA RESULT: -9.331708536      1.026      1.511
REMARK  7 active torsions:
REMARK  status: ('A' for Active; 'I' for Inactive)
REMARK    1  A    between atoms: C2_2  and  O1_3 
REMARK    2  A    between atoms: C2_2  and  C3_5 
REMARK    3  A    between atoms: N1_8  and  C6_9 
REMARK    4  A    between atoms: C12_15  and  C13_16 
REMARK    5  A    between atoms: C13_16  and  C14_17 
REMARK       I    between atoms: C14_17  and  N2_19 
REMARK    6  A    between atoms: N2_19  and  C15_21 
REMARK    7  A    between atoms: C15_21  and  C16_22 
ROOT
HETATM    1  C3  UNL     1     -24.701   8.301  -0.889  1.00  0.00    -0.011 C 
HETATM    2  C4  UNL     1     -24.559   9.635  -1.621  1.00  0.00     0.031 C 
HETATM    3  C5  UNL     1     -24.145   9.281  -3.018  1.00  0.00     0.119 C 
HETATM    4  N1  UNL     1     -25.156   8.403  -3.581  1.00  0.00    -0.399 N 
HETATM    5  C12 UNL     1     -25.193   7.172  -2.921  1.00  0.00     0.037 C 
HETATM    6  C22 UNL     1     -23.766   6.784  -2.495  1.00  0.00     0.032 C 
HETATM    7  C23 UNL     1     -23.460   7.512  -1.234  1.00  0.00     0.014 C 
HETATM    8  C24 UNL     1     -25.786   7.473  -1.532  1.00  0.00     0.043 C 
ENDROOT
BRANCH   5   9
HETATM    9  C13 UNL     1     -25.900   6.036  -3.540  1.00  0.00     0.134 C 
BRANCH   9  10
HETATM   10  C14 UNL     1     -25.098   4.897  -4.052  1.00  0.00     0.223 C 
HETATM   11  O2  UNL     1     -24.391   4.853  -5.067  1.00  0.00    -0.273 OA
HETATM   12  N2  UNL     1     -25.108   3.647  -3.306  1.00  0.00    -0.339 N 
ATOM     13  H2  UNL     1     -25.667   3.618  -2.453  1.00  0.00     0.167 HD
BRANCH  12  14
HETATM   14  C15 UNL     1     -24.417   2.480  -3.658  1.00  0.00     0.089 C 
BRANCH  14  15
HETATM   15  C16 UNL     1     -23.382   1.969  -2.674  1.00  0.00     0.119 C 
HETATM   16  C17 UNL     1     -22.571   0.852  -3.205  1.00  0.00     0.030 C 
HETATM   17  C18 UNL     1     -23.083  -0.521  -3.071  1.00  0.00     0.003 C 
HETATM   18  C19 UNL     1     -22.463  -1.147  -1.825  1.00  0.00     0.005 C 
HETATM   19  C20 UNL     1     -22.560  -0.072  -0.740  1.00  0.00     0.044 C 
HETATM   20  C21 UNL     1     -23.935   0.493  -0.804  1.00  0.00     0.056 C 
HETATM   21  N3  UNL     1     -24.104   1.713  -1.470  1.00  0.00    -0.393 N 
ATOM     22  H3  UNL     1     -24.742   2.417  -1.096  1.00  0.00     0.159 HD
ENDBRANCH  14  15
ENDBRANCH  12  14
ENDBRANCH   9  10
ENDBRANCH   5   9
BRANCH   4  23
HETATM   23  C6  UNL     1     -25.586   8.753  -4.819  1.00  0.00     0.080 C 
HETATM   24  C7  UNL     1     -24.699   8.027  -5.873  1.00  0.00     0.025 C 
HETATM   25  C8  UNL     1     -25.577   7.618  -7.032  1.00  0.00     0.002 C 
HETATM   26  C9  UNL     1     -26.569   8.750  -7.295  1.00  0.00     0.000 C 
HETATM   27  C10 UNL     1     -25.863  10.018  -6.940  1.00  0.00     0.002 C 
HETATM   28  C11 UNL     1     -25.717  10.104  -5.383  1.00  0.00     0.025 C 
ENDBRANCH   4  23
BRANCH   1  29
HETATM   29  C2  UNL     1     -24.874   8.518   0.575  1.00  0.00     0.122 C 
HETATM   30  C1  UNL     1     -25.751   7.515   1.245  1.00  0.00     0.040 C 
BRANCH  29  31
HETATM   31  O1  UNL     1     -25.323   9.811   0.873  1.00  0.00    -0.395 OA
ATOM     32  H1  UNL     1     -24.621  10.434   0.733  1.00  0.00     0.210 HD
ENDBRANCH  29  31
ENDBRANCH   1  29
TORSDOF 7
ENDMDL
MODEL 5
REMARK VINA RESULT: -9.286812040      2.042      7.361
REMARK  7 active torsions:
REMARK  status: ('A' for Active; 'I' for Inactive)
REMARK    1  A    between atoms: C2_2  and  O1_3 
REMARK    2  A    between atoms: C2_2  and  C3_5 
REMARK    3  A    between atoms: N1_8  and  C6_9 
REMARK    4  A    between atoms: C12_15  and  C13_16 
REMARK    5  A    between atoms: C13_16  and  C14_17 
REMARK       I    between atoms: C14_17  and  N2_19 
REMARK    6  A    between atoms: N2_19  and  C15_21 
REMARK    7  A    between atoms: C15_21  and  C16_22 
ROOT
HETATM    1  C3  UNL     1     -24.589   7.610  -0.932  1.00  0.00    -0.011 C 
HETATM    2  C4  UNL     1     -24.905   6.347  -0.133  1.00  0.00     0.031 C 
HETATM    3  C5  UNL     1     -25.636   5.446  -1.084  1.00  0.00     0.119 C 
HETATM    4  N1  UNL     1     -24.782   5.218  -2.237  1.00  0.00    -0.399 N 
HETATM    5  C12 UNL     1     -24.585   6.390  -2.971  1.00  0.00     0.037 C 
HETATM    6  C22 UNL     1     -25.870   7.236  -2.926  1.00  0.00     0.032 C 
HETATM    7  C23 UNL     1     -25.873   7.980  -1.637  1.00  0.00     0.014 C 
HETATM    8  C24 UNL     1     -23.682   7.274  -2.091  1.00  0.00     0.043 C 
ENDROOT
BRANCH   5   9
HETATM    9  C13 UNL     1     -24.038   6.309  -4.338  1.00  0.00     0.134 C 
BRANCH   9  10
HETATM   10  C14 UNL     1     -24.897   6.739  -5.470  1.00  0.00     0.223 C 
HETATM   11  O2  UNL     1     -25.721   6.068  -6.105  1.00  0.00    -0.273 OA
HETATM   12  N2  UNL     1     -24.798   8.114  -5.936  1.00  0.00    -0.339 N 
ATOM     13  H2  UNL     1     -24.140   8.724  -5.450  1.00  0.00     0.167 HD
BRANCH  12  14
HETATM   14  C15 UNL     1     -25.527   8.673  -6.995  1.00  0.00     0.089 C 
BRANCH  14  15
HETATM   15  C16 UNL     1     -26.403   9.869  -6.671  1.00  0.00     0.119 C 
HETATM   16  C17 UNL     1     -26.088  11.061  -7.487  1.00  0.00     0.030 C 
HETATM   17  C18 UNL     1     -25.024  11.971  -7.032  1.00  0.00     0.003 C 
HETATM   18  C19 UNL     1     -25.670  13.120  -6.263  1.00  0.00     0.005 C 
HETATM   19  C20 UNL     1     -26.706  12.464  -5.346  1.00  0.00     0.044 C 
HETATM   20  C21 UNL     1     -26.049  11.289  -4.713  1.00  0.00     0.056 C 
HETATM   21  N3  UNL     1     -26.314  10.026  -5.256  1.00  0.00    -0.393 N 
ATOM     22  H3  UNL     1     -26.443   9.221  -4.642  1.00  0.00     0.159 HD
ENDBRANCH  14  15
ENDBRANCH  12  14
ENDBRANCH   9  10
ENDBRANCH   5   9
BRANCH   4  23
HETATM   23  C6  UNL     1     -24.658   3.917  -2.603  1.00  0.00     0.080 C 
HETATM   24  C7  UNL     1     -25.906   3.520  -3.444  1.00  0.00     0.025 C 
HETATM   25  C8  UNL     1     -25.459   2.589  -4.546  1.00  0.00     0.002 C 
HETATM   26  C9  UNL     1     -24.406   1.643  -3.968  1.00  0.00     0.000 C 
HETATM   27  C10 UNL     1     -24.771   1.436  -2.534  1.00  0.00     0.002 C 
HETATM   28  C11 UNL     1     -24.467   2.747  -1.733  1.00  0.00     0.025 C 
ENDBRANCH   4  23
BRANCH   1  29
HETATM   29  C2  UNL     1     -24.076   8.686  -0.037  1.00  0.00     0.122 C 
HETATM   30  C1  UNL     1     -23.826   8.249   1.367  1.00  0.00     0.040 C 
BRANCH  29  31
HETATM   31  O1  UNL     1     -24.900   9.818  -0.039  1.00  0.00    -0.395 OA
ATOM     32  H1  UNL     1     -25.789   9.568   0.182  1.00  0.00     0.210 HD
ENDBRANCH  29  31
ENDBRANCH   1  29
TORSDOF 7
ENDMDL
