MODEL 1
REMARK VINA RESULT: -9.394470148      0.000      0.000
REMARK  7 active torsions:
REMARK  status: ('A' for Active; 'I' for Inactive)
REMARK    1  A    between atoms: C2_2  and  C4_4 
REMARK    2  A    between atoms: C6_10  and  C7_11 
REMARK    3  A    between atoms: C7_11  and  C8_12 
REMARK    4  A    between atoms: C8_12  and  N3_13 
REMARK    5  A    between atoms: C8_12  and  C18_28 
REMARK       I    between atoms: N3_13  and  C9_15 
REMARK       I    between atoms: C9_15  and  N4_17 
REMARK    6  A    between atoms: N4_17  and  C10_19 
REMARK    7  A    between atoms: C18_28  and  C19_30 
ROOT
HETATM    1  C8  UNL     1     -24.709   6.775  -0.954  1.00  0.00     0.085 C 
ENDROOT
BRANCH   1   2
HETATM    2  C7  UNL     1     -25.632   7.161  -2.013  1.00  0.00     0.065 C 
BRANCH   2   3
HETATM    3  C6  UNL     1     -25.556   8.458  -2.676  1.00  0.00     0.058 A 
HETATM    4  C4  UNL     1     -25.410   8.570  -4.072  1.00  0.00    -0.010 A 
HETATM    5  C5  UNL     1     -25.343   9.905  -4.352  1.00  0.00     0.117 A 
HETATM    6  N1  UNL     1     -25.441  10.535  -3.174  1.00  0.00    -0.311 N 
HETATM    7  N2  UNL     1     -25.568   9.701  -2.182  1.00  0.00    -0.301 N 
ATOM      8  H1  UNL     1     -25.420  11.549  -3.067  1.00  0.00     0.186 HD
ATOM      9  H2  UNL     1     -25.661   9.952  -1.198  1.00  0.00     0.187 HD
BRANCH   4  10
HETATM   10  C2  UNL     1     -25.322   7.413  -5.023  1.00  0.00     0.014 C 
HETATM   11  C1  UNL     1     -25.134   7.994  -6.415  1.00  0.00     0.015 C 
HETATM   12  C3  UNL     1     -24.081   6.587  -4.763  1.00  0.00     0.015 C 
ENDBRANCH   4  10
ENDBRANCH   2   3
ENDBRANCH   1   2
BRANCH   1  13
HETATM   13  N3  UNL     1     -24.255   5.428  -1.279  1.00  0.00    -0.306 N 
HETATM   14  C9  UNL     1     -24.943   4.300  -1.712  1.00  0.00     0.321 C 
HETATM   15  O1  UNL     1     -26.153   4.387  -1.930  1.00  0.00    -0.247 OA
HETATM   16  N4  UNL     1     -24.232   3.053  -1.895  1.00  0.00    -0.338 N 
ATOM     17  H4  UNL     1     -23.232   3.014  -1.697  1.00  0.00     0.164 HD
ATOM     18  H3  UNL     1     -23.251   5.288  -1.168  1.00  0.00     0.171 HD
BRANCH  16  19
HETATM   19  C10 UNL     1     -24.896   1.887  -2.342  1.00  0.00     0.090 C 
HETATM   20  C11 UNL     1     -23.906   1.082  -3.185  1.00  0.00     0.055 C 
HETATM   21  C12 UNL     1     -24.694  -0.113  -3.697  1.00  0.00     0.275 C 
HETATM   22  N5  UNL     1     -25.162  -0.936  -2.603  1.00  0.00     0.093 N 
HETATM   23  C13 UNL     1     -24.084  -1.729  -2.034  1.00  0.00     0.310 C 
HETATM   24  C14 UNL     1     -25.916  -0.227  -1.608  1.00  0.00     0.154 C 
HETATM   25  C15 UNL     1     -27.289   0.183  -2.091  1.00  0.00     0.049 C 
HETATM   26  C16 UNL     1     -26.053  -1.140  -0.412  1.00  0.00     0.049 C 
HETATM   27  C17 UNL     1     -25.234   1.053  -1.137  1.00  0.00     0.066 C 
ENDBRANCH  16  19
ENDBRANCH   1  13
BRANCH   1  28
HETATM   28  C18 UNL     1     -24.913   6.958   0.459  1.00  0.00     0.183 C 
HETATM   29  O2  UNL     1     -25.658   6.105   1.035  1.00  0.00    -0.290 OA
BRANCH  28  30
HETATM   30  C19 UNL     1     -24.421   7.991   1.384  1.00  0.00     0.016 C 
HETATM   31  C20 UNL     1     -23.207   8.695   0.690  1.00  0.00     0.023 C 
HETATM   32  C21 UNL     1     -23.943   7.530   2.721  1.00  0.00     0.023 C 
HETATM   33  C22 UNL     1     -25.431   9.104   1.619  1.00  0.00     0.023 C 
ENDBRANCH  28  30
ENDBRANCH   1  28
TORSDOF 7
ENDMDL
MODEL 2
REMARK VINA RESULT: -9.255616425      4.255      8.906
REMARK  7 active torsions:
REMARK  status: ('A' for Active; 'I' for Inactive)
REMARK    1  A    between atoms: C2_2  and  C4_4 
REMARK    2  A    between atoms: C6_10  and  C7_11 
REMARK    3  A    between atoms: C7_11  and  C8_12 
REMARK    4  A    between atoms: C8_12  and  N3_13 
REMARK    5  A    between atoms: C8_12  and  C18_28 
REMARK       I    between atoms: N3_13  and  C9_15 
REMARK       I    between atoms: C9_15  and  N4_17 
REMARK    6  A    between atoms: N4_17  and  C10_19 
REMARK    7  A    between atoms: C18_28  and  C19_30 
ROOT
HETATM    1  C8  UNL     1     -25.080   8.626  -2.500  1.00  0.00     0.085 C 
ENDROOT
BRANCH   1   2
HETATM    2  C7  UNL     1     -25.459   7.393  -3.177  1.00  0.00     0.065 C 
BRANCH   2   3
HETATM    3  C6  UNL     1     -24.506   6.607  -3.953  1.00  0.00     0.058 A 
HETATM    4  C4  UNL     1     -24.651   6.425  -5.341  1.00  0.00    -0.010 A 
HETATM    5  C5  UNL     1     -23.620   5.624  -5.740  1.00  0.00     0.117 A 
HETATM    6  N1  UNL     1     -22.913   5.352  -4.635  1.00  0.00    -0.311 N 
HETATM    7  N2  UNL     1     -23.419   5.922  -3.579  1.00  0.00    -0.301 N 
ATOM      8  H1  UNL     1     -22.078   4.768  -4.622  1.00  0.00     0.186 HD
ATOM      9  H2  UNL     1     -23.051   5.858  -2.630  1.00  0.00     0.187 HD
BRANCH   4  10
HETATM   10  C2  UNL     1     -25.761   6.999  -6.173  1.00  0.00     0.014 C 
HETATM   11  C1  UNL     1     -25.128   7.998  -7.129  1.00  0.00     0.015 C 
HETATM   12  C3  UNL     1     -26.384   5.939  -7.055  1.00  0.00     0.015 C 
ENDBRANCH   4  10
ENDBRANCH   2   3
ENDBRANCH   1   2
BRANCH   1  13
HETATM   13  N3  UNL     1     -24.814   9.603  -3.548  1.00  0.00    -0.306 N 
HETATM   14  C9  UNL     1     -25.666  10.356  -4.348  1.00  0.00     0.321 C 
HETATM   15  O1  UNL     1     -26.883  10.272  -4.168  1.00  0.00    -0.247 OA
HETATM   16  N4  UNL     1     -25.114  11.214  -5.374  1.00  0.00    -0.338 N 
ATOM     17  H4  UNL     1     -24.103  11.253  -5.503  1.00  0.00     0.164 HD
ATOM     18  H3  UNL     1     -23.823   9.764  -3.726  1.00  0.00     0.171 HD
BRANCH  16  19
HETATM   19  C10 UNL     1     -25.949  12.001  -6.202  1.00  0.00     0.090 C 
HETATM   20  C11 UNL     1     -26.081  13.380  -5.554  1.00  0.00     0.055 C 
HETATM   21  C12 UNL     1     -27.043  14.150  -6.443  1.00  0.00     0.275 C 
HETATM   22  N5  UNL     1     -26.510  14.304  -7.780  1.00  0.00     0.093 N 
HETATM   23  C13 UNL     1     -25.463  15.313  -7.822  1.00  0.00     0.310 C 
HETATM   24  C14 UNL     1     -26.122  13.073  -8.408  1.00  0.00     0.154 C 
HETATM   25  C15 UNL     1     -27.303  12.220  -8.812  1.00  0.00     0.049 C 
HETATM   26  C16 UNL     1     -25.314  13.430  -9.634  1.00  0.00     0.049 C 
HETATM   27  C17 UNL     1     -25.249  12.193  -7.519  1.00  0.00     0.066 C 
ENDBRANCH  16  19
ENDBRANCH   1  13
BRANCH   1  28
HETATM   28  C18 UNL     1     -24.162   8.741  -1.397  1.00  0.00     0.183 C 
HETATM   29  O2  UNL     1     -23.053   9.306  -1.645  1.00  0.00    -0.290 OA
BRANCH  28  30
HETATM   30  C19 UNL     1     -24.266   8.295   0.002  1.00  0.00     0.016 C 
HETATM   31  C20 UNL     1     -22.835   8.399   0.629  1.00  0.00     0.023 C 
HETATM   32  C21 UNL     1     -24.734   6.897   0.233  1.00  0.00     0.023 C 
HETATM   33  C22 UNL     1     -25.129   9.213   0.853  1.00  0.00     0.023 C 
ENDBRANCH  28  30
ENDBRANCH   1  28
TORSDOF 7
ENDMDL
MODEL 3
REMARK VINA RESULT: -9.255588981      1.768      4.633
REMARK  7 active torsions:
REMARK  status: ('A' for Active; 'I' for Inactive)
REMARK    1  A    between atoms: C2_2  and  C4_4 
REMARK    2  A    between atoms: C6_10  and  C7_11 
REMARK    3  A    between atoms: C7_11  and  C8_12 
REMARK    4  A    between atoms: C8_12  and  N3_13 
REMARK    5  A    between atoms: C8_12  and  C18_28 
REMARK       I    between atoms: N3_13  and  C9_15 
REMARK       I    between atoms: C9_15  and  N4_17 
REMARK    6  A    between atoms: N4_17  and  C10_19 
REMARK    7  A    between atoms: C18_28  and  C19_30 
ROOT
HETATM    1  C8  UNL     1     -25.620   6.724  -2.394  1.00  0.00     0.085 C 
ENDROOT
BRANCH   1   2
HETATM    2  C7  UNL     1     -24.718   6.963  -1.276  1.00  0.00     0.065 C 
BRANCH   2   3
HETATM    3  C6  UNL     1     -24.939   8.037  -0.313  1.00  0.00     0.058 A 
HETATM    4  C4  UNL     1     -25.555   7.803   0.930  1.00  0.00    -0.010 A 
HETATM    5  C5  UNL     1     -25.632   9.011   1.562  1.00  0.00     0.117 A 
HETATM    6  N1  UNL     1     -25.090   9.902   0.722  1.00  0.00    -0.311 N 
HETATM    7  N2  UNL     1     -24.677   9.347  -0.381  1.00  0.00    -0.301 N 
ATOM      8  H1  UNL     1     -25.010  10.899   0.923  1.00  0.00     0.186 HD
ATOM      9  H2  UNL     1     -24.232   9.828  -1.162  1.00  0.00     0.187 HD
BRANCH   4  10
HETATM   10  C2  UNL     1     -26.041   6.467   1.412  1.00  0.00     0.014 C 
HETATM   11  C1  UNL     1     -26.027   6.510   2.932  1.00  0.00     0.015 C 
HETATM   12  C3  UNL     1     -27.488   6.244   1.030  1.00  0.00     0.015 C 
ENDBRANCH   4  10
ENDBRANCH   2   3
ENDBRANCH   1   2
BRANCH   1  13
HETATM   13  N3  UNL     1     -26.139   5.373  -2.219  1.00  0.00    -0.306 N 
HETATM   14  C9  UNL     1     -25.516   4.183  -1.863  1.00  0.00     0.321 C 
HETATM   15  O1  UNL     1     -24.315   4.198  -1.583  1.00  0.00    -0.247 OA
HETATM   16  N4  UNL     1     -26.280   2.954  -1.833  1.00  0.00    -0.338 N 
ATOM     17  H4  UNL     1     -27.269   2.975  -2.079  1.00  0.00     0.164 HD
ATOM     18  H3  UNL     1     -27.140   5.286  -2.389  1.00  0.00     0.171 HD
BRANCH  16  19
HETATM   19  C10 UNL     1     -25.682   1.725  -1.468  1.00  0.00     0.090 C 
HETATM   20  C11 UNL     1     -26.804   0.706  -1.260  1.00  0.00     0.055 C 
HETATM   21  C12 UNL     1     -26.110  -0.565  -0.799  1.00  0.00     0.275 C 
HETATM   22  N5  UNL     1     -25.202  -1.061  -1.811  1.00  0.00     0.093 N 
HETATM   23  C13 UNL     1     -25.920  -1.697  -2.905  1.00  0.00     0.310 C 
HETATM   24  C14 UNL     1     -24.238  -0.098  -2.264  1.00  0.00     0.154 C 
HETATM   25  C15 UNL     1     -23.172   0.197  -1.233  1.00  0.00     0.049 C 
HETATM   26  C16 UNL     1     -23.593  -0.660  -3.510  1.00  0.00     0.049 C 
HETATM   27  C17 UNL     1     -24.857   1.247  -2.630  1.00  0.00     0.066 C 
ENDBRANCH  16  19
ENDBRANCH   1  13
BRANCH   1  28
HETATM   28  C18 UNL     1     -25.361   7.037  -3.775  1.00  0.00     0.183 C 
HETATM   29  O2  UNL     1     -25.627   8.224  -4.142  1.00  0.00    -0.290 OA
BRANCH  28  30
HETATM   30  C19 UNL     1     -24.849   6.209  -4.878  1.00  0.00     0.016 C 
HETATM   31  C20 UNL     1     -24.591   7.162  -6.093  1.00  0.00     0.023 C 
HETATM   32  C21 UNL     1     -25.738   5.116  -5.373  1.00  0.00     0.023 C 
HETATM   33  C22 UNL     1     -23.493   5.592  -4.574  1.00  0.00     0.023 C 
ENDBRANCH  28  30
ENDBRANCH   1  28
TORSDOF 7
ENDMDL
MODEL 4
REMARK VINA RESULT: -9.242095632      3.587      8.850
REMARK  7 active torsions:
REMARK  status: ('A' for Active; 'I' for Inactive)
REMARK    1  A    between atoms: C2_2  and  C4_4 
REMARK    2  A    between atoms: C6_10  and  C7_11 
REMARK    3  A    between atoms: C7_11  and  C8_12 
REMARK    4  A    between atoms: C8_12  and  N3_13 
REMARK    5  A    between atoms: C8_12  and  C18_28 
REMARK       I    between atoms: N3_13  and  C9_15 
REMARK       I    between atoms: C9_15  and  N4_17 
REMARK    6  A    between atoms: N4_17  and  C10_19 
REMARK    7  A    between atoms: C18_28  and  C19_30 
ROOT
HETATM    1  C8  UNL     1     -24.261   7.090  -2.417  1.00  0.00     0.085 C 
ENDROOT
BRANCH   1   2
HETATM    2  C7  UNL     1     -25.312   7.181  -1.412  1.00  0.00     0.065 C 
BRANCH   2   3
HETATM    3  C6  UNL     1     -25.271   8.159  -0.330  1.00  0.00     0.058 A 
HETATM    4  C4  UNL     1     -25.665   7.831   0.981  1.00  0.00    -0.010 A 
HETATM    5  C5  UNL     1     -25.534   8.969   1.725  1.00  0.00     0.117 A 
HETATM    6  N1  UNL     1     -25.090   9.912   0.883  1.00  0.00    -0.311 N 
HETATM    7  N2  UNL     1     -24.929   9.452  -0.325  1.00  0.00    -0.301 N 
ATOM      8  H1  UNL     1     -24.899  10.875   1.156  1.00  0.00     0.186 HD
ATOM      9  H2  UNL     1     -24.600   9.986  -1.129  1.00  0.00     0.187 HD
BRANCH   4  10
HETATM   10  C2  UNL     1     -26.154   6.482   1.421  1.00  0.00     0.014 C 
HETATM   11  C1  UNL     1     -26.100   6.463   2.940  1.00  0.00     0.015 C 
HETATM   12  C3  UNL     1     -27.613   6.290   1.069  1.00  0.00     0.015 C 
ENDBRANCH   4  10
ENDBRANCH   2   3
ENDBRANCH   1   2
BRANCH   1  13
HETATM   13  N3  UNL     1     -24.251   8.370  -3.115  1.00  0.00    -0.306 N 
HETATM   14  C9  UNL     1     -25.208   9.001  -3.900  1.00  0.00     0.321 C 
HETATM   15  O1  UNL     1     -26.311   8.468  -4.042  1.00  0.00    -0.247 OA
HETATM   16  N4  UNL     1     -24.895  10.262  -4.537  1.00  0.00    -0.338 N 
ATOM     17  H4  UNL     1     -23.970  10.672  -4.407  1.00  0.00     0.164 HD
ATOM     18  H3  UNL     1     -23.385   8.897  -3.009  1.00  0.00     0.171 HD
BRANCH  16  19
HETATM   19  C10 UNL     1     -25.846  10.939  -5.337  1.00  0.00     0.090 C 
HETATM   20  C11 UNL     1     -26.186  12.257  -4.641  1.00  0.00     0.055 C 
HETATM   21  C12 UNL     1     -27.261  12.900  -5.502  1.00  0.00     0.275 C 
HETATM   22  N5  UNL     1     -26.765  13.181  -6.832  1.00  0.00     0.093 N 
HETATM   23  C13 UNL     1     -25.887  14.341  -6.838  1.00  0.00     0.310 C 
HETATM   24  C14 UNL     1     -26.195  12.048  -7.504  1.00  0.00     0.154 C 
HETATM   25  C15 UNL     1     -27.232  11.037  -7.937  1.00  0.00     0.049 C 
HETATM   26  C16 UNL     1     -25.459  12.568  -8.717  1.00  0.00     0.049 C 
HETATM   27  C17 UNL     1     -25.191  11.283  -6.646  1.00  0.00     0.066 C 
ENDBRANCH  16  19
ENDBRANCH   1  13
BRANCH   1  28
HETATM   28  C18 UNL     1     -24.029   5.980  -3.303  1.00  0.00     0.183 C 
HETATM   29  O2  UNL     1     -22.908   5.963  -3.900  1.00  0.00    -0.290 OA
BRANCH  28  30
HETATM   30  C19 UNL     1     -24.880   4.838  -3.672  1.00  0.00     0.016 C 
HETATM   31  C20 UNL     1     -25.588   5.203  -5.020  1.00  0.00     0.023 C 
HETATM   32  C21 UNL     1     -25.958   4.460  -2.711  1.00  0.00     0.023 C 
HETATM   33  C22 UNL     1     -24.082   3.581  -3.982  1.00  0.00     0.023 C 
ENDBRANCH  28  30
ENDBRANCH   1  28
TORSDOF 7
ENDMDL
MODEL 5
REMARK VINA RESULT: -9.227194513      2.877      8.195
REMARK  7 active torsions:
REMARK  status: ('A' for Active; 'I' for Inactive)
REMARK    1  A    between atoms: C2_2  and  C4_4 
REMARK    2  A    between atoms: C6_10  and  C7_11 
REMARK    3  A    between atoms: C7_11  and  C8_12 
REMARK    4  A    between atoms: C8_12  and  N3_13 
REMARK    5  A    between atoms: C8_12  and  C18_28 
REMARK       I    between atoms: N3_13  and  C9_15 
REMARK       I    between atoms: C9_15  and  N4_17 
REMARK    6  A    between atoms: N4_17  and  C10_19 
REMARK    7  A    between atoms: C18_28  and  C19_30 
ROOT
HETATM    1  C8  UNL     1     -25.423   7.821  -1.415  1.00  0.00     0.085 C 
ENDROOT
BRANCH   1   2
HETATM    2  C7  UNL     1     -26.014   6.613  -1.974  1.00  0.00     0.065 C 
BRANCH   2   3
HETATM    3  C6  UNL     1     -25.228   5.412  -2.238  1.00  0.00     0.058 A 
HETATM    4  C4  UNL     1     -24.961   4.974  -3.548  1.00  0.00    -0.010 A 
HETATM    5  C5  UNL     1     -24.237   3.821  -3.435  1.00  0.00     0.117 A 
HETATM    6  N1  UNL     1     -24.097   3.601  -2.121  1.00  0.00    -0.311 N 
HETATM    7  N2  UNL     1     -24.671   4.525  -1.406  1.00  0.00    -0.301 N 
ATOM      8  H1  UNL     1     -23.599   2.803  -1.727  1.00  0.00     0.186 HD
ATOM      9  H2  UNL     1     -24.692   4.566  -0.387  1.00  0.00     0.187 HD
BRANCH   4  10
HETATM   10  C2  UNL     1     -25.426   5.663  -4.798  1.00  0.00     0.014 C 
HETATM   11  C1  UNL     1     -24.262   6.497  -5.306  1.00  0.00     0.015 C 
HETATM   12  C3  UNL     1     -25.712   4.661  -5.896  1.00  0.00     0.015 C 
ENDBRANCH   4  10
ENDBRANCH   2   3
ENDBRANCH   1   2
BRANCH   1  13
HETATM   13  N3  UNL     1     -25.094   8.678  -2.547  1.00  0.00    -0.306 N 
HETATM   14  C9  UNL     1     -25.895   9.417  -3.410  1.00  0.00     0.321 C 
HETATM   15  O1  UNL     1     -27.114   9.441  -3.220  1.00  0.00    -0.247 OA
HETATM   16  N4  UNL     1     -25.291  10.137  -4.510  1.00  0.00    -0.338 N 
ATOM     17  H4  UNL     1     -24.281  10.088  -4.644  1.00  0.00     0.164 HD
ATOM     18  H3  UNL     1     -24.096   8.748  -2.742  1.00  0.00     0.171 HD
BRANCH  16  19
HETATM   19  C10 UNL     1     -26.073  10.906  -5.404  1.00  0.00     0.090 C 
HETATM   20  C11 UNL     1     -26.260  12.291  -4.784  1.00  0.00     0.055 C 
HETATM   21  C12 UNL     1     -27.165  13.042  -5.747  1.00  0.00     0.275 C 
HETATM   22  N5  UNL     1     -26.542  13.185  -7.045  1.00  0.00     0.093 N 
HETATM   23  C13 UNL     1     -25.502  14.202  -7.028  1.00  0.00     0.310 C 
HETATM   24  C14 UNL     1     -26.101  11.950  -7.630  1.00  0.00     0.154 C 
HETATM   25  C15 UNL     1     -27.245  11.082  -8.103  1.00  0.00     0.049 C 
HETATM   26  C16 UNL     1     -25.213  12.299  -8.802  1.00  0.00     0.049 C 
HETATM   27  C17 UNL     1     -25.285  11.089  -6.672  1.00  0.00     0.066 C 
ENDBRANCH  16  19
ENDBRANCH   1  13
BRANCH   1  28
HETATM   28  C18 UNL     1     -24.426   7.877  -0.377  1.00  0.00     0.183 C 
HETATM   29  O2  UNL     1     -23.216   7.858  -0.760  1.00  0.00    -0.290 OA
BRANCH  28  30
HETATM   30  C19 UNL     1     -24.553   7.936   1.087  1.00  0.00     0.016 C 
HETATM   31  C20 UNL     1     -25.343   9.242   1.433  1.00  0.00     0.023 C 
HETATM   32  C21 UNL     1     -23.286   7.980   1.875  1.00  0.00     0.023 C 
HETATM   33  C22 UNL     1     -25.403   6.809   1.653  1.00  0.00     0.023 C 
ENDBRANCH  28  30
ENDBRANCH   1  28
TORSDOF 7
ENDMDL
