MODEL 1
REMARK VINA RESULT: -10.046906772      0.000      0.000
REMARK  13 active torsions:
REMARK  status: ('A' for Active; 'I' for Inactive)
REMARK    1  A    between atoms: C2_2  and  N1_3 
REMARK       I    between atoms: N1_3  and  C3_5 
REMARK    2  A    between atoms: C3_5  and  C4_7 
REMARK    3  A    between atoms: C4_7  and  N2_8 
REMARK       I    between atoms: N2_8  and  C5_10 
REMARK    4  A    between atoms: C5_10  and  C6_12 
REMARK       I    between atoms: N3_17  and  C11_18 
REMARK    5  A    between atoms: C11_18  and  C12_20 
REMARK    6  A    between atoms: C12_20  and  N4_21 
REMARK    7  A    between atoms: C12_20  and  C25_42 
REMARK       I    between atoms: N4_21  and  C13_23 
REMARK    8  A    between atoms: C13_23  and  C14_25 
REMARK    9  A    between atoms: C14_25  and  C15_26 
REMARK   10  A    between atoms: C15_26  and  C16_27 
REMARK       I    between atoms: C16_27  and  N5_29 
REMARK   11  A    between atoms: C20_33  and  C21_34 
REMARK       I    between atoms: C21_34  and  N6_36 
REMARK   12  A    between atoms: N6_36  and  C23_38 
REMARK   13  A    between atoms: C23_38  and  C24_39 
ROOT
HETATM    1  C12 UNL     1      21.952  11.864  25.319  1.00  0.00     0.184 C 
ENDROOT
BRANCH   1   2
HETATM    2  C11 UNL     1      20.689  12.385  25.819  1.00  0.00     0.244 C 
HETATM    3  N3  UNL     1      20.135  12.175  27.065  1.00  0.00    -0.337 N 
HETATM    4  C6  UNL     1      18.825  12.575  27.536  1.00  0.00     0.179 C 
HETATM    5  C10 UNL     1      20.959  11.599  28.157  1.00  0.00     0.127 C 
HETATM    6  C7  UNL     1      19.029  13.937  28.165  1.00  0.00     0.035 C 
HETATM    7  C8  UNL     1      20.331  13.891  28.939  1.00  0.00     0.004 C 
HETATM    8  C9  UNL     1      20.656  12.488  29.399  1.00  0.00     0.020 C 
HETATM    9  O3  UNL     1      20.032  13.122  24.993  1.00  0.00    -0.271 OA
BRANCH   4  10
HETATM   10  C5  UNL     1      17.711  12.454  26.616  1.00  0.00     0.241 C 
HETATM   11  N2  UNL     1      17.091  11.284  26.142  1.00  0.00    -0.341 N 
ATOM     12  H2  UNL     1      17.470  10.400  26.482  1.00  0.00     0.163 HD
HETATM   13  O2  UNL     1      17.218  13.557  26.178  1.00  0.00    -0.271 OA
BRANCH  11  14
HETATM   14  C4  UNL     1      15.995  11.197  25.242  1.00  0.00     0.114 C 
HETATM   15  C29 UNL     1      15.160   9.947  25.464  1.00  0.00     0.041 C 
HETATM   16  C30 UNL     1      15.714   8.939  24.483  1.00  0.00     0.003 C 
HETATM   17  C31 UNL     1      16.084   9.754  23.277  1.00  0.00     0.003 C 
HETATM   18  C32 UNL     1      16.531  11.068  23.822  1.00  0.00     0.041 C 
BRANCH  14  19
HETATM   19  C3  UNL     1      15.050  12.332  25.273  1.00  0.00     0.246 C 
HETATM   20  N1  UNL     1      15.027  13.343  24.287  1.00  0.00    -0.359 N 
ATOM     21  H1  UNL     1      15.702  13.272  23.525  1.00  0.00     0.162 HD
HETATM   22  O1  UNL     1      14.217  12.431  26.204  1.00  0.00    -0.271 OA
BRANCH  20  23
HETATM   23  C2  UNL     1      14.134  14.455  24.275  1.00  0.00     0.118 C 
HETATM   24  C1  UNL     1      14.788  15.757  23.925  1.00  0.00     0.026 C 
ENDBRANCH  20  23
ENDBRANCH  14  19
ENDBRANCH  11  14
ENDBRANCH   4  10
ENDBRANCH   1   2
BRANCH   1  25
HETATM   25  N4  UNL     1      22.784  12.964  24.770  1.00  0.00    -0.347 N 
HETATM   26  C13 UNL     1      23.524  13.833  25.596  1.00  0.00     0.218 C 
HETATM   27  O4  UNL     1      23.481  13.660  26.836  1.00  0.00    -0.274 OA
ATOM     28  H4  UNL     1      22.820  13.095  23.759  1.00  0.00     0.163 HD
BRANCH  26  29
HETATM   29  C14 UNL     1      24.326  14.913  25.021  1.00  0.00     0.112 C 
BRANCH  29  30
HETATM   30  C15 UNL     1      25.742  14.533  24.793  1.00  0.00     0.112 C 
BRANCH  30  31
HETATM   31  C16 UNL     1      26.053  13.932  23.483  1.00  0.00     0.221 C 
HETATM   32  O5  UNL     1      25.156  13.562  22.704  1.00  0.00    -0.273 OA
HETATM   33  N5  UNL     1      27.410  13.783  23.126  1.00  0.00    -0.339 N 
HETATM   34  C17 UNL     1      28.556  14.147  23.920  1.00  0.00     0.127 C 
HETATM   35  C20 UNL     1      27.912  13.246  21.893  1.00  0.00     0.179 C 
HETATM   36  C18 UNL     1      29.522  14.737  22.896  1.00  0.00     0.022 C 
HETATM   37  C19 UNL     1      29.133  14.128  21.591  1.00  0.00     0.037 C 
BRANCH  35  38
HETATM   38  C21 UNL     1      28.374  11.857  22.021  1.00  0.00     0.242 C 
HETATM   39  O6  UNL     1      29.078  11.454  22.993  1.00  0.00    -0.271 OA
HETATM   40  N6  UNL     1      28.042  10.894  21.047  1.00  0.00    -0.350 N 
HETATM   41  C22 UNL     1      28.541   9.506  21.152  1.00  0.00     0.152 C 
BRANCH  40  42
HETATM   42  C23 UNL     1      27.196  11.203  19.943  1.00  0.00     0.196 C 
BRANCH  42  43
HETATM   43  C24 UNL     1      25.864  10.456  20.002  1.00  0.00     0.370 C 
HETATM   44  F1  UNL     1      25.299  10.332  18.754  1.00  0.00    -0.213 F 
HETATM   45  F2  UNL     1      25.041  11.192  20.852  1.00  0.00    -0.213 F 
ENDBRANCH  42  43
ENDBRANCH  40  42
ENDBRANCH  35  38
ENDBRANCH  30  31
ENDBRANCH  29  30
ENDBRANCH  26  29
ENDBRANCH   1  25
BRANCH   1  46
HETATM   46  C25 UNL     1      21.796  10.878  24.174  1.00  0.00    -0.022 C 
HETATM   47  C26 UNL     1      20.426  10.313  24.028  1.00  0.00     0.017 C 
HETATM   48  C27 UNL     1      22.759   9.706  24.371  1.00  0.00     0.017 C 
HETATM   49  C28 UNL     1      22.199  11.528  22.868  1.00  0.00     0.017 C 
ENDBRANCH   1  46
TORSDOF 13
ENDMDL
MODEL 2
REMARK VINA RESULT: -9.686760202      0.918      2.213
REMARK  13 active torsions:
REMARK  status: ('A' for Active; 'I' for Inactive)
REMARK    1  A    between atoms: C2_2  and  N1_3 
REMARK       I    between atoms: N1_3  and  C3_5 
REMARK    2  A    between atoms: C3_5  and  C4_7 
REMARK    3  A    between atoms: C4_7  and  N2_8 
REMARK       I    between atoms: N2_8  and  C5_10 
REMARK    4  A    between atoms: C5_10  and  C6_12 
REMARK       I    between atoms: N3_17  and  C11_18 
REMARK    5  A    between atoms: C11_18  and  C12_20 
REMARK    6  A    between atoms: C12_20  and  N4_21 
REMARK    7  A    between atoms: C12_20  and  C25_42 
REMARK       I    between atoms: N4_21  and  C13_23 
REMARK    8  A    between atoms: C13_23  and  C14_25 
REMARK    9  A    between atoms: C14_25  and  C15_26 
REMARK   10  A    between atoms: C15_26  and  C16_27 
REMARK       I    between atoms: C16_27  and  N5_29 
REMARK   11  A    between atoms: C20_33  and  C21_34 
REMARK       I    between atoms: C21_34  and  N6_36 
REMARK   12  A    between atoms: N6_36  and  C23_38 
REMARK   13  A    between atoms: C23_38  and  C24_39 
ROOT
HETATM    1  C12 UNL     1      21.958  11.861  25.382  1.00  0.00     0.184 C 
ENDROOT
BRANCH   1   2
HETATM    2  C11 UNL     1      20.709  12.400  25.900  1.00  0.00     0.244 C 
HETATM    3  N3  UNL     1      20.180  12.214  27.162  1.00  0.00    -0.337 N 
HETATM    4  C6  UNL     1      18.884  12.631  27.654  1.00  0.00     0.179 C 
HETATM    5  C10 UNL     1      21.024  11.650  28.245  1.00  0.00     0.127 C 
HETATM    6  C7  UNL     1      19.111  14.002  28.256  1.00  0.00     0.035 C 
HETATM    7  C8  UNL     1      20.429  13.960  29.002  1.00  0.00     0.004 C 
HETATM    8  C9  UNL     1      20.754  12.562  29.479  1.00  0.00     0.020 C 
HETATM    9  O3  UNL     1      20.040  13.128  25.077  1.00  0.00    -0.271 OA
BRANCH   4  10
HETATM   10  C5  UNL     1      17.750  12.504  26.760  1.00  0.00     0.241 C 
HETATM   11  N2  UNL     1      17.108  13.507  26.012  1.00  0.00    -0.341 N 
ATOM     12  H2  UNL     1      17.482  14.452  26.106  1.00  0.00     0.163 HD
HETATM   13  O2  UNL     1      17.267  11.320  26.625  1.00  0.00    -0.271 OA
BRANCH  11  14
HETATM   14  C4  UNL     1      15.999  13.350  25.139  1.00  0.00     0.114 C 
HETATM   15  C29 UNL     1      15.819  14.540  24.210  1.00  0.00     0.041 C 
HETATM   16  C30 UNL     1      14.815  15.425  24.912  1.00  0.00     0.003 C 
HETATM   17  C31 UNL     1      13.874  14.464  25.583  1.00  0.00     0.003 C 
HETATM   18  C32 UNL     1      14.722  13.299  25.968  1.00  0.00     0.041 C 
BRANCH  14  19
HETATM   19  C3  UNL     1      16.031  12.155  24.272  1.00  0.00     0.246 C 
HETATM   20  N1  UNL     1      15.279  10.989  24.539  1.00  0.00    -0.359 N 
ATOM     21  H1  UNL     1      14.692  10.989  25.374  1.00  0.00     0.162 HD
HETATM   22  O1  UNL     1      16.747  12.142  23.244  1.00  0.00    -0.271 OA
BRANCH  20  23
HETATM   23  C2  UNL     1      15.276   9.813  23.732  1.00  0.00     0.118 C 
HETATM   24  C1  UNL     1      15.484   8.545  24.503  1.00  0.00     0.026 C 
ENDBRANCH  20  23
ENDBRANCH  14  19
ENDBRANCH  11  14
ENDBRANCH   4  10
ENDBRANCH   1   2
BRANCH   1  25
HETATM   25  N4  UNL     1      22.802  12.952  24.832  1.00  0.00    -0.347 N 
HETATM   26  C13 UNL     1      23.492  13.860  25.659  1.00  0.00     0.218 C 
HETATM   27  O4  UNL     1      23.394  13.732  26.901  1.00  0.00    -0.274 OA
ATOM     28  H4  UNL     1      22.884  13.046  23.820  1.00  0.00     0.163 HD
BRANCH  26  29
HETATM   29  C14 UNL     1      24.308  14.929  25.081  1.00  0.00     0.112 C 
BRANCH  29  30
HETATM   30  C15 UNL     1      25.720  14.530  24.855  1.00  0.00     0.112 C 
BRANCH  30  31
HETATM   31  C16 UNL     1      26.029  13.952  23.534  1.00  0.00     0.221 C 
HETATM   32  O5  UNL     1      25.132  13.589  22.753  1.00  0.00    -0.273 OA
HETATM   33  N5  UNL     1      27.386  13.817  23.171  1.00  0.00    -0.339 N 
HETATM   34  C17 UNL     1      28.533  14.175  23.966  1.00  0.00     0.127 C 
HETATM   35  C20 UNL     1      27.887  13.302  21.927  1.00  0.00     0.179 C 
HETATM   36  C18 UNL     1      29.491  14.787  22.948  1.00  0.00     0.022 C 
HETATM   37  C19 UNL     1      29.101  14.197  21.635  1.00  0.00     0.037 C 
BRANCH  35  38
HETATM   38  C21 UNL     1      28.357  11.914  22.032  1.00  0.00     0.242 C 
HETATM   39  O6  UNL     1      29.075  11.503  22.990  1.00  0.00    -0.271 OA
HETATM   40  N6  UNL     1      28.019  10.963  21.050  1.00  0.00    -0.350 N 
HETATM   41  C22 UNL     1      28.527   9.575  21.130  1.00  0.00     0.152 C 
BRANCH  40  42
HETATM   42  C23 UNL     1      27.158  11.281  19.960  1.00  0.00     0.196 C 
BRANCH  42  43
HETATM   43  C24 UNL     1      25.849  10.493  20.001  1.00  0.00     0.370 C 
HETATM   44  F1  UNL     1      25.295  10.369  18.748  1.00  0.00    -0.213 F 
HETATM   45  F2  UNL     1      25.000  11.192  20.856  1.00  0.00    -0.213 F 
ENDBRANCH  42  43
ENDBRANCH  40  42
ENDBRANCH  35  38
ENDBRANCH  30  31
ENDBRANCH  29  30
ENDBRANCH  26  29
ENDBRANCH   1  25
BRANCH   1  46
HETATM   46  C25 UNL     1      21.773  10.887  24.233  1.00  0.00    -0.022 C 
HETATM   47  C26 UNL     1      20.397  10.332  24.110  1.00  0.00     0.017 C 
HETATM   48  C27 UNL     1      22.732   9.707  24.399  1.00  0.00     0.017 C 
HETATM   49  C28 UNL     1      22.153  11.546  22.924  1.00  0.00     0.017 C 
ENDBRANCH   1  46
TORSDOF 13
ENDMDL
MODEL 3
REMARK VINA RESULT: -9.422619705      2.946     10.779
REMARK  13 active torsions:
REMARK  status: ('A' for Active; 'I' for Inactive)
REMARK    1  A    between atoms: C2_2  and  N1_3 
REMARK       I    between atoms: N1_3  and  C3_5 
REMARK    2  A    between atoms: C3_5  and  C4_7 
REMARK    3  A    between atoms: C4_7  and  N2_8 
REMARK       I    between atoms: N2_8  and  C5_10 
REMARK    4  A    between atoms: C5_10  and  C6_12 
REMARK       I    between atoms: N3_17  and  C11_18 
REMARK    5  A    between atoms: C11_18  and  C12_20 
REMARK    6  A    between atoms: C12_20  and  N4_21 
REMARK    7  A    between atoms: C12_20  and  C25_42 
REMARK       I    between atoms: N4_21  and  C13_23 
REMARK    8  A    between atoms: C13_23  and  C14_25 
REMARK    9  A    between atoms: C14_25  and  C15_26 
REMARK   10  A    between atoms: C15_26  and  C16_27 
REMARK       I    between atoms: C16_27  and  N5_29 
REMARK   11  A    between atoms: C20_33  and  C21_34 
REMARK       I    between atoms: C21_34  and  N6_36 
REMARK   12  A    between atoms: N6_36  and  C23_38 
REMARK   13  A    between atoms: C23_38  and  C24_39 
ROOT
HETATM    1  C12 UNL     1      25.117  12.276  20.323  1.00  0.00     0.184 C 
ENDROOT
BRANCH   1   2
HETATM    2  C11 UNL     1      26.460  12.577  20.796  1.00  0.00     0.244 C 
HETATM    3  N3  UNL     1      27.345  11.708  21.400  1.00  0.00    -0.337 N 
HETATM    4  C6  UNL     1      28.631  12.015  21.992  1.00  0.00     0.179 C 
HETATM    5  C10 UNL     1      27.094  10.245  21.361  1.00  0.00     0.127 C 
HETATM    6  C7  UNL     1      29.637  11.824  20.877  1.00  0.00     0.035 C 
HETATM    7  C8  UNL     1      29.232  10.584  20.105  1.00  0.00     0.004 C 
HETATM    8  C9  UNL     1      28.464   9.613  20.974  1.00  0.00     0.020 C 
HETATM    9  O3  UNL     1      26.846  13.792  20.622  1.00  0.00    -0.271 OA
BRANCH   4  10
HETATM   10  C5  UNL     1      28.746  13.242  22.756  1.00  0.00     0.241 C 
HETATM   11  N2  UNL     1      27.803  13.825  23.622  1.00  0.00    -0.341 N 
ATOM     12  H2  UNL     1      26.919  13.328  23.731  1.00  0.00     0.163 HD
HETATM   13  O2  UNL     1      29.854  13.882  22.633  1.00  0.00    -0.271 OA
BRANCH  11  14
HETATM   14  C4  UNL     1      27.947  15.030  24.361  1.00  0.00     0.114 C 
HETATM   15  C29 UNL     1      26.861  15.198  25.412  1.00  0.00     0.041 C 
HETATM   16  C30 UNL     1      25.804  16.040  24.737  1.00  0.00     0.003 C 
HETATM   17  C31 UNL     1      26.579  16.988  23.866  1.00  0.00     0.003 C 
HETATM   18  C32 UNL     1      27.771  16.212  23.418  1.00  0.00     0.041 C 
BRANCH  14  19
HETATM   19  C3  UNL     1      29.233  15.196  25.070  1.00  0.00     0.246 C 
HETATM   20  N1  UNL     1      30.289  15.990  24.573  1.00  0.00    -0.359 N 
ATOM     21  H1  UNL     1      30.142  16.464  23.681  1.00  0.00     0.162 HD
HETATM   22  O1  UNL     1      29.426  14.619  26.165  1.00  0.00    -0.271 OA
BRANCH  20  23
HETATM   23  C2  UNL     1      31.545  16.181  25.221  1.00  0.00     0.118 C 
HETATM   24  C1  UNL     1      32.730  15.974  24.327  1.00  0.00     0.026 C 
ENDBRANCH  20  23
ENDBRANCH  14  19
ENDBRANCH  11  14
ENDBRANCH   4  10
ENDBRANCH   1   2
BRANCH   1  25
HETATM   25  N4  UNL     1      24.558  11.117  21.063  1.00  0.00    -0.347 N 
HETATM   26  C13 UNL     1      23.367  11.204  21.811  1.00  0.00     0.218 C 
HETATM   27  O4  UNL     1      22.760  12.299  21.842  1.00  0.00    -0.274 OA
ATOM     28  H4  UNL     1      25.053  10.226  21.028  1.00  0.00     0.163 HD
BRANCH  26  29
HETATM   29  C14 UNL     1      22.849  10.042  22.536  1.00  0.00     0.112 C 
BRANCH  29  30
HETATM   30  C15 UNL     1      22.501  10.342  23.947  1.00  0.00     0.112 C 
BRANCH  30  31
HETATM   31  C16 UNL     1      21.069  10.271  24.293  1.00  0.00     0.221 C 
HETATM   32  O5  UNL     1      20.304   9.456  23.747  1.00  0.00    -0.273 OA
HETATM   33  N5  UNL     1      20.579  11.161  25.271  1.00  0.00    -0.339 N 
HETATM   34  C17 UNL     1      21.331  12.166  25.980  1.00  0.00     0.127 C 
HETATM   35  C20 UNL     1      19.230  11.232  25.759  1.00  0.00     0.179 C 
HETATM   36  C18 UNL     1      20.779  12.083  27.401  1.00  0.00     0.022 C 
HETATM   37  C19 UNL     1      19.408  11.515  27.258  1.00  0.00     0.037 C 
BRANCH  35  38
HETATM   38  C21 UNL     1      18.467  12.342  25.172  1.00  0.00     0.242 C 
HETATM   39  O6  UNL     1      19.013  13.406  24.756  1.00  0.00    -0.271 OA
HETATM   40  N6  UNL     1      17.067  12.265  25.042  1.00  0.00    -0.350 N 
HETATM   41  C22 UNL     1      16.292  13.399  24.491  1.00  0.00     0.152 C 
BRANCH  40  42
HETATM   42  C23 UNL     1      16.342  11.094  25.405  1.00  0.00     0.196 C 
BRANCH  42  43
HETATM   43  C24 UNL     1      15.696  10.410  24.200  1.00  0.00     0.370 C 
HETATM   44  F1  UNL     1      14.894   9.360  24.585  1.00  0.00    -0.213 F 
HETATM   45  F2  UNL     1      16.744   9.969  23.394  1.00  0.00    -0.213 F 
ENDBRANCH  42  43
ENDBRANCH  40  42
ENDBRANCH  35  38
ENDBRANCH  30  31
ENDBRANCH  29  30
ENDBRANCH  26  29
ENDBRANCH   1  25
BRANCH   1  46
HETATM   46  C25 UNL     1      25.059  11.876  18.860  1.00  0.00    -0.022 C 
HETATM   47  C26 UNL     1      26.363  11.960  18.145  1.00  0.00     0.017 C 
HETATM   48  C27 UNL     1      24.069  12.776  18.119  1.00  0.00     0.017 C 
HETATM   49  C28 UNL     1      24.518  10.469  18.725  1.00  0.00     0.017 C 
ENDBRANCH   1  46
TORSDOF 13
ENDMDL
MODEL 4
REMARK VINA RESULT: -9.254440664      2.862     10.024
REMARK  13 active torsions:
REMARK  status: ('A' for Active; 'I' for Inactive)
REMARK    1  A    between atoms: C2_2  and  N1_3 
REMARK       I    between atoms: N1_3  and  C3_5 
REMARK    2  A    between atoms: C3_5  and  C4_7 
REMARK    3  A    between atoms: C4_7  and  N2_8 
REMARK       I    between atoms: N2_8  and  C5_10 
REMARK    4  A    between atoms: C5_10  and  C6_12 
REMARK       I    between atoms: N3_17  and  C11_18 
REMARK    5  A    between atoms: C11_18  and  C12_20 
REMARK    6  A    between atoms: C12_20  and  N4_21 
REMARK    7  A    between atoms: C12_20  and  C25_42 
REMARK       I    between atoms: N4_21  and  C13_23 
REMARK    8  A    between atoms: C13_23  and  C14_25 
REMARK    9  A    between atoms: C14_25  and  C15_26 
REMARK   10  A    between atoms: C15_26  and  C16_27 
REMARK       I    between atoms: C16_27  and  N5_29 
REMARK   11  A    between atoms: C20_33  and  C21_34 
REMARK       I    between atoms: C21_34  and  N6_36 
REMARK   12  A    between atoms: N6_36  and  C23_38 
REMARK   13  A    between atoms: C23_38  and  C24_39 
ROOT
HETATM    1  C12 UNL     1      23.010  13.355  24.575  1.00  0.00     0.184 C 
ENDROOT
BRANCH   1   2
HETATM    2  C11 UNL     1      24.422  13.575  24.299  1.00  0.00     0.244 C 
HETATM    3  N3  UNL     1      25.059  14.787  24.126  1.00  0.00    -0.337 N 
HETATM    4  C6  UNL     1      26.430  15.024  23.724  1.00  0.00     0.179 C 
HETATM    5  C10 UNL     1      24.373  16.047  24.509  1.00  0.00     0.127 C 
HETATM    6  C7  UNL     1      27.213  15.113  25.017  1.00  0.00     0.035 C 
HETATM    7  C8  UNL     1      26.375  15.901  26.004  1.00  0.00     0.004 C 
HETATM    8  C9  UNL     1      25.441  16.860  25.300  1.00  0.00     0.020 C 
HETATM    9  O3  UNL     1      25.138  12.510  24.208  1.00  0.00    -0.271 OA
BRANCH   4  10
HETATM   10  C5  UNL     1      26.988  14.169  22.695  1.00  0.00     0.241 C 
HETATM   11  N2  UNL     1      26.309  13.340  21.784  1.00  0.00    -0.341 N 
ATOM     12  H2  UNL     1      25.292  13.329  21.851  1.00  0.00     0.163 HD
HETATM   13  O2  UNL     1      28.269  14.171  22.592  1.00  0.00    -0.271 OA
BRANCH  11  14
HETATM   14  C4  UNL     1      26.885  12.515  20.781  1.00  0.00     0.114 C 
HETATM   15  C29 UNL     1      27.063  13.246  19.460  1.00  0.00     0.041 C 
HETATM   16  C30 UNL     1      25.823  12.907  18.665  1.00  0.00     0.003 C 
HETATM   17  C31 UNL     1      25.511  11.488  19.046  1.00  0.00     0.003 C 
HETATM   18  C32 UNL     1      25.929  11.370  20.473  1.00  0.00     0.041 C 
BRANCH  14  19
HETATM   19  C3  UNL     1      28.204  11.935  21.109  1.00  0.00     0.246 C 
HETATM   20  N1  UNL     1      28.402  11.024  22.170  1.00  0.00    -0.359 N 
ATOM     21  H1  UNL     1      27.587  10.767  22.727  1.00  0.00     0.162 HD
HETATM   22  O1  UNL     1      29.212  12.243  20.433  1.00  0.00    -0.271 OA
BRANCH  20  23
HETATM   23  C2  UNL     1      29.653  10.438  22.523  1.00  0.00     0.118 C 
HETATM   24  C1  UNL     1      29.536   9.076  23.137  1.00  0.00     0.026 C 
ENDBRANCH  20  23
ENDBRANCH  14  19
ENDBRANCH  11  14
ENDBRANCH   4  10
ENDBRANCH   1   2
BRANCH   1  25
HETATM   25  N4  UNL     1      22.840  12.690  25.891  1.00  0.00    -0.347 N 
HETATM   26  C13 UNL     1      22.554  13.411  27.067  1.00  0.00     0.218 C 
HETATM   27  O4  UNL     1      22.432  14.655  26.991  1.00  0.00    -0.274 OA
ATOM     28  H4  UNL     1      22.933  11.676  25.946  1.00  0.00     0.163 HD
BRANCH  26  29
HETATM   29  C14 UNL     1      22.401  12.724  28.351  1.00  0.00     0.112 C 
BRANCH  29  30
HETATM   30  C15 UNL     1      21.105  13.007  29.015  1.00  0.00     0.112 C 
BRANCH  30  31
HETATM   31  C16 UNL     1      19.915  12.371  28.418  1.00  0.00     0.221 C 
HETATM   32  O5  UNL     1      19.814  11.135  28.320  1.00  0.00    -0.273 OA
HETATM   33  N5  UNL     1      18.879  13.208  27.953  1.00  0.00    -0.339 N 
HETATM   34  C17 UNL     1      18.853  14.648  27.982  1.00  0.00     0.127 C 
HETATM   35  C20 UNL     1      17.639  12.782  27.365  1.00  0.00     0.179 C 
HETATM   36  C18 UNL     1      17.409  14.968  28.361  1.00  0.00     0.022 C 
HETATM   37  C19 UNL     1      16.617  13.780  27.930  1.00  0.00     0.037 C 
BRANCH  35  38
HETATM   38  C21 UNL     1      17.631  12.899  25.901  1.00  0.00     0.242 C 
HETATM   39  O6  UNL     1      18.032  13.934  25.292  1.00  0.00    -0.271 OA
HETATM   40  N6  UNL     1      17.168  11.840  25.096  1.00  0.00    -0.350 N 
HETATM   41  C22 UNL     1      17.119  11.971  23.623  1.00  0.00     0.152 C 
BRANCH  40  42
HETATM   42  C23 UNL     1      16.758  10.596  25.655  1.00  0.00     0.196 C 
BRANCH  42  43
HETATM   43  C24 UNL     1      15.554   9.997  24.927  1.00  0.00     0.370 C 
HETATM   44  F1  UNL     1      14.543   9.675  25.803  1.00  0.00    -0.213 F 
HETATM   45  F2  UNL     1      16.022   8.865  24.265  1.00  0.00    -0.213 F 
ENDBRANCH  42  43
ENDBRANCH  40  42
ENDBRANCH  35  38
ENDBRANCH  30  31
ENDBRANCH  29  30
ENDBRANCH  26  29
ENDBRANCH   1  25
BRANCH   1  46
HETATM   46  C25 UNL     1      22.328  12.436  23.578  1.00  0.00    -0.022 C 
HETATM   47  C26 UNL     1      22.599  12.763  22.150  1.00  0.00     0.017 C 
HETATM   48  C27 UNL     1      20.813  12.488  23.782  1.00  0.00     0.017 C 
HETATM   49  C28 UNL     1      22.730  10.999  23.834  1.00  0.00     0.017 C 
ENDBRANCH   1  46
TORSDOF 13
ENDMDL
MODEL 5
REMARK VINA RESULT: -9.169321933      2.911     10.604
REMARK  13 active torsions:
REMARK  status: ('A' for Active; 'I' for Inactive)
REMARK    1  A    between atoms: C2_2  and  N1_3 
REMARK       I    between atoms: N1_3  and  C3_5 
REMARK    2  A    between atoms: C3_5  and  C4_7 
REMARK    3  A    between atoms: C4_7  and  N2_8 
REMARK       I    between atoms: N2_8  and  C5_10 
REMARK    4  A    between atoms: C5_10  and  C6_12 
REMARK       I    between atoms: N3_17  and  C11_18 
REMARK    5  A    between atoms: C11_18  and  C12_20 
REMARK    6  A    between atoms: C12_20  and  N4_21 
REMARK    7  A    between atoms: C12_20  and  C25_42 
REMARK       I    between atoms: N4_21  and  C13_23 
REMARK    8  A    between atoms: C13_23  and  C14_25 
REMARK    9  A    between atoms: C14_25  and  C15_26 
REMARK   10  A    between atoms: C15_26  and  C16_27 
REMARK       I    between atoms: C16_27  and  N5_29 
REMARK   11  A    between atoms: C20_33  and  C21_34 
REMARK       I    between atoms: C21_34  and  N6_36 
REMARK   12  A    between atoms: N6_36  and  C23_38 
REMARK   13  A    between atoms: C23_38  and  C24_39 
ROOT
HETATM    1  C12 UNL     1      25.136  12.414  20.363  1.00  0.00     0.184 C 
ENDROOT
BRANCH   1   2
HETATM    2  C11 UNL     1      26.422  12.739  20.962  1.00  0.00     0.244 C 
HETATM    3  N3  UNL     1      27.331  11.859  21.515  1.00  0.00    -0.337 N 
HETATM    4  C6  UNL     1      28.551  12.172  22.229  1.00  0.00     0.179 C 
HETATM    5  C10 UNL     1      27.190  10.401  21.278  1.00  0.00     0.127 C 
HETATM    6  C7  UNL     1      29.636  12.191  21.173  1.00  0.00     0.035 C 
HETATM    7  C8  UNL     1      29.370  11.037  20.227  1.00  0.00     0.004 C 
HETATM    8  C9  UNL     1      28.625   9.914  20.914  1.00  0.00     0.020 C 
HETATM    9  O3  UNL     1      26.728  13.989  20.967  1.00  0.00    -0.271 OA
BRANCH   4  10
HETATM   10  C5  UNL     1      28.528  13.296  23.144  1.00  0.00     0.241 C 
HETATM   11  N2  UNL     1      29.144  14.552  23.002  1.00  0.00    -0.341 N 
ATOM     12  H2  UNL     1      29.682  14.700  22.148  1.00  0.00     0.163 HD
HETATM   13  O2  UNL     1      27.853  13.131  24.226  1.00  0.00    -0.271 OA
BRANCH  11  14
HETATM   14  C4  UNL     1      29.101  15.638  23.917  1.00  0.00     0.114 C 
HETATM   15  C29 UNL     1      29.784  16.882  23.373  1.00  0.00     0.041 C 
HETATM   16  C30 UNL     1      31.192  16.814  23.918  1.00  0.00     0.003 C 
HETATM   17  C31 UNL     1      31.035  16.216  25.287  1.00  0.00     0.003 C 
HETATM   18  C32 UNL     1      29.892  15.266  25.164  1.00  0.00     0.041 C 
BRANCH  14  19
HETATM   19  C3  UNL     1      27.751  16.064  24.341  1.00  0.00     0.246 C 
HETATM   20  N1  UNL     1      27.239  15.825  25.635  1.00  0.00    -0.359 N 
ATOM     21  H1  UNL     1      27.841  15.334  26.296  1.00  0.00     0.162 HD
HETATM   22  O1  UNL     1      27.001  16.667  23.539  1.00  0.00    -0.271 OA
BRANCH  20  23
HETATM   23  C2  UNL     1      25.945  16.218  26.090  1.00  0.00     0.118 C 
HETATM   24  C1  UNL     1      24.920  15.127  26.025  1.00  0.00     0.026 C 
ENDBRANCH  20  23
ENDBRANCH  14  19
ENDBRANCH  11  14
ENDBRANCH   4  10
ENDBRANCH   1   2
BRANCH   1  25
HETATM   25  N4  UNL     1      24.567  11.197  20.993  1.00  0.00    -0.347 N 
HETATM   26  C13 UNL     1      23.370  11.224  21.736  1.00  0.00     0.218 C 
HETATM   27  O4  UNL     1      22.766  12.315  21.858  1.00  0.00    -0.274 OA
ATOM     28  H4  UNL     1      25.059  10.310  20.885  1.00  0.00     0.163 HD
BRANCH  26  29
HETATM   29  C14 UNL     1      22.841  10.006  22.353  1.00  0.00     0.112 C 
BRANCH  29  30
HETATM   30  C15 UNL     1      22.572  10.155  23.804  1.00  0.00     0.112 C 
BRANCH  30  31
HETATM   31  C16 UNL     1      21.154  10.142  24.208  1.00  0.00     0.221 C 
HETATM   32  O5  UNL     1      20.343   9.334  23.722  1.00  0.00    -0.273 OA
HETATM   33  N5  UNL     1      20.730  11.082  25.172  1.00  0.00    -0.339 N 
HETATM   34  C17 UNL     1      21.540  12.086  25.814  1.00  0.00     0.127 C 
HETATM   35  C20 UNL     1      19.404  11.212  25.709  1.00  0.00     0.179 C 
HETATM   36  C18 UNL     1      21.043  12.071  27.257  1.00  0.00     0.022 C 
HETATM   37  C19 UNL     1      19.651  11.542  27.189  1.00  0.00     0.037 C 
BRANCH  35  38
HETATM   38  C21 UNL     1      18.653  12.325  25.111  1.00  0.00     0.242 C 
HETATM   39  O6  UNL     1      19.208  13.388  24.705  1.00  0.00    -0.271 OA
HETATM   40  N6  UNL     1      17.255  12.252  24.961  1.00  0.00    -0.350 N 
HETATM   41  C22 UNL     1      16.491  13.388  24.400  1.00  0.00     0.152 C 
BRANCH  40  42
HETATM   42  C23 UNL     1      16.521  11.082  25.313  1.00  0.00     0.196 C 
BRANCH  42  43
HETATM   43  C24 UNL     1      15.632  10.586  24.173  1.00  0.00     0.370 C 
HETATM   44  F1  UNL     1      14.865   9.513  24.562  1.00  0.00    -0.213 F 
HETATM   45  F2  UNL     1      16.491  10.236  23.133  1.00  0.00    -0.213 F 
ENDBRANCH  42  43
ENDBRANCH  40  42
ENDBRANCH  35  38
ENDBRANCH  30  31
ENDBRANCH  29  30
ENDBRANCH  26  29
ENDBRANCH   1  25
BRANCH   1  46
HETATM   46  C25 UNL     1      25.217  12.090  18.882  1.00  0.00    -0.022 C 
HETATM   47  C26 UNL     1      26.553  12.327  18.269  1.00  0.00     0.017 C 
HETATM   48  C27 UNL     1      24.202  12.939  18.114  1.00  0.00     0.017 C 
HETATM   49  C28 UNL     1      24.817  10.650  18.640  1.00  0.00     0.017 C 
ENDBRANCH   1  46
TORSDOF 13
ENDMDL
