MODEL 1
REMARK VINA RESULT: -8.447952524      0.000      0.000
REMARK  13 active torsions:
REMARK  status: ('A' for Active; 'I' for Inactive)
REMARK    1  A    between atoms: C2_2  and  C3_3 
REMARK    2  A    between atoms: C3_3  and  C4_4 
REMARK    3  A    between atoms: C4_4  and  N1_5 
REMARK    4  A    between atoms: C4_4  and  C27_38 
REMARK    5  A    between atoms: N1_5  and  C5_7 
REMARK    6  A    between atoms: C5_7  and  C6_8 
REMARK    7  A    between atoms: C5_7  and  C14_20 
REMARK    8  A    between atoms: N3_25  and  C17_26 
REMARK    9  A    between atoms: C17_26  and  O4_27 
REMARK   10  A    between atoms: C17_26  and  C18_29 
REMARK   11  A    between atoms: C21_32  and  C22_33 
REMARK   12  A    between atoms: C22_33  and  C23_34 
REMARK   13  A    between atoms: C27_38  and  C28_40 
ROOT
HETATM    1  C5  UNL     1      28.063  15.386  23.630  1.00  0.00     0.141 C 
ENDROOT
BRANCH   1   2
HETATM    2  N1  UNL     1      26.959  14.630  24.051  1.00  0.00    -0.401 N 
ATOM      3  H1  UNL     1      27.149  13.997  24.828  1.00  0.00     0.154 HD
BRANCH   2   4
HETATM    4  C4  UNL     1      25.671  14.599  23.594  1.00  0.00     0.157 C 
BRANCH   4   5
HETATM    5  C3  UNL     1      24.965  13.258  23.658  1.00  0.00     0.033 C 
BRANCH   5   6
HETATM    6  C2  UNL     1      23.607  13.254  23.019  1.00  0.00    -0.002 C 
HETATM    7  C1  UNL     1      22.756  12.154  23.670  1.00  0.00     0.005 C 
ENDBRANCH   5   6
ENDBRANCH   4   5
BRANCH   4   8
HETATM    8  C27 UNL     1      24.815  15.507  24.449  1.00  0.00     0.235 C 
HETATM    9  O5  UNL     1      24.295  16.502  23.838  1.00  0.00    -0.285 OA
BRANCH   8  10
HETATM   10  C28 UNL     1      24.540  15.366  25.825  1.00  0.00     0.302 C 
HETATM   11  N4  UNL     1      23.241  15.017  26.287  1.00  0.00    -0.054 NA
HETATM   12  O6  UNL     1      25.409  15.536  26.705  1.00  0.00    -0.268 OA
ENDBRANCH   8  10
ENDBRANCH   4   8
ENDBRANCH   2   4
ENDBRANCH   1   2
BRANCH   1  13
HETATM   13  C6  UNL     1      28.407  16.526  24.559  1.00  0.00     0.152 C 
HETATM   14  O1  UNL     1      29.734  16.982  24.380  1.00  0.00    -0.371 OA
HETATM   15  C7  UNL     1      30.254  17.471  25.572  1.00  0.00     0.188 C 
HETATM   16  C8  UNL     1      31.551  18.205  25.323  1.00  0.00     0.048 C 
HETATM   17  C9  UNL     1      29.371  18.292  26.388  1.00  0.00     0.170 C 
HETATM   18  O2  UNL     1      29.949  19.224  26.947  1.00  0.00    -0.294 OA
HETATM   19  C10 UNL     1      27.921  18.272  26.708  1.00  0.00     0.144 C 
HETATM   20 BR1  UNL     1      27.484  19.678  27.959  1.00  0.00    -0.082 Br
HETATM   21  C11 UNL     1      27.059  18.447  25.500  1.00  0.00     0.086 C 
HETATM   22 BR2  UNL     1      26.793  20.355  25.253  1.00  0.00    -0.089 Br
HETATM   23  C12 UNL     1      27.626  17.807  24.258  1.00  0.00     0.029 C 
HETATM   24  C13 UNL     1      28.521  18.769  23.492  1.00  0.00     0.014 C 
ENDBRANCH   1  13
BRANCH   1  25
HETATM   25  C14 UNL     1      29.215  14.411  23.456  1.00  0.00     0.229 C 
HETATM   26  C15 UNL     1      30.413  14.853  22.765  1.00  0.00     0.265 C 
HETATM   27  O3  UNL     1      31.605  15.215  22.900  1.00  0.00    -0.269 OA
HETATM   28  N2  UNL     1      29.601  14.708  21.556  1.00  0.00    -0.259 N 
HETATM   29  C16 UNL     1      29.565  15.484  20.348  1.00  0.00     0.181 C 
HETATM   30  N3  UNL     1      29.064  13.615  22.195  1.00  0.00    -0.250 N 
BRANCH  30  31
HETATM   31  C17 UNL     1      28.599  12.351  21.913  1.00  0.00     0.164 C 
BRANCH  31  32
HETATM   32  O4  UNL     1      28.841  11.481  22.866  1.00  0.00    -0.345 OA
ATOM     33  H4  UNL     1      28.379  11.669  23.675  1.00  0.00     0.219 HD
ENDBRANCH  31  32
BRANCH  31  34
HETATM   34  C18 UNL     1      27.908  11.798  20.799  1.00  0.00    -0.009 C 
HETATM   35  C19 UNL     1      27.692  10.550  20.470  1.00  0.00    -0.015 C 
HETATM   36  C20 UNL     1      26.908  10.435  19.194  1.00  0.00     0.033 C 
HETATM   37  C21 UNL     1      26.103  11.781  19.241  1.00  0.00    -0.006 C 
HETATM   38  C26 UNL     1      27.230  12.644  19.722  1.00  0.00     0.047 C 
BRANCH  37  39
HETATM   39  C22 UNL     1      24.961  11.575  20.156  1.00  0.00     0.009 C 
BRANCH  39  40
HETATM   40  C23 UNL     1      23.663  11.123  19.626  1.00  0.00    -0.022 C 
HETATM   41  C24 UNL     1      22.833  10.208  20.445  1.00  0.00     0.009 C 
HETATM   42  C25 UNL     1      22.776  12.284  19.177  1.00  0.00     0.009 C 
ENDBRANCH  39  40
ENDBRANCH  37  39
ENDBRANCH  31  34
ENDBRANCH  30  31
ENDBRANCH   1  25
TORSDOF 13
ENDMDL
MODEL 2
REMARK VINA RESULT: -8.275442862      6.553     10.395
REMARK  13 active torsions:
REMARK  status: ('A' for Active; 'I' for Inactive)
REMARK    1  A    between atoms: C2_2  and  C3_3 
REMARK    2  A    between atoms: C3_3  and  C4_4 
REMARK    3  A    between atoms: C4_4  and  N1_5 
REMARK    4  A    between atoms: C4_4  and  C27_38 
REMARK    5  A    between atoms: N1_5  and  C5_7 
REMARK    6  A    between atoms: C5_7  and  C6_8 
REMARK    7  A    between atoms: C5_7  and  C14_20 
REMARK    8  A    between atoms: N3_25  and  C17_26 
REMARK    9  A    between atoms: C17_26  and  O4_27 
REMARK   10  A    between atoms: C17_26  and  C18_29 
REMARK   11  A    between atoms: C21_32  and  C22_33 
REMARK   12  A    between atoms: C22_33  and  C23_34 
REMARK   13  A    between atoms: C27_38  and  C28_40 
ROOT
HETATM    1  C5  UNL     1      18.057  13.010  26.211  1.00  0.00     0.141 C 
ENDROOT
BRANCH   1   2
HETATM    2  N1  UNL     1      19.153  13.615  26.844  1.00  0.00    -0.401 N 
ATOM      3  H1  UNL     1      19.574  14.383  26.322  1.00  0.00     0.154 HD
BRANCH   2   4
HETATM    4  C4  UNL     1      19.752  13.347  28.043  1.00  0.00     0.157 C 
BRANCH   4   5
HETATM    5  C3  UNL     1      19.081  12.298  28.911  1.00  0.00     0.033 C 
BRANCH   5   6
HETATM    6  C2  UNL     1      18.742  12.779  30.293  1.00  0.00    -0.002 C 
HETATM    7  C1  UNL     1      20.007  12.720  31.162  1.00  0.00     0.005 C 
ENDBRANCH   5   6
ENDBRANCH   4   5
BRANCH   4   8
HETATM    8  C27 UNL     1      21.136  12.790  27.797  1.00  0.00     0.235 C 
HETATM    9  O5  UNL     1      21.277  11.544  28.048  1.00  0.00    -0.285 OA
BRANCH   8  10
HETATM   10  C28 UNL     1      22.264  13.495  27.326  1.00  0.00     0.302 C 
HETATM   11  N4  UNL     1      23.499  13.467  28.028  1.00  0.00    -0.054 NA
HETATM   12  O6  UNL     1      22.241  14.173  26.279  1.00  0.00    -0.268 OA
ENDBRANCH   8  10
ENDBRANCH   4   8
ENDBRANCH   2   4
ENDBRANCH   1   2
BRANCH   1  13
HETATM   13  C6  UNL     1      16.813  13.865  26.206  1.00  0.00     0.152 C 
HETATM   14  O1  UNL     1      15.752  13.274  26.933  1.00  0.00    -0.371 OA
HETATM   15  C7  UNL     1      14.522  13.636  26.398  1.00  0.00     0.188 C 
HETATM   16  C8  UNL     1      13.401  13.239  27.329  1.00  0.00     0.048 C 
HETATM   17  C9  UNL     1      14.363  15.026  25.997  1.00  0.00     0.170 C 
HETATM   18  O2  UNL     1      13.238  15.474  26.224  1.00  0.00    -0.294 OA
HETATM   19  C10 UNL     1      15.246  16.046  25.374  1.00  0.00     0.144 C 
HETATM   20 BR1  UNL     1      14.274  17.689  25.071  1.00  0.00    -0.082 Br
HETATM   21  C11 UNL     1      16.440  16.366  26.211  1.00  0.00     0.086 C 
HETATM   22 BR2  UNL     1      15.934  17.805  27.413  1.00  0.00    -0.089 Br
HETATM   23  C12 UNL     1      16.979  15.180  26.971  1.00  0.00     0.029 C 
HETATM   24  C13 UNL     1      16.326  15.048  28.338  1.00  0.00     0.014 C 
ENDBRANCH   1  13
BRANCH   1  25
HETATM   25  C14 UNL     1      18.514  12.642  24.810  1.00  0.00     0.229 C 
HETATM   26  C15 UNL     1      17.628  11.865  23.961  1.00  0.00     0.265 C 
HETATM   27  O3  UNL     1      16.845  11.902  22.984  1.00  0.00    -0.269 OA
HETATM   28  N2  UNL     1      18.033  10.740  24.806  1.00  0.00    -0.259 N 
HETATM   29  C16 UNL     1      17.292   9.606  25.281  1.00  0.00     0.181 C 
HETATM   30  N3  UNL     1      19.268  11.346  24.810  1.00  0.00    -0.250 N 
BRANCH  30  31
HETATM   31  C17 UNL     1      20.605  11.019  24.800  1.00  0.00     0.164 C 
BRANCH  31  32
HETATM   32  O4  UNL     1      20.899  10.003  25.578  1.00  0.00    -0.345 OA
ATOM     33  H4  UNL     1      21.807   9.728  25.513  1.00  0.00     0.219 HD
ENDBRANCH  31  32
BRANCH  31  34
HETATM   34  C18 UNL     1      21.730  11.558  24.117  1.00  0.00    -0.009 C 
HETATM   35  C19 UNL     1      23.009  11.336  24.283  1.00  0.00    -0.015 C 
HETATM   36  C20 UNL     1      23.846  12.137  23.326  1.00  0.00     0.033 C 
HETATM   37  C21 UNL     1      22.836  12.286  22.134  1.00  0.00    -0.006 C 
HETATM   38  C26 UNL     1      21.620  12.557  22.966  1.00  0.00     0.047 C 
BRANCH  37  39
HETATM   39  C22 UNL     1      22.874  11.022  21.368  1.00  0.00     0.009 C 
BRANCH  39  40
HETATM   40  C23 UNL     1      22.840  11.049  19.896  1.00  0.00    -0.022 C 
HETATM   41  C24 UNL     1      22.766  12.358  19.204  1.00  0.00     0.009 C 
HETATM   42  C25 UNL     1      23.982  10.251  19.268  1.00  0.00     0.009 C 
ENDBRANCH  39  40
ENDBRANCH  37  39
ENDBRANCH  31  34
ENDBRANCH  30  31
ENDBRANCH   1  25
TORSDOF 13
ENDMDL
MODEL 3
REMARK VINA RESULT: -8.251882627      1.145      1.369
REMARK  13 active torsions:
REMARK  status: ('A' for Active; 'I' for Inactive)
REMARK    1  A    between atoms: C2_2  and  C3_3 
REMARK    2  A    between atoms: C3_3  and  C4_4 
REMARK    3  A    between atoms: C4_4  and  N1_5 
REMARK    4  A    between atoms: C4_4  and  C27_38 
REMARK    5  A    between atoms: N1_5  and  C5_7 
REMARK    6  A    between atoms: C5_7  and  C6_8 
REMARK    7  A    between atoms: C5_7  and  C14_20 
REMARK    8  A    between atoms: N3_25  and  C17_26 
REMARK    9  A    between atoms: C17_26  and  O4_27 
REMARK   10  A    between atoms: C17_26  and  C18_29 
REMARK   11  A    between atoms: C21_32  and  C22_33 
REMARK   12  A    between atoms: C22_33  and  C23_34 
REMARK   13  A    between atoms: C27_38  and  C28_40 
ROOT
HETATM    1  C5  UNL     1      28.434  15.635  23.125  1.00  0.00     0.141 C 
ENDROOT
BRANCH   1   2
HETATM    2  N1  UNL     1      27.354  15.151  23.877  1.00  0.00    -0.401 N 
ATOM      3  H1  UNL     1      27.565  14.977  24.860  1.00  0.00     0.154 HD
BRANCH   2   4
HETATM    4  C4  UNL     1      26.066  14.873  23.514  1.00  0.00     0.157 C 
BRANCH   4   5
HETATM    5  C3  UNL     1      25.654  13.413  23.557  1.00  0.00     0.033 C 
BRANCH   5   6
HETATM    6  C2  UNL     1      24.386  13.118  22.809  1.00  0.00    -0.002 C 
HETATM    7  C1  UNL     1      23.421  12.374  23.745  1.00  0.00     0.005 C 
ENDBRANCH   5   6
ENDBRANCH   4   5
BRANCH   4   8
HETATM    8  C27 UNL     1      25.118  15.551  24.479  1.00  0.00     0.235 C 
HETATM    9  O5  UNL     1      24.251  16.322  23.942  1.00  0.00    -0.285 OA
BRANCH   8  10
HETATM   10  C28 UNL     1      25.096  15.418  25.883  1.00  0.00     0.302 C 
HETATM   11  N4  UNL     1      24.080  14.670  26.539  1.00  0.00    -0.054 NA
HETATM   12  O6  UNL     1      25.957  15.941  26.620  1.00  0.00    -0.268 OA
ENDBRANCH   8  10
ENDBRANCH   4   8
ENDBRANCH   2   4
ENDBRANCH   1   2
BRANCH   1  13
HETATM   13  C6  UNL     1      28.970  16.958  23.614  1.00  0.00     0.152 C 
HETATM   14  O1  UNL     1      29.222  17.861  22.554  1.00  0.00    -0.371 OA
HETATM   15  C7  UNL     1      30.275  18.711  22.866  1.00  0.00     0.188 C 
HETATM   16  C8  UNL     1      30.359  19.840  21.867  1.00  0.00     0.048 C 
HETATM   17  C9  UNL     1      30.310  19.246  24.219  1.00  0.00     0.170 C 
HETATM   18  O2  UNL     1      30.705  20.411  24.274  1.00  0.00    -0.294 OA
HETATM   19  C10 UNL     1      29.977  18.713  25.566  1.00  0.00     0.144 C 
HETATM   20 BR1  UNL     1      30.366  20.027  26.929  1.00  0.00    -0.082 Br
HETATM   21  C11 UNL     1      28.540  18.327  25.696  1.00  0.00     0.086 C 
HETATM   22 BR2  UNL     1      27.569  19.904  26.280  1.00  0.00    -0.089 Br
HETATM   23  C12 UNL     1      27.952  17.758  24.429  1.00  0.00     0.029 C 
HETATM   24  C13 UNL     1      27.355  18.848  23.552  1.00  0.00     0.014 C 
ENDBRANCH   1  13
BRANCH   1  25
HETATM   25  C14 UNL     1      29.490  14.543  23.130  1.00  0.00     0.229 C 
HETATM   26  C15 UNL     1      30.758  14.785  22.465  1.00  0.00     0.265 C 
HETATM   27  O3  UNL     1      31.972  15.047  22.627  1.00  0.00    -0.269 OA
HETATM   28  N2  UNL     1      29.993  14.573  21.235  1.00  0.00    -0.259 N 
HETATM   29  C16 UNL     1      30.091  15.199  19.946  1.00  0.00     0.181 C 
HETATM   30  N3  UNL     1      29.320  13.619  21.962  1.00  0.00    -0.250 N 
BRANCH  30  31
HETATM   31  C17 UNL     1      28.745  12.379  21.801  1.00  0.00     0.164 C 
BRANCH  31  32
HETATM   32  O4  UNL     1      28.848  11.613  22.862  1.00  0.00    -0.345 OA
ATOM     33  H4  UNL     1      28.029  11.200  23.111  1.00  0.00     0.219 HD
ENDBRANCH  31  32
BRANCH  31  34
HETATM   34  C18 UNL     1      28.060  11.762  20.717  1.00  0.00    -0.009 C 
HETATM   35  C19 UNL     1      28.055  10.515  20.317  1.00  0.00    -0.015 C 
HETATM   36  C20 UNL     1      27.178  10.317  19.113  1.00  0.00     0.033 C 
HETATM   37  C21 UNL     1      26.139  11.472  19.334  1.00  0.00    -0.006 C 
HETATM   38  C26 UNL     1      27.124  12.514  19.772  1.00  0.00     0.047 C 
BRANCH  37  39
HETATM   39  C22 UNL     1      25.160  10.994  20.332  1.00  0.00     0.009 C 
BRANCH  39  40
HETATM   40  C23 UNL     1      23.772  10.711  19.928  1.00  0.00    -0.022 C 
HETATM   41  C24 UNL     1      22.887   9.978  20.865  1.00  0.00     0.009 C 
HETATM   42  C25 UNL     1      23.029  11.964  19.465  1.00  0.00     0.009 C 
ENDBRANCH  39  40
ENDBRANCH  37  39
ENDBRANCH  31  34
ENDBRANCH  30  31
ENDBRANCH   1  25
TORSDOF 13
ENDMDL
MODEL 4
REMARK VINA RESULT: -8.247859125      1.917      2.533
REMARK  13 active torsions:
REMARK  status: ('A' for Active; 'I' for Inactive)
REMARK    1  A    between atoms: C2_2  and  C3_3 
REMARK    2  A    between atoms: C3_3  and  C4_4 
REMARK    3  A    between atoms: C4_4  and  N1_5 
REMARK    4  A    between atoms: C4_4  and  C27_38 
REMARK    5  A    between atoms: N1_5  and  C5_7 
REMARK    6  A    between atoms: C5_7  and  C6_8 
REMARK    7  A    between atoms: C5_7  and  C14_20 
REMARK    8  A    between atoms: N3_25  and  C17_26 
REMARK    9  A    between atoms: C17_26  and  O4_27 
REMARK   10  A    between atoms: C17_26  and  C18_29 
REMARK   11  A    between atoms: C21_32  and  C22_33 
REMARK   12  A    between atoms: C22_33  and  C23_34 
REMARK   13  A    between atoms: C27_38  and  C28_40 
ROOT
HETATM    1  C5  UNL     1      29.450  16.242  23.021  1.00  0.00     0.141 C 
ENDROOT
BRANCH   1   2
HETATM    2  N1  UNL     1      28.377  15.649  23.700  1.00  0.00    -0.401 N 
ATOM      3  H1  UNL     1      28.424  14.632  23.764  1.00  0.00     0.154 HD
BRANCH   2   4
HETATM    4  C4  UNL     1      27.277  16.206  24.292  1.00  0.00     0.157 C 
BRANCH   4   5
HETATM    5  C3  UNL     1      25.937  15.590  23.936  1.00  0.00     0.033 C 
BRANCH   5   6
HETATM    6  C2  UNL     1      26.025  14.161  23.484  1.00  0.00    -0.002 C 
HETATM    7  C1  UNL     1      24.666  13.484  23.713  1.00  0.00     0.005 C 
ENDBRANCH   5   6
ENDBRANCH   4   5
BRANCH   4   8
HETATM    8  C27 UNL     1      27.376  16.032  25.792  1.00  0.00     0.235 C 
HETATM    9  O5  UNL     1      26.260  16.036  26.416  1.00  0.00    -0.285 OA
BRANCH   8  10
HETATM   10  C28 UNL     1      28.552  15.868  26.552  1.00  0.00     0.302 C 
HETATM   11  N4  UNL     1      28.933  16.818  27.538  1.00  0.00    -0.054 NA
HETATM   12  O6  UNL     1      29.315  14.891  26.405  1.00  0.00    -0.268 OA
ENDBRANCH   8  10
ENDBRANCH   4   8
ENDBRANCH   2   4
ENDBRANCH   1   2
BRANCH   1  13
HETATM   13  C6  UNL     1      30.201  17.260  23.844  1.00  0.00     0.152 C 
HETATM   14  O1  UNL     1      31.559  16.908  24.026  1.00  0.00    -0.371 OA
HETATM   15  C7  UNL     1      32.036  17.384  25.241  1.00  0.00     0.188 C 
HETATM   16  C8  UNL     1      33.539  17.253  25.308  1.00  0.00     0.048 C 
HETATM   17  C9  UNL     1      31.641  18.732  25.621  1.00  0.00     0.170 C 
HETATM   18  O2  UNL     1      32.530  19.358  26.198  1.00  0.00    -0.294 OA
HETATM   19  C10 UNL     1      30.404  19.542  25.474  1.00  0.00     0.144 C 
HETATM   20 BR1  UNL     1      30.619  21.265  26.322  1.00  0.00    -0.082 Br
HETATM   21  C11 UNL     1      30.032  19.775  24.047  1.00  0.00     0.086 C 
HETATM   22 BR2  UNL     1      30.941  21.392  23.469  1.00  0.00    -0.089 Br
HETATM   23  C12 UNL     1      30.353  18.612  23.142  1.00  0.00     0.029 C 
HETATM   24  C13 UNL     1      31.757  18.721  22.568  1.00  0.00     0.014 C 
ENDBRANCH   1  13
BRANCH   1  25
HETATM   25  C14 UNL     1      30.342  15.108  22.545  1.00  0.00     0.229 C 
HETATM   26  C15 UNL     1      31.185  15.315  21.381  1.00  0.00     0.265 C 
HETATM   27  O3  UNL     1      32.354  15.523  20.980  1.00  0.00    -0.269 OA
HETATM   28  N2  UNL     1      29.940  15.165  20.627  1.00  0.00    -0.259 N 
HETATM   29  C16 UNL     1      29.478  15.819  19.434  1.00  0.00     0.181 C 
HETATM   30  N3  UNL     1      29.621  14.222  21.575  1.00  0.00    -0.250 N 
BRANCH  30  31
HETATM   31  C17 UNL     1      28.976  13.011  21.685  1.00  0.00     0.164 C 
BRANCH  31  32
HETATM   32  O4  UNL     1      29.101  12.458  22.869  1.00  0.00    -0.345 OA
ATOM     33  H4  UNL     1      29.629  11.668  22.864  1.00  0.00     0.219 HD
ENDBRANCH  31  32
BRANCH  31  34
HETATM   34  C18 UNL     1      28.201  12.240  20.775  1.00  0.00    -0.009 C 
HETATM   35  C19 UNL     1      28.071  10.942  20.660  1.00  0.00    -0.015 C 
HETATM   36  C20 UNL     1      27.137  10.570  19.543  1.00  0.00     0.033 C 
HETATM   37  C21 UNL     1      26.214  11.838  19.520  1.00  0.00    -0.006 C 
HETATM   38  C26 UNL     1      27.302  12.852  19.702  1.00  0.00     0.047 C 
BRANCH  37  39
HETATM   39  C22 UNL     1      25.232  11.683  20.614  1.00  0.00     0.009 C 
BRANCH  39  40
HETATM   40  C23 UNL     1      23.790  11.666  20.315  1.00  0.00    -0.022 C 
HETATM   41  C24 UNL     1      23.324  12.168  19.000  1.00  0.00     0.009 C 
HETATM   42  C25 UNL     1      23.160  10.293  20.543  1.00  0.00     0.009 C 
ENDBRANCH  39  40
ENDBRANCH  37  39
ENDBRANCH  31  34
ENDBRANCH  30  31
ENDBRANCH   1  25
TORSDOF 13
ENDMDL
MODEL 5
REMARK VINA RESULT: -8.232511447      2.176      5.032
REMARK  13 active torsions:
REMARK  status: ('A' for Active; 'I' for Inactive)
REMARK    1  A    between atoms: C2_2  and  C3_3 
REMARK    2  A    between atoms: C3_3  and  C4_4 
REMARK    3  A    between atoms: C4_4  and  N1_5 
REMARK    4  A    between atoms: C4_4  and  C27_38 
REMARK    5  A    between atoms: N1_5  and  C5_7 
REMARK    6  A    between atoms: C5_7  and  C6_8 
REMARK    7  A    between atoms: C5_7  and  C14_20 
REMARK    8  A    between atoms: N3_25  and  C17_26 
REMARK    9  A    between atoms: C17_26  and  O4_27 
REMARK   10  A    between atoms: C17_26  and  C18_29 
REMARK   11  A    between atoms: C21_32  and  C22_33 
REMARK   12  A    between atoms: C22_33  and  C23_34 
REMARK   13  A    between atoms: C27_38  and  C28_40 
ROOT
HETATM    1  C5  UNL     1      26.760  14.228  24.367  1.00  0.00     0.141 C 
ENDROOT
BRANCH   1   2
HETATM    2  N1  UNL     1      27.409  13.158  23.734  1.00  0.00    -0.401 N 
ATOM      3  H1  UNL     1      27.833  12.482  24.369  1.00  0.00     0.154 HD
BRANCH   2   4
HETATM    4  C4  UNL     1      27.568  12.869  22.407  1.00  0.00     0.157 C 
BRANCH   4   5
HETATM    5  C3  UNL     1      27.722  14.055  21.473  1.00  0.00     0.033 C 
BRANCH   5   6
HETATM    6  C2  UNL     1      27.968  13.673  20.041  1.00  0.00    -0.002 C 
HETATM    7  C1  UNL     1      28.897  14.716  19.403  1.00  0.00     0.005 C 
ENDBRANCH   5   6
ENDBRANCH   4   5
BRANCH   4   8
HETATM    8  C27 UNL     1      28.846  12.082  22.217  1.00  0.00     0.235 C 
HETATM    9  O5  UNL     1      29.917  12.780  22.184  1.00  0.00    -0.285 OA
BRANCH   8  10
HETATM   10  C28 UNL     1      28.970  10.684  22.078  1.00  0.00     0.302 C 
HETATM   11  N4  UNL     1      29.729   9.914  23.000  1.00  0.00    -0.054 NA
HETATM   12  O6  UNL     1      28.426  10.051  21.149  1.00  0.00    -0.268 OA
ENDBRANCH   8  10
ENDBRANCH   4   8
ENDBRANCH   2   4
ENDBRANCH   1   2
BRANCH   1  13
HETATM   13  C6  UNL     1      27.632  15.447  24.545  1.00  0.00     0.152 C 
HETATM   14  O1  UNL     1      27.339  16.147  25.739  1.00  0.00    -0.371 OA
HETATM   15  C7  UNL     1      27.583  17.507  25.589  1.00  0.00     0.188 C 
HETATM   16  C8  UNL     1      27.540  18.204  26.928  1.00  0.00     0.048 C 
HETATM   17  C9  UNL     1      28.795  17.883  24.875  1.00  0.00     0.170 C 
HETATM   18  O2  UNL     1      29.344  18.883  25.339  1.00  0.00    -0.294 OA
HETATM   19  C10 UNL     1      29.535  17.339  23.708  1.00  0.00     0.144 C 
HETATM   20 BR1  UNL     1      31.056  18.456  23.291  1.00  0.00    -0.082 Br
HETATM   21  C11 UNL     1      30.034  15.950  23.935  1.00  0.00     0.086 C 
HETATM   22 BR2  UNL     1      31.791  16.093  24.751  1.00  0.00    -0.089 Br
HETATM   23  C12 UNL     1      29.107  15.106  24.773  1.00  0.00     0.029 C 
HETATM   24  C13 UNL     1      29.424  15.230  26.255  1.00  0.00     0.014 C 
ENDBRANCH   1  13
BRANCH   1  25
HETATM   25  C14 UNL     1      25.512  14.521  23.551  1.00  0.00     0.229 C 
HETATM   26  C15 UNL     1      24.629  15.594  23.975  1.00  0.00     0.265 C 
HETATM   27  O3  UNL     1      24.254  16.768  23.750  1.00  0.00    -0.269 OA
HETATM   28  N2  UNL     1      24.201  14.646  25.005  1.00  0.00    -0.259 N 
HETATM   29  C16 UNL     1      23.825  14.852  26.376  1.00  0.00     0.181 C 
HETATM   30  N3  UNL     1      24.352  13.697  24.021  1.00  0.00    -0.250 N 
BRANCH  30  31
HETATM   31  C17 UNL     1      23.768  12.531  23.580  1.00  0.00     0.164 C 
BRANCH  31  32
HETATM   32  O4  UNL     1      23.502  11.683  24.547  1.00  0.00    -0.345 OA
ATOM     33  H4  UNL     1      22.818  11.061  24.326  1.00  0.00     0.219 HD
ENDBRANCH  31  32
BRANCH  31  34
HETATM   34  C18 UNL     1      23.394  12.061  22.291  1.00  0.00    -0.009 C 
HETATM   35  C19 UNL     1      23.168  12.719  21.182  1.00  0.00    -0.015 C 
HETATM   36  C20 UNL     1      22.794  11.801  20.053  1.00  0.00     0.033 C 
HETATM   37  C21 UNL     1      23.540  10.495  20.498  1.00  0.00    -0.006 C 
HETATM   38  C26 UNL     1      23.197  10.584  21.954  1.00  0.00     0.047 C 
BRANCH  37  39
HETATM   39  C22 UNL     1      24.960  10.653  20.120  1.00  0.00     0.009 C 
BRANCH  39  40
HETATM   40  C23 UNL     1      25.362  10.558  18.706  1.00  0.00    -0.022 C 
HETATM   41  C24 UNL     1      24.523   9.767  17.773  1.00  0.00     0.009 C 
HETATM   42  C25 UNL     1      25.605  11.927  18.071  1.00  0.00     0.009 C 
ENDBRANCH  39  40
ENDBRANCH  37  39
ENDBRANCH  31  34
ENDBRANCH  30  31
ENDBRANCH   1  25
TORSDOF 13
ENDMDL
