MODEL 1
REMARK VINA RESULT: -6.836388404      0.000      0.000
REMARK  4 active torsions:
REMARK  status: ('A' for Active; 'I' for Inactive)
REMARK    1  A    between atoms: C1_4  and  C2_6 
REMARK    2  A    between atoms: C5_9  and  N3_10 
REMARK    3  A    between atoms: N3_10  and  N4_12 
REMARK    4  A    between atoms: C6_17  and  N8_18 
ROOT
HETATM    1  C2  UNL     1      16.053 -66.115   0.477  1.00  0.00     0.020 A 
HETATM    2  C3  UNL     1      16.235 -65.139   1.443  1.00  0.00     0.020 A 
HETATM    3  C4  UNL     1      17.508 -64.837   1.896  1.00  0.00     0.051 A 
HETATM    4  C5  UNL     1      18.625 -65.493   1.408  1.00  0.00     0.121 A 
HETATM    5  N9  UNL     1      18.407 -66.432   0.473  1.00  0.00    -0.350 N 
ATOM      6  H9  UNL     1      19.211 -66.932   0.095  1.00  0.00     0.166 HD
HETATM    7  C7  UNL     1      17.186 -66.748   0.011  1.00  0.00     0.104 A 
ENDROOT
BRANCH   4   8
HETATM    8  N3  UNL     1      19.945 -65.161   1.877  1.00  0.00    -0.251 N 
ATOM      9  H3  UNL     1      20.245 -65.438   2.812  1.00  0.00     0.191 HD
BRANCH   8  10
HETATM   10  N4  UNL     1      20.814 -64.452   1.032  1.00  0.00    -0.004 N 
HETATM   11  N5  UNL     1      20.489 -64.063  -0.215  1.00  0.00     0.031 NA
HETATM   12  N6  UNL     1      21.543 -63.425  -0.742  1.00  0.00     0.008 NA
HETATM   13  N7  UNL     1      22.518 -63.407   0.148  1.00  0.00    -0.115 N 
HETATM   14  C6  UNL     1      22.053 -64.045   1.244  1.00  0.00     0.723 A 
ATOM     15  H7  UNL     1      23.442 -62.991   0.031  1.00  0.00     0.202 HD
BRANCH  14  16
HETATM   16  N8  UNL     1      22.710 -64.233   2.334  1.00  0.00    -0.231 N 
ATOM     17  H82 UNL     1      22.850 -65.133   2.794  1.00  0.00     0.174 HD
ATOM     18  H81 UNL     1      23.171 -63.497   2.870  1.00  0.00     0.174 HD
ENDBRANCH  14  16
ENDBRANCH   8  10
ENDBRANCH   4   8
BRANCH   1  19
HETATM   19  C1  UNL     1      14.716 -66.454  -0.002  1.00  0.00     0.121 C 
HETATM   20  N1  UNL     1      14.459 -67.634  -0.442  1.00  0.00    -0.387 N 
ATOM     21  H12 UNL     1      13.526 -67.871  -0.776  1.00  0.00     0.157 HD
ATOM     22  H11 UNL     1      15.165 -68.370  -0.486  1.00  0.00     0.157 HD
HETATM   23  N2  UNL     1      13.729 -65.426   0.060  1.00  0.00    -0.082 NA
ENDBRANCH   1  19
TORSDOF 4
ENDMDL
MODEL 2
REMARK VINA RESULT: -6.590880202      1.719      6.192
REMARK  4 active torsions:
REMARK  status: ('A' for Active; 'I' for Inactive)
REMARK    1  A    between atoms: C1_4  and  C2_6 
REMARK    2  A    between atoms: C5_9  and  N3_10 
REMARK    3  A    between atoms: N3_10  and  N4_12 
REMARK    4  A    between atoms: C6_17  and  N8_18 
ROOT
HETATM    1  C2  UNL     1      20.656 -64.134   0.382  1.00  0.00     0.020 A 
HETATM    2  C3  UNL     1      20.482 -65.048   1.408  1.00  0.00     0.020 A 
HETATM    3  C4  UNL     1      19.211 -65.352   1.863  1.00  0.00     0.051 A 
HETATM    4  C5  UNL     1      18.086 -64.758   1.315  1.00  0.00     0.121 A 
HETATM    5  N9  UNL     1      18.295 -63.878   0.323  1.00  0.00    -0.350 N 
ATOM      6  H9  UNL     1      17.486 -63.425  -0.100  1.00  0.00     0.166 HD
HETATM    7  C7  UNL     1      19.515 -63.563  -0.142  1.00  0.00     0.104 A 
ENDROOT
BRANCH   4   8
HETATM    8  N3  UNL     1      16.767 -65.092   1.787  1.00  0.00    -0.251 N 
ATOM      9  H3  UNL     1      16.542 -65.027   2.781  1.00  0.00     0.191 HD
BRANCH   8  10
HETATM   10  N4  UNL     1      15.793 -65.506   0.863  1.00  0.00    -0.004 N 
HETATM   11  N5  UNL     1      15.504 -64.834  -0.267  1.00  0.00     0.031 NA
HETATM   12  N6  UNL     1      14.529 -65.493  -0.906  1.00  0.00     0.008 NA
HETATM   13  N7  UNL     1      14.203 -66.561  -0.201  1.00  0.00    -0.115 N 
HETATM   14  C6  UNL     1      14.995 -66.558   0.893  1.00  0.00     0.723 A 
ATOM     15  H7  UNL     1      13.491 -67.253  -0.437  1.00  0.00     0.202 HD
BRANCH  14  16
HETATM   16  N8  UNL     1      14.982 -67.442   1.828  1.00  0.00    -0.231 N 
ATOM     17  H82 UNL     1      15.158 -67.263   2.816  1.00  0.00     0.174 HD
ATOM     18  H81 UNL     1      14.790 -68.435   1.687  1.00  0.00     0.174 HD
ENDBRANCH  14  16
ENDBRANCH   8  10
ENDBRANCH   4   8
BRANCH   1  19
HETATM   19  C1  UNL     1      21.992 -63.794  -0.100  1.00  0.00     0.121 C 
HETATM   20  N1  UNL     1      23.034 -64.313   0.446  1.00  0.00    -0.387 N 
ATOM     21  H12 UNL     1      23.967 -64.076   0.109  1.00  0.00     0.157 HD
ATOM     22  H11 UNL     1      22.979 -64.963   1.230  1.00  0.00     0.157 HD
HETATM   23  N2  UNL     1      22.070 -62.886  -1.196  1.00  0.00    -0.082 NA
ENDBRANCH   1  19
TORSDOF 4
ENDMDL
MODEL 3
REMARK VINA RESULT: -6.431892247      1.448      6.261
REMARK  4 active torsions:
REMARK  status: ('A' for Active; 'I' for Inactive)
REMARK    1  A    between atoms: C1_4  and  C2_6 
REMARK    2  A    between atoms: C5_9  and  N3_10 
REMARK    3  A    between atoms: N3_10  and  N4_12 
REMARK    4  A    between atoms: C6_17  and  N8_18 
ROOT
HETATM    1  C2  UNL     1      19.578 -64.386   0.778  1.00  0.00     0.020 A 
HETATM    2  C3  UNL     1      18.756 -63.715  -0.112  1.00  0.00     0.020 A 
HETATM    3  C4  UNL     1      17.380 -63.780   0.025  1.00  0.00     0.051 A 
HETATM    4  C5  UNL     1      16.788 -64.508   1.043  1.00  0.00     0.121 A 
HETATM    5  N9  UNL     1      17.618 -65.145   1.885  1.00  0.00    -0.350 N 
ATOM      6  H9  UNL     1      17.210 -65.690   2.645  1.00  0.00     0.166 HD
HETATM    7  C7  UNL     1      18.956 -65.102   1.780  1.00  0.00     0.104 A 
ENDROOT
BRANCH   4   8
HETATM    8  N3  UNL     1      15.356 -64.557   1.184  1.00  0.00    -0.251 N 
ATOM      9  H3  UNL     1      14.874 -63.898   1.796  1.00  0.00     0.191 HD
BRANCH   8  10
HETATM   10  N4  UNL     1      14.630 -65.525   0.469  1.00  0.00    -0.004 N 
HETATM   11  N5  UNL     1      13.528 -65.247  -0.252  1.00  0.00     0.031 NA
HETATM   12  N6  UNL     1      13.083 -66.390  -0.791  1.00  0.00     0.008 NA
HETATM   13  N7  UNL     1      13.882 -67.374  -0.423  1.00  0.00    -0.115 N 
HETATM   14  C6  UNL     1      14.839 -66.824   0.358  1.00  0.00     0.723 A 
ATOM     15  H7  UNL     1      13.795 -68.359  -0.678  1.00  0.00     0.202 HD
BRANCH  14  16
HETATM   16  N8  UNL     1      15.809 -67.462   0.912  1.00  0.00    -0.231 N 
ATOM     17  H82 UNL     1      16.801 -67.292   0.745  1.00  0.00     0.174 HD
ATOM     18  H81 UNL     1      15.698 -68.217   1.588  1.00  0.00     0.174 HD
ENDBRANCH  14  16
ENDBRANCH   8  10
ENDBRANCH   4   8
BRANCH   1  19
HETATM   19  C1  UNL     1      21.031 -64.339   0.639  1.00  0.00     0.121 C 
HETATM   20  N1  UNL     1      21.792 -64.664   1.622  1.00  0.00    -0.387 N 
ATOM     21  H12 UNL     1      22.807 -64.631   1.524  1.00  0.00     0.157 HD
ATOM     22  H11 UNL     1      21.426 -64.954   2.529  1.00  0.00     0.157 HD
HETATM   23  N2  UNL     1      21.543 -63.934  -0.629  1.00  0.00    -0.082 NA
ENDBRANCH   1  19
TORSDOF 4
ENDMDL
MODEL 4
REMARK VINA RESULT: -6.429050950      1.563      1.982
REMARK  4 active torsions:
REMARK  status: ('A' for Active; 'I' for Inactive)
REMARK    1  A    between atoms: C1_4  and  C2_6 
REMARK    2  A    between atoms: C5_9  and  N3_10 
REMARK    3  A    between atoms: N3_10  and  N4_12 
REMARK    4  A    between atoms: C6_17  and  N8_18 
ROOT
HETATM    1  C2  UNL     1      17.209 -64.911   0.297  1.00  0.00     0.020 A 
HETATM    2  C3  UNL     1      17.886 -65.820   1.092  1.00  0.00     0.020 A 
HETATM    3  C4  UNL     1      19.231 -65.639   1.367  1.00  0.00     0.051 A 
HETATM    4  C5  UNL     1      19.933 -64.558   0.861  1.00  0.00     0.121 A 
HETATM    5  N9  UNL     1      19.242 -63.699   0.095  1.00  0.00    -0.350 N 
ATOM      6  H9  UNL     1      19.732 -62.894  -0.292  1.00  0.00     0.166 HD
HETATM    7  C7  UNL     1      17.937 -63.846  -0.189  1.00  0.00     0.104 A 
ENDROOT
BRANCH   4   8
HETATM    8  N3  UNL     1      21.328 -64.373   1.165  1.00  0.00    -0.251 N 
ATOM      9  H3  UNL     1      21.761 -64.880   1.936  1.00  0.00     0.191 HD
BRANCH   8  10
HETATM   10  N4  UNL     1      22.086 -63.483   0.384  1.00  0.00    -0.004 N 
HETATM   11  N5  UNL     1      21.921 -63.329  -0.942  1.00  0.00     0.031 NA
HETATM   12  N6  UNL     1      22.806 -62.419  -1.370  1.00  0.00     0.008 NA
HETATM   13  N7  UNL     1      23.519 -62.002  -0.341  1.00  0.00    -0.115 N 
HETATM   14  C6  UNL     1      23.063 -62.669   0.741  1.00  0.00     0.723 A 
ATOM     15  H7  UNL     1      24.270 -61.311  -0.360  1.00  0.00     0.202 HD
BRANCH  14  16
HETATM   16  N8  UNL     1      23.505 -62.536   1.943  1.00  0.00    -0.231 N 
ATOM     17  H82 UNL     1      23.828 -61.665   2.362  1.00  0.00     0.174 HD
ATOM     18  H81 UNL     1      23.584 -63.295   2.620  1.00  0.00     0.174 HD
ENDBRANCH  14  16
ENDBRANCH   8  10
ENDBRANCH   4   8
BRANCH   1  19
HETATM   19  C1  UNL     1      15.793 -65.096  -0.012  1.00  0.00     0.121 C 
HETATM   20  N1  UNL     1      15.433 -65.807  -1.021  1.00  0.00    -0.387 N 
ATOM     21  H12 UNL     1      14.445 -65.936  -1.237  1.00  0.00     0.157 HD
ATOM     22  H11 UNL     1      16.104 -66.256  -1.645  1.00  0.00     0.157 HD
HETATM   23  N2  UNL     1      14.856 -64.469   0.859  1.00  0.00    -0.082 NA
ENDBRANCH   1  19
TORSDOF 4
ENDMDL
MODEL 5
REMARK VINA RESULT: -6.334338070      1.651      2.522
REMARK  4 active torsions:
REMARK  status: ('A' for Active; 'I' for Inactive)
REMARK    1  A    between atoms: C1_4  and  C2_6 
REMARK    2  A    between atoms: C5_9  and  N3_10 
REMARK    3  A    between atoms: N3_10  and  N4_12 
REMARK    4  A    between atoms: C6_17  and  N8_18 
ROOT
HETATM    1  C2  UNL     1      17.128 -64.832   1.365  1.00  0.00     0.020 A 
HETATM    2  C3  UNL     1      17.304 -63.841   0.413  1.00  0.00     0.020 A 
HETATM    3  C4  UNL     1      18.563 -63.588  -0.104  1.00  0.00     0.051 A 
HETATM    4  C5  UNL     1      19.673 -64.306   0.308  1.00  0.00     0.121 A 
HETATM    5  N9  UNL     1      19.461 -65.257   1.233  1.00  0.00    -0.350 N 
ATOM      6  H9  UNL     1      20.260 -65.802   1.556  1.00  0.00     0.166 HD
HETATM    7  C7  UNL     1      18.253 -65.528   1.753  1.00  0.00     0.104 A 
ENDROOT
BRANCH   4   8
HETATM    8  N3  UNL     1      20.975 -64.043  -0.246  1.00  0.00    -0.251 N 
ATOM      9  H3  UNL     1      21.146 -64.167  -1.244  1.00  0.00     0.191 HD
BRANCH   8  10
HETATM   10  N4  UNL     1      22.007 -63.613   0.604  1.00  0.00    -0.004 N 
HETATM   11  N5  UNL     1      22.176 -64.066   1.860  1.00  0.00     0.031 NA
HETATM   12  N6  UNL     1      23.238 -63.444   2.389  1.00  0.00     0.008 NA
HETATM   13  N7  UNL     1      23.737 -62.614   1.492  1.00  0.00    -0.115 N 
HETATM   14  C6  UNL     1      22.965 -62.729   0.389  1.00  0.00     0.723 A 
ATOM     15  H7  UNL     1      24.547 -62.005   1.609  1.00  0.00     0.202 HD
BRANCH  14  16
HETATM   16  N8  UNL     1      23.131 -62.080  -0.710  1.00  0.00    -0.231 N 
ATOM     17  H82 UNL     1      23.632 -61.198  -0.807  1.00  0.00     0.174 HD
ATOM     18  H81 UNL     1      22.777 -62.377  -1.619  1.00  0.00     0.174 HD
ENDBRANCH  14  16
ENDBRANCH   8  10
ENDBRANCH   4   8
BRANCH   1  19
HETATM   19  C1  UNL     1      15.809 -65.101   1.929  1.00  0.00     0.121 C 
HETATM   20  N1  UNL     1      15.270 -66.262   1.805  1.00  0.00    -0.387 N 
ATOM     21  H12 UNL     1      14.349 -66.451   2.199  1.00  0.00     0.157 HD
ATOM     22  H11 UNL     1      15.724 -67.029   1.308  1.00  0.00     0.157 HD
HETATM   23  N2  UNL     1      15.174 -64.031   2.625  1.00  0.00    -0.082 NA
ENDBRANCH   1  19
TORSDOF 4
ENDMDL
