MODEL 1
REMARK VINA RESULT: -8.063043353      0.000      0.000
REMARK  4 active torsions:
REMARK  status: ('A' for Active; 'I' for Inactive)
REMARK    1  A    between atoms: C2_2  and  C3_3 
REMARK    2  A    between atoms: C3_3  and  N1_4 
REMARK    3  A    between atoms: C6_12  and  C7_13 
REMARK    4  A    between atoms: C11_19  and  N5_20 
ROOT
HETATM    1  N1  UNL     1     -16.813  34.375  47.074  1.00  0.00    -0.284 N 
HETATM    2  C4  UNL     1     -18.052  34.085  47.500  1.00  0.00     0.196 A 
HETATM    3  S1  UNL     1     -18.368  33.952  49.091  1.00  0.00    -0.039 SA
HETATM    4  N2  UNL     1     -19.033  33.907  46.603  1.00  0.00    -0.275 N 
ATOM      5  H2  UNL     1     -19.978  33.686  46.917  1.00  0.00     0.189 HD
HETATM    6  N3  UNL     1     -18.778  34.014  45.343  1.00  0.00    -0.293 N 
ATOM      7  H3  UNL     1     -19.543  33.872  44.685  1.00  0.00     0.187 HD
HETATM    8  C5  UNL     1     -17.561  34.302  44.845  1.00  0.00     0.117 A 
HETATM    9  C6  UNL     1     -17.346  34.308  43.434  1.00  0.00     0.053 C 
HETATM   10  C12 UNL     1     -16.529  34.491  45.771  1.00  0.00     0.278 A 
HETATM   11  O3  UNL     1     -15.392  34.759  45.333  1.00  0.00    -0.265 OA
ENDROOT
BRANCH   9  12
HETATM   12  C7  UNL     1     -17.386  35.123  42.393  1.00  0.00     0.035 A 
HETATM   13  C8  UNL     1     -18.196  36.277  42.575  1.00  0.00     0.026 A 
HETATM   14  C9  UNL     1     -18.920  36.668  43.633  1.00  0.00     0.034 C 
HETATM   15  S2  UNL     1     -18.061  37.112  41.117  1.00  0.00    -0.011 SA
HETATM   16  N4  UNL     1     -17.045  36.091  40.293  1.00  0.00    -0.302 N 
HETATM   17  C10 UNL     1     -16.548  36.300  38.911  1.00  0.00     0.167 C 
HETATM   18  C11 UNL     1     -16.791  35.066  41.158  1.00  0.00     0.193 A 
BRANCH  18  19
HETATM   19  N5  UNL     1     -15.995  34.113  40.724  1.00  0.00    -0.096 N 
HETATM   20  O1  UNL     1     -16.144  33.182  39.779  1.00  0.00    -0.530 OA
HETATM   21  O2  UNL     1     -14.706  33.959  41.307  1.00  0.00    -0.530 OA
ENDBRANCH  18  19
ENDBRANCH   9  12
BRANCH   1  22
HETATM   22  C3  UNL     1     -15.770  34.564  48.061  1.00  0.00     0.161 C 
BRANCH  22  23
HETATM   23  C2  UNL     1     -15.437  35.982  48.281  1.00  0.00    -0.017 C 
HETATM   24  C1  UNL     1     -15.526  36.519  49.485  1.00  0.00     0.008 C 
ENDBRANCH  22  23
ENDBRANCH   1  22
TORSDOF 4
ENDMDL
MODEL 2
REMARK VINA RESULT: -8.025761084      3.660      5.009
REMARK  4 active torsions:
REMARK  status: ('A' for Active; 'I' for Inactive)
REMARK    1  A    between atoms: C2_2  and  C3_3 
REMARK    2  A    between atoms: C3_3  and  N1_4 
REMARK    3  A    between atoms: C6_12  and  C7_13 
REMARK    4  A    between atoms: C11_19  and  N5_20 
ROOT
HETATM    1  N1  UNL     1     -19.747  36.938  45.558  1.00  0.00    -0.284 N 
HETATM    2  C4  UNL     1     -19.306  37.885  46.400  1.00  0.00     0.196 A 
HETATM    3  S1  UNL     1     -20.306  38.534  47.508  1.00  0.00    -0.039 SA
HETATM    4  N2  UNL     1     -18.032  38.294  46.325  1.00  0.00    -0.275 N 
ATOM      5  H2  UNL     1     -17.687  39.013  46.962  1.00  0.00     0.189 HD
HETATM    6  N3  UNL     1     -17.243  37.776  45.445  1.00  0.00    -0.293 N 
ATOM      7  H3  UNL     1     -16.279  38.108  45.411  1.00  0.00     0.187 HD
HETATM    8  C5  UNL     1     -17.615  36.825  44.570  1.00  0.00     0.117 A 
HETATM    9  C6  UNL     1     -16.704  36.376  43.568  1.00  0.00     0.053 C 
HETATM   10  C12 UNL     1     -18.943  36.389  44.638  1.00  0.00     0.278 A 
HETATM   11  O3  UNL     1     -19.312  35.508  43.836  1.00  0.00    -0.265 OA
ENDROOT
BRANCH   9  12
HETATM   12  C7  UNL     1     -15.772  35.459  43.363  1.00  0.00     0.035 A 
HETATM   13  C8  UNL     1     -16.067  34.537  42.322  1.00  0.00     0.026 A 
HETATM   14  C9  UNL     1     -17.136  34.454  41.517  1.00  0.00     0.034 C 
HETATM   15  S2  UNL     1     -14.732  33.507  42.291  1.00  0.00    -0.011 SA
HETATM   16  N4  UNL     1     -13.828  34.170  43.512  1.00  0.00    -0.302 N 
HETATM   17  C10 UNL     1     -12.502  33.682  43.967  1.00  0.00     0.167 C 
HETATM   18  C11 UNL     1     -14.565  35.224  43.972  1.00  0.00     0.193 A 
BRANCH  18  19
HETATM   19  N5  UNL     1     -14.046  35.920  44.960  1.00  0.00    -0.096 N 
HETATM   20  O1  UNL     1     -13.888  35.651  46.258  1.00  0.00    -0.530 OA
HETATM   21  O2  UNL     1     -13.525  37.219  44.703  1.00  0.00    -0.530 OA
ENDBRANCH  18  19
ENDBRANCH   9  12
BRANCH   1  22
HETATM   22  C3  UNL     1     -21.128  36.512  45.657  1.00  0.00     0.161 C 
BRANCH  22  23
HETATM   23  C2  UNL     1     -22.052  37.378  44.907  1.00  0.00    -0.017 C 
HETATM   24  C1  UNL     1     -22.313  37.146  43.633  1.00  0.00     0.008 C 
ENDBRANCH  22  23
ENDBRANCH   1  22
TORSDOF 4
ENDMDL
MODEL 3
REMARK VINA RESULT: -7.992264839      3.670      4.859
REMARK  4 active torsions:
REMARK  status: ('A' for Active; 'I' for Inactive)
REMARK    1  A    between atoms: C2_2  and  C3_3 
REMARK    2  A    between atoms: C3_3  and  N1_4 
REMARK    3  A    between atoms: C6_12  and  C7_13 
REMARK    4  A    between atoms: C11_19  and  N5_20 
ROOT
HETATM    1  N1  UNL     1     -19.772  36.444  45.948  1.00  0.00    -0.284 N 
HETATM    2  C4  UNL     1     -19.501  37.685  46.380  1.00  0.00     0.196 A 
HETATM    3  S1  UNL     1     -20.464  38.406  47.476  1.00  0.00    -0.039 SA
HETATM    4  N2  UNL     1     -18.427  38.330  45.903  1.00  0.00    -0.275 N 
ATOM      5  H2  UNL     1     -18.212  39.274  46.225  1.00  0.00     0.189 HD
HETATM    6  N3  UNL     1     -17.667  37.754  45.034  1.00  0.00    -0.293 N 
ATOM      7  H3  UNL     1     -16.858  38.270  44.688  1.00  0.00     0.187 HD
HETATM    8  C5  UNL     1     -17.877  36.514  44.556  1.00  0.00     0.117 A 
HETATM    9  C6  UNL     1     -17.040  35.990  43.526  1.00  0.00     0.053 C 
HETATM   10  C12 UNL     1     -18.995  35.830  45.048  1.00  0.00     0.278 A 
HETATM   11  O3  UNL     1     -19.211  34.678  44.619  1.00  0.00    -0.265 OA
ENDROOT
BRANCH   9  12
HETATM   12  C7  UNL     1     -15.925  35.296  43.362  1.00  0.00     0.035 A 
HETATM   13  C8  UNL     1     -16.032  34.211  42.451  1.00  0.00     0.026 A 
HETATM   14  C9  UNL     1     -17.081  33.784  41.733  1.00  0.00     0.034 C 
HETATM   15  S2  UNL     1     -14.493  33.523  42.444  1.00  0.00    -0.011 SA
HETATM   16  N4  UNL     1     -13.726  34.523  43.522  1.00  0.00    -0.302 N 
HETATM   17  C10 UNL     1     -12.305  34.415  43.939  1.00  0.00     0.167 C 
HETATM   18  C11 UNL     1     -14.674  35.424  43.911  1.00  0.00     0.193 A 
BRANCH  18  19
HETATM   19  N5  UNL     1     -14.298  36.338  44.780  1.00  0.00    -0.096 N 
HETATM   20  O1  UNL     1     -13.730  37.536  44.630  1.00  0.00    -0.530 OA
HETATM   21  O2  UNL     1     -14.489  36.101  46.170  1.00  0.00    -0.530 OA
ENDBRANCH  18  19
ENDBRANCH   9  12
BRANCH   1  22
HETATM   22  C3  UNL     1     -20.938  35.766  46.479  1.00  0.00     0.161 C 
BRANCH  22  23
HETATM   23  C2  UNL     1     -22.076  35.764  45.544  1.00  0.00    -0.017 C 
HETATM   24  C1  UNL     1     -23.105  34.959  45.734  1.00  0.00     0.008 C 
ENDBRANCH  22  23
ENDBRANCH   1  22
TORSDOF 4
ENDMDL
MODEL 4
REMARK VINA RESULT: -7.842850703      2.018      2.913
REMARK  4 active torsions:
REMARK  status: ('A' for Active; 'I' for Inactive)
REMARK    1  A    between atoms: C2_2  and  C3_3 
REMARK    2  A    between atoms: C3_3  and  N1_4 
REMARK    3  A    between atoms: C6_12  and  C7_13 
REMARK    4  A    between atoms: C11_19  and  N5_20 
ROOT
HETATM    1  N1  UNL     1     -18.697  35.373  46.549  1.00  0.00    -0.284 N 
HETATM    2  C4  UNL     1     -17.817  34.539  47.125  1.00  0.00     0.196 A 
HETATM    3  S1  UNL     1     -18.118  33.910  48.596  1.00  0.00    -0.039 SA
HETATM    4  N2  UNL     1     -16.684  34.226  46.480  1.00  0.00    -0.275 N 
ATOM      5  H2  UNL     1     -16.009  33.593  46.910  1.00  0.00     0.189 HD
HETATM    6  N3  UNL     1     -16.450  34.727  45.315  1.00  0.00    -0.293 N 
ATOM      7  H3  UNL     1     -15.580  34.471  44.849  1.00  0.00     0.187 HD
HETATM    8  C5  UNL     1     -17.285  35.568  44.677  1.00  0.00     0.117 A 
HETATM    9  C6  UNL     1     -16.903  36.150  43.431  1.00  0.00     0.053 C 
HETATM   10  C12 UNL     1     -18.471  35.902  45.340  1.00  0.00     0.278 A 
HETATM   11  O3  UNL     1     -19.261  36.681  44.768  1.00  0.00    -0.265 OA
ENDROOT
BRANCH   9  12
HETATM   12  C7  UNL     1     -16.976  35.928  42.129  1.00  0.00     0.035 A 
HETATM   13  C8  UNL     1     -17.801  36.842  41.417  1.00  0.00     0.026 A 
HETATM   14  C9  UNL     1     -18.512  37.890  41.858  1.00  0.00     0.034 C 
HETATM   15  S2  UNL     1     -17.706  36.324  39.816  1.00  0.00    -0.011 SA
HETATM   16  N4  UNL     1     -16.690  35.025  39.992  1.00  0.00    -0.302 N 
HETATM   17  C10 UNL     1     -16.222  34.141  38.896  1.00  0.00     0.167 C 
HETATM   18  C11 UNL     1     -16.403  34.974  41.326  1.00  0.00     0.193 A 
BRANCH  18  19
HETATM   19  N5  UNL     1     -15.599  34.010  41.720  1.00  0.00    -0.096 N 
HETATM   20  O1  UNL     1     -14.303  33.998  42.034  1.00  0.00    -0.530 OA
HETATM   21  O2  UNL     1     -16.111  32.690  41.870  1.00  0.00    -0.530 OA
ENDBRANCH  18  19
ENDBRANCH   9  12
BRANCH   1  22
HETATM   22  C3  UNL     1     -19.914  35.697  47.264  1.00  0.00     0.161 C 
BRANCH  22  23
HETATM   23  C2  UNL     1     -21.060  34.869  46.853  1.00  0.00    -0.017 C 
HETATM   24  C1  UNL     1     -22.159  35.424  46.375  1.00  0.00     0.008 C 
ENDBRANCH  22  23
ENDBRANCH   1  22
TORSDOF 4
ENDMDL
MODEL 5
REMARK VINA RESULT: -7.718542848      1.076      1.169
REMARK  4 active torsions:
REMARK  status: ('A' for Active; 'I' for Inactive)
REMARK    1  A    between atoms: C2_2  and  C3_3 
REMARK    2  A    between atoms: C3_3  and  N1_4 
REMARK    3  A    between atoms: C6_12  and  C7_13 
REMARK    4  A    between atoms: C11_19  and  N5_20 
ROOT
HETATM    1  N1  UNL     1     -17.245  35.439  47.961  1.00  0.00    -0.284 N 
HETATM    2  C4  UNL     1     -18.256  34.615  48.280  1.00  0.00     0.196 A 
HETATM    3  S1  UNL     1     -18.801  34.532  49.811  1.00  0.00    -0.039 SA
HETATM    4  N2  UNL     1     -18.816  33.858  47.326  1.00  0.00    -0.275 N 
ATOM      5  H2  UNL     1     -19.585  33.230  47.558  1.00  0.00     0.189 HD
HETATM    6  N3  UNL     1     -18.381  33.928  46.113  1.00  0.00    -0.293 N 
ATOM      7  H3  UNL     1     -18.826  33.340  45.409  1.00  0.00     0.187 HD
HETATM    8  C5  UNL     1     -17.373  34.729  45.722  1.00  0.00     0.117 A 
HETATM    9  C6  UNL     1     -16.892  34.673  44.380  1.00  0.00     0.053 C 
HETATM   10  C12 UNL     1     -16.780  35.525  46.709  1.00  0.00     0.278 A 
HETATM   11  O3  UNL     1     -15.843  36.276  46.370  1.00  0.00    -0.265 OA
ENDROOT
BRANCH   9  12
HETATM   12  C7  UNL     1     -17.091  35.224  43.193  1.00  0.00     0.035 A 
HETATM   13  C8  UNL     1     -17.976  36.337  43.198  1.00  0.00     0.026 A 
HETATM   14  C9  UNL     1     -18.634  36.914  44.213  1.00  0.00     0.034 C 
HETATM   15  S2  UNL     1     -18.040  36.822  41.585  1.00  0.00    -0.011 SA
HETATM   16  N4  UNL     1     -17.019  35.704  40.907  1.00  0.00    -0.302 N 
HETATM   17  C10 UNL     1     -16.665  35.620  39.468  1.00  0.00     0.167 C 
HETATM   18  C11 UNL     1     -16.605  34.922  41.946  1.00  0.00     0.193 A 
BRANCH  18  19
HETATM   19  N5  UNL     1     -15.772  33.946  41.654  1.00  0.00    -0.096 N 
HETATM   20  O1  UNL     1     -15.972  32.672  41.309  1.00  0.00    -0.530 OA
HETATM   21  O2  UNL     1     -14.371  34.190  41.682  1.00  0.00    -0.530 OA
ENDBRANCH  18  19
ENDBRANCH   9  12
BRANCH   1  22
HETATM   22  C3  UNL     1     -16.655  36.247  49.009  1.00  0.00     0.161 C 
BRANCH  22  23
HETATM   23  C2  UNL     1     -15.381  35.701  49.506  1.00  0.00    -0.017 C 
HETATM   24  C1  UNL     1     -15.201  35.471  50.794  1.00  0.00     0.008 C 
ENDBRANCH  22  23
ENDBRANCH   1  22
TORSDOF 4
ENDMDL
