MODEL 1
REMARK VINA RESULT: -7.492426314      0.000      0.000
REMARK  3 active torsions:
REMARK  status: ('A' for Active; 'I' for Inactive)
REMARK    1  A    between atoms: C3_4  and  N1_5 
REMARK    2  A    between atoms: N2_8  and  C6_9 
REMARK    3  A    between atoms: C12_21  and  N6_22 
ROOT
HETATM    1  O1  UNL     1     -16.632  33.354  40.358  1.00  0.00    -0.268 OA
HETATM    2  C1  UNL     1     -16.613  34.012  41.424  1.00  0.00     0.263 A 
HETATM    3  C2  UNL     1     -17.775  34.555  41.967  1.00  0.00     0.123 A 
HETATM    4  C3  UNL     1     -17.727  35.272  43.138  1.00  0.00     0.124 A 
HETATM    5  N5  UNL     1     -16.535  35.432  43.739  1.00  0.00    -0.176 N 
ATOM      6  H5  UNL     1     -16.474  35.961  44.609  1.00  0.00     0.186 HD
HETATM    7  C12 UNL     1     -15.417  34.899  43.198  1.00  0.00     0.684 A 
HETATM    8  N7  UNL     1     -15.442  34.194  42.054  1.00  0.00    -0.156 N 
ATOM      9  H7  UNL     1     -14.583  33.803  41.669  1.00  0.00     0.187 HD
ENDROOT
BRANCH   4  10
HETATM   10  N1  UNL     1     -18.889  35.847  43.707  1.00  0.00    -0.364 N 
HETATM   11  C4  UNL     1     -19.554  36.981  43.155  1.00  0.00     0.144 C 
HETATM   12  C5  UNL     1     -20.266  37.830  44.185  1.00  0.00     0.144 C 
HETATM   13  N2  UNL     1     -20.924  37.002  45.184  1.00  0.00    -0.364 N 
HETATM   14  C10 UNL     1     -20.862  35.571  45.125  1.00  0.00     0.144 C 
HETATM   15  C11 UNL     1     -19.402  35.206  44.911  1.00  0.00     0.144 C 
BRANCH  13  16
HETATM   16  C6  UNL     1     -21.620  37.649  46.225  1.00  0.00     0.105 A 
HETATM   17  C7  UNL     1     -22.988  37.628  46.380  1.00  0.00     0.065 A 
HETATM   18  C8  UNL     1     -23.617  38.278  47.439  1.00  0.00     0.092 A 
HETATM   19  N3  UNL     1     -22.897  38.945  48.343  1.00  0.00    -0.362 N 
HETATM   20  C9  UNL     1     -21.558  38.969  48.196  1.00  0.00     0.181 A 
ATOM     21  H3  UNL     1     -23.348  39.424  49.123  1.00  0.00     0.165 HD
HETATM   22  N4  UNL     1     -20.955  38.353  47.192  1.00  0.00    -0.339 N 
ATOM     23  H4  UNL     1     -19.937  38.407  47.136  1.00  0.00     0.168 HD
ENDBRANCH  13  16
ENDBRANCH   4  10
BRANCH   7  24
HETATM   24  N6  UNL     1     -14.166  35.105  43.861  1.00  0.00    -0.213 N 
HETATM   25  C13 UNL     1     -14.026  36.033  44.962  1.00  0.00     0.167 C 
HETATM   26  C14 UNL     1     -12.553  36.415  45.027  1.00  0.00     0.188 C 
HETATM   27  O2  UNL     1     -11.745  35.346  45.287  1.00  0.00    -0.388 OA
HETATM   28  C15 UNL     1     -11.929  34.259  44.471  1.00  0.00     0.188 C 
HETATM   29  C16 UNL     1     -12.994  34.378  43.440  1.00  0.00     0.167 C 
ENDBRANCH   7  24
TORSDOF 3
ENDMDL
MODEL 2
REMARK VINA RESULT: -7.476848561      3.645      5.245
REMARK  3 active torsions:
REMARK  status: ('A' for Active; 'I' for Inactive)
REMARK    1  A    between atoms: C3_4  and  N1_5 
REMARK    2  A    between atoms: N2_8  and  C6_9 
REMARK    3  A    between atoms: C12_21  and  N6_22 
ROOT
HETATM    1  O1  UNL     1     -12.874  34.091  44.577  1.00  0.00    -0.268 OA
HETATM    2  C1  UNL     1     -14.099  34.304  44.422  1.00  0.00     0.263 A 
HETATM    3  C2  UNL     1     -14.985  34.284  45.497  1.00  0.00     0.123 A 
HETATM    4  C3  UNL     1     -16.324  34.521  45.299  1.00  0.00     0.124 A 
HETATM    5  N5  UNL     1     -16.749  34.771  44.050  1.00  0.00    -0.176 N 
ATOM      6  H5  UNL     1     -17.739  34.951  43.878  1.00  0.00     0.186 HD
HETATM    7  C12 UNL     1     -15.876  34.787  43.018  1.00  0.00     0.684 A 
HETATM    8  N7  UNL     1     -14.563  34.558  43.189  1.00  0.00    -0.156 N 
ATOM      9  H7  UNL     1     -13.927  34.576  42.392  1.00  0.00     0.187 HD
ENDROOT
BRANCH   4  10
HETATM   10  N1  UNL     1     -17.250  34.494  46.370  1.00  0.00    -0.364 N 
HETATM   11  C4  UNL     1     -16.883  34.714  47.730  1.00  0.00     0.144 C 
HETATM   12  C5  UNL     1     -17.766  33.992  48.724  1.00  0.00     0.144 C 
HETATM   13  N2  UNL     1     -19.162  34.041  48.318  1.00  0.00    -0.364 N 
HETATM   14  C10 UNL     1     -19.567  34.714  47.119  1.00  0.00     0.144 C 
HETATM   15  C11 UNL     1     -18.639  34.234  46.015  1.00  0.00     0.144 C 
BRANCH  13  16
HETATM   16  C6  UNL     1     -20.112  33.396  49.136  1.00  0.00     0.105 A 
HETATM   17  C7  UNL     1     -21.307  33.954  49.535  1.00  0.00     0.065 A 
HETATM   18  C8  UNL     1     -22.210  33.260  50.334  1.00  0.00     0.092 A 
HETATM   19  N3  UNL     1     -21.937  32.017  50.739  1.00  0.00    -0.362 N 
HETATM   20  C9  UNL     1     -20.769  31.467  50.351  1.00  0.00     0.181 A 
ATOM     21  H3  UNL     1     -22.592  31.500  51.324  1.00  0.00     0.165 HD
HETATM   22  N4  UNL     1     -19.907  32.121  49.591  1.00  0.00    -0.339 N 
ATOM     23  H4  UNL     1     -19.040  31.650  49.331  1.00  0.00     0.168 HD
ENDBRANCH  13  16
ENDBRANCH   4  10
BRANCH   7  24
HETATM   24  N6  UNL     1     -16.372  35.043  41.700  1.00  0.00    -0.213 N 
HETATM   25  C13 UNL     1     -16.191  34.101  40.616  1.00  0.00     0.167 C 
HETATM   26  C14 UNL     1     -16.305  34.896  39.323  1.00  0.00     0.188 C 
HETATM   27  O2  UNL     1     -17.535  35.468  39.166  1.00  0.00    -0.388 OA
HETATM   28  C15 UNL     1     -17.977  36.209  40.232  1.00  0.00     0.188 C 
HETATM   29  C16 UNL     1     -17.081  36.266  41.417  1.00  0.00     0.167 C 
ENDBRANCH   7  24
TORSDOF 3
ENDMDL
MODEL 3
REMARK VINA RESULT: -7.465196297      3.293      8.327
REMARK  3 active torsions:
REMARK  status: ('A' for Active; 'I' for Inactive)
REMARK    1  A    between atoms: C3_4  and  N1_5 
REMARK    2  A    between atoms: N2_8  and  C6_9 
REMARK    3  A    between atoms: C12_21  and  N6_22 
ROOT
HETATM    1  O1  UNL     1     -22.115  37.853  42.893  1.00  0.00    -0.268 OA
HETATM    2  C1  UNL     1     -21.545  37.087  43.704  1.00  0.00     0.263 A 
HETATM    3  C2  UNL     1     -20.209  36.722  43.550  1.00  0.00     0.123 A 
HETATM    4  C3  UNL     1     -19.609  35.881  44.455  1.00  0.00     0.124 A 
HETATM    5  N5  UNL     1     -20.341  35.424  45.484  1.00  0.00    -0.176 N 
ATOM      6  H5  UNL     1     -19.917  34.799  46.169  1.00  0.00     0.186 HD
HETATM    7  C12 UNL     1     -21.636  35.788  45.619  1.00  0.00     0.684 A 
HETATM    8  N7  UNL     1     -22.243  36.610  44.746  1.00  0.00    -0.156 N 
ATOM      9  H7  UNL     1     -23.222  36.867  44.873  1.00  0.00     0.187 HD
ENDROOT
BRANCH   4  10
HETATM   10  N1  UNL     1     -18.257  35.483  44.316  1.00  0.00    -0.364 N 
HETATM   11  C4  UNL     1     -17.694  34.365  44.999  1.00  0.00     0.144 C 
HETATM   12  C5  UNL     1     -16.216  34.508  45.287  1.00  0.00     0.144 C 
HETATM   13  N2  UNL     1     -15.519  35.115  44.163  1.00  0.00    -0.364 N 
HETATM   14  C10 UNL     1     -16.216  35.493  42.969  1.00  0.00     0.144 C 
HETATM   15  C11 UNL     1     -17.440  36.279  43.410  1.00  0.00     0.144 C 
BRANCH  13  16
HETATM   16  C6  UNL     1     -14.131  35.331  44.284  1.00  0.00     0.105 A 
HETATM   17  C7  UNL     1     -13.561  36.467  44.813  1.00  0.00     0.065 A 
HETATM   18  C8  UNL     1     -12.181  36.615  44.917  1.00  0.00     0.092 A 
HETATM   19  N3  UNL     1     -11.365  35.644  44.501  1.00  0.00    -0.362 N 
HETATM   20  C9  UNL     1     -11.918  34.530  43.982  1.00  0.00     0.181 A 
ATOM     21  H3  UNL     1     -10.352  35.742  44.574  1.00  0.00     0.165 HD
HETATM   22  N4  UNL     1     -13.229  34.383  43.881  1.00  0.00    -0.339 N 
ATOM     23  H4  UNL     1     -13.587  33.516  43.480  1.00  0.00     0.168 HD
ENDBRANCH  13  16
ENDBRANCH   4  10
BRANCH   7  24
HETATM   24  N6  UNL     1     -22.386  35.267  46.721  1.00  0.00    -0.213 N 
HETATM   25  C13 UNL     1     -23.767  34.857  46.584  1.00  0.00     0.167 C 
HETATM   26  C14 UNL     1     -24.381  34.915  47.977  1.00  0.00     0.188 C 
HETATM   27  O2  UNL     1     -23.783  34.051  48.849  1.00  0.00    -0.388 OA
HETATM   28  C15 UNL     1     -22.416  34.138  48.917  1.00  0.00     0.188 C 
HETATM   29  C16 UNL     1     -21.770  35.132  48.018  1.00  0.00     0.167 C 
ENDBRANCH   7  24
TORSDOF 3
ENDMDL
MODEL 4
REMARK VINA RESULT: -7.460573501      2.094      2.623
REMARK  3 active torsions:
REMARK  status: ('A' for Active; 'I' for Inactive)
REMARK    1  A    between atoms: C3_4  and  N1_5 
REMARK    2  A    between atoms: N2_8  and  C6_9 
REMARK    3  A    between atoms: C12_21  and  N6_22 
ROOT
HETATM    1  O1  UNL     1     -17.070  33.452  41.034  1.00  0.00    -0.268 OA
HETATM    2  C1  UNL     1     -16.856  33.958  42.160  1.00  0.00     0.263 A 
HETATM    3  C2  UNL     1     -17.891  34.200  43.061  1.00  0.00     0.123 A 
HETATM    4  C3  UNL     1     -17.628  34.755  44.290  1.00  0.00     0.124 A 
HETATM    5  N5  UNL     1     -16.354  35.055  44.594  1.00  0.00    -0.176 N 
ATOM      6  H5  UNL     1     -16.134  35.468  45.501  1.00  0.00     0.186 HD
HETATM    7  C12 UNL     1     -15.362  34.815  43.708  1.00  0.00     0.684 A 
HETATM    8  N7  UNL     1     -15.597  34.272  42.501  1.00  0.00    -0.156 N 
ATOM      9  H7  UNL     1     -14.828  34.102  41.853  1.00  0.00     0.187 HD
ENDROOT
BRANCH   4  10
HETATM   10  N1  UNL     1     -18.661  35.024  45.220  1.00  0.00    -0.364 N 
HETATM   11  C4  UNL     1     -18.523  34.823  46.625  1.00  0.00     0.144 C 
HETATM   12  C5  UNL     1     -19.823  34.488  47.322  1.00  0.00     0.144 C 
HETATM   13  N2  UNL     1     -20.922  35.281  46.794  1.00  0.00    -0.364 N 
HETATM   14  C10 UNL     1     -20.714  36.241  45.750  1.00  0.00     0.144 C 
HETATM   15  C11 UNL     1     -19.906  35.542  44.669  1.00  0.00     0.144 C 
BRANCH  13  16
HETATM   16  C6  UNL     1     -22.208  35.072  47.332  1.00  0.00     0.105 A 
HETATM   17  C7  UNL     1     -23.377  35.520  46.759  1.00  0.00     0.065 A 
HETATM   18  C8  UNL     1     -24.619  35.269  47.334  1.00  0.00     0.092 A 
HETATM   19  N3  UNL     1     -24.709  34.579  48.473  1.00  0.00    -0.362 N 
HETATM   20  C9  UNL     1     -23.567  34.139  49.039  1.00  0.00     0.181 A 
ATOM     21  H3  UNL     1     -25.614  34.390  48.903  1.00  0.00     0.165 HD
HETATM   22  N4  UNL     1     -22.384  34.373  48.496  1.00  0.00    -0.339 N 
ATOM     23  H4  UNL     1     -21.556  34.013  48.972  1.00  0.00     0.168 HD
ENDBRANCH  13  16
ENDBRANCH   4  10
BRANCH   7  24
HETATM   24  N6  UNL     1     -14.021  35.163  44.066  1.00  0.00    -0.213 N 
HETATM   25  C13 UNL     1     -12.875  34.480  43.504  1.00  0.00     0.167 C 
HETATM   26  C14 UNL     1     -11.723  34.685  44.479  1.00  0.00     0.188 C 
HETATM   27  O2  UNL     1     -11.386  36.000  44.621  1.00  0.00    -0.388 OA
HETATM   28  C15 UNL     1     -12.425  36.845  44.915  1.00  0.00     0.188 C 
HETATM   29  C16 UNL     1     -13.775  36.226  45.008  1.00  0.00     0.167 C 
ENDBRANCH   7  24
TORSDOF 3
ENDMDL
MODEL 5
REMARK VINA RESULT: -7.423243116      1.576      2.214
REMARK  3 active torsions:
REMARK  status: ('A' for Active; 'I' for Inactive)
REMARK    1  A    between atoms: C3_4  and  N1_5 
REMARK    2  A    between atoms: N2_8  and  C6_9 
REMARK    3  A    between atoms: C12_21  and  N6_22 
ROOT
HETATM    1  O1  UNL     1     -17.022  33.055  41.332  1.00  0.00    -0.268 OA
HETATM    2  C1  UNL     1     -16.831  33.736  42.366  1.00  0.00     0.263 A 
HETATM    3  C2  UNL     1     -17.887  34.133  43.184  1.00  0.00     0.123 A 
HETATM    4  C3  UNL     1     -17.651  34.880  44.313  1.00  0.00     0.124 A 
HETATM    5  N5  UNL     1     -16.381  35.213  44.602  1.00  0.00    -0.176 N 
ATOM      6  H5  UNL     1     -16.181  35.767  45.435  1.00  0.00     0.186 HD
HETATM    7  C12 UNL     1     -15.369  34.820  43.798  1.00  0.00     0.684 A 
HETATM    8  N7  UNL     1     -15.578  34.089  42.690  1.00  0.00    -0.156 N 
ATOM      9  H7  UNL     1     -14.794  33.807  42.102  1.00  0.00     0.187 HD
ENDROOT
BRANCH   4  10
HETATM   10  N1  UNL     1     -18.705  35.309  45.155  1.00  0.00    -0.364 N 
HETATM   11  C4  UNL     1     -18.837  34.903  46.515  1.00  0.00     0.144 C 
HETATM   12  C5  UNL     1     -20.269  34.861  47.002  1.00  0.00     0.144 C 
HETATM   13  N2  UNL     1     -21.030  35.990  46.491  1.00  0.00    -0.364 N 
HETATM   14  C10 UNL     1     -20.425  36.976  45.645  1.00  0.00     0.144 C 
HETATM   15  C11 UNL     1     -19.675  36.220  44.561  1.00  0.00     0.144 C 
BRANCH  13  16
HETATM   16  C6  UNL     1     -22.391  36.084  46.844  1.00  0.00     0.105 A 
HETATM   17  C7  UNL     1     -23.220  35.004  47.054  1.00  0.00     0.065 A 
HETATM   18  C8  UNL     1     -24.555  35.163  47.414  1.00  0.00     0.092 A 
HETATM   19  N3  UNL     1     -25.072  36.384  47.568  1.00  0.00    -0.362 N 
HETATM   20  C9  UNL     1     -24.265  37.444  47.364  1.00  0.00     0.181 A 
ATOM     21  H3  UNL     1     -26.049  36.511  47.833  1.00  0.00     0.165 HD
HETATM   22  N4  UNL     1     -22.996  37.300  47.021  1.00  0.00    -0.339 N 
ATOM     23  H4  UNL     1     -22.436  38.141  46.881  1.00  0.00     0.168 HD
ENDBRANCH  13  16
ENDBRANCH   4  10
BRANCH   7  24
HETATM   24  N6  UNL     1     -14.033  35.208  44.133  1.00  0.00    -0.213 N 
HETATM   25  C13 UNL     1     -12.877  34.547  43.567  1.00  0.00     0.167 C 
HETATM   26  C14 UNL     1     -11.719  34.796  44.524  1.00  0.00     0.188 C 
HETATM   27  O2  UNL     1     -11.414  36.121  44.645  1.00  0.00    -0.388 OA
HETATM   28  C15 UNL     1     -12.472  36.942  44.940  1.00  0.00     0.188 C 
HETATM   29  C16 UNL     1     -13.804  36.290  45.058  1.00  0.00     0.167 C 
ENDBRANCH   7  24
TORSDOF 3
ENDMDL
