MODEL 1
REMARK VINA RESULT: -6.040419309      0.000      0.000
REMARK  0 active torsions:
REMARK  status: ('A' for Active; 'I' for Inactive)
ROOT
HETATM    1  C1  UNL     1      34.612  -6.792 -31.416  1.00  0.00     0.018 C 
HETATM    2  C2  UNL     1      35.465  -7.633 -31.198  1.00  0.00    -0.076 C 
HETATM    3  C3  UNL     1      36.456  -8.641 -30.943  1.00  0.00     0.033 A 
HETATM    4  C4  UNL     1      37.796  -8.306 -30.930  1.00  0.00     0.109 A 
HETATM    5  N1  UNL     1      38.748  -9.237 -30.692  1.00  0.00    -0.364 N 
ATOM      6  H1  UNL     1      39.726  -8.944 -30.692  1.00  0.00     0.165 HD
HETATM    7  C5  UNL     1      38.464 -10.531 -30.455  1.00  0.00     0.042 A 
HETATM    8  C6  UNL     1      39.454 -11.472 -30.214  1.00  0.00     0.030 A 
HETATM    9  C7  UNL     1      39.156 -12.799 -29.972  1.00  0.00     0.002 A 
HETATM   10  C8  UNL     1      37.828 -13.173 -29.977  1.00  0.00     0.001 A 
HETATM   11  C9  UNL     1      36.834 -12.236 -30.218  1.00  0.00     0.014 A 
HETATM   12  C10 UNL     1      37.132 -10.911 -30.459  1.00  0.00    -0.008 A 
HETATM   13  C11 UNL     1      36.150  -9.964 -30.702  1.00  0.00     0.035 A 
ENDROOT
TORSDOF 0
ENDMDL
MODEL 2
REMARK VINA RESULT: -5.698555441      1.199      2.070
REMARK  0 active torsions:
REMARK  status: ('A' for Active; 'I' for Inactive)
ROOT
HETATM    1  C1  UNL     1      34.687  -6.759 -31.392  1.00  0.00     0.018 C 
HETATM    2  C2  UNL     1      35.414  -7.714 -31.183  1.00  0.00    -0.076 C 
HETATM    3  C3  UNL     1      36.283  -8.827 -30.922  1.00  0.00     0.033 A 
HETATM    4  C4  UNL     1      35.908 -10.101 -31.301  1.00  0.00     0.109 A 
HETATM    5  N1  UNL     1      36.709 -11.166 -31.067  1.00  0.00    -0.364 N 
ATOM      6  H1  UNL     1      36.391 -12.089 -31.364  1.00  0.00     0.165 HD
HETATM    7  C5  UNL     1      37.906 -11.062 -30.461  1.00  0.00     0.042 A 
HETATM    8  C6  UNL     1      38.714 -12.166 -30.229  1.00  0.00     0.030 A 
HETATM    9  C7  UNL     1      39.942 -12.053 -29.605  1.00  0.00     0.002 A 
HETATM   10  C8  UNL     1      40.352 -10.795 -29.213  1.00  0.00     0.001 A 
HETATM   11  C9  UNL     1      39.548  -9.688 -29.442  1.00  0.00     0.014 A 
HETATM   12  C10 UNL     1      38.322  -9.801 -30.065  1.00  0.00    -0.008 A 
HETATM   13  C11 UNL     1      37.508  -8.705 -30.300  1.00  0.00     0.035 A 
ENDROOT
TORSDOF 0
ENDMDL
MODEL 3
REMARK VINA RESULT: -4.519314920      1.096      4.665
REMARK  0 active torsions:
REMARK  status: ('A' for Active; 'I' for Inactive)
ROOT
HETATM    1  C1  UNL     1      39.673 -13.618 -30.103  1.00  0.00     0.018 C 
HETATM    2  C2  UNL     1      39.138 -12.523 -30.113  1.00  0.00    -0.076 C 
HETATM    3  C3  UNL     1      38.492 -11.241 -30.139  1.00  0.00     0.033 A 
HETATM    4  C4  UNL     1      38.864 -10.261 -29.240  1.00  0.00     0.109 A 
HETATM    5  N1  UNL     1      38.270  -9.045 -29.244  1.00  0.00    -0.364 N 
ATOM      6  H1  UNL     1      38.576  -8.352 -28.561  1.00  0.00     0.165 HD
HETATM    7  C5  UNL     1      37.295  -8.709 -30.108  1.00  0.00     0.042 A 
HETATM    8  C6  UNL     1      36.697  -7.458 -30.097  1.00  0.00     0.030 A 
HETATM    9  C7  UNL     1      35.695  -7.119 -30.987  1.00  0.00     0.002 A 
HETATM   10  C8  UNL     1      35.297  -8.072 -31.902  1.00  0.00     0.001 A 
HETATM   11  C9  UNL     1      35.891  -9.326 -31.917  1.00  0.00     0.014 A 
HETATM   12  C10 UNL     1      36.891  -9.663 -31.029  1.00  0.00    -0.008 A 
HETATM   13  C11 UNL     1      37.493 -10.911 -31.031  1.00  0.00     0.035 A 
ENDROOT
TORSDOF 0
ENDMDL
MODEL 4
REMARK VINA RESULT: -4.386901973      1.448      4.897
REMARK  0 active torsions:
REMARK  status: ('A' for Active; 'I' for Inactive)
ROOT
HETATM    1  C1  UNL     1      39.474 -13.388 -30.241  1.00  0.00     0.018 C 
HETATM    2  C2  UNL     1      38.695 -12.464 -30.092  1.00  0.00    -0.076 C 
HETATM    3  C3  UNL     1      37.775 -11.372 -29.941  1.00  0.00     0.033 A 
HETATM    4  C4  UNL     1      37.180 -11.133 -28.717  1.00  0.00     0.109 A 
HETATM    5  N1  UNL     1      36.311 -10.111 -28.548  1.00  0.00    -0.364 N 
ATOM      6  H1  UNL     1      35.896  -9.972 -27.626  1.00  0.00     0.165 HD
HETATM    7  C5  UNL     1      35.968  -9.269 -29.540  1.00  0.00     0.042 A 
HETATM    8  C6  UNL     1      35.074  -8.226 -29.349  1.00  0.00     0.030 A 
HETATM    9  C7  UNL     1      34.726  -7.366 -30.373  1.00  0.00     0.002 A 
HETATM   10  C8  UNL     1      35.300  -7.572 -31.611  1.00  0.00     0.001 A 
HETATM   11  C9  UNL     1      36.195  -8.613 -31.808  1.00  0.00     0.014 A 
HETATM   12  C10 UNL     1      36.542  -9.472 -30.786  1.00  0.00    -0.008 A 
HETATM   13  C11 UNL     1      37.434 -10.517 -30.967  1.00  0.00     0.035 A 
ENDROOT
TORSDOF 0
ENDMDL
MODEL 5
REMARK VINA RESULT: -4.230045087      1.789      3.256
REMARK  0 active torsions:
REMARK  status: ('A' for Active; 'I' for Inactive)
ROOT
HETATM    1  C1  UNL     1      40.820  -7.249 -29.475  1.00  0.00     0.018 C 
HETATM    2  C2  UNL     1      39.834  -7.915 -29.740  1.00  0.00    -0.076 C 
HETATM    3  C3  UNL     1      38.678  -8.714 -30.034  1.00  0.00     0.033 A 
HETATM    4  C4  UNL     1      37.706  -8.233 -30.890  1.00  0.00     0.109 A 
HETATM    5  N1  UNL     1      36.607  -8.967 -31.184  1.00  0.00    -0.364 N 
ATOM      6  H1  UNL     1      35.915  -8.572 -31.821  1.00  0.00     0.165 HD
HETATM    7  C5  UNL     1      36.387 -10.192 -30.673  1.00  0.00     0.042 A 
HETATM    8  C6  UNL     1      35.254 -10.929 -30.986  1.00  0.00     0.030 A 
HETATM    9  C7  UNL     1      35.033 -12.187 -30.457  1.00  0.00     0.002 A 
HETATM   10  C8  UNL     1      35.982 -12.701 -29.598  1.00  0.00     0.001 A 
HETATM   11  C9  UNL     1      37.117 -11.968 -29.282  1.00  0.00     0.014 A 
HETATM   12  C10 UNL     1      37.337 -10.713 -29.810  1.00  0.00    -0.008 A 
HETATM   13  C11 UNL     1      38.466  -9.968 -29.504  1.00  0.00     0.035 A 
ENDROOT
TORSDOF 0
ENDMDL
