MODEL 1
REMARK VINA RESULT: -7.231576145      0.000      0.000
REMARK  3 active torsions:
REMARK  status: ('A' for Active; 'I' for Inactive)
REMARK    1  A    between atoms: C4_4  and  C5_5 
REMARK    2  A    between atoms: N1_6  and  N2_8 
REMARK       I    between atoms: N2_8  and  C6_10 
REMARK    3  A    between atoms: C6_10  and  C7_12 
ROOT
HETATM    1  C7  UNL     1      -1.497  14.257   3.997  1.00  0.00     0.121 C 
HETATM    2  C8  UNL     1      -1.198  12.999   3.773  1.00  0.00     0.083 C 
HETATM    3  S1  UNL     1       0.154  12.604   4.879  1.00  0.00    -0.111 SA
HETATM    4  C9  UNL     1      -0.214  14.018   6.020  1.00  0.00     0.192 C 
HETATM    5  N3  UNL     1      -0.698  14.904   4.964  1.00  0.00    -0.253 N 
HETATM    6  S2  UNL     1       0.156  16.174   5.777  1.00  0.00     0.245 S 
HETATM    7  O2  UNL     1       0.987  17.039   4.909  1.00  0.00    -0.204 OA
HETATM    8  O3  UNL     1      -0.755  16.892   6.702  1.00  0.00    -0.204 OA
HETATM    9  C10 UNL     1       0.998  14.769   6.484  1.00  0.00     0.107 C 
HETATM   10  C11 UNL     1       2.292  14.440   5.817  1.00  0.00     0.037 C 
HETATM   11  C12 UNL     1       1.027  14.871   7.986  1.00  0.00     0.037 C 
ENDROOT
BRANCH   1  12
HETATM   12  C6  UNL     1      -2.563  14.967   3.288  1.00  0.00     0.287 C 
HETATM   13  N2  UNL     1      -2.641  16.380   3.199  1.00  0.00    -0.265 N 
ATOM     14  H2  UNL     1      -1.915  16.935   3.653  1.00  0.00     0.190 HD
HETATM   15  O1  UNL     1      -3.463  14.304   2.724  1.00  0.00    -0.264 OA
BRANCH  13  16
HETATM   16  N1  UNL     1      -3.644  17.039   2.533  1.00  0.00    -0.309 N 
HETATM   17  C5  UNL     1      -3.690  18.325   2.438  1.00  0.00     0.107 C 
ATOM     18  H1  UNL     1      -4.384  16.489   2.094  1.00  0.00     0.186 HD
BRANCH  17  19
HETATM   19  C4  UNL     1      -4.780  18.957   1.719  1.00  0.00     0.020 C 
HETATM   20  C2  UNL     1      -4.625  20.184   1.276  1.00  0.00    -0.086 C 
HETATM   21  C1  UNL     1      -5.737  20.829   0.542  1.00  0.00     0.043 C 
HETATM   22  C3  UNL     1      -3.365  20.915   1.501  1.00  0.00     0.043 C 
ENDBRANCH  17  19
ENDBRANCH  13  16
ENDBRANCH   1  12
TORSDOF 3
ENDMDL
MODEL 2
REMARK VINA RESULT: -7.121286877      5.688      9.600
REMARK  3 active torsions:
REMARK  status: ('A' for Active; 'I' for Inactive)
REMARK    1  A    between atoms: C4_4  and  C5_5 
REMARK    2  A    between atoms: N1_6  and  N2_8 
REMARK       I    between atoms: N2_8  and  C6_10 
REMARK    3  A    between atoms: C6_10  and  C7_12 
ROOT
HETATM    1  C7  UNL     1       3.032  17.587   6.767  1.00  0.00     0.121 C 
HETATM    2  C8  UNL     1       2.577  18.699   6.239  1.00  0.00     0.083 C 
HETATM    3  S1  UNL     1       0.830  18.435   5.952  1.00  0.00    -0.111 SA
HETATM    4  C9  UNL     1       0.722  17.041   7.169  1.00  0.00     0.192 C 
HETATM    5  N3  UNL     1       2.078  16.558   6.921  1.00  0.00    -0.253 N 
HETATM    6  S2  UNL     1       1.418  14.959   7.010  1.00  0.00     0.245 S 
HETATM    7  O2  UNL     1       1.836  14.037   5.930  1.00  0.00    -0.204 OA
HETATM    8  O3  UNL     1       1.553  14.425   8.387  1.00  0.00    -0.204 OA
HETATM    9  C10 UNL     1      -0.085  15.868   6.696  1.00  0.00     0.107 C 
HETATM   10  C11 UNL     1      -0.504  15.872   5.263  1.00  0.00     0.037 C 
HETATM   11  C12 UNL     1      -1.144  15.503   7.701  1.00  0.00     0.037 C 
ENDROOT
BRANCH   1  12
HETATM   12  C6  UNL     1       4.430  17.396   7.154  1.00  0.00     0.287 C 
HETATM   13  N2  UNL     1       4.927  17.659   8.456  1.00  0.00    -0.265 N 
ATOM     14  H2  UNL     1       4.276  17.999   9.163  1.00  0.00     0.190 HD
HETATM   15  O1  UNL     1       5.246  16.979   6.299  1.00  0.00    -0.264 OA
BRANCH  13  16
HETATM   16  N1  UNL     1       6.241  17.478   8.812  1.00  0.00    -0.309 N 
HETATM   17  C5  UNL     1       6.811  18.163   9.745  1.00  0.00     0.107 C 
ATOM     18  H1  UNL     1       6.790  16.773   8.318  1.00  0.00     0.186 HD
BRANCH  17  19
HETATM   19  C4  UNL     1       8.203  17.921  10.070  1.00  0.00     0.020 C 
HETATM   20  C2  UNL     1       9.003  18.947  10.255  1.00  0.00    -0.086 C 
HETATM   21  C1  UNL     1      10.424  18.699  10.586  1.00  0.00     0.043 C 
HETATM   22  C3  UNL     1       8.501  20.328  10.135  1.00  0.00     0.043 C 
ENDBRANCH  17  19
ENDBRANCH  13  16
ENDBRANCH   1  12
TORSDOF 3
ENDMDL
MODEL 3
REMARK VINA RESULT: -7.075697979      1.228      1.326
REMARK  3 active torsions:
REMARK  status: ('A' for Active; 'I' for Inactive)
REMARK    1  A    between atoms: C4_4  and  C5_5 
REMARK    2  A    between atoms: N1_6  and  N2_8 
REMARK       I    between atoms: N2_8  and  C6_10 
REMARK    3  A    between atoms: C6_10  and  C7_12 
ROOT
HETATM    1  C7  UNL     1      -1.093  15.000   4.131  1.00  0.00     0.121 C 
HETATM    2  C8  UNL     1      -1.054  13.733   3.794  1.00  0.00     0.083 C 
HETATM    3  S1  UNL     1       0.162  12.971   4.865  1.00  0.00    -0.111 SA
HETATM    4  C9  UNL     1       0.066  14.323   6.129  1.00  0.00     0.192 C 
HETATM    5  N3  UNL     1      -0.201  15.380   5.156  1.00  0.00    -0.253 N 
HETATM    6  S2  UNL     1       0.876  16.369   6.085  1.00  0.00     0.245 S 
HETATM    7  O2  UNL     1       1.887  17.117   5.304  1.00  0.00    -0.204 OA
HETATM    8  O3  UNL     1       0.111  17.175   7.069  1.00  0.00    -0.204 OA
HETATM    9  C10 UNL     1       1.396  14.764   6.665  1.00  0.00     0.107 C 
HETATM   10  C11 UNL     1       2.610  14.234   5.977  1.00  0.00     0.037 C 
HETATM   11  C12 UNL     1       1.410  14.724   8.170  1.00  0.00     0.037 C 
ENDROOT
BRANCH   1  12
HETATM   12  C6  UNL     1      -1.974  15.975   3.485  1.00  0.00     0.287 C 
HETATM   13  N2  UNL     1      -1.834  17.378   3.632  1.00  0.00    -0.265 N 
ATOM     14  H2  UNL     1      -1.078  17.730   4.220  1.00  0.00     0.190 HD
HETATM   15  O1  UNL     1      -2.908  15.562   2.760  1.00  0.00    -0.264 OA
BRANCH  13  16
HETATM   16  N1  UNL     1      -2.665  18.287   3.024  1.00  0.00    -0.309 N 
HETATM   17  C5  UNL     1      -2.534  19.561   3.176  1.00  0.00     0.107 C 
ATOM     18  H1  UNL     1      -3.416  17.939   2.427  1.00  0.00     0.186 HD
BRANCH  17  19
HETATM   19  C4  UNL     1      -3.448  20.465   2.504  1.00  0.00     0.020 C 
HETATM   20  C2  UNL     1      -2.961  21.378   1.694  1.00  0.00    -0.086 C 
HETATM   21  C1  UNL     1      -3.893  22.301   1.009  1.00  0.00     0.043 C 
HETATM   22  C3  UNL     1      -1.509  21.489   1.466  1.00  0.00     0.043 C 
ENDBRANCH  17  19
ENDBRANCH  13  16
ENDBRANCH   1  12
TORSDOF 3
ENDMDL
MODEL 4
REMARK VINA RESULT: -7.001406418      2.024      2.335
REMARK  3 active torsions:
REMARK  status: ('A' for Active; 'I' for Inactive)
REMARK    1  A    between atoms: C4_4  and  C5_5 
REMARK    2  A    between atoms: N1_6  and  N2_8 
REMARK       I    between atoms: N2_8  and  C6_10 
REMARK    3  A    between atoms: C6_10  and  C7_12 
ROOT
HETATM    1  C7  UNL     1      -1.017  15.589   4.273  1.00  0.00     0.121 C 
HETATM    2  C8  UNL     1      -1.313  14.350   3.957  1.00  0.00     0.083 C 
HETATM    3  S1  UNL     1      -0.277  13.314   4.988  1.00  0.00    -0.111 SA
HETATM    4  C9  UNL     1       0.028  14.656   6.230  1.00  0.00     0.192 C 
HETATM    5  N3  UNL     1      -0.011  15.739   5.251  1.00  0.00    -0.253 N 
HETATM    6  S2  UNL     1       1.322  16.432   6.113  1.00  0.00     0.245 S 
HETATM    7  O2  UNL     1       2.450  16.897   5.275  1.00  0.00    -0.204 OA
HETATM    8  O3  UNL     1       0.831  17.411   7.114  1.00  0.00    -0.204 OA
HETATM    9  C10 UNL     1       1.449  14.752   6.699  1.00  0.00     0.107 C 
HETATM   10  C11 UNL     1       2.458  13.930   5.968  1.00  0.00     0.037 C 
HETATM   11  C12 UNL     1       1.524  14.720   8.203  1.00  0.00     0.037 C 
ENDROOT
BRANCH   1  12
HETATM   12  C6  UNL     1      -1.655  16.749   3.648  1.00  0.00     0.287 C 
HETATM   13  N2  UNL     1      -1.219  18.084   3.844  1.00  0.00    -0.265 N 
ATOM     14  H2  UNL     1      -0.418  18.248   4.453  1.00  0.00     0.190 HD
HETATM   15  O1  UNL     1      -2.641  16.569   2.897  1.00  0.00    -0.264 OA
BRANCH  13  16
HETATM   16  N1  UNL     1      -1.823  19.169   3.256  1.00  0.00    -0.309 N 
HETATM   17  C5  UNL     1      -2.243  20.184   3.931  1.00  0.00     0.107 C 
ATOM     18  H1  UNL     1      -1.945  19.170   2.242  1.00  0.00     0.186 HD
BRANCH  17  19
HETATM   19  C4  UNL     1      -2.872  21.297   3.246  1.00  0.00     0.020 C 
HETATM   20  C2  UNL     1      -2.705  22.513   3.714  1.00  0.00    -0.086 C 
HETATM   21  C1  UNL     1      -3.347  23.647   3.014  1.00  0.00     0.043 C 
HETATM   22  C3  UNL     1      -1.889  22.752   4.919  1.00  0.00     0.043 C 
ENDBRANCH  17  19
ENDBRANCH  13  16
ENDBRANCH   1  12
TORSDOF 3
ENDMDL
MODEL 5
REMARK VINA RESULT: -6.839860390      1.593      1.777
REMARK  3 active torsions:
REMARK  status: ('A' for Active; 'I' for Inactive)
REMARK    1  A    between atoms: C4_4  and  C5_5 
REMARK    2  A    between atoms: N1_6  and  N2_8 
REMARK       I    between atoms: N2_8  and  C6_10 
REMARK    3  A    between atoms: C6_10  and  C7_12 
ROOT
HETATM    1  C7  UNL     1      -1.027  15.636   4.285  1.00  0.00     0.121 C 
HETATM    2  C8  UNL     1      -1.391  14.403   4.021  1.00  0.00     0.083 C 
HETATM    3  S1  UNL     1      -0.387  13.354   5.068  1.00  0.00    -0.111 SA
HETATM    4  C9  UNL     1       0.013  14.722   6.254  1.00  0.00     0.192 C 
HETATM    5  N3  UNL     1       0.007  15.770   5.236  1.00  0.00    -0.253 N 
HETATM    6  S2  UNL     1       1.391  16.425   6.045  1.00  0.00     0.245 S 
HETATM    7  O2  UNL     1       2.522  16.801   5.167  1.00  0.00    -0.204 OA
HETATM    8  O3  UNL     1       0.971  17.463   7.019  1.00  0.00    -0.204 OA
HETATM    9  C10 UNL     1       1.447  14.762   6.689  1.00  0.00     0.107 C 
HETATM   10  C11 UNL     1       2.397  13.864   5.969  1.00  0.00     0.037 C 
HETATM   11  C12 UNL     1       1.553  14.780   8.191  1.00  0.00     0.037 C 
ENDROOT
BRANCH   1  12
HETATM   12  C6  UNL     1      -1.620  16.804   3.631  1.00  0.00     0.287 C 
HETATM   13  N2  UNL     1      -1.151  18.129   3.815  1.00  0.00    -0.265 N 
ATOM     14  H2  UNL     1      -0.356  18.279   4.437  1.00  0.00     0.190 HD
HETATM   15  O1  UNL     1      -2.597  16.640   2.864  1.00  0.00    -0.264 OA
BRANCH  13  16
HETATM   16  N1  UNL     1      -1.713  19.220   3.199  1.00  0.00    -0.309 N 
HETATM   17  C5  UNL     1      -2.646  19.924   3.744  1.00  0.00     0.107 C 
ATOM     18  H1  UNL     1      -1.377  19.485   2.272  1.00  0.00     0.186 HD
BRANCH  17  19
HETATM   19  C4  UNL     1      -3.196  21.065   3.037  1.00  0.00     0.020 C 
HETATM   20  C2  UNL     1      -4.116  20.865   2.120  1.00  0.00    -0.086 C 
HETATM   21  C1  UNL     1      -4.675  22.030   1.399  1.00  0.00     0.043 C 
HETATM   22  C3  UNL     1      -4.589  19.504   1.809  1.00  0.00     0.043 C 
ENDBRANCH  17  19
ENDBRANCH  13  16
ENDBRANCH   1  12
TORSDOF 3
ENDMDL
