MODEL 1
REMARK VINA RESULT: -10.015378577      0.000      0.000
REMARK  3 active torsions:
REMARK  status: ('A' for Active; 'I' for Inactive)
REMARK    1  A    between atoms: C4_8  and  C5_9 
REMARK    2  A    between atoms: C9_13  and  C10_14 
REMARK    3  A    between atoms: C10_14  and  C11_16 
ROOT
HETATM    1  C5  UNL     1      -7.137   9.502  19.580  1.00  0.00    -0.033 A 
HETATM    2  C6  UNL     1      -6.859  10.603  20.355  1.00  0.00     0.011 A 
HETATM    3  C7  UNL     1      -7.370  11.853  20.038  1.00  0.00     0.002 A 
HETATM    4  C8  UNL     1      -8.177  12.049  18.937  1.00  0.00     0.015 A 
HETATM    5  C9  UNL     1      -8.467  10.961  18.148  1.00  0.00     0.016 A 
HETATM    6  C17 UNL     1      -7.949   9.716  18.478  1.00  0.00     0.027 A 
ENDROOT
BRANCH   1   7
HETATM    7  C4  UNL     1      -6.625   8.181  19.895  1.00  0.00     0.054 C 
HETATM    8  C3  UNL     1      -6.041   7.428  19.020  1.00  0.00     0.148 A 
HETATM    9  C2  UNL     1      -5.524   6.088  19.338  1.00  0.00     0.282 A 
HETATM   10  O4  UNL     1      -5.869   7.852  17.718  1.00  0.00    -0.266 OA
HETATM   11  N1  UNL     1      -4.883   5.254  18.394  1.00  0.00    -0.283 N 
HETATM   12  O2  UNL     1      -5.690   5.714  20.538  1.00  0.00    -0.265 OA
HETATM   13  C1  UNL     1      -4.749   5.775  17.068  1.00  0.00     0.324 A 
ATOM     14  H1  UNL     1      -4.534   4.329  18.644  1.00  0.00     0.172 HD
HETATM   15  O1  UNL     1      -4.175   5.049  16.189  1.00  0.00    -0.261 OA
HETATM   16  C18 UNL     1      -5.261   7.101  16.755  1.00  0.00     0.357 A 
HETATM   17  O5  UNL     1      -5.116   7.510  15.575  1.00  0.00    -0.253 OA
ENDBRANCH   1   7
BRANCH   5  18
HETATM   18  C10 UNL     1      -9.324  11.113  16.997  1.00  0.00     0.192 C 
HETATM   19  O3  UNL     1     -10.169  12.078  17.063  1.00  0.00    -0.287 OA
BRANCH  18  20
HETATM   20  C11 UNL     1      -9.336  10.307  15.792  1.00  0.00     0.015 A 
HETATM   21  C12 UNL     1      -8.416   9.315  15.572  1.00  0.00     0.015 A 
HETATM   22  C13 UNL     1      -8.511   8.577  14.395  1.00  0.00     0.001 A 
HETATM   23  C14 UNL     1      -9.484   8.802  13.451  1.00  0.00     0.000 A 
HETATM   24  C15 UNL     1     -10.414   9.796  13.660  1.00  0.00     0.001 A 
HETATM   25  C16 UNL     1     -10.327  10.531  14.823  1.00  0.00     0.015 A 
ENDBRANCH  18  20
ENDBRANCH   5  18
TORSDOF 3
ENDMDL
MODEL 2
REMARK VINA RESULT: -9.865828055      2.364      4.134
REMARK  3 active torsions:
REMARK  status: ('A' for Active; 'I' for Inactive)
REMARK    1  A    between atoms: C4_8  and  C5_9 
REMARK    2  A    between atoms: C9_13  and  C10_14 
REMARK    3  A    between atoms: C10_14  and  C11_16 
ROOT
HETATM    1  C5  UNL     1      -8.843  11.015  17.251  1.00  0.00    -0.033 A 
HETATM    2  C6  UNL     1      -9.863  11.867  16.895  1.00  0.00     0.011 A 
HETATM    3  C7  UNL     1     -10.602  11.660  15.741  1.00  0.00     0.002 A 
HETATM    4  C8  UNL     1     -10.353  10.597  14.899  1.00  0.00     0.015 A 
HETATM    5  C9  UNL     1      -9.338   9.733  15.236  1.00  0.00     0.016 A 
HETATM    6  C17 UNL     1      -8.605   9.951  16.395  1.00  0.00     0.027 A 
ENDROOT
BRANCH   1   7
HETATM    7  C4  UNL     1      -8.061  11.201  18.459  1.00  0.00     0.054 C 
HETATM    8  C3  UNL     1      -7.348  10.257  18.985  1.00  0.00     0.148 A 
HETATM    9  C2  UNL     1      -6.556  10.444  20.211  1.00  0.00     0.282 A 
HETATM   10  O4  UNL     1      -7.294   9.004  18.411  1.00  0.00    -0.266 OA
HETATM   11  N1  UNL     1      -5.772   9.425  20.797  1.00  0.00    -0.283 N 
HETATM   12  O2  UNL     1      -6.618  11.602  20.724  1.00  0.00    -0.265 OA
HETATM   13  C1  UNL     1      -5.775   8.157  20.135  1.00  0.00     0.324 A 
ATOM     14  H1  UNL     1      -5.233   9.585  21.647  1.00  0.00     0.172 HD
HETATM   15  O1  UNL     1      -5.079   7.212  20.637  1.00  0.00    -0.261 OA
HETATM   16  C18 UNL     1      -6.559   7.973  18.923  1.00  0.00     0.357 A 
HETATM   17  O5  UNL     1      -6.526   6.839  18.382  1.00  0.00    -0.253 OA
ENDBRANCH   1   7
BRANCH   5  18
HETATM   18  C10 UNL     1      -9.052   8.593  14.397  1.00  0.00     0.192 C 
HETATM   19  O3  UNL     1      -9.341   8.738  13.154  1.00  0.00    -0.287 OA
BRANCH  18  20
HETATM   20  C11 UNL     1      -8.483   7.322  14.798  1.00  0.00     0.015 A 
HETATM   21  C12 UNL     1      -7.266   6.893  14.336  1.00  0.00     0.015 A 
HETATM   22  C13 UNL     1      -6.785   5.666  14.787  1.00  0.00     0.001 A 
HETATM   23  C14 UNL     1      -7.479   4.873  15.669  1.00  0.00     0.000 A 
HETATM   24  C15 UNL     1      -8.703   5.292  16.140  1.00  0.00     0.001 A 
HETATM   25  C16 UNL     1      -9.185   6.505  15.699  1.00  0.00     0.015 A 
ENDBRANCH  18  20
ENDBRANCH   5  18
TORSDOF 3
ENDMDL
MODEL 3
REMARK VINA RESULT: -9.595979266      1.035      4.442
REMARK  3 active torsions:
REMARK  status: ('A' for Active; 'I' for Inactive)
REMARK    1  A    between atoms: C4_8  and  C5_9 
REMARK    2  A    between atoms: C9_13  and  C10_14 
REMARK    3  A    between atoms: C10_14  and  C11_16 
ROOT
HETATM    1  C5  UNL     1      -7.947   8.230  15.280  1.00  0.00    -0.033 A 
HETATM    2  C6  UNL     1      -8.660   8.315  14.107  1.00  0.00     0.011 A 
HETATM    3  C7  UNL     1      -9.565   9.342  13.888  1.00  0.00     0.002 A 
HETATM    4  C8  UNL     1      -9.792  10.323  14.831  1.00  0.00     0.015 A 
HETATM    5  C9  UNL     1      -9.089  10.258  16.011  1.00  0.00     0.016 A 
HETATM    6  C17 UNL     1      -8.186   9.224  16.216  1.00  0.00     0.027 A 
ENDROOT
BRANCH   1   7
HETATM    7  C4  UNL     1      -6.985   7.173  15.530  1.00  0.00     0.054 C 
HETATM    8  C3  UNL     1      -6.642   6.804  16.723  1.00  0.00     0.148 A 
HETATM    9  C2  UNL     1      -5.666   5.734  16.977  1.00  0.00     0.282 A 
HETATM   10  O4  UNL     1      -7.188   7.408  17.837  1.00  0.00    -0.266 OA
HETATM   11  N1  UNL     1      -5.283   5.319  18.273  1.00  0.00    -0.283 N 
HETATM   12  O2  UNL     1      -5.175   5.191  15.942  1.00  0.00    -0.265 OA
HETATM   13  C1  UNL     1      -5.898   6.000  19.370  1.00  0.00     0.324 A 
ATOM     14  H1  UNL     1      -4.603   4.573  18.418  1.00  0.00     0.172 HD
HETATM   15  O1  UNL     1      -5.574   5.652  20.555  1.00  0.00    -0.261 OA
HETATM   16  C18 UNL     1      -6.864   7.059  19.116  1.00  0.00     0.357 A 
HETATM   17  O5  UNL     1      -7.374   7.624  20.116  1.00  0.00    -0.253 OA
ENDBRANCH   1   7
BRANCH   5  18
HETATM   18  C10 UNL     1      -9.277  11.273  17.019  1.00  0.00     0.192 C 
HETATM   19  O3  UNL     1     -10.253  12.081  16.812  1.00  0.00    -0.287 OA
BRANCH  18  20
HETATM   20  C11 UNL     1      -8.496  11.477  18.224  1.00  0.00     0.015 A 
HETATM   21  C12 UNL     1      -7.423  10.685  18.536  1.00  0.00     0.015 A 
HETATM   22  C13 UNL     1      -6.716  10.962  19.704  1.00  0.00     0.001 A 
HETATM   23  C14 UNL     1      -7.052  11.992  20.550  1.00  0.00     0.000 A 
HETATM   24  C15 UNL     1      -8.128  12.795  20.247  1.00  0.00     0.001 A 
HETATM   25  C16 UNL     1      -8.832  12.527  19.093  1.00  0.00     0.015 A 
ENDBRANCH  18  20
ENDBRANCH   5  18
TORSDOF 3
ENDMDL
MODEL 4
REMARK VINA RESULT: -9.508135678      0.964      4.496
REMARK  3 active torsions:
REMARK  status: ('A' for Active; 'I' for Inactive)
REMARK    1  A    between atoms: C4_8  and  C5_9 
REMARK    2  A    between atoms: C9_13  and  C10_14 
REMARK    3  A    between atoms: C10_14  and  C11_16 
ROOT
HETATM    1  C5  UNL     1      -7.736   8.377  15.316  1.00  0.00    -0.033 A 
HETATM    2  C6  UNL     1      -8.494   8.348  14.168  1.00  0.00     0.011 A 
HETATM    3  C7  UNL     1      -9.504   9.272  13.951  1.00  0.00     0.002 A 
HETATM    4  C8  UNL     1      -9.796  10.259  14.869  1.00  0.00     0.015 A 
HETATM    5  C9  UNL     1      -9.051  10.306  16.023  1.00  0.00     0.016 A 
HETATM    6  C17 UNL     1      -8.042   9.375  16.228  1.00  0.00     0.027 A 
ENDROOT
BRANCH   1   7
HETATM    7  C4  UNL     1      -6.665   7.430  15.564  1.00  0.00     0.054 C 
HETATM    8  C3  UNL     1      -6.340   7.035  16.753  1.00  0.00     0.148 A 
HETATM    9  C2  UNL     1      -5.253   6.076  17.005  1.00  0.00     0.282 A 
HETATM   10  O4  UNL     1      -7.010   7.501  17.865  1.00  0.00    -0.266 OA
HETATM   11  N1  UNL     1      -4.886   5.633  18.297  1.00  0.00    -0.283 N 
HETATM   12  O2  UNL     1      -4.648   5.659  15.972  1.00  0.00    -0.265 OA
HETATM   13  C1  UNL     1      -5.635   6.169  19.391  1.00  0.00     0.324 A 
ATOM     14  H1  UNL     1      -4.128   4.967  18.441  1.00  0.00     0.172 HD
HETATM   15  O1  UNL     1      -5.331   5.792  20.573  1.00  0.00    -0.261 OA
HETATM   16  C18 UNL     1      -6.710   7.118  19.140  1.00  0.00     0.357 A 
HETATM   17  O5  UNL     1      -7.336   7.557  20.138  1.00  0.00    -0.253 OA
ENDBRANCH   1   7
BRANCH   5  18
HETATM   18  C10 UNL     1      -9.305  11.333  17.004  1.00  0.00     0.192 C 
HETATM   19  O3  UNL     1     -10.304  12.100  16.753  1.00  0.00    -0.287 OA
BRANCH  18  20
HETATM   20  C11 UNL     1      -8.566  11.591  18.225  1.00  0.00     0.015 A 
HETATM   21  C12 UNL     1      -8.907  12.608  19.079  1.00  0.00     0.015 A 
HETATM   22  C13 UNL     1      -8.155  12.774  20.239  1.00  0.00     0.001 A 
HETATM   23  C14 UNL     1      -7.092  11.965  20.560  1.00  0.00     0.000 A 
HETATM   24  C15 UNL     1      -6.739  10.940  19.710  1.00  0.00     0.001 A 
HETATM   25  C16 UNL     1      -7.479  10.769  18.560  1.00  0.00     0.015 A 
ENDBRANCH  18  20
ENDBRANCH   5  18
TORSDOF 3
ENDMDL
MODEL 5
REMARK VINA RESULT: -9.491373355      2.313      4.653
REMARK  3 active torsions:
REMARK  status: ('A' for Active; 'I' for Inactive)
REMARK    1  A    between atoms: C4_8  and  C5_9 
REMARK    2  A    between atoms: C9_13  and  C10_14 
REMARK    3  A    between atoms: C10_14  and  C11_16 
ROOT
HETATM    1  C5  UNL     1      -6.519   5.208  16.311  1.00  0.00    -0.033 A 
HETATM    2  C6  UNL     1      -7.788   4.750  16.045  1.00  0.00     0.011 A 
HETATM    3  C7  UNL     1      -8.841   5.629  15.840  1.00  0.00     0.002 A 
HETATM    4  C8  UNL     1      -8.667   6.996  15.893  1.00  0.00     0.015 A 
HETATM    5  C9  UNL     1      -7.406   7.475  16.158  1.00  0.00     0.016 A 
HETATM    6  C17 UNL     1      -6.361   6.584  16.361  1.00  0.00     0.027 A 
ENDROOT
BRANCH   1   7
HETATM    7  C4  UNL     1      -5.397   4.311  16.518  1.00  0.00     0.054 C 
HETATM    8  C3  UNL     1      -4.831   4.150  17.670  1.00  0.00     0.148 A 
HETATM    9  C2  UNL     1      -3.691   3.243  17.880  1.00  0.00     0.282 A 
HETATM   10  O4  UNL     1      -5.276   4.833  18.783  1.00  0.00    -0.266 OA
HETATM   11  N1  UNL     1      -3.063   3.054  19.132  1.00  0.00    -0.283 N 
HETATM   12  O2  UNL     1      -3.295   2.623  16.847  1.00  0.00    -0.265 OA
HETATM   13  C1  UNL     1      -3.591   3.804  20.230  1.00  0.00     0.324 A 
ATOM     14  H1  UNL     1      -2.276   2.418  19.247  1.00  0.00     0.172 HD
HETATM   15  O1  UNL     1      -3.048   3.660  21.377  1.00  0.00    -0.261 OA
HETATM   16  C18 UNL     1      -4.718   4.701  20.021  1.00  0.00     0.357 A 
HETATM   17  O5  UNL     1      -5.142   5.335  21.020  1.00  0.00    -0.253 OA
ENDBRANCH   1   7
BRANCH   5  18
HETATM   18  C10 UNL     1      -7.169   8.898  16.203  1.00  0.00     0.192 C 
HETATM   19  O3  UNL     1      -5.944   9.258  16.060  1.00  0.00    -0.287 OA
BRANCH  18  20
HETATM   20  C11 UNL     1      -8.148   9.951  16.389  1.00  0.00     0.015 A 
HETATM   21  C12 UNL     1      -9.061  10.273  15.420  1.00  0.00     0.015 A 
HETATM   22  C13 UNL     1      -9.978  11.286  15.689  1.00  0.00     0.001 A 
HETATM   23  C14 UNL     1     -10.003  11.972  16.879  1.00  0.00     0.000 A 
HETATM   24  C15 UNL     1      -9.090  11.658  17.861  1.00  0.00     0.001 A 
HETATM   25  C16 UNL     1      -8.180  10.656  17.603  1.00  0.00     0.015 A 
ENDBRANCH  18  20
ENDBRANCH   5  18
TORSDOF 3
ENDMDL
