MODEL 1
REMARK VINA RESULT: -8.871722185      0.000      0.000
REMARK  12 active torsions:
REMARK  status: ('A' for Active; 'I' for Inactive)
REMARK    1  A    between atoms: C5_6  and  C6_7 
REMARK       I    between atoms: C6_7  and  N1_9 
REMARK    2  A    between atoms: N1_9  and  C7_11 
REMARK    3  A    between atoms: C7_11  and  C8_12 
REMARK    4  A    between atoms: C8_12  and  C9_13 
REMARK    5  A    between atoms: C9_13  and  N2_14 
REMARK    6  A    between atoms: N2_14  and  C10_16 
REMARK    7  A    between atoms: C11_19  and  N4_20 
REMARK    8  A    between atoms: C16_27  and  N6_28 
REMARK    9  A    between atoms: C20_32  and  C21_33 
REMARK       I    between atoms: C21_33  and  N7_35 
REMARK   10  A    between atoms: N7_35  and  C22_37 
REMARK   11  A    between atoms: C22_37  and  C23_38 
REMARK   12  A    between atoms: C23_38  and  C24_39 
ROOT
HETATM    1  C10 UNL     1      10.652 -15.688   1.843  1.00  0.00     0.707 A 
HETATM    2  N3  UNL     1      10.609 -15.391   3.169  1.00  0.00    -0.021 N 
ATOM      3  H3  UNL     1      11.434 -15.018   3.639  1.00  0.00     0.203 HD
HETATM    4  C11 UNL     1       9.464 -15.593   3.861  1.00  0.00     0.709 A 
HETATM    5  N5  UNL     1       8.398 -16.086   3.204  1.00  0.00    -0.021 N 
ATOM      6  H5  UNL     1       7.537 -16.239   3.729  1.00  0.00     0.203 HD
HETATM    7  C16 UNL     1       8.406 -16.391   1.889  1.00  0.00     0.709 A 
HETATM    8  N8  UNL     1       9.567 -16.178   1.224  1.00  0.00    -0.021 N 
ATOM      9  H8  UNL     1       9.617 -16.395   0.229  1.00  0.00     0.203 HD
ENDROOT
BRANCH   7  10
HETATM   10  N6  UNL     1       7.227 -16.910   1.282  1.00  0.00    -0.216 N 
HETATM   11  C17 UNL     1       5.984 -16.303   1.686  1.00  0.00     0.141 C 
HETATM   12  C18 UNL     1       5.000 -16.229   0.569  1.00  0.00     0.021 C 
HETATM   13  C19 UNL     1       5.762 -16.245  -0.737  1.00  0.00     0.017 C 
HETATM   14  C20 UNL     1       6.495 -17.558  -0.929  1.00  0.00     0.096 C 
HETATM   15  C29 UNL     1       7.221 -17.981   0.313  1.00  0.00     0.155 C 
BRANCH  14  16
HETATM   16  C21 UNL     1       5.518 -18.639  -1.314  1.00  0.00     0.223 C 
HETATM   17  O3  UNL     1       4.891 -19.281  -0.446  1.00  0.00    -0.273 OA
HETATM   18  N7  UNL     1       5.313 -18.925  -2.682  1.00  0.00    -0.361 N 
ATOM     19  H7  UNL     1       5.825 -18.392  -3.384  1.00  0.00     0.162 HD
BRANCH  18  20
HETATM   20  C22 UNL     1       4.410 -19.938  -3.105  1.00  0.00     0.123 C 
BRANCH  20  21
HETATM   21  C23 UNL     1       3.286 -19.516  -3.982  1.00  0.00     0.024 C 
BRANCH  21  22
HETATM   22  C24 UNL     1       3.426 -18.097  -4.483  1.00  0.00    -0.013 C 
HETATM   23  C25 UNL     1       2.518 -17.145  -3.732  1.00  0.00     0.005 C 
HETATM   24  C26 UNL     1       1.148 -17.599  -4.152  1.00  0.00     0.000 C 
HETATM   25  C27 UNL     1       1.306 -18.169  -5.552  1.00  0.00     0.000 C 
HETATM   26  C28 UNL     1       2.794 -18.095  -5.878  1.00  0.00     0.005 C 
ENDBRANCH  21  22
ENDBRANCH  20  21
ENDBRANCH  18  20
ENDBRANCH  14  16
ENDBRANCH   7  10
BRANCH   4  27
HETATM   27  N4  UNL     1       9.391 -15.275   5.237  1.00  0.00    -0.217 N 
HETATM   28  C12 UNL     1       9.556 -13.962   5.800  1.00  0.00     0.141 C 
HETATM   29  C13 UNL     1       9.542 -14.136   7.303  1.00  0.00     0.022 C 
HETATM   30  C14 UNL     1       9.178 -15.563   7.577  1.00  0.00     0.022 C 
HETATM   31  C15 UNL     1       9.135 -16.268   6.264  1.00  0.00     0.141 C 
ENDBRANCH   4  27
BRANCH   1  32
HETATM   32  N2  UNL     1      11.773 -15.487   1.182  1.00  0.00    -0.225 N 
ATOM     33  H2  UNL     1      12.108 -16.176   0.507  1.00  0.00     0.177 HD
BRANCH  32  34
HETATM   34  C9  UNL     1      12.525 -14.271   1.427  1.00  0.00     0.139 C 
BRANCH  34  35
HETATM   35  C8  UNL     1      12.783 -13.576   0.112  1.00  0.00     0.040 C 
BRANCH  35  36
HETATM   36  C7  UNL     1      11.494 -12.953  -0.353  1.00  0.00     0.124 C 
BRANCH  36  37
HETATM   37  N1  UNL     1      10.934 -13.757  -1.428  1.00  0.00    -0.357 N 
HETATM   38  C6  UNL     1       9.565 -14.059  -1.418  1.00  0.00     0.254 C 
HETATM   39  O2  UNL     1       8.855 -13.595  -0.457  1.00  0.00    -0.268 OA
ATOM     40  H1  UNL     1      11.531 -14.097  -2.182  1.00  0.00     0.162 HD
BRANCH  38  41
HETATM   41  C5  UNL     1       8.873 -14.858  -2.410  1.00  0.00     0.063 A 
HETATM   42  C2  UNL     1       8.984 -16.181  -2.748  1.00  0.00     0.064 A 
HETATM   43  C1  UNL     1       9.886 -17.175  -2.139  1.00  0.00     0.077 C 
HETATM   44  O1  UNL     1       8.150 -16.438  -3.716  1.00  0.00    -0.326 OA
HETATM   45  C3  UNL     1       7.484 -15.378  -4.053  1.00  0.00     0.143 A 
HETATM   46  C4  UNL     1       7.895 -14.339  -3.262  1.00  0.00     0.044 A 
ENDBRANCH  38  41
ENDBRANCH  36  37
ENDBRANCH  35  36
ENDBRANCH  34  35
ENDBRANCH  32  34
ENDBRANCH   1  32
TORSDOF 12
ENDMDL
MODEL 2
REMARK VINA RESULT: -8.848828319      3.096     10.002
REMARK  12 active torsions:
REMARK  status: ('A' for Active; 'I' for Inactive)
REMARK    1  A    between atoms: C5_6  and  C6_7 
REMARK       I    between atoms: C6_7  and  N1_9 
REMARK    2  A    between atoms: N1_9  and  C7_11 
REMARK    3  A    between atoms: C7_11  and  C8_12 
REMARK    4  A    between atoms: C8_12  and  C9_13 
REMARK    5  A    between atoms: C9_13  and  N2_14 
REMARK    6  A    between atoms: N2_14  and  C10_16 
REMARK    7  A    between atoms: C11_19  and  N4_20 
REMARK    8  A    between atoms: C16_27  and  N6_28 
REMARK    9  A    between atoms: C20_32  and  C21_33 
REMARK       I    between atoms: C21_33  and  N7_35 
REMARK   10  A    between atoms: N7_35  and  C22_37 
REMARK   11  A    between atoms: C22_37  and  C23_38 
REMARK   12  A    between atoms: C23_38  and  C24_39 
ROOT
HETATM    1  C10 UNL     1       8.604 -17.319  -1.399  1.00  0.00     0.707 A 
HETATM    2  N3  UNL     1       8.284 -17.071  -2.696  1.00  0.00    -0.021 N 
ATOM      3  H3  UNL     1       7.571 -17.631  -3.166  1.00  0.00     0.203 HD
HETATM    4  C11 UNL     1       8.915 -16.076  -3.362  1.00  0.00     0.709 A 
HETATM    5  N5  UNL     1       9.848 -15.361  -2.706  1.00  0.00    -0.021 N 
ATOM      6  H5  UNL     1      10.324 -14.613  -3.210  1.00  0.00     0.203 HD
HETATM    7  C16 UNL     1      10.190 -15.579  -1.419  1.00  0.00     0.709 A 
HETATM    8  N8  UNL     1       9.540 -16.582  -0.781  1.00  0.00    -0.021 N 
ATOM      9  H8  UNL     1       9.767 -16.782   0.193  1.00  0.00     0.203 HD
ENDROOT
BRANCH   7  10
HETATM   10  N6  UNL     1      11.191 -14.770  -0.811  1.00  0.00    -0.216 N 
HETATM   11  C17 UNL     1      11.338 -13.437  -1.340  1.00  0.00     0.141 C 
HETATM   12  C18 UNL     1      11.694 -12.445  -0.285  1.00  0.00     0.021 C 
HETATM   13  C19 UNL     1      11.219 -12.979   1.048  1.00  0.00     0.017 C 
HETATM   14  C20 UNL     1      11.954 -14.251   1.424  1.00  0.00     0.096 C 
HETATM   15  C29 UNL     1      12.038 -15.209   0.274  1.00  0.00     0.155 C 
BRANCH  14  16
HETATM   16  C21 UNL     1      13.349 -13.920   1.885  1.00  0.00     0.223 C 
HETATM   17  O3  UNL     1      14.266 -13.703   1.065  1.00  0.00    -0.273 OA
HETATM   18  N7  UNL     1      13.619 -13.853   3.270  1.00  0.00    -0.361 N 
ATOM     19  H7  UNL     1      12.862 -14.026   3.932  1.00  0.00     0.162 HD
BRANCH  18  20
HETATM   20  C22 UNL     1      14.916 -13.553   3.765  1.00  0.00     0.123 C 
BRANCH  20  21
HETATM   21  C23 UNL     1      15.086 -12.255   4.469  1.00  0.00     0.024 C 
BRANCH  21  22
HETATM   22  C24 UNL     1      13.776 -11.550   4.735  1.00  0.00    -0.013 C 
HETATM   23  C25 UNL     1      13.578 -10.367   3.807  1.00  0.00     0.005 C 
HETATM   24  C26 UNL     1      14.655  -9.419   4.249  1.00  0.00     0.000 C 
HETATM   25  C27 UNL     1      14.873  -9.692   5.728  1.00  0.00     0.000 C 
HETATM   26  C28 UNL     1      13.955 -10.855   6.088  1.00  0.00     0.005 C 
ENDBRANCH  21  22
ENDBRANCH  20  21
ENDBRANCH  18  20
ENDBRANCH  14  16
ENDBRANCH   7  10
BRANCH   4  27
HETATM   27  N4  UNL     1       8.586 -15.788  -4.707  1.00  0.00    -0.217 N 
HETATM   28  C12 UNL     1       7.317 -15.294  -5.167  1.00  0.00     0.141 C 
HETATM   29  C13 UNL     1       7.386 -15.280  -6.679  1.00  0.00     0.022 C 
HETATM   30  C14 UNL     1       8.799 -15.605  -7.057  1.00  0.00     0.022 C 
HETATM   31  C15 UNL     1       9.520 -15.966  -5.802  1.00  0.00     0.141 C 
ENDBRANCH   4  27
BRANCH   1  32
HETATM   32  N2  UNL     1       7.982 -18.291  -0.765  1.00  0.00    -0.225 N 
ATOM     33  H2  UNL     1       8.222 -19.265  -0.947  1.00  0.00     0.177 HD
BRANCH  32  34
HETATM   34  C9  UNL     1       6.949 -17.954   0.198  1.00  0.00     0.139 C 
BRANCH  34  35
HETATM   35  C8  UNL     1       5.882 -17.137  -0.488  1.00  0.00     0.040 C 
BRANCH  35  36
HETATM   36  C7  UNL     1       5.700 -15.857   0.282  1.00  0.00     0.124 C 
BRANCH  36  37
HETATM   37  N1  UNL     1       6.543 -15.886   1.467  1.00  0.00    -0.357 N 
HETATM   38  C6  UNL     1       7.582 -14.953   1.593  1.00  0.00     0.254 C 
HETATM   39  O2  UNL     1       7.735 -14.094   0.654  1.00  0.00    -0.268 OA
ATOM     40  H1  UNL     1       6.381 -16.578   2.198  1.00  0.00     0.162 HD
BRANCH  38  41
HETATM   41  C5  UNL     1       8.508 -14.872   2.706  1.00  0.00     0.063 A 
HETATM   42  C2  UNL     1       9.464 -15.744   3.157  1.00  0.00     0.064 A 
HETATM   43  C1  UNL     1       9.806 -17.056   2.577  1.00  0.00     0.077 C 
HETATM   44  O1  UNL     1      10.041 -15.229   4.205  1.00  0.00    -0.326 OA
HETATM   45  C3  UNL     1       9.540 -14.067   4.492  1.00  0.00     0.143 A 
HETATM   46  C4  UNL     1       8.561 -13.781   3.577  1.00  0.00     0.044 A 
ENDBRANCH  38  41
ENDBRANCH  36  37
ENDBRANCH  35  36
ENDBRANCH  34  35
ENDBRANCH  32  34
ENDBRANCH   1  32
TORSDOF 12
ENDMDL
MODEL 3
REMARK VINA RESULT: -8.832257434      3.739      7.154
REMARK  12 active torsions:
REMARK  status: ('A' for Active; 'I' for Inactive)
REMARK    1  A    between atoms: C5_6  and  C6_7 
REMARK       I    between atoms: C6_7  and  N1_9 
REMARK    2  A    between atoms: N1_9  and  C7_11 
REMARK    3  A    between atoms: C7_11  and  C8_12 
REMARK    4  A    between atoms: C8_12  and  C9_13 
REMARK    5  A    between atoms: C9_13  and  N2_14 
REMARK    6  A    between atoms: N2_14  and  C10_16 
REMARK    7  A    between atoms: C11_19  and  N4_20 
REMARK    8  A    between atoms: C16_27  and  N6_28 
REMARK    9  A    between atoms: C20_32  and  C21_33 
REMARK       I    between atoms: C21_33  and  N7_35 
REMARK   10  A    between atoms: N7_35  and  C22_37 
REMARK   11  A    between atoms: C22_37  and  C23_38 
REMARK   12  A    between atoms: C23_38  and  C24_39 
ROOT
HETATM    1  C10 UNL     1      13.789 -14.518   4.365  1.00  0.00     0.707 A 
HETATM    2  N3  UNL     1      13.001 -14.824   5.429  1.00  0.00    -0.021 N 
ATOM      3  H3  UNL     1      13.421 -15.110   6.314  1.00  0.00     0.203 HD
HETATM    4  C11 UNL     1      11.656 -14.748   5.307  1.00  0.00     0.709 A 
HETATM    5  N5  UNL     1      11.142 -14.367   4.123  1.00  0.00    -0.021 N 
ATOM      6  H5  UNL     1      10.128 -14.312   4.033  1.00  0.00     0.203 HD
HETATM    7  C16 UNL     1      11.895 -14.054   3.047  1.00  0.00     0.709 A 
HETATM    8  N8  UNL     1      13.238 -14.141   3.201  1.00  0.00    -0.021 N 
ATOM      9  H8  UNL     1      13.845 -13.914   2.413  1.00  0.00     0.203 HD
ENDROOT
BRANCH   7  10
HETATM   10  N6  UNL     1      11.259 -13.662   1.835  1.00  0.00    -0.216 N 
HETATM   11  C17 UNL     1      11.855 -12.553   1.135  1.00  0.00     0.141 C 
HETATM   12  C18 UNL     1      11.757 -12.698  -0.346  1.00  0.00     0.021 C 
HETATM   13  C19 UNL     1      11.622 -14.169  -0.671  1.00  0.00     0.017 C 
HETATM   14  C20 UNL     1      10.327 -14.736  -0.121  1.00  0.00     0.096 C 
HETATM   15  C29 UNL     1      10.083 -14.304   1.294  1.00  0.00     0.155 C 
BRANCH  14  16
HETATM   16  C21 UNL     1       9.168 -14.289  -0.973  1.00  0.00     0.223 C 
HETATM   17  O3  UNL     1       8.387 -13.398  -0.583  1.00  0.00    -0.273 OA
HETATM   18  N7  UNL     1       8.970 -14.892  -2.235  1.00  0.00    -0.361 N 
ATOM     19  H7  UNL     1       9.618 -15.615  -2.548  1.00  0.00     0.162 HD
BRANCH  18  20
HETATM   20  C22 UNL     1       7.891 -14.517  -3.080  1.00  0.00     0.123 C 
BRANCH  20  21
HETATM   21  C23 UNL     1       8.107 -14.641  -4.546  1.00  0.00     0.024 C 
BRANCH  21  22
HETATM   22  C24 UNL     1       8.763 -15.944  -4.939  1.00  0.00    -0.013 C 
HETATM   23  C25 UNL     1       9.479 -15.832  -6.270  1.00  0.00     0.005 C 
HETATM   24  C26 UNL     1       8.345 -15.631  -7.236  1.00  0.00     0.000 C 
HETATM   25  C27 UNL     1       7.149 -16.350  -6.633  1.00  0.00     0.000 C 
HETATM   26  C28 UNL     1       7.611 -16.891  -5.285  1.00  0.00     0.005 C 
ENDBRANCH  21  22
ENDBRANCH  20  21
ENDBRANCH  18  20
ENDBRANCH  14  16
ENDBRANCH   7  10
BRANCH   4  27
HETATM   27  N4  UNL     1      10.817 -15.046   6.406  1.00  0.00    -0.217 N 
HETATM   28  C12 UNL     1       9.555 -15.730   6.329  1.00  0.00     0.141 C 
HETATM   29  C13 UNL     1       8.960 -15.687   7.721  1.00  0.00     0.022 C 
HETATM   30  C14 UNL     1      10.007 -15.121   8.629  1.00  0.00     0.022 C 
HETATM   31  C15 UNL     1      11.146 -14.682   7.771  1.00  0.00     0.141 C 
ENDBRANCH   4  27
BRANCH   1  32
HETATM   32  N2  UNL     1      15.098 -14.597   4.498  1.00  0.00    -0.225 N 
ATOM     33  H2  UNL     1      15.518 -15.347   5.048  1.00  0.00     0.177 HD
BRANCH  32  34
HETATM   34  C9  UNL     1      15.932 -13.603   3.849  1.00  0.00     0.139 C 
BRANCH  34  35
HETATM   35  C8  UNL     1      16.641 -12.789   4.904  1.00  0.00     0.040 C 
BRANCH  35  36
HETATM   36  C7  UNL     1      16.183 -11.360   4.784  1.00  0.00     0.124 C 
BRANCH  36  37
HETATM   37  N1  UNL     1      15.304 -11.042   5.898  1.00  0.00    -0.357 N 
HETATM   38  C6  UNL     1      13.927 -10.919   5.673  1.00  0.00     0.254 C 
HETATM   39  O2  UNL     1      13.494 -11.109   4.481  1.00  0.00    -0.268 OA
ATOM     40  H1  UNL     1      15.687 -10.911   6.834  1.00  0.00     0.162 HD
BRANCH  38  41
HETATM   41  C5  UNL     1      12.936 -10.593   6.680  1.00  0.00     0.063 A 
HETATM   42  C2  UNL     1      12.290  -9.420   6.972  1.00  0.00     0.064 A 
HETATM   43  C1  UNL     1      12.453  -8.127   6.282  1.00  0.00     0.077 C 
HETATM   44  O1  UNL     1      11.488  -9.621   7.978  1.00  0.00    -0.326 OA
HETATM   45  C3  UNL     1      11.548 -10.851   8.385  1.00  0.00     0.143 A 
HETATM   46  C4  UNL     1      12.449 -11.522   7.602  1.00  0.00     0.044 A 
ENDBRANCH  38  41
ENDBRANCH  36  37
ENDBRANCH  35  36
ENDBRANCH  34  35
ENDBRANCH  32  34
ENDBRANCH   1  32
TORSDOF 12
ENDMDL
MODEL 4
REMARK VINA RESULT: -8.791679471      2.240      8.734
REMARK  12 active torsions:
REMARK  status: ('A' for Active; 'I' for Inactive)
REMARK    1  A    between atoms: C5_6  and  C6_7 
REMARK       I    between atoms: C6_7  and  N1_9 
REMARK    2  A    between atoms: N1_9  and  C7_11 
REMARK    3  A    between atoms: C7_11  and  C8_12 
REMARK    4  A    between atoms: C8_12  and  C9_13 
REMARK    5  A    between atoms: C9_13  and  N2_14 
REMARK    6  A    between atoms: N2_14  and  C10_16 
REMARK    7  A    between atoms: C11_19  and  N4_20 
REMARK    8  A    between atoms: C16_27  and  N6_28 
REMARK    9  A    between atoms: C20_32  and  C21_33 
REMARK       I    between atoms: C21_33  and  N7_35 
REMARK   10  A    between atoms: N7_35  and  C22_37 
REMARK   11  A    between atoms: C22_37  and  C23_38 
REMARK   12  A    between atoms: C23_38  and  C24_39 
ROOT
HETATM    1  C10 UNL     1       8.903 -16.115  -3.440  1.00  0.00     0.707 A 
HETATM    2  N3  UNL     1       7.743 -16.622  -2.946  1.00  0.00    -0.021 N 
ATOM      3  H3  UNL     1       7.036 -16.999  -3.578  1.00  0.00     0.203 HD
HETATM    4  C11 UNL     1       7.531 -16.625  -1.609  1.00  0.00     0.709 A 
HETATM    5  N5  UNL     1       8.489 -16.118  -0.810  1.00  0.00    -0.021 N 
ATOM      6  H5  UNL     1       8.326 -16.119   0.197  1.00  0.00     0.203 HD
HETATM    7  C16 UNL     1       9.651 -15.608  -1.267  1.00  0.00     0.709 A 
HETATM    8  N8  UNL     1       9.833 -15.620  -2.609  1.00  0.00    -0.021 N 
ATOM      9  H8  UNL     1      10.698 -15.244  -2.998  1.00  0.00     0.203 HD
ENDROOT
BRANCH   7  10
HETATM   10  N6  UNL     1      10.604 -15.093  -0.342  1.00  0.00    -0.216 N 
HETATM   11  C17 UNL     1      11.921 -14.833  -0.865  1.00  0.00     0.141 C 
HETATM   12  C18 UNL     1      12.556 -13.640  -0.237  1.00  0.00     0.021 C 
HETATM   13  C19 UNL     1      11.459 -12.739   0.287  1.00  0.00     0.017 C 
HETATM   14  C20 UNL     1      10.677 -13.415   1.397  1.00  0.00     0.096 C 
HETATM   15  C29 UNL     1      10.319 -14.829   1.050  1.00  0.00     0.155 C 
BRANCH  14  16
HETATM   16  C21 UNL     1      11.487 -13.416   2.668  1.00  0.00     0.223 C 
HETATM   17  O3  UNL     1      12.195 -12.437   2.982  1.00  0.00    -0.273 OA
HETATM   18  N7  UNL     1      11.438 -14.545   3.514  1.00  0.00    -0.361 N 
ATOM     19  H7  UNL     1      10.852 -15.338   3.252  1.00  0.00     0.162 HD
BRANCH  18  20
HETATM   20  C22 UNL     1      12.185 -14.606   4.721  1.00  0.00     0.123 C 
BRANCH  20  21
HETATM   21  C23 UNL     1      11.429 -14.891   5.969  1.00  0.00     0.024 C 
BRANCH  21  22
HETATM   22  C24 UNL     1      10.026 -14.331   5.951  1.00  0.00    -0.013 C 
HETATM   23  C25 UNL     1       9.727 -13.526   7.201  1.00  0.00     0.005 C 
HETATM   24  C26 UNL     1       9.741 -14.574   8.276  1.00  0.00     0.000 C 
HETATM   25  C27 UNL     1       9.295 -15.865   7.610  1.00  0.00     0.000 C 
HETATM   26  C28 UNL     1       9.103 -15.539   6.133  1.00  0.00     0.005 C 
ENDBRANCH  21  22
ENDBRANCH  20  21
ENDBRANCH  18  20
ENDBRANCH  14  16
ENDBRANCH   7  10
BRANCH   4  27
HETATM   27  N4  UNL     1       6.339 -17.163  -1.071  1.00  0.00    -0.217 N 
HETATM   28  C12 UNL     1       6.228 -18.421  -0.386  1.00  0.00     0.141 C 
HETATM   29  C13 UNL     1       4.752 -18.639  -0.127  1.00  0.00     0.022 C 
HETATM   30  C14 UNL     1       4.047 -17.378  -0.522  1.00  0.00     0.022 C 
HETATM   31  C15 UNL     1       5.060 -16.484  -1.156  1.00  0.00     0.141 C 
ENDBRANCH   4  27
BRANCH   1  32
HETATM   32  N2  UNL     1       9.095 -16.119  -4.743  1.00  0.00    -0.225 N 
ATOM     33  H2  UNL     1       9.320 -16.986  -5.231  1.00  0.00     0.177 HD
BRANCH  32  34
HETATM   34  C9  UNL     1       8.982 -14.870  -5.474  1.00  0.00     0.139 C 
BRANCH  34  35
HETATM   35  C8  UNL     1       7.522 -14.523  -5.635  1.00  0.00     0.040 C 
BRANCH  35  36
HETATM   36  C7  UNL     1       6.938 -15.418  -6.695  1.00  0.00     0.124 C 
BRANCH  36  37
HETATM   37  N1  UNL     1       5.783 -16.114  -6.152  1.00  0.00    -0.357 N 
HETATM   38  C6  UNL     1       5.908 -17.456  -5.766  1.00  0.00     0.254 C 
HETATM   39  O2  UNL     1       7.055 -18.014  -5.897  1.00  0.00    -0.268 OA
ATOM     40  H1  UNL     1       4.890 -15.631  -6.052  1.00  0.00     0.162 HD
BRANCH  38  41
HETATM   41  C5  UNL     1       4.844 -18.278  -5.225  1.00  0.00     0.063 A 
HETATM   42  C2  UNL     1       3.600 -18.587  -5.710  1.00  0.00     0.064 A 
HETATM   43  C1  UNL     1       3.011 -18.136  -6.984  1.00  0.00     0.077 C 
HETATM   44  O1  UNL     1       2.996 -19.362  -4.854  1.00  0.00    -0.326 OA
HETATM   45  C3  UNL     1       3.749 -19.597  -3.823  1.00  0.00     0.143 A 
HETATM   46  C4  UNL     1       4.937 -18.938  -3.997  1.00  0.00     0.044 A 
ENDBRANCH  38  41
ENDBRANCH  36  37
ENDBRANCH  35  36
ENDBRANCH  34  35
ENDBRANCH  32  34
ENDBRANCH   1  32
TORSDOF 12
ENDMDL
MODEL 5
REMARK VINA RESULT: -8.741655668      2.177      9.386
REMARK  12 active torsions:
REMARK  status: ('A' for Active; 'I' for Inactive)
REMARK    1  A    between atoms: C5_6  and  C6_7 
REMARK       I    between atoms: C6_7  and  N1_9 
REMARK    2  A    between atoms: N1_9  and  C7_11 
REMARK    3  A    between atoms: C7_11  and  C8_12 
REMARK    4  A    between atoms: C8_12  and  C9_13 
REMARK    5  A    between atoms: C9_13  and  N2_14 
REMARK    6  A    between atoms: N2_14  and  C10_16 
REMARK    7  A    between atoms: C11_19  and  N4_20 
REMARK    8  A    between atoms: C16_27  and  N6_28 
REMARK    9  A    between atoms: C20_32  and  C21_33 
REMARK       I    between atoms: C21_33  and  N7_35 
REMARK   10  A    between atoms: N7_35  and  C22_37 
REMARK   11  A    between atoms: C22_37  and  C23_38 
REMARK   12  A    between atoms: C23_38  and  C24_39 
ROOT
HETATM    1  C10 UNL     1       8.221 -17.745  -0.583  1.00  0.00     0.707 A 
HETATM    2  N3  UNL     1       8.023 -17.235  -1.828  1.00  0.00    -0.021 N 
ATOM      3  H3  UNL     1       7.323 -17.647  -2.446  1.00  0.00     0.203 HD
HETATM    4  C11 UNL     1       8.759 -16.178  -2.241  1.00  0.00     0.709 A 
HETATM    5  N5  UNL     1       9.671 -15.665  -1.394  1.00  0.00    -0.021 N 
ATOM      6  H5  UNL     1      10.225 -14.869  -1.709  1.00  0.00     0.203 HD
HETATM    7  C16 UNL     1       9.892 -16.145  -0.153  1.00  0.00     0.709 A 
HETATM    8  N8  UNL     1       9.139 -17.204   0.231  1.00  0.00    -0.021 N 
ATOM      9  H8  UNL     1       9.274 -17.599   1.162  1.00  0.00     0.203 HD
ENDROOT
BRANCH   7  10
HETATM   10  N6  UNL     1      10.881 -15.535   0.670  1.00  0.00    -0.216 N 
HETATM   11  C17 UNL     1      12.183 -15.361   0.076  1.00  0.00     0.141 C 
HETATM   12  C18 UNL     1      12.851 -14.109   0.532  1.00  0.00     0.021 C 
HETATM   13  C19 UNL     1      11.783 -13.134   0.976  1.00  0.00     0.017 C 
HETATM   14  C20 UNL     1      11.032 -13.657   2.185  1.00  0.00     0.096 C 
HETATM   15  C29 UNL     1      10.647 -15.097   2.027  1.00  0.00     0.155 C 
BRANCH  14  16
HETATM   16  C21 UNL     1      11.885 -13.513   3.419  1.00  0.00     0.223 C 
HETATM   17  O3  UNL     1      12.638 -12.530   3.572  1.00  0.00    -0.273 OA
HETATM   18  N7  UNL     1      11.825 -14.511   4.417  1.00  0.00    -0.361 N 
ATOM     19  H7  UNL     1      11.201 -15.308   4.286  1.00  0.00     0.162 HD
BRANCH  18  20
HETATM   20  C22 UNL     1      12.610 -14.434   5.598  1.00  0.00     0.123 C 
BRANCH  20  21
HETATM   21  C23 UNL     1      11.901 -14.613   6.893  1.00  0.00     0.024 C 
BRANCH  21  22
HETATM   22  C24 UNL     1      10.866 -13.544   7.154  1.00  0.00    -0.013 C 
HETATM   23  C25 UNL     1      10.913 -13.055   8.588  1.00  0.00     0.005 C 
HETATM   24  C26 UNL     1      10.465 -14.262   9.360  1.00  0.00     0.000 C 
HETATM   25  C27 UNL     1       9.527 -15.026   8.439  1.00  0.00     0.000 C 
HETATM   26  C28 UNL     1       9.516 -14.267   7.117  1.00  0.00     0.005 C 
ENDBRANCH  21  22
ENDBRANCH  20  21
ENDBRANCH  18  20
ENDBRANCH  14  16
ENDBRANCH   7  10
BRANCH   4  27
HETATM   27  N4  UNL     1       8.558 -15.620  -3.525  1.00  0.00    -0.217 N 
HETATM   28  C12 UNL     1       9.188 -16.069  -4.736  1.00  0.00     0.141 C 
HETATM   29  C13 UNL     1       8.786 -15.087  -5.817  1.00  0.00     0.022 C 
HETATM   30  C14 UNL     1       7.759 -14.174  -5.220  1.00  0.00     0.022 C 
HETATM   31  C15 UNL     1       7.668 -14.499  -3.767  1.00  0.00     0.141 C 
ENDBRANCH   4  27
BRANCH   1  32
HETATM   32  N2  UNL     1       7.497 -18.775  -0.195  1.00  0.00    -0.225 N 
ATOM     33  H2  UNL     1       7.944 -19.661   0.046  1.00  0.00     0.177 HD
BRANCH  32  34
HETATM   34  C9  UNL     1       6.056 -18.632  -0.115  1.00  0.00     0.139 C 
BRANCH  34  35
HETATM   35  C8  UNL     1       5.723 -17.514   0.842  1.00  0.00     0.040 C 
BRANCH  35  36
HETATM   36  C7  UNL     1       4.885 -16.500   0.109  1.00  0.00     0.124 C 
BRANCH  36  37
HETATM   37  N1  UNL     1       3.990 -17.189  -0.807  1.00  0.00    -0.357 N 
HETATM   38  C6  UNL     1       4.201 -17.075  -2.188  1.00  0.00     0.254 C 
HETATM   39  O2  UNL     1       5.196 -16.372  -2.588  1.00  0.00    -0.268 OA
ATOM     40  H1  UNL     1       3.217 -17.749  -0.448  1.00  0.00     0.162 HD
BRANCH  38  41
HETATM   41  C5  UNL     1       3.386 -17.691  -3.216  1.00  0.00     0.063 A 
HETATM   42  C2  UNL     1       3.477 -18.909  -3.839  1.00  0.00     0.064 A 
HETATM   43  C1  UNL     1       4.486 -19.954  -3.590  1.00  0.00     0.077 C 
HETATM   44  O1  UNL     1       2.512 -19.009  -4.709  1.00  0.00    -0.326 OA
HETATM   45  C3  UNL     1       1.776 -17.941  -4.715  1.00  0.00     0.143 A 
HETATM   46  C4  UNL     1       2.277 -17.065  -3.790  1.00  0.00     0.044 A 
ENDBRANCH  38  41
ENDBRANCH  36  37
ENDBRANCH  35  36
ENDBRANCH  34  35
ENDBRANCH  32  34
ENDBRANCH   1  32
TORSDOF 12
ENDMDL
