MODEL 1
REMARK VINA RESULT: -5.481321156      0.000      0.000
REMARK  13 active torsions:
REMARK  status: ('A' for Active; 'I' for Inactive)
REMARK    1  A    between atoms: O1_2  and  C2_3 
REMARK    2  A    between atoms: C5_8  and  O4_9 
REMARK    3  A    between atoms: O4_9  and  C6_10 
REMARK    4  A    between atoms: C7_11  and  N1_12 
REMARK    5  A    between atoms: C9_17  and  N2_18 
REMARK    6  A    between atoms: C10_22  and  O5_23 
REMARK    7  A    between atoms: O5_23  and  C11_24 
REMARK    8  A    between atoms: C12_27  and  C13_28 
REMARK    9  A    between atoms: C13_28  and  N4_29 
REMARK   10  A    between atoms: C14_33  and  O7_34 
REMARK   11  A    between atoms: C15_36  and  O8_37 
REMARK   12  A    between atoms: C16_39  and  O9_40 
REMARK   13  A    between atoms: C17_42  and  O10_43 
ROOT
HETATM    1  C6  UNL     1     -22.218  -7.450   8.901  1.00  0.00     0.186 C 
HETATM    2  C7  UNL     1     -23.603  -7.700   9.389  1.00  0.00     0.217 C 
HETATM    3  C8  UNL     1     -24.513  -7.904   8.213  1.00  0.00     0.071 C 
HETATM    4  C9  UNL     1     -24.222  -7.026   7.048  1.00  0.00     0.217 C 
HETATM    5  C10 UNL     1     -23.342  -5.859   7.313  1.00  0.00     0.186 C 
HETATM    6  C16 UNL     1     -22.106  -6.171   8.095  1.00  0.00     0.180 C 
ENDROOT
BRANCH   5   7
HETATM    7  O5  UNL     1     -23.979  -4.786   7.914  1.00  0.00    -0.347 OA
BRANCH   7   8
HETATM    8  C11 UNL     1     -23.856  -3.602   7.198  1.00  0.00     0.315 C 
HETATM    9  O6  UNL     1     -24.992  -2.871   7.443  1.00  0.00    -0.251 OA
HETATM   10  N3  UNL     1     -24.878  -1.859   8.278  1.00  0.00    -0.089 NA
HETATM   11  C12 UNL     1     -24.042  -0.786   7.760  1.00  0.00     0.163 C 
HETATM   12  C14 UNL     1     -22.862  -1.386   7.007  1.00  0.00     0.175 C 
HETATM   13  C15 UNL     1     -22.645  -2.820   7.524  1.00  0.00     0.205 C 
BRANCH  11  14
HETATM   14  C13 UNL     1     -23.590   0.142   8.852  1.00  0.00     0.255 C 
BRANCH  14  15
HETATM   15  N4  UNL     1     -23.824  -0.403  10.170  1.00  0.00    -0.078 N 
ATOM     16  H43 UNL     1     -24.652   0.011  10.598  1.00  0.00     0.274 HD
ATOM     17  H42 UNL     1     -24.135  -1.373  10.117  1.00  0.00     0.274 HD
ATOM     18  H41 UNL     1     -23.010  -0.311  10.779  1.00  0.00     0.274 HD
ENDBRANCH  14  15
ENDBRANCH  11  14
BRANCH  12  19
HETATM   19  O7  UNL     1     -23.241  -1.511   5.675  1.00  0.00    -0.391 OA
ATOM     20  H7  UNL     1     -22.660  -2.147   5.274  1.00  0.00     0.210 HD
ENDBRANCH  12  19
BRANCH  13  21
HETATM   21  O8  UNL     1     -22.406  -2.730   8.876  1.00  0.00    -0.388 OA
ATOM     22  H8  UNL     1     -21.761  -3.355   9.185  1.00  0.00     0.210 HD
ENDBRANCH  13  21
ENDBRANCH   7   8
ENDBRANCH   5   7
BRANCH   4  23
HETATM   23  N2  UNL     1     -23.641  -7.785   5.926  1.00  0.00    -0.072 N 
ATOM     24  H23 UNL     1     -22.909  -8.419   6.246  1.00  0.00     0.274 HD
ATOM     25  H22 UNL     1     -24.300  -8.473   5.563  1.00  0.00     0.274 HD
ATOM     26  H21 UNL     1     -23.302  -7.168   5.188  1.00  0.00     0.274 HD
ENDBRANCH   4  23
BRANCH   6  27
HETATM   27  O9  UNL     1     -20.979  -6.328   7.264  1.00  0.00    -0.390 OA
ATOM     28  H9  UNL     1     -21.306  -6.329   6.372  1.00  0.00     0.210 HD
ENDBRANCH   6  27
BRANCH   1  29
HETATM   29  O4  UNL     1     -21.753  -8.512   8.163  1.00  0.00    -0.348 OA
BRANCH  29  30
HETATM   30  C5  UNL     1     -20.895  -9.363   8.812  1.00  0.00     0.297 C 
HETATM   31  O3  UNL     1     -21.522  -9.770  10.019  1.00  0.00    -0.329 OA
HETATM   32  C3  UNL     1     -20.729 -10.678  10.703  1.00  0.00     0.262 C 
HETATM   33  O2  UNL     1     -19.483 -10.182  11.023  1.00  0.00    -0.329 OA
HETATM   34  C4  UNL     1     -21.444 -11.002  11.999  1.00  0.00     0.071 C 
HETATM   35  C2  UNL     1     -18.771  -9.724   9.940  1.00  0.00     0.295 C 
HETATM   36  C17 UNL     1     -19.639  -8.655   9.262  1.00  0.00     0.228 C 
BRANCH  35  37
HETATM   37  O1  UNL     1     -18.518 -10.685   8.980  1.00  0.00    -0.363 OA
HETATM   38  C1  UNL     1     -17.171 -11.009   8.887  1.00  0.00     0.204 C 
ENDBRANCH  35  37
BRANCH  36  39
HETATM   39  O10 UNL     1     -18.961  -7.999   8.272  1.00  0.00    -0.386 OA
ATOM     40  H10 UNL     1     -19.530  -7.763   7.549  1.00  0.00     0.210 HD
ENDBRANCH  36  39
ENDBRANCH  29  30
ENDBRANCH   1  29
BRANCH   2  41
HETATM   41  N1  UNL     1     -24.079  -6.654  10.279  1.00  0.00    -0.072 N 
ATOM     42  H13 UNL     1     -24.454  -7.050  11.141  1.00  0.00     0.274 HD
ATOM     43  H12 UNL     1     -23.301  -6.121  10.668  1.00  0.00     0.274 HD
ATOM     44  H11 UNL     1     -24.758  -6.039   9.832  1.00  0.00     0.274 HD
ENDBRANCH   2  41
TORSDOF 13
ENDMDL
MODEL 2
REMARK VINA RESULT: -5.384974766      1.155      1.418
REMARK  13 active torsions:
REMARK  status: ('A' for Active; 'I' for Inactive)
REMARK    1  A    between atoms: O1_2  and  C2_3 
REMARK    2  A    between atoms: C5_8  and  O4_9 
REMARK    3  A    between atoms: O4_9  and  C6_10 
REMARK    4  A    between atoms: C7_11  and  N1_12 
REMARK    5  A    between atoms: C9_17  and  N2_18 
REMARK    6  A    between atoms: C10_22  and  O5_23 
REMARK    7  A    between atoms: O5_23  and  C11_24 
REMARK    8  A    between atoms: C12_27  and  C13_28 
REMARK    9  A    between atoms: C13_28  and  N4_29 
REMARK   10  A    between atoms: C14_33  and  O7_34 
REMARK   11  A    between atoms: C15_36  and  O8_37 
REMARK   12  A    between atoms: C16_39  and  O9_40 
REMARK   13  A    between atoms: C17_42  and  O10_43 
ROOT
HETATM    1  C6  UNL     1     -22.816  -7.495   9.589  1.00  0.00     0.186 C 
HETATM    2  C7  UNL     1     -24.285  -7.741   9.619  1.00  0.00     0.217 C 
HETATM    3  C8  UNL     1     -24.785  -7.928   8.216  1.00  0.00     0.071 C 
HETATM    4  C9  UNL     1     -24.142  -7.041   7.209  1.00  0.00     0.217 C 
HETATM    5  C10 UNL     1     -23.386  -5.882   7.748  1.00  0.00     0.186 C 
HETATM    6  C16 UNL     1     -22.455  -6.209   8.872  1.00  0.00     0.180 C 
ENDROOT
BRANCH   5   7
HETATM    7  O5  UNL     1     -24.174  -4.811   8.132  1.00  0.00    -0.347 OA
BRANCH   7   8
HETATM    8  C11 UNL     1     -23.972  -3.673   7.362  1.00  0.00     0.315 C 
HETATM    9  O6  UNL     1     -25.085  -2.885   7.518  1.00  0.00    -0.251 OA
HETATM   10  N3  UNL     1     -24.964  -1.835   8.302  1.00  0.00    -0.089 NA
HETATM   11  C12 UNL     1     -24.063  -0.825   7.766  1.00  0.00     0.163 C 
HETATM   12  C14 UNL     1     -22.878  -1.512   7.098  1.00  0.00     0.175 C 
HETATM   13  C15 UNL     1     -22.744  -2.924   7.699  1.00  0.00     0.205 C 
BRANCH  11  14
HETATM   14  C13 UNL     1     -23.618   0.141   8.827  1.00  0.00     0.255 C 
BRANCH  14  15
HETATM   15  N4  UNL     1     -23.985  -0.292  10.156  1.00  0.00    -0.078 N 
ATOM     16  H43 UNL     1     -24.796   0.222  10.499  1.00  0.00     0.274 HD
ATOM     17  H42 UNL     1     -24.382  -1.232  10.141  1.00  0.00     0.274 HD
ATOM     18  H41 UNL     1     -23.207  -0.232  10.813  1.00  0.00     0.274 HD
ENDBRANCH  14  15
ENDBRANCH  11  14
BRANCH  12  19
HETATM   19  O7  UNL     1     -23.206  -1.693   5.759  1.00  0.00    -0.391 OA
ATOM     20  H7  UNL     1     -23.442  -0.842   5.408  1.00  0.00     0.210 HD
ENDBRANCH  12  19
BRANCH  13  21
HETATM   21  O8  UNL     1     -22.558  -2.770   9.054  1.00  0.00    -0.388 OA
ATOM     22  H8  UNL     1     -21.644  -2.689   9.299  1.00  0.00     0.210 HD
ENDBRANCH  13  21
ENDBRANCH   7   8
ENDBRANCH   5   7
BRANCH   4  23
HETATM   23  N2  UNL     1     -23.244  -7.792   6.315  1.00  0.00    -0.072 N 
ATOM     24  H23 UNL     1     -22.965  -8.682   6.731  1.00  0.00     0.274 HD
ATOM     25  H22 UNL     1     -23.742  -8.147   5.499  1.00  0.00     0.274 HD
ATOM     26  H21 UNL     1     -22.431  -7.238   6.044  1.00  0.00     0.274 HD
ENDBRANCH   4  23
BRANCH   6  27
HETATM   27  O9  UNL     1     -21.126  -6.365   8.432  1.00  0.00    -0.390 OA
ATOM     28  H9  UNL     1     -20.734  -5.500   8.460  1.00  0.00     0.210 HD
ENDBRANCH   6  27
BRANCH   1  29
HETATM   29  O4  UNL     1     -22.148  -8.553   9.020  1.00  0.00    -0.348 OA
BRANCH  29  30
HETATM   30  C5  UNL     1     -21.328  -9.264   9.859  1.00  0.00     0.297 C 
HETATM   31  O3  UNL     1     -20.722  -8.343  10.754  1.00  0.00    -0.329 OA
HETATM   32  C3  UNL     1     -19.918  -9.002  11.669  1.00  0.00     0.262 C 
HETATM   33  O2  UNL     1     -18.912  -9.739  11.080  1.00  0.00    -0.329 OA
HETATM   34  C4  UNL     1     -19.268  -7.941  12.533  1.00  0.00     0.071 C 
HETATM   35  C2  UNL     1     -19.359 -10.660  10.163  1.00  0.00     0.295 C 
HETATM   36  C17 UNL     1     -20.167  -9.882   9.115  1.00  0.00     0.228 C 
BRANCH  35  37
HETATM   37  O1  UNL     1     -20.215 -11.611  10.686  1.00  0.00    -0.363 OA
HETATM   38  C1  UNL     1     -19.685 -12.893  10.641  1.00  0.00     0.204 C 
ENDBRANCH  35  37
BRANCH  36  39
HETATM   39  O10 UNL     1     -20.517 -10.668   8.052  1.00  0.00    -0.386 OA
ATOM     40  H10 UNL     1     -21.229 -10.290   7.550  1.00  0.00     0.210 HD
ENDBRANCH  36  39
ENDBRANCH  29  30
ENDBRANCH   1  29
BRANCH   2  41
HETATM   41  N1  UNL     1     -25.011  -6.701  10.328  1.00  0.00    -0.072 N 
ATOM     42  H13 UNL     1     -25.562  -7.095  11.091  1.00  0.00     0.274 HD
ATOM     43  H12 UNL     1     -24.376  -6.114  10.870  1.00  0.00     0.274 HD
ATOM     44  H11 UNL     1     -25.593  -6.137   9.708  1.00  0.00     0.274 HD
ENDBRANCH   2  41
TORSDOF 13
ENDMDL
MODEL 3
REMARK VINA RESULT: -5.293126561      3.183      5.614
REMARK  13 active torsions:
REMARK  status: ('A' for Active; 'I' for Inactive)
REMARK    1  A    between atoms: O1_2  and  C2_3 
REMARK    2  A    between atoms: C5_8  and  O4_9 
REMARK    3  A    between atoms: O4_9  and  C6_10 
REMARK    4  A    between atoms: C7_11  and  N1_12 
REMARK    5  A    between atoms: C9_17  and  N2_18 
REMARK    6  A    between atoms: C10_22  and  O5_23 
REMARK    7  A    between atoms: O5_23  and  C11_24 
REMARK    8  A    between atoms: C12_27  and  C13_28 
REMARK    9  A    between atoms: C13_28  and  N4_29 
REMARK   10  A    between atoms: C14_33  and  O7_34 
REMARK   11  A    between atoms: C15_36  and  O8_37 
REMARK   12  A    between atoms: C16_39  and  O9_40 
REMARK   13  A    between atoms: C17_42  and  O10_43 
ROOT
HETATM    1  C6  UNL     1     -24.452  -6.709   8.421  1.00  0.00     0.186 C 
HETATM    2  C7  UNL     1     -23.152  -7.081   7.796  1.00  0.00     0.217 C 
HETATM    3  C8  UNL     1     -22.160  -7.410   8.873  1.00  0.00     0.071 C 
HETATM    4  C9  UNL     1     -22.249  -6.544  10.080  1.00  0.00     0.217 C 
HETATM    5  C10 UNL     1     -23.026  -5.287   9.925  1.00  0.00     0.186 C 
HETATM    6  C16 UNL     1     -24.356  -5.450   9.261  1.00  0.00     0.180 C 
ENDROOT
BRANCH   5   7
HETATM    7  O5  UNL     1     -22.342  -4.266   9.288  1.00  0.00    -0.347 OA
BRANCH   7   8
HETATM    8  C11 UNL     1     -23.141  -3.167   8.995  1.00  0.00     0.315 C 
HETATM    9  O6  UNL     1     -22.593  -2.093   9.652  1.00  0.00    -0.251 OA
HETATM   10  N3  UNL     1     -21.915  -1.234   8.920  1.00  0.00    -0.089 NA
HETATM   11  C12 UNL     1     -22.750  -0.504   7.978  1.00  0.00     0.163 C 
HETATM   12  C14 UNL     1     -23.800  -1.446   7.403  1.00  0.00     0.175 C 
HETATM   13  C15 UNL     1     -23.280  -2.888   7.551  1.00  0.00     0.205 C 
BRANCH  11  14
HETATM   14  C13 UNL     1     -21.932   0.142   6.896  1.00  0.00     0.255 C 
BRANCH  14  15
HETATM   15  N4  UNL     1     -22.586   0.094   5.608  1.00  0.00    -0.078 N 
ATOM     16  H43 UNL     1     -23.455  -0.438   5.656  1.00  0.00     0.274 HD
ATOM     17  H42 UNL     1     -22.968   1.006   5.355  1.00  0.00     0.274 HD
ATOM     18  H41 UNL     1     -21.976  -0.264   4.874  1.00  0.00     0.274 HD
ENDBRANCH  14  15
ENDBRANCH  11  14
BRANCH  12  19
HETATM   19  O7  UNL     1     -24.925  -1.356   8.215  1.00  0.00    -0.391 OA
ATOM     20  H7  UNL     1     -25.655  -1.107   7.661  1.00  0.00     0.210 HD
ENDBRANCH  12  19
BRANCH  13  21
HETATM   21  O8  UNL     1     -22.089  -2.960   6.868  1.00  0.00    -0.388 OA
ATOM     22  H8  UNL     1     -21.972  -2.254   6.244  1.00  0.00     0.210 HD
ENDBRANCH  13  21
ENDBRANCH   7   8
ENDBRANCH   5   7
BRANCH   4  23
HETATM   23  N2  UNL     1     -22.796  -7.275  11.236  1.00  0.00    -0.072 N 
ATOM     24  H23 UNL     1     -23.798  -7.114  11.338  1.00  0.00     0.274 HD
ATOM     25  H22 UNL     1     -22.813  -8.280  11.066  1.00  0.00     0.274 HD
ATOM     26  H21 UNL     1     -22.294  -7.051  12.096  1.00  0.00     0.274 HD
ENDBRANCH   4  23
BRANCH   6  27
HETATM   27  O9  UNL     1     -25.409  -5.519  10.194  1.00  0.00    -0.390 OA
ATOM     28  H9  UNL     1     -25.032  -5.292  11.035  1.00  0.00     0.210 HD
ENDBRANCH   6  27
BRANCH   1  29
HETATM   29  O4  UNL     1     -24.951  -7.741   9.179  1.00  0.00    -0.348 OA
BRANCH  29  30
HETATM   30  C5  UNL     1     -26.030  -8.404   8.652  1.00  0.00     0.297 C 
HETATM   31  O3  UNL     1     -25.809  -8.548   7.257  1.00  0.00    -0.329 OA
HETATM   32  C3  UNL     1     -26.841  -9.259   6.667  1.00  0.00     0.262 C 
HETATM   33  O2  UNL     1     -28.077  -8.672   6.838  1.00  0.00    -0.329 OA
HETATM   34  C4  UNL     1     -26.553  -9.306   5.180  1.00  0.00     0.071 C 
HETATM   35  C2  UNL     1     -28.410  -8.448   8.152  1.00  0.00     0.295 C 
HETATM   36  C17 UNL     1     -27.293  -7.581   8.748  1.00  0.00     0.228 C 
BRANCH  35  37
HETATM   37  O1  UNL     1     -28.468  -9.592   8.925  1.00  0.00    -0.363 OA
HETATM   38  C1  UNL     1     -29.707  -9.775   9.523  1.00  0.00     0.204 C 
ENDBRANCH  35  37
BRANCH  36  39
HETATM   39  O10 UNL     1     -27.602  -7.144  10.007  1.00  0.00    -0.386 OA
ATOM     40  H10 UNL     1     -26.907  -6.616  10.380  1.00  0.00     0.210 HD
ENDBRANCH  36  39
ENDBRANCH  29  30
ENDBRANCH   1  29
BRANCH   2  41
HETATM   41  N1  UNL     1     -22.658  -6.061   6.886  1.00  0.00    -0.072 N 
ATOM     42  H13 UNL     1     -23.371  -5.354   6.706  1.00  0.00     0.274 HD
ATOM     43  H12 UNL     1     -21.956  -5.475   7.338  1.00  0.00     0.274 HD
ATOM     44  H11 UNL     1     -22.302  -6.454   6.014  1.00  0.00     0.274 HD
ENDBRANCH   2  41
TORSDOF 13
ENDMDL
MODEL 4
REMARK VINA RESULT: -5.277562019      0.955      1.987
REMARK  13 active torsions:
REMARK  status: ('A' for Active; 'I' for Inactive)
REMARK    1  A    between atoms: O1_2  and  C2_3 
REMARK    2  A    between atoms: C5_8  and  O4_9 
REMARK    3  A    between atoms: O4_9  and  C6_10 
REMARK    4  A    between atoms: C7_11  and  N1_12 
REMARK    5  A    between atoms: C9_17  and  N2_18 
REMARK    6  A    between atoms: C10_22  and  O5_23 
REMARK    7  A    between atoms: O5_23  and  C11_24 
REMARK    8  A    between atoms: C12_27  and  C13_28 
REMARK    9  A    between atoms: C13_28  and  N4_29 
REMARK   10  A    between atoms: C14_33  and  O7_34 
REMARK   11  A    between atoms: C15_36  and  O8_37 
REMARK   12  A    between atoms: C16_39  and  O9_40 
REMARK   13  A    between atoms: C17_42  and  O10_43 
ROOT
HETATM    1  C6  UNL     1     -21.954  -7.188   9.027  1.00  0.00     0.186 C 
HETATM    2  C7  UNL     1     -23.299  -7.536   9.566  1.00  0.00     0.217 C 
HETATM    3  C8  UNL     1     -24.205  -7.914   8.431  1.00  0.00     0.071 C 
HETATM    4  C9  UNL     1     -24.023  -7.099   7.199  1.00  0.00     0.217 C 
HETATM    5  C10 UNL     1     -23.260  -5.835   7.359  1.00  0.00     0.186 C 
HETATM    6  C16 UNL     1     -21.985  -5.966   8.130  1.00  0.00     0.180 C 
ENDROOT
BRANCH   5   7
HETATM    7  O5  UNL     1     -23.990  -4.789   7.898  1.00  0.00    -0.347 OA
BRANCH   7   8
HETATM    8  C11 UNL     1     -23.858  -3.602   7.188  1.00  0.00     0.315 C 
HETATM    9  O6  UNL     1     -25.010  -2.886   7.396  1.00  0.00    -0.251 OA
HETATM   10  N3  UNL     1     -24.936  -1.874   8.235  1.00  0.00    -0.089 NA
HETATM   11  C12 UNL     1     -24.097  -0.790   7.745  1.00  0.00     0.163 C 
HETATM   12  C14 UNL     1     -22.886  -1.374   7.030  1.00  0.00     0.175 C 
HETATM   13  C15 UNL     1     -22.668  -2.807   7.553  1.00  0.00     0.205 C 
BRANCH  11  14
HETATM   14  C13 UNL     1     -23.691   0.142   8.852  1.00  0.00     0.255 C 
BRANCH  14  15
HETATM   15  N4  UNL     1     -23.980  -0.399  10.161  1.00  0.00    -0.078 N 
ATOM     16  H43 UNL     1     -23.202  -0.246  10.802  1.00  0.00     0.274 HD
ATOM     17  H42 UNL     1     -24.694   0.153  10.638  1.00  0.00     0.274 HD
ATOM     18  H41 UNL     1     -24.240  -1.384  10.126  1.00  0.00     0.274 HD
ENDBRANCH  14  15
ENDBRANCH  11  14
BRANCH  12  19
HETATM   19  O7  UNL     1     -23.220  -1.502   5.687  1.00  0.00    -0.391 OA
ATOM     20  H7  UNL     1     -22.931  -2.362   5.404  1.00  0.00     0.210 HD
ENDBRANCH  12  19
BRANCH  13  21
HETATM   21  O8  UNL     1     -22.474  -2.715   8.912  1.00  0.00    -0.388 OA
ATOM     22  H8  UNL     1     -23.242  -2.410   9.380  1.00  0.00     0.210 HD
ENDBRANCH  13  21
ENDBRANCH   7   8
ENDBRANCH   5   7
BRANCH   4  23
HETATM   23  N2  UNL     1     -23.391  -7.878   6.120  1.00  0.00    -0.072 N 
ATOM     24  H23 UNL     1     -22.499  -8.272   6.420  1.00  0.00     0.274 HD
ATOM     25  H22 UNL     1     -23.896  -8.745   5.942  1.00  0.00     0.274 HD
ATOM     26  H21 UNL     1     -23.286  -7.326   5.268  1.00  0.00     0.274 HD
ENDBRANCH   4  23
BRANCH   6  27
HETATM   27  O9  UNL     1     -20.864  -6.072   7.284  1.00  0.00    -0.390 OA
ATOM     28  H9  UNL     1     -20.976  -5.411   6.610  1.00  0.00     0.210 HD
ENDBRANCH   6  27
BRANCH   1  29
HETATM   29  O4  UNL     1     -21.400  -8.250   8.354  1.00  0.00    -0.348 OA
BRANCH  29  30
HETATM   30  C5  UNL     1     -20.171  -8.666   8.800  1.00  0.00     0.297 C 
HETATM   31  O3  UNL     1     -19.196  -8.197   7.881  1.00  0.00    -0.329 OA
HETATM   32  C3  UNL     1     -17.920  -8.536   8.300  1.00  0.00     0.262 C 
HETATM   33  O2  UNL     1     -17.738  -9.895   8.449  1.00  0.00    -0.329 OA
HETATM   34  C4  UNL     1     -16.960  -8.055   7.232  1.00  0.00     0.071 C 
HETATM   35  C2  UNL     1     -18.639 -10.488   9.300  1.00  0.00     0.295 C 
HETATM   36  C17 UNL     1     -20.038 -10.170   8.753  1.00  0.00     0.228 C 
BRANCH  35  37
HETATM   37  O1  UNL     1     -18.607  -9.998  10.592  1.00  0.00    -0.363 OA
HETATM   38  C1  UNL     1     -18.110 -10.919  11.504  1.00  0.00     0.204 C 
ENDBRANCH  35  37
BRANCH  36  39
HETATM   39  O10 UNL     1     -21.015 -10.857   9.418  1.00  0.00    -0.386 OA
ATOM     40  H10 UNL     1     -21.206 -10.471  10.265  1.00  0.00     0.210 HD
ENDBRANCH  36  39
ENDBRANCH  29  30
ENDBRANCH   1  29
BRANCH   2  41
HETATM   41  N1  UNL     1     -23.860  -6.480  10.391  1.00  0.00    -0.072 N 
ATOM     42  H13 UNL     1     -23.872  -6.751  11.374  1.00  0.00     0.274 HD
ATOM     43  H12 UNL     1     -23.226  -5.683  10.448  1.00  0.00     0.274 HD
ATOM     44  H11 UNL     1     -24.787  -6.191  10.079  1.00  0.00     0.274 HD
ENDBRANCH   2  41
TORSDOF 13
ENDMDL
MODEL 5
REMARK VINA RESULT: -5.128275769      2.516      8.237
REMARK  13 active torsions:
REMARK  status: ('A' for Active; 'I' for Inactive)
REMARK    1  A    between atoms: O1_2  and  C2_3 
REMARK    2  A    between atoms: C5_8  and  O4_9 
REMARK    3  A    between atoms: O4_9  and  C6_10 
REMARK    4  A    between atoms: C7_11  and  N1_12 
REMARK    5  A    between atoms: C9_17  and  N2_18 
REMARK    6  A    between atoms: C10_22  and  O5_23 
REMARK    7  A    between atoms: O5_23  and  C11_24 
REMARK    8  A    between atoms: C12_27  and  C13_28 
REMARK    9  A    between atoms: C13_28  and  N4_29 
REMARK   10  A    between atoms: C14_33  and  O7_34 
REMARK   11  A    between atoms: C15_36  and  O8_37 
REMARK   12  A    between atoms: C16_39  and  O9_40 
REMARK   13  A    between atoms: C17_42  and  O10_43 
ROOT
HETATM    1  C6  UNL     1     -22.795  -5.388   9.606  1.00  0.00     0.186 C 
HETATM    2  C7  UNL     1     -21.346  -5.305   9.273  1.00  0.00     0.217 C 
HETATM    3  C8  UNL     1     -21.083  -6.066   8.007  1.00  0.00     0.071 C 
HETATM    4  C9  UNL     1     -21.864  -7.325   7.870  1.00  0.00     0.217 C 
HETATM    5  C10 UNL     1     -22.502  -7.835   9.111  1.00  0.00     0.186 C 
HETATM    6  C16 UNL     1     -23.245  -6.806   9.902  1.00  0.00     0.180 C 
ENDROOT
BRANCH   5   7
HETATM    7  O5  UNL     1     -21.643  -8.505   9.964  1.00  0.00    -0.347 OA
BRANCH   7   8
HETATM    8  C11 UNL     1     -20.585  -9.123   9.308  1.00  0.00     0.315 C 
HETATM    9  O6  UNL     1     -19.432  -8.668   9.899  1.00  0.00    -0.251 OA
HETATM   10  N3  UNL     1     -18.822  -9.495  10.722  1.00  0.00    -0.089 NA
HETATM   11  C12 UNL     1     -18.271 -10.663  10.052  1.00  0.00     0.163 C 
HETATM   12  C14 UNL     1     -19.238 -11.124   8.968  1.00  0.00     0.175 C 
HETATM   13  C15 UNL     1     -20.641 -10.599   9.327  1.00  0.00     0.205 C 
BRANCH  11  14
HETATM   14  C13 UNL     1     -17.960 -11.766  11.023  1.00  0.00     0.255 C 
BRANCH  14  15
HETATM   15  N4  UNL     1     -18.433 -13.053  10.565  1.00  0.00    -0.078 N 
ATOM     16  H43 UNL     1     -19.188 -12.948   9.888  1.00  0.00     0.274 HD
ATOM     17  H42 UNL     1     -17.742 -13.509   9.969  1.00  0.00     0.274 HD
ATOM     18  H41 UNL     1     -18.712 -13.662  11.335  1.00  0.00     0.274 HD
ENDBRANCH  14  15
ENDBRANCH  11  14
BRANCH  12  19
HETATM   19  O7  UNL     1     -18.876 -10.481   7.790  1.00  0.00    -0.391 OA
ATOM     20  H7  UNL     1     -19.556 -10.658   7.150  1.00  0.00     0.210 HD
ENDBRANCH  12  19
BRANCH  13  21
HETATM   21  O8  UNL     1     -20.962 -11.114  10.561  1.00  0.00    -0.388 OA
ATOM     22  H8  UNL     1     -20.926 -12.063  10.592  1.00  0.00     0.210 HD
ENDBRANCH  13  21
ENDBRANCH   7   8
ENDBRANCH   5   7
BRANCH   4  23
HETATM   23  N2  UNL     1     -22.908  -7.209   6.837  1.00  0.00    -0.072 N 
ATOM     24  H23 UNL     1     -22.515  -6.916   5.943  1.00  0.00     0.274 HD
ATOM     25  H22 UNL     1     -23.262  -8.125   6.563  1.00  0.00     0.274 HD
ATOM     26  H21 UNL     1     -23.663  -6.590   7.133  1.00  0.00     0.274 HD
ENDBRANCH   4  23
BRANCH   6  27
HETATM   27  O9  UNL     1     -24.630  -6.840   9.648  1.00  0.00    -0.390 OA
ATOM     28  H9  UNL     1     -24.758  -7.490   8.967  1.00  0.00     0.210 HD
ENDBRANCH   6  27
BRANCH   1  29
HETATM   29  O4  UNL     1     -23.566  -4.853   8.601  1.00  0.00    -0.348 OA
BRANCH  29  30
HETATM   30  C5  UNL     1     -23.579  -3.483   8.523  1.00  0.00     0.297 C 
HETATM   31  O3  UNL     1     -24.370  -2.997   9.596  1.00  0.00    -0.329 OA
HETATM   32  C3  UNL     1     -24.384  -1.612   9.610  1.00  0.00     0.262 C 
HETATM   33  O2  UNL     1     -24.872  -1.059   8.445  1.00  0.00    -0.329 OA
HETATM   34  C4  UNL     1     -25.298  -1.189  10.741  1.00  0.00     0.071 C 
HETATM   35  C2  UNL     1     -24.208  -1.469   7.313  1.00  0.00     0.295 C 
HETATM   36  C17 UNL     1     -24.294  -3.001   7.282  1.00  0.00     0.228 C 
BRANCH  35  37
HETATM   37  O1  UNL     1     -22.863  -1.155   7.300  1.00  0.00    -0.363 OA
HETATM   38  C1  UNL     1     -22.528  -0.266   6.288  1.00  0.00     0.204 C 
ENDBRANCH  35  37
BRANCH  36  39
HETATM   39  O10 UNL     1     -23.821  -3.515   6.107  1.00  0.00    -0.386 OA
ATOM     40  H10 UNL     1     -23.347  -4.327   6.241  1.00  0.00     0.210 HD
ENDBRANCH  36  39
ENDBRANCH  29  30
ENDBRANCH   1  29
BRANCH   2  41
HETATM   41  N1  UNL     1     -20.496  -5.745  10.367  1.00  0.00    -0.072 N 
ATOM     42  H13 UNL     1     -19.745  -5.076  10.539  1.00  0.00     0.274 HD
ATOM     43  H12 UNL     1     -20.984  -5.678  11.260  1.00  0.00     0.274 HD
ATOM     44  H11 UNL     1     -20.125  -6.684  10.221  1.00  0.00     0.274 HD
ENDBRANCH   2  41
TORSDOF 13
ENDMDL
