MODEL 1
REMARK VINA RESULT: -4.837533280      0.000      0.000
REMARK  0 active torsions:
REMARK  status: ('A' for Active; 'I' for Inactive)
ROOT
HETATM    1  C1  UNL     1      14.715   4.113  18.886  1.00  0.00     0.046 C 
HETATM    2  C2  UNL     1      14.687   4.139  17.383  1.00  0.00     0.120 C 
HETATM    3  C3  UNL     1      13.766   3.080  16.807  1.00  0.00     0.046 C 
HETATM    4  C4  UNL     1      16.108   3.932  16.883  1.00  0.00     0.059 C 
HETATM    5  C5  UNL     1      16.208   4.672  15.589  1.00  0.00     0.120 C 
HETATM    6  C6  UNL     1      16.363   3.771  14.444  1.00  0.00     0.065 C 
HETATM    7  N1  UNL     1      16.484   3.056  13.546  1.00  0.00    -0.197 NA
HETATM    8  C7  UNL     1      14.875   5.374  15.504  1.00  0.00     0.252 C 
HETATM    9  N2  UNL     1      14.317   5.403  16.827  1.00  0.00    -0.066 N 
ATOM     10  H21 UNL     1      14.602   6.208  17.385  1.00  0.00     0.278 HD
ATOM     11  H22 UNL     1      13.316   5.599  16.856  1.00  0.00     0.278 HD
ENDROOT
TORSDOF 0
ENDMDL
MODEL 2
REMARK VINA RESULT: -4.665157111      4.788      6.216
REMARK  0 active torsions:
REMARK  status: ('A' for Active; 'I' for Inactive)
ROOT
HETATM    1  C1  UNL     1      16.845   4.439  10.757  1.00  0.00     0.046 C 
HETATM    2  C2  UNL     1      17.404   3.220  11.437  1.00  0.00     0.120 C 
HETATM    3  C3  UNL     1      18.922   3.226  11.470  1.00  0.00     0.046 C 
HETATM    4  C4  UNL     1      16.897   1.993  10.697  1.00  0.00     0.059 C 
HETATM    5  C5  UNL     1      16.793   0.904  11.714  1.00  0.00     0.120 C 
HETATM    6  C6  UNL     1      17.772  -0.163  11.488  1.00  0.00     0.065 C 
HETATM    7  N1  UNL     1      18.546  -0.999  11.305  1.00  0.00    -0.197 NA
HETATM    8  C7  UNL     1      17.114   1.621  13.003  1.00  0.00     0.252 C 
HETATM    9  N2  UNL     1      16.930   3.027  12.773  1.00  0.00    -0.066 N 
ATOM     10  H21 UNL     1      15.978   3.357  12.933  1.00  0.00     0.278 HD
ATOM     11  H22 UNL     1      17.373   3.628  13.468  1.00  0.00     0.278 HD
ENDROOT
TORSDOF 0
ENDMDL
MODEL 3
REMARK VINA RESULT: -4.643316969      4.453      6.006
REMARK  0 active torsions:
REMARK  status: ('A' for Active; 'I' for Inactive)
ROOT
HETATM    1  C1  UNL     1      17.665   4.885  12.018  1.00  0.00     0.046 C 
HETATM    2  C2  UNL     1      17.256   3.446  11.868  1.00  0.00     0.120 C 
HETATM    3  C3  UNL     1      16.800   2.838  13.182  1.00  0.00     0.046 C 
HETATM    4  C4  UNL     1      18.442   2.674  11.312  1.00  0.00     0.059 C 
HETATM    5  C5  UNL     1      17.872   1.559  10.499  1.00  0.00     0.120 C 
HETATM    6  C6  UNL     1      18.127   0.247  11.100  1.00  0.00     0.065 C 
HETATM    7  N1  UNL     1      18.330  -0.783  11.579  1.00  0.00    -0.197 NA
HETATM    8  C7  UNL     1      16.392   1.849  10.527  1.00  0.00     0.252 C 
HETATM    9  N2  UNL     1      16.229   3.228  10.896  1.00  0.00    -0.066 N 
ATOM     10  H21 UNL     1      16.249   3.878  10.111  1.00  0.00     0.278 HD
ATOM     11  H22 UNL     1      15.290   3.469  11.215  1.00  0.00     0.278 HD
ENDROOT
TORSDOF 0
ENDMDL
MODEL 4
REMARK VINA RESULT: -4.582292257      1.784      3.411
REMARK  0 active torsions:
REMARK  status: ('A' for Active; 'I' for Inactive)
ROOT
HETATM    1  C1  UNL     1      16.092   7.090  14.717  1.00  0.00     0.046 C 
HETATM    2  C2  UNL     1      15.940   5.637  15.072  1.00  0.00     0.120 C 
HETATM    3  C3  UNL     1      15.390   4.818  13.918  1.00  0.00     0.046 C 
HETATM    4  C4  UNL     1      15.015   5.541  16.276  1.00  0.00     0.059 C 
HETATM    5  C5  UNL     1      15.448   4.332  17.040  1.00  0.00     0.120 C 
HETATM    6  C6  UNL     1      14.447   3.263  17.000  1.00  0.00     0.065 C 
HETATM    7  N1  UNL     1      13.656   2.423  16.965  1.00  0.00    -0.197 NA
HETATM    8  C7  UNL     1      16.686   3.895  16.297  1.00  0.00     0.252 C 
HETATM    9  N2  UNL     1      17.146   5.016  15.525  1.00  0.00    -0.066 N 
ATOM     10  H21 UNL     1      17.778   5.640  16.026  1.00  0.00     0.278 HD
ATOM     11  H22 UNL     1      17.799   4.773  14.780  1.00  0.00     0.278 HD
ENDROOT
TORSDOF 0
ENDMDL
MODEL 5
REMARK VINA RESULT: -4.533335973      4.381      5.775
REMARK  0 active torsions:
REMARK  status: ('A' for Active; 'I' for Inactive)
ROOT
HETATM    1  C1  UNL     1      17.105   0.271  11.598  1.00  0.00     0.046 C 
HETATM    2  C2  UNL     1      17.301   1.757  11.477  1.00  0.00     0.120 C 
HETATM    3  C3  UNL     1      18.715   2.118  11.060  1.00  0.00     0.046 C 
HETATM    4  C4  UNL     1      16.970   2.387  12.821  1.00  0.00     0.059 C 
HETATM    5  C5  UNL     1      16.442   3.752  12.523  1.00  0.00     0.120 C 
HETATM    6  C6  UNL     1      17.347   4.809  12.981  1.00  0.00     0.065 C 
HETATM    7  N1  UNL     1      18.065   5.638  13.342  1.00  0.00    -0.197 NA
HETATM    8  C7  UNL     1      16.372   3.761  11.016  1.00  0.00     0.252 C 
HETATM    9  N2  UNL     1      16.394   2.395  10.574  1.00  0.00    -0.066 N 
ATOM     10  H21 UNL     1      15.474   1.956  10.522  1.00  0.00     0.278 HD
ATOM     11  H22 UNL     1      16.628   2.275   9.588  1.00  0.00     0.278 HD
ENDROOT
TORSDOF 0
ENDMDL
