MODEL 1
REMARK VINA RESULT: -7.864684462      0.000      0.000
REMARK  8 active torsions:
REMARK  status: ('A' for Active; 'I' for Inactive)
REMARK    1  A    between atoms: C2_2  and  O1_3 
REMARK    2  A    between atoms: C2_2  and  C3_5 
REMARK    3  A    between atoms: C3_5  and  C4_6 
REMARK    4  A    between atoms: C5_10  and  N2_12 
REMARK       I    between atoms: N2_12  and  C6_14 
REMARK    5  A    between atoms: C6_14  and  C7_16 
REMARK    6  A    between atoms: C8_17  and  C9_18 
REMARK    7  A    between atoms: C10_19  and  C11_20 
REMARK    8  A    between atoms: C12_21  and  C13_22 
ROOT
HETATM    1  N2  UNL     1      16.864  71.346  19.721  1.00  0.00    -0.271 N 
ATOM      2  H2  UNL     1      17.477  71.631  18.958  1.00  0.00     0.171 HD
HETATM    3  C6  UNL     1      15.971  72.299  20.277  1.00  0.00     0.260 C 
HETATM    4  O3  UNL     1      15.236  71.812  21.225  1.00  0.00    -0.267 OA
ENDROOT
BRANCH   3   5
HETATM    5  C7  UNL     1      15.846  73.684  19.865  1.00  0.00     0.065 A 
HETATM    6  C8  UNL     1      16.580  74.704  20.528  1.00  0.00    -0.019 A 
HETATM    7  C15 UNL     1      16.522  75.986  20.068  1.00  0.00     0.014 A 
HETATM    8  C16 UNL     1      15.772  76.349  18.972  1.00  0.00     0.022 A 
HETATM    9  C17 UNL     1      15.052  75.380  18.314  1.00  0.00     0.033 A 
HETATM   10 BR2  UNL     1      13.990  75.832  16.787  1.00  0.00    -0.049 Br
HETATM   11  C18 UNL     1      15.105  74.078  18.774  1.00  0.00     0.068 A 
HETATM   12 CL1  UNL     1      14.194  72.880  17.853  1.00  0.00    -0.082 Cl
BRANCH   6  13
HETATM   13  C9  UNL     1      17.280  74.377  21.747  1.00  0.00     0.012 C 
HETATM   14  C10 UNL     1      18.050  74.987  22.563  1.00  0.00     0.001 C 
BRANCH  14  15
HETATM   15  C11 UNL     1      18.574  76.328  22.602  1.00  0.00     0.000 C 
HETATM   16  C12 UNL     1      18.144  77.230  23.465  1.00  0.00     0.001 C 
BRANCH  16  17
HETATM   17  C13 UNL     1      17.133  76.974  24.431  1.00  0.00     0.007 C 
HETATM   18  C14 UNL     1      16.600  77.997  25.109  1.00  0.00     0.056 C 
HETATM   19 BR1  UNL     1      17.202  79.748  24.763  1.00  0.00    -0.064 Br
ENDBRANCH  16  17
ENDBRANCH  14  15
ENDBRANCH   6  13
ENDBRANCH   3   5
BRANCH   1  20
HETATM   20  C5  UNL     1      16.933  69.978  20.204  1.00  0.00     0.442 A 
HETATM   21  O2  UNL     1      15.747  69.569  20.814  1.00  0.00    -0.187 OA
HETATM   22  N1  UNL     1      16.074  69.039  22.010  1.00  0.00    -0.241 N 
HETATM   23  C4  UNL     1      17.329  69.146  22.281  1.00  0.00     0.148 A 
ATOM     24  H1  UNL     1      15.398  68.599  22.635  1.00  0.00     0.196 HD
HETATM   25  O4  UNL     1      17.901  69.792  21.197  1.00  0.00    -0.253 OA
HETATM   26  F1  UNL     1      17.292  69.115  19.153  1.00  0.00    -0.156 F 
BRANCH  23  27
HETATM   27  C3  UNL     1      18.019  68.665  23.518  1.00  0.00     0.117 C 
BRANCH  27  28
HETATM   28  C2  UNL     1      17.363  67.419  24.058  1.00  0.00     0.121 C 
HETATM   29  C1  UNL     1      18.000  66.922  25.320  1.00  0.00     0.040 C 
BRANCH  28  30
HETATM   30  O1  UNL     1      15.995  67.592  24.233  1.00  0.00    -0.396 OA
ATOM     31  H1  UNL     1      15.582  67.849  23.418  1.00  0.00     0.210 HD
ENDBRANCH  28  30
ENDBRANCH  27  28
ENDBRANCH  23  27
ENDBRANCH   1  20
TORSDOF 8
ENDMDL
MODEL 2
REMARK VINA RESULT: -7.779865785      0.867      1.167
REMARK  8 active torsions:
REMARK  status: ('A' for Active; 'I' for Inactive)
REMARK    1  A    between atoms: C2_2  and  O1_3 
REMARK    2  A    between atoms: C2_2  and  C3_5 
REMARK    3  A    between atoms: C3_5  and  C4_6 
REMARK    4  A    between atoms: C5_10  and  N2_12 
REMARK       I    between atoms: N2_12  and  C6_14 
REMARK    5  A    between atoms: C6_14  and  C7_16 
REMARK    6  A    between atoms: C8_17  and  C9_18 
REMARK    7  A    between atoms: C10_19  and  C11_20 
REMARK    8  A    between atoms: C12_21  and  C13_22 
ROOT
HETATM    1  N2  UNL     1      16.978  71.461  19.704  1.00  0.00    -0.271 N 
ATOM      2  H2  UNL     1      17.551  71.725  18.903  1.00  0.00     0.171 HD
HETATM    3  C6  UNL     1      16.158  72.444  20.316  1.00  0.00     0.260 C 
HETATM    4  O3  UNL     1      15.469  71.982  21.309  1.00  0.00    -0.267 OA
ENDROOT
BRANCH   3   5
HETATM    5  C7  UNL     1      16.058  73.834  19.914  1.00  0.00     0.065 A 
HETATM    6  C8  UNL     1      16.947  74.806  20.447  1.00  0.00    -0.019 A 
HETATM    7  C15 UNL     1      16.900  76.089  19.989  1.00  0.00     0.014 A 
HETATM    8  C16 UNL     1      16.014  76.498  19.017  1.00  0.00     0.022 A 
HETATM    9  C17 UNL     1      15.143  75.577  18.486  1.00  0.00     0.033 A 
HETATM   10 BR2  UNL     1      13.891  76.094  17.135  1.00  0.00    -0.049 Br
HETATM   11  C18 UNL     1      15.185  74.274  18.945  1.00  0.00     0.068 A 
HETATM   12 CL1  UNL     1      14.071  73.136  18.186  1.00  0.00    -0.082 Cl
BRANCH   6  13
HETATM   13  C9  UNL     1      17.804  74.436  21.548  1.00  0.00     0.012 C 
HETATM   14  C10 UNL     1      18.011  74.849  22.739  1.00  0.00     0.001 C 
BRANCH  14  15
HETATM   15  C11 UNL     1      17.446  75.922  23.516  1.00  0.00     0.000 C 
HETATM   16  C12 UNL     1      18.124  77.016  23.808  1.00  0.00     0.001 C 
BRANCH  16  17
HETATM   17  C13 UNL     1      19.463  77.246  23.390  1.00  0.00     0.007 C 
HETATM   18  C14 UNL     1      19.709  78.180  22.464  1.00  0.00     0.056 C 
HETATM   19 BR1  UNL     1      18.276  79.165  21.741  1.00  0.00    -0.064 Br
ENDBRANCH  16  17
ENDBRANCH  14  15
ENDBRANCH   6  13
ENDBRANCH   3   5
BRANCH   1  20
HETATM   20  C5  UNL     1      17.027  70.090  20.179  1.00  0.00     0.442 A 
HETATM   21  O2  UNL     1      15.806  69.664  20.702  1.00  0.00    -0.187 OA
HETATM   22  N1  UNL     1      16.055  69.127  21.914  1.00  0.00    -0.241 N 
HETATM   23  C4  UNL     1      17.287  69.244  22.273  1.00  0.00     0.148 A 
ATOM     24  H1  UNL     1      15.342  68.675  22.487  1.00  0.00     0.196 HD
HETATM   25  O4  UNL     1      17.926  69.905  21.236  1.00  0.00    -0.253 OA
HETATM   26  F1  UNL     1      17.468  69.239  19.150  1.00  0.00    -0.156 F 
BRANCH  23  27
HETATM   27  C3  UNL     1      17.894  68.760  23.551  1.00  0.00     0.117 C 
BRANCH  27  28
HETATM   28  C2  UNL     1      17.274  67.457  23.988  1.00  0.00     0.121 C 
HETATM   29  C1  UNL     1      17.908  66.893  25.224  1.00  0.00     0.040 C 
BRANCH  28  30
HETATM   30  O1  UNL     1      15.898  67.569  24.149  1.00  0.00    -0.396 OA
ATOM     31  H1  UNL     1      15.514  66.725  24.353  1.00  0.00     0.210 HD
ENDBRANCH  28  30
ENDBRANCH  27  28
ENDBRANCH  23  27
ENDBRANCH   1  20
TORSDOF 8
ENDMDL
MODEL 3
REMARK VINA RESULT: -7.564637852      2.905      4.555
REMARK  8 active torsions:
REMARK  status: ('A' for Active; 'I' for Inactive)
REMARK    1  A    between atoms: C2_2  and  O1_3 
REMARK    2  A    between atoms: C2_2  and  C3_5 
REMARK    3  A    between atoms: C3_5  and  C4_6 
REMARK    4  A    between atoms: C5_10  and  N2_12 
REMARK       I    between atoms: N2_12  and  C6_14 
REMARK    5  A    between atoms: C6_14  and  C7_16 
REMARK    6  A    between atoms: C8_17  and  C9_18 
REMARK    7  A    between atoms: C10_19  and  C11_20 
REMARK    8  A    between atoms: C12_21  and  C13_22 
ROOT
HETATM    1  N2  UNL     1      17.840  70.245  20.980  1.00  0.00    -0.271 N 
ATOM      2  H2  UNL     1      17.702  70.497  20.001  1.00  0.00     0.171 HD
HETATM    3  C6  UNL     1      18.268  71.243  21.893  1.00  0.00     0.260 C 
HETATM    4  O3  UNL     1      18.391  70.804  23.104  1.00  0.00    -0.267 OA
ENDROOT
BRANCH   3   5
HETATM    5  C7  UNL     1      18.549  72.627  21.563  1.00  0.00     0.065 A 
HETATM    6  C8  UNL     1      17.506  73.593  21.550  1.00  0.00    -0.019 A 
HETATM    7  C15 UNL     1      17.803  74.905  21.329  1.00  0.00     0.014 A 
HETATM    8  C16 UNL     1      19.088  75.350  21.114  1.00  0.00     0.022 A 
HETATM    9  C17 UNL     1      20.114  74.435  21.121  1.00  0.00     0.033 A 
HETATM   10 BR2  UNL     1      21.918  75.001  20.824  1.00  0.00    -0.049 Br
HETATM   11  C18 UNL     1      19.822  73.104  21.343  1.00  0.00     0.068 A 
HETATM   12 CL1  UNL     1      21.193  71.993  21.386  1.00  0.00    -0.082 Cl
BRANCH   6  13
HETATM   13  C9  UNL     1      16.139  73.142  21.655  1.00  0.00     0.012 C 
HETATM   14  C10 UNL     1      15.239  72.723  20.851  1.00  0.00     0.001 C 
BRANCH  14  15
HETATM   15  C11 UNL     1      15.214  72.523  19.426  1.00  0.00     0.000 C 
HETATM   16  C12 UNL     1      14.723  73.423  18.594  1.00  0.00     0.001 C 
BRANCH  16  17
HETATM   17  C13 UNL     1      14.177  74.667  19.014  1.00  0.00     0.007 C 
HETATM   18  C14 UNL     1      14.850  75.795  18.764  1.00  0.00     0.056 C 
HETATM   19 BR1  UNL     1      16.501  75.707  17.860  1.00  0.00    -0.064 Br
ENDBRANCH  16  17
ENDBRANCH  14  15
ENDBRANCH   6  13
ENDBRANCH   3   5
BRANCH   1  20
HETATM   20  C5  UNL     1      17.592  68.875  21.393  1.00  0.00     0.442 A 
HETATM   21  O2  UNL     1      16.357  68.726  22.024  1.00  0.00    -0.187 OA
HETATM   22  N1  UNL     1      16.576  68.067  23.181  1.00  0.00    -0.241 N 
HETATM   23  C4  UNL     1      17.826  67.859  23.412  1.00  0.00     0.148 A 
ATOM     24  H1  UNL     1      15.830  67.766  23.807  1.00  0.00     0.196 HD
HETATM   25  O4  UNL     1      18.511  68.410  22.341  1.00  0.00    -0.253 OA
HETATM   26  F1  UNL     1      17.710  68.011  20.289  1.00  0.00    -0.156 F 
BRANCH  23  27
HETATM   27  C3  UNL     1      18.410  67.160  24.599  1.00  0.00     0.117 C 
BRANCH  27  28
HETATM   28  C2  UNL     1      19.185  68.119  25.467  1.00  0.00     0.121 C 
HETATM   29  C1  UNL     1      19.773  67.464  26.681  1.00  0.00     0.040 C 
BRANCH  28  30
HETATM   30  O1  UNL     1      20.166  68.789  24.747  1.00  0.00    -0.396 OA
ATOM     31  H1  UNL     1      20.178  68.496  23.844  1.00  0.00     0.210 HD
ENDBRANCH  28  30
ENDBRANCH  27  28
ENDBRANCH  23  27
ENDBRANCH   1  20
TORSDOF 8
ENDMDL
MODEL 4
REMARK VINA RESULT: -7.536895551      1.183      1.378
REMARK  8 active torsions:
REMARK  status: ('A' for Active; 'I' for Inactive)
REMARK    1  A    between atoms: C2_2  and  O1_3 
REMARK    2  A    between atoms: C2_2  and  C3_5 
REMARK    3  A    between atoms: C3_5  and  C4_6 
REMARK    4  A    between atoms: C5_10  and  N2_12 
REMARK       I    between atoms: N2_12  and  C6_14 
REMARK    5  A    between atoms: C6_14  and  C7_16 
REMARK    6  A    between atoms: C8_17  and  C9_18 
REMARK    7  A    between atoms: C10_19  and  C11_20 
REMARK    8  A    between atoms: C12_21  and  C13_22 
ROOT
HETATM    1  N2  UNL     1      17.482  70.755  19.481  1.00  0.00    -0.271 N 
ATOM      2  H2  UNL     1      18.007  71.262  18.769  1.00  0.00     0.171 HD
HETATM    3  C6  UNL     1      16.220  71.257  19.892  1.00  0.00     0.260 C 
HETATM    4  O3  UNL     1      15.647  70.518  20.787  1.00  0.00    -0.267 OA
ENDROOT
BRANCH   3   5
HETATM    5  C7  UNL     1      15.585  72.463  19.395  1.00  0.00     0.065 A 
HETATM    6  C8  UNL     1      15.717  73.691  20.099  1.00  0.00    -0.019 A 
HETATM    7  C15 UNL     1      15.193  74.833  19.570  1.00  0.00     0.014 A 
HETATM    8  C16 UNL     1      14.528  74.855  18.364  1.00  0.00     0.022 A 
HETATM    9  C17 UNL     1      14.387  73.680  17.665  1.00  0.00     0.033 A 
HETATM   10 BR2  UNL     1      13.469  73.657  15.986  1.00  0.00    -0.049 Br
HETATM   11  C18 UNL     1      14.915  72.519  18.195  1.00  0.00     0.068 A 
HETATM   12 CL1  UNL     1      14.738  71.058  17.221  1.00  0.00    -0.082 Cl
BRANCH   6  13
HETATM   13  C9  UNL     1      16.303  73.678  21.418  1.00  0.00     0.012 C 
HETATM   14  C10 UNL     1      17.126  74.403  22.071  1.00  0.00     0.001 C 
BRANCH  14  15
HETATM   15  C11 UNL     1      17.857  75.599  21.740  1.00  0.00     0.000 C 
HETATM   16  C12 UNL     1      18.020  76.588  22.599  1.00  0.00     0.001 C 
BRANCH  16  17
HETATM   17  C13 UNL     1      17.501  76.574  23.922  1.00  0.00     0.007 C 
HETATM   18  C14 UNL     1      17.369  77.728  24.587  1.00  0.00     0.056 C 
HETATM   19 BR1  UNL     1      17.875  79.339  23.751  1.00  0.00    -0.064 Br
ENDBRANCH  16  17
ENDBRANCH  14  15
ENDBRANCH   6  13
ENDBRANCH   3   5
BRANCH   1  20
HETATM   20  C5  UNL     1      18.050  69.542  20.041  1.00  0.00     0.442 A 
HETATM   21  O2  UNL     1      17.113  68.514  20.143  1.00  0.00    -0.187 OA
HETATM   22  N1  UNL     1      17.181  68.034  21.403  1.00  0.00    -0.241 N 
HETATM   23  C4  UNL     1      17.990  68.700  22.151  1.00  0.00     0.148 A 
ATOM     24  H1  UNL     1      16.648  67.228  21.727  1.00  0.00     0.196 HD
HETATM   25  O4  UNL     1      18.513  69.704  21.352  1.00  0.00    -0.253 OA
HETATM   26  F1  UNL     1      19.168  69.142  19.287  1.00  0.00    -0.156 F 
BRANCH  23  27
HETATM   27  C3  UNL     1      18.297  68.435  23.591  1.00  0.00     0.117 C 
BRANCH  27  28
HETATM   28  C2  UNL     1      17.403  67.356  24.148  1.00  0.00     0.121 C 
HETATM   29  C1  UNL     1      17.693  67.040  25.584  1.00  0.00     0.040 C 
BRANCH  28  30
HETATM   30  O1  UNL     1      16.059  67.660  23.973  1.00  0.00    -0.396 OA
ATOM     31  H1  UNL     1      15.957  68.512  23.567  1.00  0.00     0.210 HD
ENDBRANCH  28  30
ENDBRANCH  27  28
ENDBRANCH  23  27
ENDBRANCH   1  20
TORSDOF 8
ENDMDL
MODEL 5
REMARK VINA RESULT: -7.525364718      1.657      1.985
REMARK  8 active torsions:
REMARK  status: ('A' for Active; 'I' for Inactive)
REMARK    1  A    between atoms: C2_2  and  O1_3 
REMARK    2  A    between atoms: C2_2  and  C3_5 
REMARK    3  A    between atoms: C3_5  and  C4_6 
REMARK    4  A    between atoms: C5_10  and  N2_12 
REMARK       I    between atoms: N2_12  and  C6_14 
REMARK    5  A    between atoms: C6_14  and  C7_16 
REMARK    6  A    between atoms: C8_17  and  C9_18 
REMARK    7  A    between atoms: C10_19  and  C11_20 
REMARK    8  A    between atoms: C12_21  and  C13_22 
ROOT
HETATM    1  N2  UNL     1      16.667  69.890  20.961  1.00  0.00    -0.271 N 
ATOM      2  H2  UNL     1      15.692  69.771  21.233  1.00  0.00     0.171 HD
HETATM    3  C6  UNL     1      17.034  71.028  20.196  1.00  0.00     0.260 C 
HETATM    4  O3  UNL     1      18.299  71.072  19.928  1.00  0.00    -0.267 OA
ENDROOT
BRANCH   3   5
HETATM    5  C7  UNL     1      16.131  72.067  19.739  1.00  0.00     0.065 A 
HETATM    6  C8  UNL     1      16.080  73.323  20.404  1.00  0.00    -0.019 A 
HETATM    7  C15 UNL     1      15.295  74.320  19.905  1.00  0.00     0.014 A 
HETATM    8  C16 UNL     1      14.534  74.166  18.768  1.00  0.00     0.022 A 
HETATM    9  C17 UNL     1      14.566  72.961  18.108  1.00  0.00     0.033 A 
HETATM   10 BR2  UNL     1      13.524  72.696  16.524  1.00  0.00    -0.049 Br
HETATM   11  C18 UNL     1      15.359  71.946  18.607  1.00  0.00     0.068 A 
HETATM   12 CL1  UNL     1      15.387  70.443  17.682  1.00  0.00    -0.082 Cl
BRANCH   6  13
HETATM   13  C9  UNL     1      16.772  73.474  21.660  1.00  0.00     0.012 C 
HETATM   14  C10 UNL     1      17.515  74.358  22.207  1.00  0.00     0.001 C 
BRANCH  14  15
HETATM   15  C11 UNL     1      18.000  75.640  21.766  1.00  0.00     0.000 C 
HETATM   16  C12 UNL     1      18.040  76.692  22.562  1.00  0.00     0.001 C 
BRANCH  16  17
HETATM   17  C13 UNL     1      17.614  76.669  23.918  1.00  0.00     0.007 C 
HETATM   18  C14 UNL     1      17.511  77.820  24.592  1.00  0.00     0.056 C 
HETATM   19 BR1  UNL     1      17.932  79.439  23.726  1.00  0.00    -0.064 Br
ENDBRANCH  16  17
ENDBRANCH  14  15
ENDBRANCH   6  13
ENDBRANCH   3   5
BRANCH   1  20
HETATM   20  C5  UNL     1      17.636  68.888  21.368  1.00  0.00     0.442 A 
HETATM   21  O2  UNL     1      17.031  67.738  21.876  1.00  0.00    -0.187 OA
HETATM   22  N1  UNL     1      17.620  67.465  23.059  1.00  0.00    -0.241 N 
HETATM   23  C4  UNL     1      18.472  68.363  23.415  1.00  0.00     0.148 A 
ATOM     24  H1  UNL     1      17.412  66.634  23.612  1.00  0.00     0.196 HD
HETATM   25  O4  UNL     1      18.468  69.316  22.409  1.00  0.00    -0.253 OA
HETATM   26  F1  UNL     1      18.493  68.583  20.294  1.00  0.00    -0.156 F 
BRANCH  23  27
HETATM   27  C3  UNL     1      19.295  68.367  24.664  1.00  0.00     0.117 C 
BRANCH  27  28
HETATM   28  C2  UNL     1      18.693  67.468  25.715  1.00  0.00     0.121 C 
HETATM   29  C1  UNL     1      19.365  67.595  27.048  1.00  0.00     0.040 C 
BRANCH  28  30
HETATM   30  O1  UNL     1      17.322  67.662  25.835  1.00  0.00    -0.396 OA
ATOM     31  H1  UNL     1      16.851  67.136  25.200  1.00  0.00     0.210 HD
ENDBRANCH  28  30
ENDBRANCH  27  28
ENDBRANCH  23  27
ENDBRANCH   1  20
TORSDOF 8
ENDMDL
