MODEL 1
REMARK VINA RESULT: -8.173577080      0.000      0.000
REMARK  7 active torsions:
REMARK  status: ('A' for Active; 'I' for Inactive)
REMARK    1  A    between atoms: C2_2  and  C3_3 
REMARK    2  A    between atoms: C2_2  and  N1_10 
REMARK    3  A    between atoms: C3_3  and  O1_4 
REMARK    4  A    between atoms: O1_4  and  C4_5 
REMARK    5  A    between atoms: C4_5  and  C5_6 
REMARK    6  A    between atoms: N1_10  and  C6_12 
REMARK    7  A    between atoms: C9_20  and  C10_21 
ROOT
HETATM    1  C6  UNL     1       8.520  45.538  63.346  1.00  0.00     0.688 C 
HETATM    2  N2  UNL     1       8.911  45.679  62.028  1.00  0.00    -0.154 N 
ATOM      3  H2  UNL     1       9.426  46.537  61.830  1.00  0.00     0.187 HD
HETATM    4  C7  UNL     1       8.730  44.881  60.964  1.00  0.00     0.288 C 
HETATM    5  O2  UNL     1       9.411  45.162  59.912  1.00  0.00    -0.265 OA
HETATM    6  C8  UNL     1       7.913  43.787  60.823  1.00  0.00     0.135 A 
HETATM    7  N3  UNL     1       7.822  42.992  59.740  1.00  0.00    -0.339 N 
ATOM      8  H3  UNL     1       8.352  43.093  58.874  1.00  0.00     0.167 HD
HETATM    9  C9  UNL     1       6.905  42.040  60.003  1.00  0.00     0.091 A 
HETATM   10  N4  UNL     1       6.440  42.270  61.259  1.00  0.00    -0.339 N 
ATOM     11  H4  UNL     1       5.732  41.706  61.729  1.00  0.00     0.167 HD
HETATM   12  C20 UNL     1       7.046  43.347  61.795  1.00  0.00     0.135 A 
HETATM   13  C21 UNL     1       6.805  43.874  63.052  1.00  0.00     0.288 C 
HETATM   14  O3  UNL     1       5.940  43.271  63.733  1.00  0.00    -0.265 OA
HETATM   15  N5  UNL     1       7.359  44.945  63.667  1.00  0.00    -0.154 N 
ATOM     16  H5  UNL     1       6.843  45.342  64.452  1.00  0.00     0.187 HD
ENDROOT
BRANCH   1  17
HETATM   17  N1  UNL     1       9.281  45.973  64.199  1.00  0.00    -0.197 N 
ATOM     18  H1  UNL     1       8.888  46.841  64.562  1.00  0.00     0.183 HD
BRANCH  17  19
HETATM   19  C2  UNL     1      10.481  45.732  64.861  1.00  0.00     0.024 C 
HETATM   20  C1  UNL     1      11.764  45.884  64.157  1.00  0.00     0.066 C 
BRANCH  19  21
HETATM   21  C3  UNL     1      10.384  44.497  65.780  1.00  0.00     0.220 C 
BRANCH  21  22
HETATM   22  O1  UNL     1      11.416  43.667  65.776  1.00  0.00    -0.377 OA
BRANCH  22  23
HETATM   23  C4  UNL     1      12.333  43.492  66.701  1.00  0.00     0.285 C 
BRANCH  23  24
HETATM   24  C5  UNL     1      13.792  43.646  66.324  1.00  0.00     0.408 C 
HETATM   25  F1  UNL     1      14.503  42.499  66.734  1.00  0.00    -0.169 F 
HETATM   26  F2  UNL     1      13.900  43.687  64.948  1.00  0.00    -0.169 F 
HETATM   27  F3  UNL     1      14.405  44.772  66.814  1.00  0.00    -0.169 F 
ENDBRANCH  23  24
ENDBRANCH  22  23
ENDBRANCH  21  22
ENDBRANCH  19  21
ENDBRANCH  17  19
ENDBRANCH   1  17
BRANCH   9  28
HETATM   28  C10 UNL     1       6.428  40.929  59.143  1.00  0.00     0.021 C 
HETATM   29  C11 UNL     1       5.923  41.447  57.817  1.00  0.00     0.022 C 
HETATM   30  C12 UNL     1       5.544  40.267  56.987  1.00  0.00    -0.012 C 
HETATM   31  C13 UNL     1       4.444  39.464  57.603  1.00  0.00     0.009 C 
HETATM   32  C17 UNL     1       6.705  39.313  56.736  1.00  0.00     0.025 C 
HETATM   33  C14 UNL     1       4.936  38.984  58.946  1.00  0.00    -0.012 C 
HETATM   34  C15 UNL     1       6.097  38.057  58.833  1.00  0.00     0.025 C 
HETATM   35  C19 UNL     1       5.311  40.160  59.811  1.00  0.00     0.022 C 
HETATM   36  C16 UNL     1       7.212  38.801  58.090  1.00  0.00     0.020 C 
HETATM   37 BR1  UNL     1       8.717  37.673  57.801  1.00  0.00    -0.085 Br
HETATM   38  C18 UNL     1       7.622  40.009  58.862  1.00  0.00     0.038 C 
ENDBRANCH   9  28
TORSDOF 7
ENDMDL
MODEL 2
REMARK VINA RESULT: -8.003218590      5.341      8.531
REMARK  7 active torsions:
REMARK  status: ('A' for Active; 'I' for Inactive)
REMARK    1  A    between atoms: C2_2  and  C3_3 
REMARK    2  A    between atoms: C2_2  and  N1_10 
REMARK    3  A    between atoms: C3_3  and  O1_4 
REMARK    4  A    between atoms: O1_4  and  C4_5 
REMARK    5  A    between atoms: C4_5  and  C5_6 
REMARK    6  A    between atoms: N1_10  and  C6_12 
REMARK    7  A    between atoms: C9_20  and  C10_21 
ROOT
HETATM    1  C6  UNL     1       7.275  39.911  58.762  1.00  0.00     0.688 C 
HETATM    2  N2  UNL     1       7.205  41.284  58.620  1.00  0.00    -0.154 N 
ATOM      3  H2  UNL     1       7.692  41.650  57.803  1.00  0.00     0.187 HD
HETATM    4  C7  UNL     1       6.605  42.219  59.375  1.00  0.00     0.288 C 
HETATM    5  O2  UNL     1       6.511  43.394  58.865  1.00  0.00    -0.265 OA
HETATM    6  C8  UNL     1       6.065  42.110  60.631  1.00  0.00     0.135 A 
HETATM    7  N3  UNL     1       5.423  43.079  61.311  1.00  0.00    -0.339 N 
ATOM      8  H3  UNL     1       5.247  44.029  60.982  1.00  0.00     0.167 HD
HETATM    9  C9  UNL     1       5.054  42.572  62.504  1.00  0.00     0.091 A 
HETATM   10  N4  UNL     1       5.484  41.284  62.539  1.00  0.00    -0.339 N 
ATOM     11  H4  UNL     1       5.348  40.646  63.324  1.00  0.00     0.167 HD
HETATM   12  C20 UNL     1       6.114  40.966  61.392  1.00  0.00     0.135 A 
HETATM   13  C21 UNL     1       6.689  39.744  61.091  1.00  0.00     0.288 C 
HETATM   14  O3  UNL     1       6.596  38.869  61.987  1.00  0.00    -0.265 OA
HETATM   15  N5  UNL     1       7.340  39.340  59.975  1.00  0.00    -0.154 N 
ATOM     16  H5  UNL     1       7.940  38.520  60.065  1.00  0.00     0.187 HD
ENDROOT
BRANCH   1  17
HETATM   17  N1  UNL     1       7.271  39.248  57.734  1.00  0.00    -0.197 N 
ATOM     18  H1  UNL     1       8.177  39.362  57.280  1.00  0.00     0.183 HD
BRANCH  17  19
HETATM   19  C2  UNL     1       6.499  38.396  56.951  1.00  0.00     0.024 C 
HETATM   20  C1  UNL     1       5.257  37.813  57.485  1.00  0.00     0.066 C 
BRANCH  19  21
HETATM   21  C3  UNL     1       7.375  37.426  56.133  1.00  0.00     0.220 C 
BRANCH  21  22
HETATM   22  O1  UNL     1       8.684  37.625  56.174  1.00  0.00    -0.377 OA
BRANCH  22  23
HETATM   23  C4  UNL     1       9.617  36.856  56.689  1.00  0.00     0.285 C 
BRANCH  23  24
HETATM   24  C5  UNL     1      10.141  37.169  58.075  1.00  0.00     0.408 C 
HETATM   25  F1  UNL     1       9.134  36.903  59.025  1.00  0.00    -0.169 F 
HETATM   26  F2  UNL     1      11.178  36.305  58.370  1.00  0.00    -0.169 F 
HETATM   27  F3  UNL     1      10.615  38.446  58.245  1.00  0.00    -0.169 F 
ENDBRANCH  23  24
ENDBRANCH  22  23
ENDBRANCH  21  22
ENDBRANCH  19  21
ENDBRANCH  17  19
ENDBRANCH   1  17
BRANCH   9  28
HETATM   28  C10 UNL     1       4.331  43.226  63.622  1.00  0.00     0.021 C 
HETATM   29  C11 UNL     1       5.246  44.142  64.400  1.00  0.00     0.022 C 
HETATM   30  C12 UNL     1       4.425  44.818  65.446  1.00  0.00    -0.012 C 
HETATM   31  C13 UNL     1       3.827  43.852  66.417  1.00  0.00     0.009 C 
HETATM   32  C17 UNL     1       3.278  45.637  64.870  1.00  0.00     0.025 C 
HETATM   33  C14 UNL     1       2.947  42.911  65.631  1.00  0.00    -0.012 C 
HETATM   34  C15 UNL     1       1.794  43.606  64.992  1.00  0.00     0.025 C 
HETATM   35  C19 UNL     1       3.758  42.203  64.576  1.00  0.00     0.022 C 
HETATM   36  C16 UNL     1       2.362  44.697  64.077  1.00  0.00     0.020 C 
HETATM   37 BR1  UNL     1       0.967  45.718  63.280  1.00  0.00    -0.085 Br
HETATM   38  C18 UNL     1       3.213  44.084  63.018  1.00  0.00     0.038 C 
ENDBRANCH   9  28
TORSDOF 7
ENDMDL
MODEL 3
REMARK VINA RESULT: -7.950559113      3.984      5.171
REMARK  7 active torsions:
REMARK  status: ('A' for Active; 'I' for Inactive)
REMARK    1  A    between atoms: C2_2  and  C3_3 
REMARK    2  A    between atoms: C2_2  and  N1_10 
REMARK    3  A    between atoms: C3_3  and  O1_4 
REMARK    4  A    between atoms: O1_4  and  C4_5 
REMARK    5  A    between atoms: C4_5  and  C5_6 
REMARK    6  A    between atoms: N1_10  and  C6_12 
REMARK    7  A    between atoms: C9_20  and  C10_21 
ROOT
HETATM    1  C6  UNL     1       8.315  43.663  62.265  1.00  0.00     0.688 C 
HETATM    2  N2  UNL     1       7.803  42.612  61.528  1.00  0.00    -0.154 N 
ATOM      3  H2  UNL     1       8.074  41.689  61.865  1.00  0.00     0.187 HD
HETATM    4  C7  UNL     1       7.011  42.598  60.445  1.00  0.00     0.288 C 
HETATM    5  O2  UNL     1       6.504  41.464  60.118  1.00  0.00    -0.265 OA
HETATM    6  C8  UNL     1       6.649  43.630  59.616  1.00  0.00     0.135 A 
HETATM    7  N3  UNL     1       5.798  43.557  58.574  1.00  0.00    -0.339 N 
ATOM      8  H3  UNL     1       5.303  42.722  58.260  1.00  0.00     0.167 HD
HETATM    9  C9  UNL     1       5.719  44.783  58.020  1.00  0.00     0.091 A 
HETATM   10  N4  UNL     1       6.534  45.599  58.737  1.00  0.00    -0.339 N 
ATOM     11  H4  UNL     1       6.677  46.591  58.547  1.00  0.00     0.167 HD
HETATM   12  C20 UNL     1       7.125  44.914  59.735  1.00  0.00     0.135 A 
HETATM   13  C21 UNL     1       8.027  45.427  60.652  1.00  0.00     0.288 C 
HETATM   14  O3  UNL     1       8.296  46.646  60.518  1.00  0.00    -0.265 OA
HETATM   15  N5  UNL     1       8.667  44.818  61.676  1.00  0.00    -0.154 N 
ATOM     16  H5  UNL     1       9.501  45.282  62.037  1.00  0.00     0.187 HD
ENDROOT
BRANCH   1  17
HETATM   17  N1  UNL     1       8.428  43.492  63.470  1.00  0.00    -0.197 N 
ATOM     18  H1  UNL     1       9.328  43.046  63.645  1.00  0.00     0.183 HD
BRANCH  17  19
HETATM   19  C2  UNL     1       7.792  43.675  64.694  1.00  0.00     0.024 C 
HETATM   20  C1  UNL     1       6.729  44.682  64.838  1.00  0.00     0.066 C 
BRANCH  19  21
HETATM   21  C3  UNL     1       8.791  43.609  65.868  1.00  0.00     0.220 C 
BRANCH  21  22
HETATM   22  O1  UNL     1      10.077  43.698  65.564  1.00  0.00    -0.377 OA
BRANCH  22  23
HETATM   23  C4  UNL     1      10.913  44.683  65.804  1.00  0.00     0.285 C 
BRANCH  23  24
HETATM   24  C5  UNL     1      10.957  45.856  64.848  1.00  0.00     0.408 C 
HETATM   25  F1  UNL     1      11.607  46.941  65.471  1.00  0.00    -0.169 F 
HETATM   26  F2  UNL     1      11.739  45.520  63.760  1.00  0.00    -0.169 F 
HETATM   27  F3  UNL     1       9.738  46.260  64.363  1.00  0.00    -0.169 F 
ENDBRANCH  23  24
ENDBRANCH  22  23
ENDBRANCH  21  22
ENDBRANCH  19  21
ENDBRANCH  17  19
ENDBRANCH   1  17
BRANCH   9  28
HETATM   28  C10 UNL     1       4.930  45.237  56.847  1.00  0.00     0.021 C 
HETATM   29  C11 UNL     1       3.919  46.285  57.246  1.00  0.00     0.022 C 
HETATM   30  C12 UNL     1       3.231  46.744  56.004  1.00  0.00    -0.012 C 
HETATM   31  C13 UNL     1       2.489  45.642  55.320  1.00  0.00     0.009 C 
HETATM   32  C17 UNL     1       4.186  47.341  54.977  1.00  0.00     0.025 C 
HETATM   33  C14 UNL     1       3.496  44.576  54.962  1.00  0.00    -0.012 C 
HETATM   34  C15 UNL     1       4.507  45.052  53.976  1.00  0.00     0.025 C 
HETATM   35  C19 UNL     1       4.193  44.084  56.204  1.00  0.00     0.022 C 
HETATM   36  C16 UNL     1       5.210  46.269  54.588  1.00  0.00     0.020 C 
HETATM   37 BR1  UNL     1       6.462  47.022  53.368  1.00  0.00    -0.085 Br
HETATM   38  C18 UNL     1       5.902  45.879  55.850  1.00  0.00     0.038 C 
ENDBRANCH   9  28
TORSDOF 7
ENDMDL
MODEL 4
REMARK VINA RESULT: -7.932668260      4.039      5.289
REMARK  7 active torsions:
REMARK  status: ('A' for Active; 'I' for Inactive)
REMARK    1  A    between atoms: C2_2  and  C3_3 
REMARK    2  A    between atoms: C2_2  and  N1_10 
REMARK    3  A    between atoms: C3_3  and  O1_4 
REMARK    4  A    between atoms: O1_4  and  C4_5 
REMARK    5  A    between atoms: C4_5  and  C5_6 
REMARK    6  A    between atoms: N1_10  and  C6_12 
REMARK    7  A    between atoms: C9_20  and  C10_21 
ROOT
HETATM    1  C6  UNL     1       8.007  44.543  62.187  1.00  0.00     0.688 C 
HETATM    2  N2  UNL     1       7.441  43.456  61.548  1.00  0.00    -0.154 N 
ATOM      3  H2  UNL     1       7.600  42.563  62.014  1.00  0.00     0.187 HD
HETATM    4  C7  UNL     1       6.719  43.374  60.419  1.00  0.00     0.288 C 
HETATM    5  O2  UNL     1       6.126  42.257  60.197  1.00  0.00    -0.265 OA
HETATM    6  C8  UNL     1       6.511  44.319  59.447  1.00  0.00     0.135 A 
HETATM    7  N3  UNL     1       5.723  44.190  58.362  1.00  0.00    -0.339 N 
ATOM      8  H3  UNL     1       5.169  43.369  58.117  1.00  0.00     0.167 HD
HETATM    9  C9  UNL     1       5.797  45.337  57.659  1.00  0.00     0.091 A 
HETATM   10  N4  UNL     1       6.642  46.162  58.329  1.00  0.00    -0.339 N 
ATOM     11  H4  UNL     1       6.893  47.105  58.031  1.00  0.00     0.167 HD
HETATM   12  C20 UNL     1       7.101  45.561  59.444  1.00  0.00     0.135 A 
HETATM   13  C21 UNL     1       7.991  46.104  60.355  1.00  0.00     0.288 C 
HETATM   14  O3  UNL     1       8.386  47.268  60.094  1.00  0.00    -0.265 OA
HETATM   15  N5  UNL     1       8.505  45.577  61.490  1.00  0.00    -0.154 N 
ATOM     16  H5  UNL     1       9.356  46.007  61.852  1.00  0.00     0.187 HD
ENDROOT
BRANCH   1  17
HETATM   17  N1  UNL     1       8.028  44.517  63.409  1.00  0.00    -0.197 N 
ATOM     18  H1  UNL     1       8.904  44.936  63.721  1.00  0.00     0.183 HD
BRANCH  17  19
HETATM   19  C2  UNL     1       7.309  44.133  64.537  1.00  0.00     0.024 C 
HETATM   20  C1  UNL     1       6.048  44.810  64.883  1.00  0.00     0.066 C 
BRANCH  19  21
HETATM   21  C3  UNL     1       8.239  43.839  65.731  1.00  0.00     0.220 C 
BRANCH  21  22
HETATM   22  O1  UNL     1       9.485  43.490  65.446  1.00  0.00    -0.377 OA
BRANCH  22  23
HETATM   23  C4  UNL     1      10.603  43.927  65.979  1.00  0.00     0.285 C 
BRANCH  23  24
HETATM   24  C5  UNL     1      11.472  44.879  65.184  1.00  0.00     0.408 C 
HETATM   25  F1  UNL     1      11.577  46.103  65.877  1.00  0.00    -0.169 F 
HETATM   26  F2  UNL     1      12.754  44.370  65.116  1.00  0.00    -0.169 F 
HETATM   27  F3  UNL     1      11.057  45.109  63.896  1.00  0.00    -0.169 F 
ENDBRANCH  23  24
ENDBRANCH  22  23
ENDBRANCH  21  22
ENDBRANCH  19  21
ENDBRANCH  17  19
ENDBRANCH   1  17
BRANCH   9  28
HETATM   28  C10 UNL     1       5.130  45.705  56.385  1.00  0.00     0.021 C 
HETATM   29  C11 UNL     1       6.136  45.850  55.268  1.00  0.00     0.022 C 
HETATM   30  C12 UNL     1       5.379  46.137  54.015  1.00  0.00    -0.012 C 
HETATM   31  C13 UNL     1       4.607  47.414  54.092  1.00  0.00     0.009 C 
HETATM   32  C17 UNL     1       4.388  45.039  53.650  1.00  0.00     0.025 C 
HETATM   33  C14 UNL     1       3.633  47.282  55.237  1.00  0.00    -0.012 C 
HETATM   34  C15 UNL     1       2.620  46.213  55.007  1.00  0.00     0.025 C 
HETATM   35  C19 UNL     1       4.376  47.007  56.520  1.00  0.00     0.022 C 
HETATM   36  C16 UNL     1       3.379  44.898  54.795  1.00  0.00     0.020 C 
HETATM   37 BR1  UNL     1       2.182  43.473  54.394  1.00  0.00    -0.085 Br
HETATM   38  C18 UNL     1       4.176  44.565  56.011  1.00  0.00     0.038 C 
ENDBRANCH   9  28
TORSDOF 7
ENDMDL
MODEL 5
REMARK VINA RESULT: -7.922480990      4.306      5.578
REMARK  7 active torsions:
REMARK  status: ('A' for Active; 'I' for Inactive)
REMARK    1  A    between atoms: C2_2  and  C3_3 
REMARK    2  A    between atoms: C2_2  and  N1_10 
REMARK    3  A    between atoms: C3_3  and  O1_4 
REMARK    4  A    between atoms: O1_4  and  C4_5 
REMARK    5  A    between atoms: C4_5  and  C5_6 
REMARK    6  A    between atoms: N1_10  and  C6_12 
REMARK    7  A    between atoms: C9_20  and  C10_21 
ROOT
HETATM    1  C6  UNL     1       8.048  44.338  62.176  1.00  0.00     0.688 C 
HETATM    2  N2  UNL     1       7.495  43.252  61.525  1.00  0.00    -0.154 N 
ATOM      3  H2  UNL     1       7.667  42.355  61.978  1.00  0.00     0.187 HD
HETATM    4  C7  UNL     1       6.770  43.175  60.398  1.00  0.00     0.288 C 
HETATM    5  O2  UNL     1       6.191  42.053  60.163  1.00  0.00    -0.265 OA
HETATM    6  C8  UNL     1       6.546  44.131  59.439  1.00  0.00     0.135 A 
HETATM    7  N3  UNL     1       5.756  44.005  58.355  1.00  0.00    -0.339 N 
ATOM      8  H3  UNL     1       5.212  43.180  58.101  1.00  0.00     0.167 HD
HETATM    9  C9  UNL     1       5.812  45.162  57.667  1.00  0.00     0.091 A 
HETATM   10  N4  UNL     1       6.648  45.990  58.346  1.00  0.00    -0.339 N 
ATOM     11  H4  UNL     1       6.885  46.940  58.059  1.00  0.00     0.167 HD
HETATM   12  C20 UNL     1       7.119  45.380  59.451  1.00  0.00     0.135 A 
HETATM   13  C21 UNL     1       8.004  45.924  60.366  1.00  0.00     0.288 C 
HETATM   14  O3  UNL     1       8.382  47.096  60.119  1.00  0.00    -0.265 OA
HETATM   15  N5  UNL     1       8.530  45.388  61.492  1.00  0.00    -0.154 N 
ATOM     16  H5  UNL     1       9.376  45.825  61.857  1.00  0.00     0.187 HD
ENDROOT
BRANCH   1  17
HETATM   17  N1  UNL     1       8.074  44.297  63.399  1.00  0.00    -0.197 N 
ATOM     18  H1  UNL     1       9.004  44.581  63.706  1.00  0.00     0.183 HD
BRANCH  17  19
HETATM   19  C2  UNL     1       7.314  44.009  64.528  1.00  0.00     0.024 C 
HETATM   20  C1  UNL     1       6.111  44.798  64.838  1.00  0.00     0.066 C 
BRANCH  19  21
HETATM   21  C3  UNL     1       8.205  43.676  65.742  1.00  0.00     0.220 C 
BRANCH  21  22
HETATM   22  O1  UNL     1       9.488  43.455  65.498  1.00  0.00    -0.377 OA
BRANCH  22  23
HETATM   23  C4  UNL     1      10.538  44.045  66.025  1.00  0.00     0.285 C 
BRANCH  23  24
HETATM   24  C5  UNL     1      11.389  44.943  65.153  1.00  0.00     0.408 C 
HETATM   25  F1  UNL     1      11.473  46.221  65.742  1.00  0.00    -0.169 F 
HETATM   26  F2  UNL     1      12.680  44.453  65.125  1.00  0.00    -0.169 F 
HETATM   27  F3  UNL     1      10.971  45.058  63.850  1.00  0.00    -0.169 F 
ENDBRANCH  23  24
ENDBRANCH  22  23
ENDBRANCH  21  22
ENDBRANCH  19  21
ENDBRANCH  17  19
ENDBRANCH   1  17
BRANCH   9  28
HETATM   28  C10 UNL     1       5.136  45.538  56.401  1.00  0.00     0.021 C 
HETATM   29  C11 UNL     1       4.035  44.561  56.062  1.00  0.00     0.022 C 
HETATM   30  C12 UNL     1       3.357  45.056  54.829  1.00  0.00    -0.012 C 
HETATM   31  C13 UNL     1       4.279  45.117  53.654  1.00  0.00     0.009 C 
HETATM   32  C17 UNL     1       2.753  46.444  54.994  1.00  0.00     0.025 C 
HETATM   33  C14 UNL     1       5.400  46.061  54.012  1.00  0.00    -0.012 C 
HETATM   34  C15 UNL     1       4.927  47.458  54.226  1.00  0.00     0.025 C 
HETATM   35  C19 UNL     1       6.113  45.573  55.248  1.00  0.00     0.022 C 
HETATM   36  C16 UNL     1       3.880  47.424  55.344  1.00  0.00     0.020 C 
HETATM   37 BR1  UNL     1       3.132  49.150  55.636  1.00  0.00    -0.085 Br
HETATM   38  C18 UNL     1       4.493  46.915  56.604  1.00  0.00     0.038 C 
ENDBRANCH   9  28
TORSDOF 7
ENDMDL
