MODEL 1
REMARK VINA RESULT: -8.218527079      0.000      0.000
REMARK  6 active torsions:
REMARK  status: ('A' for Active; 'I' for Inactive)
REMARK    1  A    between atoms: N1_9  and  C8_10 
REMARK    2  A    between atoms: C8_10  and  O1_12 
REMARK    3  A    between atoms: C8_10  and  C10_14 
REMARK    4  A    between atoms: C12_16  and  C13_17 
REMARK    5  A    between atoms: C13_17  and  O2_18 
REMARK    6  A    between atoms: O2_18  and  C14_19 
ROOT
HETATM    1  C1  UNL     1      -3.267  -1.387  10.953  1.00  0.00     0.014 C 
HETATM    2  C2  UNL     1      -2.984  -0.224  10.915  1.00  0.00    -0.092 C 
HETATM    3  C3  UNL     1      -2.647   1.152  10.841  1.00  0.00     0.164 C 
HETATM    4  C4  UNL     1      -1.179   1.474  11.144  1.00  0.00     0.075 C 
HETATM    5  C5  UNL     1      -1.061   2.939  11.495  1.00  0.00     0.174 C 
HETATM    6  F1  UNL     1       0.187   3.426  11.144  1.00  0.00    -0.249 F 
HETATM    7  C6  UNL     1      -2.066   3.822  10.783  1.00  0.00     0.057 C 
HETATM    8  C7  UNL     1      -3.493   3.268  10.901  1.00  0.00     0.124 C 
HETATM    9  N1  UNL     1      -3.375   2.072  11.648  1.00  0.00    -0.363 N 
ENDROOT
BRANCH   9  10
HETATM   10  C8  UNL     1      -4.392   1.622  12.467  1.00  0.00     0.172 C 
HETATM   11  C9  UNL     1      -4.096   0.290  13.150  1.00  0.00     0.078 C 
BRANCH  10  12
HETATM   12  O1  UNL     1      -5.586   1.540  11.731  1.00  0.00    -0.366 OA
ATOM     13  H1  UNL     1      -6.140   2.283  11.940  1.00  0.00     0.213 HD
ENDBRANCH  10  12
BRANCH  10  14
HETATM   14  C10 UNL     1      -4.621   2.552  13.590  1.00  0.00     0.089 A 
HETATM   15  C11 UNL     1      -5.843   2.953  14.073  1.00  0.00     0.069 A 
HETATM   16  C12 UNL     1      -5.548   3.792  15.147  1.00  0.00     0.102 A 
HETATM   17  O3  UNL     1      -4.246   3.845  15.241  1.00  0.00    -0.240 OA
HETATM   18  N5  UNL     1      -3.685   3.117  14.329  1.00  0.00    -0.260 N 
ATOM     19  H5  UNL     1      -2.680   3.000  14.201  1.00  0.00     0.194 HD
BRANCH  16  20
HETATM   20  C13 UNL     1      -6.592   4.479  16.001  1.00  0.00     0.244 C 
BRANCH  20  21
HETATM   21  O2  UNL     1      -6.847   3.645  17.077  1.00  0.00    -0.327 OA
BRANCH  21  22
HETATM   22  C14 UNL     1      -6.709   2.303  17.155  1.00  0.00     0.172 A 
HETATM   23  C15 UNL     1      -5.627   1.578  17.623  1.00  0.00     0.162 A 
HETATM   24  N2  UNL     1      -5.906   0.278  17.520  1.00  0.00    -0.291 N 
HETATM   25  N3  UNL     1      -7.118   0.162  17.009  1.00  0.00    -0.021 NA
ATOM     26  H2  UNL     1      -5.292  -0.490  17.789  1.00  0.00     0.183 HD
HETATM   27  N4  UNL     1      -7.626   1.373  16.779  1.00  0.00    -0.263 N 
ATOM     28  H4  UNL     1      -8.548   1.568  16.387  1.00  0.00     0.186 HD
ENDBRANCH  21  22
ENDBRANCH  20  21
ENDBRANCH  16  20
ENDBRANCH  10  14
ENDBRANCH   9  10
TORSDOF 6
ENDMDL
MODEL 2
REMARK VINA RESULT: -8.091834507      3.023      4.978
REMARK  6 active torsions:
REMARK  status: ('A' for Active; 'I' for Inactive)
REMARK    1  A    between atoms: N1_9  and  C8_10 
REMARK    2  A    between atoms: C8_10  and  O1_12 
REMARK    3  A    between atoms: C8_10  and  C10_14 
REMARK    4  A    between atoms: C12_16  and  C13_17 
REMARK    5  A    between atoms: C13_17  and  O2_18 
REMARK    6  A    between atoms: O2_18  and  C14_19 
ROOT
HETATM    1  C1  UNL     1      -4.755   7.681   9.197  1.00  0.00     0.014 C 
HETATM    2  C2  UNL     1      -4.484   7.327  10.308  1.00  0.00    -0.092 C 
HETATM    3  C3  UNL     1      -4.186   6.923  11.635  1.00  0.00     0.164 C 
HETATM    4  C4  UNL     1      -3.053   7.705  12.309  1.00  0.00     0.075 C 
HETATM    5  C5  UNL     1      -2.528   6.902  13.476  1.00  0.00     0.174 C 
HETATM    6  F1  UNL     1      -2.030   7.739  14.461  1.00  0.00    -0.249 F 
HETATM    7  C6  UNL     1      -3.581   6.046  14.152  1.00  0.00     0.057 C 
HETATM    8  C7  UNL     1      -4.378   5.217  13.135  1.00  0.00     0.124 C 
HETATM    9  N1  UNL     1      -3.848   5.559  11.869  1.00  0.00    -0.363 N 
ENDROOT
BRANCH   9  10
HETATM   10  C8  UNL     1      -3.830   4.660  10.820  1.00  0.00     0.172 C 
HETATM   11  C9  UNL     1      -2.814   4.995   9.732  1.00  0.00     0.078 C 
BRANCH  10  12
HETATM   12  O1  UNL     1      -5.119   4.554  10.270  1.00  0.00    -0.366 OA
ATOM     13  H1  UNL     1      -5.280   3.655  10.009  1.00  0.00     0.213 HD
ENDBRANCH  10  12
BRANCH  10  14
HETATM   14  C10 UNL     1      -3.428   3.317  11.278  1.00  0.00     0.089 A 
HETATM   15  C11 UNL     1      -4.238   2.210  11.354  1.00  0.00     0.069 A 
HETATM   16  C12 UNL     1      -3.405   1.184  11.801  1.00  0.00     0.102 A 
HETATM   17  O3  UNL     1      -2.217   1.702  11.961  1.00  0.00    -0.240 OA
HETATM   18  N5  UNL     1      -2.214   2.960  11.655  1.00  0.00    -0.260 N 
ATOM     19  H5  UNL     1      -1.403   3.577  11.699  1.00  0.00     0.194 HD
BRANCH  16  20
HETATM   20  C13 UNL     1      -3.862  -0.240  12.036  1.00  0.00     0.244 C 
BRANCH  20  21
HETATM   21  O2  UNL     1      -4.695  -0.220  13.143  1.00  0.00    -0.327 OA
BRANCH  21  22
HETATM   22  C14 UNL     1      -4.481   0.351  14.349  1.00  0.00     0.172 A 
HETATM   23  C15 UNL     1      -4.790   1.636  14.757  1.00  0.00     0.162 A 
HETATM   24  N2  UNL     1      -4.406   1.788  16.024  1.00  0.00    -0.291 N 
HETATM   25  N3  UNL     1      -3.870   0.649  16.425  1.00  0.00    -0.021 NA
ATOM     26  H2  UNL     1      -4.507   2.634  16.584  1.00  0.00     0.183 HD
HETATM   27  N4  UNL     1      -3.904  -0.238  15.431  1.00  0.00    -0.263 N 
ATOM     28  H4  UNL     1      -3.555  -1.195  15.474  1.00  0.00     0.186 HD
ENDBRANCH  21  22
ENDBRANCH  20  21
ENDBRANCH  16  20
ENDBRANCH  10  14
ENDBRANCH   9  10
TORSDOF 6
ENDMDL
MODEL 3
REMARK VINA RESULT: -7.828460061      2.737      4.831
REMARK  6 active torsions:
REMARK  status: ('A' for Active; 'I' for Inactive)
REMARK    1  A    between atoms: N1_9  and  C8_10 
REMARK    2  A    between atoms: C8_10  and  O1_12 
REMARK    3  A    between atoms: C8_10  and  C10_14 
REMARK    4  A    between atoms: C12_16  and  C13_17 
REMARK    5  A    between atoms: C13_17  and  O2_18 
REMARK    6  A    between atoms: O2_18  and  C14_19 
ROOT
HETATM    1  C1  UNL     1       0.079   6.586   9.277  1.00  0.00     0.014 C 
HETATM    2  C2  UNL     1      -0.715   6.472  10.167  1.00  0.00    -0.092 C 
HETATM    3  C3  UNL     1      -1.663   6.366  11.217  1.00  0.00     0.164 C 
HETATM    4  C4  UNL     1      -1.085   6.522  12.628  1.00  0.00     0.075 C 
HETATM    5  C5  UNL     1      -2.056   5.932  13.624  1.00  0.00     0.174 C 
HETATM    6  F1  UNL     1      -1.955   6.577  14.845  1.00  0.00    -0.249 F 
HETATM    7  C6  UNL     1      -3.508   6.055  13.209  1.00  0.00     0.057 C 
HETATM    8  C7  UNL     1      -3.730   5.576  11.767  1.00  0.00     0.124 C 
HETATM    9  N1  UNL     1      -2.454   5.184  11.298  1.00  0.00    -0.363 N 
ENDROOT
BRANCH   9  10
HETATM   10  C8  UNL     1      -2.300   4.181  10.361  1.00  0.00     0.172 C 
HETATM   11  C9  UNL     1      -0.897   3.581  10.318  1.00  0.00     0.078 C 
BRANCH  10  12
HETATM   12  O1  UNL     1      -2.664   4.663   9.092  1.00  0.00    -0.366 OA
ATOM     13  H1  UNL     1      -1.997   5.262   8.776  1.00  0.00     0.213 HD
ENDBRANCH  10  12
BRANCH  10  14
HETATM   14  C10 UNL     1      -3.168   3.029  10.667  1.00  0.00     0.089 A 
HETATM   15  C11 UNL     1      -2.799   1.892  11.345  1.00  0.00     0.069 A 
HETATM   16  C12 UNL     1      -3.959   1.122  11.416  1.00  0.00     0.102 A 
HETATM   17  O3  UNL     1      -4.900   1.796  10.813  1.00  0.00    -0.240 OA
HETATM   18  N5  UNL     1      -4.449   2.925  10.365  1.00  0.00    -0.260 N 
ATOM     19  H5  UNL     1      -4.997   3.622   9.861  1.00  0.00     0.194 HD
BRANCH  16  20
HETATM   20  C13 UNL     1      -4.039  -0.235  12.085  1.00  0.00     0.244 C 
BRANCH  20  21
HETATM   21  O2  UNL     1      -4.793  -0.074  13.235  1.00  0.00    -0.327 OA
BRANCH  21  22
HETATM   22  C14 UNL     1      -4.455   0.548  14.387  1.00  0.00     0.172 A 
HETATM   23  C15 UNL     1      -4.519   1.898  14.683  1.00  0.00     0.162 A 
HETATM   24  N2  UNL     1      -4.087   2.084  15.930  1.00  0.00    -0.291 N 
HETATM   25  N3  UNL     1      -3.756   0.905  16.425  1.00  0.00    -0.021 NA
ATOM     26  H2  UNL     1      -4.023   2.978  16.415  1.00  0.00     0.183 HD
HETATM   27  N4  UNL     1      -3.970  -0.041  15.511  1.00  0.00    -0.263 N 
ATOM     28  H4  UNL     1      -3.798  -1.039  15.636  1.00  0.00     0.186 HD
ENDBRANCH  21  22
ENDBRANCH  20  21
ENDBRANCH  16  20
ENDBRANCH  10  14
ENDBRANCH   9  10
TORSDOF 6
ENDMDL
MODEL 4
REMARK VINA RESULT: -7.817466722      3.115      4.975
REMARK  6 active torsions:
REMARK  status: ('A' for Active; 'I' for Inactive)
REMARK    1  A    between atoms: N1_9  and  C8_10 
REMARK    2  A    between atoms: C8_10  and  O1_12 
REMARK    3  A    between atoms: C8_10  and  C10_14 
REMARK    4  A    between atoms: C12_16  and  C13_17 
REMARK    5  A    between atoms: C13_17  and  O2_18 
REMARK    6  A    between atoms: O2_18  and  C14_19 
ROOT
HETATM    1  C1  UNL     1      -2.096   4.609  13.725  1.00  0.00     0.014 C 
HETATM    2  C2  UNL     1      -2.701   5.285  12.943  1.00  0.00    -0.092 C 
HETATM    3  C3  UNL     1      -3.407   6.109  12.030  1.00  0.00     0.164 C 
HETATM    4  C4  UNL     1      -4.877   6.355  12.385  1.00  0.00     0.075 C 
HETATM    5  C5  UNL     1      -5.610   6.818  11.147  1.00  0.00     0.174 C 
HETATM    6  F1  UNL     1      -6.671   7.642  11.487  1.00  0.00    -0.249 F 
HETATM    7  C6  UNL     1      -4.751   7.621  10.192  1.00  0.00     0.057 C 
HETATM    8  C7  UNL     1      -3.418   6.917   9.898  1.00  0.00     0.124 C 
HETATM    9  N1  UNL     1      -3.443   5.725  10.658  1.00  0.00    -0.363 N 
ENDROOT
BRANCH   9  10
HETATM   10  C8  UNL     1      -2.791   4.581  10.241  1.00  0.00     0.172 C 
HETATM   11  C9  UNL     1      -1.435   4.362  10.907  1.00  0.00     0.078 C 
BRANCH  10  12
HETATM   12  O1  UNL     1      -2.651   4.604   8.843  1.00  0.00    -0.366 OA
ATOM     13  H1  UNL     1      -1.738   4.478   8.613  1.00  0.00     0.213 HD
ENDBRANCH  10  12
BRANCH  10  14
HETATM   14  C10 UNL     1      -3.558   3.372  10.595  1.00  0.00     0.089 A 
HETATM   15  C11 UNL     1      -3.063   2.251  11.217  1.00  0.00     0.069 A 
HETATM   16  C12 UNL     1      -4.164   1.408  11.368  1.00  0.00     0.102 A 
HETATM   17  O3  UNL     1      -5.193   2.031  10.860  1.00  0.00    -0.240 OA
HETATM   18  N5  UNL     1      -4.851   3.193  10.400  1.00  0.00    -0.260 N 
ATOM     19  H5  UNL     1      -5.481   3.862   9.957  1.00  0.00     0.194 HD
BRANCH  16  20
HETATM   20  C13 UNL     1      -4.103   0.039  12.013  1.00  0.00     0.244 C 
BRANCH  20  21
HETATM   21  O2  UNL     1      -4.831   0.114  13.189  1.00  0.00    -0.327 OA
BRANCH  21  22
HETATM   22  C14 UNL     1      -4.470   0.663  14.370  1.00  0.00     0.172 A 
HETATM   23  C15 UNL     1      -4.503   1.995  14.742  1.00  0.00     0.162 A 
HETATM   24  N2  UNL     1      -4.058   2.101  15.994  1.00  0.00    -0.291 N 
HETATM   25  N3  UNL     1      -3.749   0.890  16.420  1.00  0.00    -0.021 NA
ATOM     26  H2  UNL     1      -3.971   2.965  16.529  1.00  0.00     0.183 HD
HETATM   27  N4  UNL     1      -3.990   0.001  15.456  1.00  0.00    -0.263 N 
ATOM     28  H4  UNL     1      -3.839  -1.005  15.523  1.00  0.00     0.186 HD
ENDBRANCH  21  22
ENDBRANCH  20  21
ENDBRANCH  16  20
ENDBRANCH  10  14
ENDBRANCH   9  10
TORSDOF 6
ENDMDL
MODEL 5
REMARK VINA RESULT: -7.720950419      2.999      4.131
REMARK  6 active torsions:
REMARK  status: ('A' for Active; 'I' for Inactive)
REMARK    1  A    between atoms: N1_9  and  C8_10 
REMARK    2  A    between atoms: C8_10  and  O1_12 
REMARK    3  A    between atoms: C8_10  and  C10_14 
REMARK    4  A    between atoms: C12_16  and  C13_17 
REMARK    5  A    between atoms: C13_17  and  O2_18 
REMARK    6  A    between atoms: O2_18  and  C14_19 
ROOT
HETATM    1  C1  UNL     1       0.064   3.441   7.570  1.00  0.00     0.014 C 
HETATM    2  C2  UNL     1       0.452   4.026   8.540  1.00  0.00    -0.092 C 
HETATM    3  C3  UNL     1       0.919   4.741   9.673  1.00  0.00     0.164 C 
HETATM    4  C4  UNL     1       2.318   4.346  10.155  1.00  0.00     0.075 C 
HETATM    5  C5  UNL     1       2.494   4.806  11.583  1.00  0.00     0.174 C 
HETATM    6  F1  UNL     1       3.826   5.082  11.847  1.00  0.00    -0.249 F 
HETATM    7  C6  UNL     1       1.734   6.075  11.914  1.00  0.00     0.057 C 
HETATM    8  C7  UNL     1       0.269   5.995  11.464  1.00  0.00     0.124 C 
HETATM    9  N1  UNL     1       0.129   4.724  10.858  1.00  0.00    -0.363 N 
ENDROOT
BRANCH   9  10
HETATM   10  C8  UNL     1      -1.068   4.033  10.884  1.00  0.00     0.172 C 
HETATM   11  C9  UNL     1      -0.922   2.530  10.665  1.00  0.00     0.078 C 
BRANCH  10  12
HETATM   12  O1  UNL     1      -1.947   4.583   9.935  1.00  0.00    -0.366 OA
ATOM     13  H1  UNL     1      -1.745   5.503   9.809  1.00  0.00     0.213 HD
ENDBRANCH  10  12
BRANCH  10  14
HETATM   14  C10 UNL     1      -1.714   4.138  12.206  1.00  0.00     0.089 A 
HETATM   15  C11 UNL     1      -3.016   4.506  12.445  1.00  0.00     0.069 A 
HETATM   16  C12 UNL     1      -3.166   4.421  13.828  1.00  0.00     0.102 A 
HETATM   17  O3  UNL     1      -2.017   4.032  14.312  1.00  0.00    -0.240 OA
HETATM   18  N5  UNL     1      -1.149   3.861  13.366  1.00  0.00    -0.260 N 
ATOM     19  H5  UNL     1      -0.183   3.559  13.497  1.00  0.00     0.194 HD
BRANCH  16  20
HETATM   20  C13 UNL     1      -4.452   4.734  14.565  1.00  0.00     0.244 C 
BRANCH  20  21
HETATM   21  O2  UNL     1      -5.125   3.536  14.730  1.00  0.00    -0.327 OA
BRANCH  21  22
HETATM   22  C14 UNL     1      -4.634   2.338  15.120  1.00  0.00     0.172 A 
HETATM   23  C15 UNL     1      -4.698   1.127  14.454  1.00  0.00     0.162 A 
HETATM   24  N2  UNL     1      -4.091   0.199  15.194  1.00  0.00    -0.291 N 
HETATM   25  N3  UNL     1      -3.649   0.781  16.293  1.00  0.00    -0.021 NA
ATOM     26  H2  UNL     1      -3.986  -0.786  14.953  1.00  0.00     0.183 HD
HETATM   27  N4  UNL     1      -3.964   2.077  16.273  1.00  0.00    -0.263 N 
ATOM     28  H4  UNL     1      -3.741   2.756  17.001  1.00  0.00     0.186 HD
ENDBRANCH  21  22
ENDBRANCH  20  21
ENDBRANCH  16  20
ENDBRANCH  10  14
ENDBRANCH   9  10
TORSDOF 6
ENDMDL
