MODEL 1
REMARK VINA RESULT: -10.052144557      0.000      0.000
REMARK  16 active torsions:
REMARK  status: ('A' for Active; 'I' for Inactive)
REMARK    1  A    between atoms: O1_2  and  C2_3 
REMARK    2  A    between atoms: C2_3  and  C3_5 
REMARK    3  A    between atoms: C6_16  and  N4_17 
REMARK    4  A    between atoms: N4_17  and  C7_19 
REMARK    5  A    between atoms: C7_19  and  O4_20 
REMARK    6  A    between atoms: C7_19  and  C8_22 
REMARK    7  A    between atoms: C8_22  and  N5_23 
REMARK    8  A    between atoms: C8_22  and  C18_41 
REMARK    9  A    between atoms: N5_23  and  O5_25 
REMARK   10  A    between atoms: O5_25  and  C9_26 
REMARK   11  A    between atoms: C9_26  and  C11_28 
REMARK   12  A    between atoms: C11_28  and  O6_29 
REMARK   13  A    between atoms: C11_28  and  C12_31 
REMARK   14  A    between atoms: C15_34  and  O7_35 
REMARK   15  A    between atoms: C16_37  and  O8_38 
REMARK   16  A    between atoms: C20_44  and  N6_45 
ROOT
HETATM    1  C8  UNL     1     -19.335 -26.076  -9.820  1.00  0.00     0.132 C 
ENDROOT
BRANCH   1   2
HETATM    2  C7  UNL     1     -17.961 -25.981 -10.223  1.00  0.00     0.169 C 
BRANCH   2   3
HETATM    3  N4  UNL     1     -17.250 -25.050 -10.957  1.00  0.00    -0.339 N 
ATOM      4  H4  UNL     1     -17.067 -24.138 -10.539  1.00  0.00     0.164 HD
BRANCH   3   5
HETATM    5  C6  UNL     1     -16.744 -25.312 -12.313  1.00  0.00     0.278 C 
HETATM    6  C5  UNL     1     -15.589 -24.346 -12.522  1.00  0.00     0.292 C 
HETATM    7  N3  UNL     1     -15.696 -23.820 -13.868  1.00  0.00    -0.196 N 
HETATM    8  O3  UNL     1     -14.482 -25.206 -12.480  1.00  0.00    -0.299 OA
HETATM    9  C4  UNL     1     -15.446 -24.754 -14.916  1.00  0.00     0.674 C 
ATOM     10  H3  UNL     1     -15.935 -22.847 -14.053  1.00  0.00     0.180 HD
HETATM   11  N1  UNL     1     -15.148 -26.098 -14.508  1.00  0.00    -0.160 N 
HETATM   12  N2  UNL     1     -15.478 -24.442 -16.150  1.00  0.00    -0.235 N 
HETATM   13  C3  UNL     1     -14.962 -26.373 -13.114  1.00  0.00     0.359 C 
ATOM     14  H1  UNL     1     -15.070 -26.845 -15.198  1.00  0.00     0.184 HD
HETATM   15  O9  UNL     1     -16.183 -26.571 -12.436  1.00  0.00    -0.300 OA
ATOM     16  H22 UNL     1     -15.300 -25.110 -16.899  1.00  0.00     0.174 HD
ATOM     17  H21 UNL     1     -15.691 -23.488 -16.439  1.00  0.00     0.174 HD
BRANCH  13  18
HETATM   18  C2  UNL     1     -14.096 -27.539 -12.891  1.00  0.00     0.346 C 
HETATM   19  O2  UNL     1     -13.540 -28.138 -13.875  1.00  0.00    -0.257 OA
BRANCH  18  20
HETATM   20  O1  UNL     1     -13.819 -28.071 -11.641  1.00  0.00    -0.321 OA
HETATM   21  C1  UNL     1     -12.624 -28.819 -11.390  1.00  0.00     0.213 C 
ENDBRANCH  18  20
ENDBRANCH  13  18
ENDBRANCH   3   5
ENDBRANCH   2   3
BRANCH   2  22
HETATM   22  O4  UNL     1     -17.202 -26.977  -9.812  1.00  0.00    -0.344 OA
ATOM     23  H4  UNL     1     -17.683 -27.795  -9.752  1.00  0.00     0.219 HD
ENDBRANCH   2  22
ENDBRANCH   1   2
BRANCH   1  24
HETATM   24  N5  UNL     1     -19.615 -25.546  -8.685  1.00  0.00    -0.260 N 
ATOM     25  H5  UNL     1     -20.615 -25.481  -8.494  1.00  0.00     0.194 HD
BRANCH  24  26
HETATM   26  O5  UNL     1     -18.850 -25.067  -7.711  1.00  0.00    -0.272 OA
BRANCH  26  27
HETATM   27  C9  UNL     1     -18.361 -25.826  -6.620  1.00  0.00     0.181 C 
HETATM   28  C10 UNL     1     -18.852 -27.264  -6.656  1.00  0.00     0.045 C 
BRANCH  27  29
HETATM   29  C11 UNL     1     -18.580 -25.181  -5.312  1.00  0.00     0.182 C 
BRANCH  29  30
HETATM   30  O6  UNL     1     -18.578 -23.768  -5.434  1.00  0.00    -0.388 OA
ATOM     31  H6  UNL     1     -17.936 -23.376  -4.854  1.00  0.00     0.210 HD
ENDBRANCH  29  30
BRANCH  29  32
HETATM   32  C12 UNL     1     -17.654 -25.566  -4.220  1.00  0.00    -0.024 A 
HETATM   33  C13 UNL     1     -17.722 -25.041  -2.972  1.00  0.00     0.013 A 
HETATM   34  C14 UNL     1     -16.807 -25.447  -1.987  1.00  0.00     0.040 A 
HETATM   35  C15 UNL     1     -15.825 -26.375  -2.241  1.00  0.00     0.098 A 
HETATM   36  C16 UNL     1     -15.775 -26.896  -3.517  1.00  0.00     0.099 A 
HETATM   37  C17 UNL     1     -16.658 -26.514  -4.493  1.00  0.00     0.049 A 
BRANCH  35  38
HETATM   38  O7  UNL     1     -14.945 -26.742  -1.231  1.00  0.00    -0.358 OA
ATOM     39  H7  UNL     1     -15.182 -27.436  -0.627  1.00  0.00     0.217 HD
ENDBRANCH  35  38
BRANCH  36  40
HETATM   40  O8  UNL     1     -14.769 -27.841  -3.758  1.00  0.00    -0.358 OA
ATOM     41  H8  UNL     1     -13.878 -27.510  -3.765  1.00  0.00     0.217 HD
ENDBRANCH  36  40
ENDBRANCH  29  32
ENDBRANCH  27  29
ENDBRANCH  26  27
ENDBRANCH  24  26
ENDBRANCH   1  24
BRANCH   1  42
HETATM   42  C18 UNL     1     -20.386 -26.807 -10.594  1.00  0.00     0.074 A 
HETATM   43  C19 UNL     1     -21.718 -26.648 -10.323  1.00  0.00     0.085 A 
HETATM   44  S1  UNL     1     -22.465 -27.579 -11.553  1.00  0.00    -0.064 SA
HETATM   45  C20 UNL     1     -21.062 -28.119 -12.336  1.00  0.00     0.142 A 
HETATM   46  N7  UNL     1     -20.081 -27.566 -11.630  1.00  0.00    -0.335 N 
ATOM     47  H7  UNL     1     -19.107 -27.726 -11.885  1.00  0.00     0.168 HD
BRANCH  45  48
HETATM   48  N6  UNL     1     -20.932 -28.902 -13.398  1.00  0.00    -0.380 N 
ATOM     49  H62 UNL     1     -21.415 -29.783 -13.570  1.00  0.00     0.158 HD
ATOM     50  H61 UNL     1     -20.345 -28.787 -14.224  1.00  0.00     0.158 HD
ENDBRANCH  45  48
ENDBRANCH   1  42
TORSDOF 16
ENDMDL
MODEL 2
REMARK VINA RESULT: -9.576432738      3.899      5.832
REMARK  16 active torsions:
REMARK  status: ('A' for Active; 'I' for Inactive)
REMARK    1  A    between atoms: O1_2  and  C2_3 
REMARK    2  A    between atoms: C2_3  and  C3_5 
REMARK    3  A    between atoms: C6_16  and  N4_17 
REMARK    4  A    between atoms: N4_17  and  C7_19 
REMARK    5  A    between atoms: C7_19  and  O4_20 
REMARK    6  A    between atoms: C7_19  and  C8_22 
REMARK    7  A    between atoms: C8_22  and  N5_23 
REMARK    8  A    between atoms: C8_22  and  C18_41 
REMARK    9  A    between atoms: N5_23  and  O5_25 
REMARK   10  A    between atoms: O5_25  and  C9_26 
REMARK   11  A    between atoms: C9_26  and  C11_28 
REMARK   12  A    between atoms: C11_28  and  O6_29 
REMARK   13  A    between atoms: C11_28  and  C12_31 
REMARK   14  A    between atoms: C15_34  and  O7_35 
REMARK   15  A    between atoms: C16_37  and  O8_38 
REMARK   16  A    between atoms: C20_44  and  N6_45 
ROOT
HETATM    1  C8  UNL     1     -18.274 -26.438 -12.995  1.00  0.00     0.132 C 
ENDROOT
BRANCH   1   2
HETATM    2  C7  UNL     1     -19.238 -26.112 -14.006  1.00  0.00     0.169 C 
BRANCH   2   3
HETATM    3  N4  UNL     1     -19.138 -25.562 -15.271  1.00  0.00    -0.339 N 
ATOM      4  H4  UNL     1     -18.871 -26.170 -16.045  1.00  0.00     0.164 HD
BRANCH   3   5
HETATM    5  C6  UNL     1     -19.398 -24.143 -15.553  1.00  0.00     0.278 C 
HETATM    6  C5  UNL     1     -18.160 -23.392 -15.090  1.00  0.00     0.292 C 
HETATM    7  N3  UNL     1     -18.604 -22.189 -14.414  1.00  0.00    -0.196 N 
HETATM    8  O3  UNL     1     -17.578 -23.014 -16.308  1.00  0.00    -0.299 OA
HETATM    9  C4  UNL     1     -19.210 -21.203 -15.247  1.00  0.00     0.674 C 
ATOM     10  H3  UNL     1     -18.492 -22.057 -13.409  1.00  0.00     0.180 HD
HETATM   11  N1  UNL     1     -19.326 -21.535 -16.639  1.00  0.00    -0.160 N 
HETATM   12  N2  UNL     1     -19.630 -20.084 -14.809  1.00  0.00    -0.235 N 
HETATM   13  C3  UNL     1     -18.698 -22.729 -17.120  1.00  0.00     0.359 C 
ATOM     14  H1  UNL     1     -19.848 -20.932 -17.274  1.00  0.00     0.184 HD
HETATM   15  O9  UNL     1     -19.489 -23.878 -16.908  1.00  0.00    -0.300 OA
ATOM     16  H22 UNL     1     -20.064 -19.378 -15.405  1.00  0.00     0.174 HD
ATOM     17  H21 UNL     1     -19.548 -19.848 -13.821  1.00  0.00     0.174 HD
BRANCH  13  18
HETATM   18  C2  UNL     1     -18.358 -22.640 -18.547  1.00  0.00     0.346 C 
HETATM   19  O2  UNL     1     -18.351 -21.510 -19.147  1.00  0.00    -0.257 OA
BRANCH  18  20
HETATM   20  O1  UNL     1     -18.028 -23.730 -19.336  1.00  0.00    -0.321 OA
HETATM   21  C1  UNL     1     -18.857 -24.149 -20.425  1.00  0.00     0.213 C 
ENDBRANCH  18  20
ENDBRANCH  13  18
ENDBRANCH   3   5
ENDBRANCH   2   3
BRANCH   2  22
HETATM   22  O4  UNL     1     -20.485 -26.392 -13.682  1.00  0.00    -0.344 OA
ATOM     23  H4  UNL     1     -20.617 -27.322 -13.534  1.00  0.00     0.219 HD
ENDBRANCH   2  22
ENDBRANCH   1   2
BRANCH   1  24
HETATM   24  N5  UNL     1     -18.717 -27.141 -12.016  1.00  0.00    -0.260 N 
ATOM     25  H5  UNL     1     -19.467 -27.783 -12.274  1.00  0.00     0.194 HD
BRANCH  24  26
HETATM   26  O5  UNL     1     -18.385 -27.191 -10.732  1.00  0.00    -0.272 OA
BRANCH  26  27
HETATM   27  C9  UNL     1     -19.219 -26.775  -9.664  1.00  0.00     0.181 C 
HETATM   28  C10 UNL     1     -20.690 -26.786 -10.049  1.00  0.00     0.045 C 
BRANCH  27  29
HETATM   29  C11 UNL     1     -18.799 -25.500  -9.055  1.00  0.00     0.182 C 
BRANCH  29  30
HETATM   30  O6  UNL     1     -17.649 -24.979  -9.702  1.00  0.00    -0.388 OA
ATOM     31  H6  UNL     1     -16.945 -25.616  -9.714  1.00  0.00     0.210 HD
ENDBRANCH  29  30
BRANCH  29  32
HETATM   32  C12 UNL     1     -18.556 -25.513  -7.592  1.00  0.00    -0.024 A 
HETATM   33  C13 UNL     1     -17.991 -26.561  -6.944  1.00  0.00     0.013 A 
HETATM   34  C14 UNL     1     -17.797 -26.508  -5.554  1.00  0.00     0.040 A 
HETATM   35  C15 UNL     1     -18.165 -25.414  -4.808  1.00  0.00     0.098 A 
HETATM   36  C16 UNL     1     -18.738 -24.359  -5.488  1.00  0.00     0.099 A 
HETATM   37  C17 UNL     1     -18.936 -24.390  -6.843  1.00  0.00     0.049 A 
BRANCH  35  38
HETATM   38  O7  UNL     1     -17.952 -25.411  -3.435  1.00  0.00    -0.358 OA
ATOM     39  H7  UNL     1     -18.595 -25.805  -2.856  1.00  0.00     0.217 HD
ENDBRANCH  35  38
BRANCH  36  40
HETATM   40  O8  UNL     1     -19.106 -23.252  -4.712  1.00  0.00    -0.358 OA
ATOM     41  H8  UNL     1     -19.779 -22.690  -5.079  1.00  0.00     0.217 HD
ENDBRANCH  36  40
ENDBRANCH  29  32
ENDBRANCH  27  29
ENDBRANCH  26  27
ENDBRANCH  24  26
ENDBRANCH   1  24
BRANCH   1  42
HETATM   42  C18 UNL     1     -16.861 -25.945 -12.995  1.00  0.00     0.074 A 
HETATM   43  C19 UNL     1     -15.918 -26.467 -13.839  1.00  0.00     0.085 A 
HETATM   44  S1  UNL     1     -14.551 -25.483 -13.529  1.00  0.00    -0.064 SA
HETATM   45  C20 UNL     1     -15.239 -24.472 -12.354  1.00  0.00     0.142 A 
HETATM   46  N7  UNL     1     -16.483 -24.926 -12.247  1.00  0.00    -0.335 N 
ATOM     47  H7  UNL     1     -17.138 -24.491 -11.596  1.00  0.00     0.168 HD
BRANCH  45  48
HETATM   48  N6  UNL     1     -14.700 -23.464 -11.683  1.00  0.00    -0.380 N 
ATOM     49  H62 UNL     1     -13.707 -23.252 -11.591  1.00  0.00     0.158 HD
ATOM     50  H61 UNL     1     -15.152 -22.726 -11.143  1.00  0.00     0.158 HD
ENDBRANCH  45  48
ENDBRANCH   1  42
TORSDOF 16
ENDMDL
MODEL 3
REMARK VINA RESULT: -9.504395777      1.729      2.919
REMARK  16 active torsions:
REMARK  status: ('A' for Active; 'I' for Inactive)
REMARK    1  A    between atoms: O1_2  and  C2_3 
REMARK    2  A    between atoms: C2_3  and  C3_5 
REMARK    3  A    between atoms: C6_16  and  N4_17 
REMARK    4  A    between atoms: N4_17  and  C7_19 
REMARK    5  A    between atoms: C7_19  and  O4_20 
REMARK    6  A    between atoms: C7_19  and  C8_22 
REMARK    7  A    between atoms: C8_22  and  N5_23 
REMARK    8  A    between atoms: C8_22  and  C18_41 
REMARK    9  A    between atoms: N5_23  and  O5_25 
REMARK   10  A    between atoms: O5_25  and  C9_26 
REMARK   11  A    between atoms: C9_26  and  C11_28 
REMARK   12  A    between atoms: C11_28  and  O6_29 
REMARK   13  A    between atoms: C11_28  and  C12_31 
REMARK   14  A    between atoms: C15_34  and  O7_35 
REMARK   15  A    between atoms: C16_37  and  O8_38 
REMARK   16  A    between atoms: C20_44  and  N6_45 
ROOT
HETATM    1  C8  UNL     1     -19.459 -26.067  -9.820  1.00  0.00     0.132 C 
ENDROOT
BRANCH   1   2
HETATM    2  C7  UNL     1     -18.086 -25.877 -10.186  1.00  0.00     0.169 C 
BRANCH   2   3
HETATM    3  N4  UNL     1     -17.385 -24.813 -10.724  1.00  0.00    -0.339 N 
ATOM      4  H4  UNL     1     -17.410 -23.918 -10.235  1.00  0.00     0.164 HD
BRANCH   3   5
HETATM    5  C6  UNL     1     -16.605 -24.910 -11.967  1.00  0.00     0.278 C 
HETATM    6  C5  UNL     1     -17.301 -25.964 -12.814  1.00  0.00     0.292 C 
HETATM    7  N3  UNL     1     -16.274 -26.788 -13.418  1.00  0.00    -0.196 N 
HETATM    8  O3  UNL     1     -17.881 -25.185 -13.825  1.00  0.00    -0.299 OA
HETATM    9  C4  UNL     1     -15.473 -26.147 -14.408  1.00  0.00     0.674 C 
ATOM     10  H3  UNL     1     -16.133 -27.762 -13.152  1.00  0.00     0.180 HD
HETATM   11  N1  UNL     1     -15.766 -24.764 -14.661  1.00  0.00    -0.160 N 
HETATM   12  N2  UNL     1     -14.546 -26.742 -15.047  1.00  0.00    -0.235 N 
HETATM   13  C3  UNL     1     -16.917 -24.177 -14.042  1.00  0.00     0.359 C 
ATOM     14  H1  UNL     1     -15.164 -24.209 -15.269  1.00  0.00     0.184 HD
HETATM   15  O9  UNL     1     -16.662 -23.752 -12.721  1.00  0.00    -0.300 OA
ATOM     16  H22 UNL     1     -13.972 -26.283 -15.754  1.00  0.00     0.174 HD
ATOM     17  H21 UNL     1     -14.337 -27.723 -14.867  1.00  0.00     0.174 HD
BRANCH  13  18
HETATM   18  C2  UNL     1     -17.443 -23.043 -14.816  1.00  0.00     0.346 C 
HETATM   19  O2  UNL     1     -16.893 -22.692 -15.916  1.00  0.00    -0.257 OA
BRANCH  18  20
HETATM   20  O1  UNL     1     -18.539 -22.285 -14.434  1.00  0.00    -0.321 OA
HETATM   21  C1  UNL     1     -19.452 -21.746 -15.395  1.00  0.00     0.213 C 
ENDBRANCH  18  20
ENDBRANCH  13  18
ENDBRANCH   3   5
ENDBRANCH   2   3
BRANCH   2  22
HETATM   22  O4  UNL     1     -17.312 -26.922  -9.966  1.00  0.00    -0.344 OA
ATOM     23  H4  UNL     1     -17.520 -27.650 -10.542  1.00  0.00     0.219 HD
ENDBRANCH   2  22
ENDBRANCH   1   2
BRANCH   1  24
HETATM   24  N5  UNL     1     -19.801 -25.576  -8.684  1.00  0.00    -0.260 N 
ATOM     25  H5  UNL     1     -20.806 -25.598  -8.510  1.00  0.00     0.194 HD
BRANCH  24  26
HETATM   26  O5  UNL     1     -19.095 -25.044  -7.694  1.00  0.00    -0.272 OA
BRANCH  26  27
HETATM   27  C9  UNL     1     -18.489 -25.781  -6.647  1.00  0.00     0.181 C 
HETATM   28  C10 UNL     1     -18.838 -27.259  -6.710  1.00  0.00     0.045 C 
BRANCH  27  29
HETATM   29  C11 UNL     1     -18.716 -25.198  -5.312  1.00  0.00     0.182 C 
BRANCH  29  30
HETATM   30  O6  UNL     1     -18.843 -23.787  -5.386  1.00  0.00    -0.388 OA
ATOM     31  H6  UNL     1     -19.278 -23.442  -4.616  1.00  0.00     0.210 HD
ENDBRANCH  29  30
BRANCH  29  32
HETATM   32  C12 UNL     1     -17.721 -25.532  -4.265  1.00  0.00    -0.024 A 
HETATM   33  C13 UNL     1     -17.700 -24.938  -3.047  1.00  0.00     0.013 A 
HETATM   34  C14 UNL     1     -16.723 -25.298  -2.104  1.00  0.00     0.040 A 
HETATM   35  C15 UNL     1     -15.767 -26.249  -2.372  1.00  0.00     0.098 A 
HETATM   36  C16 UNL     1     -15.807 -26.841  -3.617  1.00  0.00     0.099 A 
HETATM   37  C17 UNL     1     -16.751 -26.504  -4.551  1.00  0.00     0.049 A 
BRANCH  35  38
HETATM   38  O7  UNL     1     -14.822 -26.569  -1.405  1.00  0.00    -0.358 OA
ATOM     39  H7  UNL     1     -14.172 -27.240  -1.583  1.00  0.00     0.217 HD
ENDBRANCH  35  38
BRANCH  36  40
HETATM   40  O8  UNL     1     -14.826 -27.807  -3.873  1.00  0.00    -0.358 OA
ATOM     41  H8  UNL     1     -14.387 -27.745  -4.713  1.00  0.00     0.217 HD
ENDBRANCH  36  40
ENDBRANCH  29  32
ENDBRANCH  27  29
ENDBRANCH  26  27
ENDBRANCH  24  26
ENDBRANCH   1  24
BRANCH   1  42
HETATM   42  C18 UNL     1     -20.441 -26.851 -10.632  1.00  0.00     0.074 A 
HETATM   43  C19 UNL     1     -21.788 -26.787 -10.389  1.00  0.00     0.085 A 
HETATM   44  S1  UNL     1     -22.443 -27.741 -11.653  1.00  0.00    -0.064 SA
HETATM   45  C20 UNL     1     -20.989 -28.170 -12.413  1.00  0.00     0.142 A 
HETATM   46  N7  UNL     1     -20.064 -27.567 -11.674  1.00  0.00    -0.335 N 
ATOM     47  H7  UNL     1     -19.075 -27.656 -11.909  1.00  0.00     0.168 HD
BRANCH  45  48
HETATM   48  N6  UNL     1     -20.784 -28.920 -13.486  1.00  0.00    -0.380 N 
ATOM     49  H62 UNL     1     -19.980 -28.883 -14.113  1.00  0.00     0.158 HD
ATOM     50  H61 UNL     1     -21.364 -29.657 -13.886  1.00  0.00     0.158 HD
ENDBRANCH  45  48
ENDBRANCH   1  42
TORSDOF 16
ENDMDL
MODEL 4
REMARK VINA RESULT: -9.499330082      2.548      3.761
REMARK  16 active torsions:
REMARK  status: ('A' for Active; 'I' for Inactive)
REMARK    1  A    between atoms: O1_2  and  C2_3 
REMARK    2  A    between atoms: C2_3  and  C3_5 
REMARK    3  A    between atoms: C6_16  and  N4_17 
REMARK    4  A    between atoms: N4_17  and  C7_19 
REMARK    5  A    between atoms: C7_19  and  O4_20 
REMARK    6  A    between atoms: C7_19  and  C8_22 
REMARK    7  A    between atoms: C8_22  and  N5_23 
REMARK    8  A    between atoms: C8_22  and  C18_41 
REMARK    9  A    between atoms: N5_23  and  O5_25 
REMARK   10  A    between atoms: O5_25  and  C9_26 
REMARK   11  A    between atoms: C9_26  and  C11_28 
REMARK   12  A    between atoms: C11_28  and  O6_29 
REMARK   13  A    between atoms: C11_28  and  C12_31 
REMARK   14  A    between atoms: C15_34  and  O7_35 
REMARK   15  A    between atoms: C16_37  and  O8_38 
REMARK   16  A    between atoms: C20_44  and  N6_45 
ROOT
HETATM    1  C8  UNL     1     -18.171 -25.643 -10.397  1.00  0.00     0.132 C 
ENDROOT
BRANCH   1   2
HETATM    2  C7  UNL     1     -17.222 -25.340 -11.429  1.00  0.00     0.169 C 
BRANCH   2   3
HETATM    3  N4  UNL     1     -16.987 -24.218 -12.203  1.00  0.00    -0.339 N 
ATOM      4  H4  UNL     1     -16.818 -23.329 -11.732  1.00  0.00     0.164 HD
BRANCH   3   5
HETATM    5  C6  UNL     1     -16.969 -24.246 -13.673  1.00  0.00     0.278 C 
HETATM    6  C5  UNL     1     -18.092 -25.185 -14.086  1.00  0.00     0.292 C 
HETATM    7  N3  UNL     1     -17.598 -26.005 -15.175  1.00  0.00    -0.196 N 
HETATM    8  O3  UNL     1     -19.037 -24.293 -14.610  1.00  0.00    -0.299 OA
HETATM    9  C4  UNL     1     -17.367 -25.321 -16.404  1.00  0.00     0.674 C 
ATOM     10  H3  UNL     1     -17.428 -27.004 -15.068  1.00  0.00     0.180 HD
HETATM   11  N1  UNL     1     -17.624 -23.909 -16.401  1.00  0.00    -0.160 N 
HETATM   12  N2  UNL     1     -16.956 -25.904 -17.459  1.00  0.00    -0.235 N 
HETATM   13  C3  UNL     1     -18.237 -23.320 -15.247  1.00  0.00     0.359 C 
ATOM     14  H1  UNL     1     -17.375 -23.334 -17.206  1.00  0.00     0.184 HD
HETATM   15  O9  UNL     1     -17.303 -23.025 -14.232  1.00  0.00    -0.300 OA
ATOM     16  H22 UNL     1     -16.790 -25.415 -18.338  1.00  0.00     0.174 HD
ATOM     17  H21 UNL     1     -16.773 -26.907 -17.461  1.00  0.00     0.174 HD
BRANCH  13  18
HETATM   18  C2  UNL     1     -18.983 -22.098 -15.580  1.00  0.00     0.346 C 
HETATM   19  O2  UNL     1     -19.950 -21.702 -14.842  1.00  0.00    -0.257 OA
BRANCH  18  20
HETATM   20  O1  UNL     1     -18.713 -21.299 -16.680  1.00  0.00    -0.321 OA
HETATM   21  C1  UNL     1     -19.515 -21.355 -17.865  1.00  0.00     0.213 C 
ENDBRANCH  18  20
ENDBRANCH  13  18
ENDBRANCH   3   5
ENDBRANCH   2   3
BRANCH   2  22
HETATM   22  O4  UNL     1     -16.386 -26.321 -11.707  1.00  0.00    -0.344 OA
ATOM     23  H4  UNL     1     -16.820 -27.166 -11.731  1.00  0.00     0.219 HD
ENDBRANCH   2  22
ENDBRANCH   1   2
BRANCH   1  24
HETATM   24  N5  UNL     1     -17.836 -25.277  -9.213  1.00  0.00    -0.260 N 
ATOM     25  H5  UNL     1     -16.866 -24.973  -9.134  1.00  0.00     0.194 HD
BRANCH  24  26
HETATM   26  O5  UNL     1     -18.513 -25.217  -8.073  1.00  0.00    -0.272 OA
BRANCH  26  27
HETATM   27  C9  UNL     1     -18.203 -25.965  -6.909  1.00  0.00     0.181 C 
HETATM   28  C10 UNL     1     -18.822 -27.353  -6.938  1.00  0.00     0.045 C 
BRANCH  27  29
HETATM   29  C11 UNL     1     -18.483 -25.240  -5.657  1.00  0.00     0.182 C 
BRANCH  29  30
HETATM   30  O6  UNL     1     -18.428 -23.837  -5.855  1.00  0.00    -0.388 OA
ATOM     31  H6  UNL     1     -17.915 -23.415  -5.175  1.00  0.00     0.210 HD
ENDBRANCH  29  30
BRANCH  29  32
HETATM   32  C12 UNL     1     -17.642 -25.589  -4.487  1.00  0.00    -0.024 A 
HETATM   33  C13 UNL     1     -17.801 -25.023  -3.265  1.00  0.00     0.013 A 
HETATM   34  C14 UNL     1     -16.962 -25.397  -2.202  1.00  0.00     0.040 A 
HETATM   35  C15 UNL     1     -15.966 -26.332  -2.352  1.00  0.00     0.098 A 
HETATM   36  C16 UNL     1     -15.824 -26.895  -3.603  1.00  0.00     0.099 A 
HETATM   37  C17 UNL     1     -16.630 -26.546  -4.654  1.00  0.00     0.049 A 
BRANCH  35  38
HETATM   38  O7  UNL     1     -15.164 -26.667  -1.268  1.00  0.00    -0.358 OA
ATOM     39  H7  UNL     1     -14.503 -27.343  -1.361  1.00  0.00     0.217 HD
ENDBRANCH  35  38
BRANCH  36  40
HETATM   40  O8  UNL     1     -14.805 -27.847  -3.739  1.00  0.00    -0.358 OA
ATOM     41  H8  UNL     1     -14.537 -28.050  -4.628  1.00  0.00     0.217 HD
ENDBRANCH  36  40
ENDBRANCH  29  32
ENDBRANCH  27  29
ENDBRANCH  26  27
ENDBRANCH  24  26
ENDBRANCH   1  24
BRANCH   1  42
HETATM   42  C18 UNL     1     -19.437 -26.408 -10.623  1.00  0.00     0.074 A 
HETATM   43  C19 UNL     1     -20.520 -26.266  -9.797  1.00  0.00     0.085 A 
HETATM   44  S1  UNL     1     -21.707 -27.236 -10.563  1.00  0.00    -0.064 SA
HETATM   45  C20 UNL     1     -20.776 -27.768 -11.876  1.00  0.00     0.142 A 
HETATM   46  N7  UNL     1     -19.599 -27.184 -11.678  1.00  0.00    -0.335 N 
ATOM     47  H7  UNL     1     -18.831 -27.333 -12.333  1.00  0.00     0.168 HD
BRANCH  45  48
HETATM   48  N6  UNL     1     -21.106 -28.572 -12.877  1.00  0.00    -0.380 N 
ATOM     49  H62 UNL     1     -21.990 -29.065 -12.999  1.00  0.00     0.158 HD
ATOM     50  H61 UNL     1     -20.564 -28.849 -13.695  1.00  0.00     0.158 HD
ENDBRANCH  45  48
ENDBRANCH   1  42
TORSDOF 16
ENDMDL
MODEL 5
REMARK VINA RESULT: -9.473307226      1.260      1.584
REMARK  16 active torsions:
REMARK  status: ('A' for Active; 'I' for Inactive)
REMARK    1  A    between atoms: O1_2  and  C2_3 
REMARK    2  A    between atoms: C2_3  and  C3_5 
REMARK    3  A    between atoms: C6_16  and  N4_17 
REMARK    4  A    between atoms: N4_17  and  C7_19 
REMARK    5  A    between atoms: C7_19  and  O4_20 
REMARK    6  A    between atoms: C7_19  and  C8_22 
REMARK    7  A    between atoms: C8_22  and  N5_23 
REMARK    8  A    between atoms: C8_22  and  C18_41 
REMARK    9  A    between atoms: N5_23  and  O5_25 
REMARK   10  A    between atoms: O5_25  and  C9_26 
REMARK   11  A    between atoms: C9_26  and  C11_28 
REMARK   12  A    between atoms: C11_28  and  O6_29 
REMARK   13  A    between atoms: C11_28  and  C12_31 
REMARK   14  A    between atoms: C15_34  and  O7_35 
REMARK   15  A    between atoms: C16_37  and  O8_38 
REMARK   16  A    between atoms: C20_44  and  N6_45 
ROOT
HETATM    1  C8  UNL     1     -19.357 -26.003  -9.858  1.00  0.00     0.132 C 
ENDROOT
BRANCH   1   2
HETATM    2  C7  UNL     1     -18.007 -25.869 -10.325  1.00  0.00     0.169 C 
BRANCH   2   3
HETATM    3  N4  UNL     1     -17.347 -24.900 -11.058  1.00  0.00    -0.339 N 
ATOM      4  H4  UNL     1     -17.130 -24.012 -10.605  1.00  0.00     0.164 HD
BRANCH   3   5
HETATM    5  C6  UNL     1     -16.944 -25.088 -12.459  1.00  0.00     0.278 C 
HETATM    6  C5  UNL     1     -15.474 -25.474 -12.422  1.00  0.00     0.292 C 
HETATM    7  N3  UNL     1     -14.807 -24.758 -13.491  1.00  0.00    -0.196 N 
HETATM    8  O3  UNL     1     -15.522 -26.830 -12.773  1.00  0.00    -0.299 OA
HETATM    9  C4  UNL     1     -15.149 -25.167 -14.814  1.00  0.00     0.674 C 
ATOM     10  H3  UNL     1     -14.137 -24.011 -13.310  1.00  0.00     0.180 HD
HETATM   11  N1  UNL     1     -16.127 -26.213 -14.919  1.00  0.00    -0.160 N 
HETATM   12  N2  UNL     1     -14.632 -24.653 -15.858  1.00  0.00    -0.235 N 
HETATM   13  C3  UNL     1     -16.563 -26.875 -13.726  1.00  0.00     0.359 C 
ATOM     14  H1  UNL     1     -16.506 -26.479 -15.828  1.00  0.00     0.184 HD
HETATM   15  O9  UNL     1     -17.580 -26.163 -13.055  1.00  0.00    -0.300 OA
ATOM     16  H22 UNL     1     -14.878 -24.946 -16.803  1.00  0.00     0.174 HD
ATOM     17  H21 UNL     1     -13.938 -23.911 -15.783  1.00  0.00     0.174 HD
BRANCH  13  18
HETATM   18  C2  UNL     1     -17.033 -28.242 -13.992  1.00  0.00     0.346 C 
HETATM   19  O2  UNL     1     -18.283 -28.497 -14.083  1.00  0.00    -0.257 OA
BRANCH  18  20
HETATM   20  O1  UNL     1     -16.193 -29.332 -14.159  1.00  0.00    -0.321 OA
HETATM   21  C1  UNL     1     -16.528 -30.411 -15.038  1.00  0.00     0.213 C 
ENDBRANCH  18  20
ENDBRANCH  13  18
ENDBRANCH   3   5
ENDBRANCH   2   3
BRANCH   2  22
HETATM   22  O4  UNL     1     -17.213 -26.867  -9.990  1.00  0.00    -0.344 OA
ATOM     23  H4  UNL     1     -17.161 -27.529 -10.670  1.00  0.00     0.219 HD
ENDBRANCH   2  22
ENDBRANCH   1   2
BRANCH   1  24
HETATM   24  N5  UNL     1     -19.598 -25.483  -8.709  1.00  0.00    -0.260 N 
ATOM     25  H5  UNL     1     -20.592 -25.392  -8.497  1.00  0.00     0.194 HD
BRANCH  24  26
HETATM   26  O5  UNL     1     -18.799 -25.041  -7.745  1.00  0.00    -0.272 OA
BRANCH  26  27
HETATM   27  C9  UNL     1     -18.323 -25.827  -6.667  1.00  0.00     0.181 C 
HETATM   28  C10 UNL     1     -18.782 -27.273  -6.765  1.00  0.00     0.045 C 
BRANCH  27  29
HETATM   29  C11 UNL     1     -18.591 -25.232  -5.345  1.00  0.00     0.182 C 
BRANCH  29  30
HETATM   30  O6  UNL     1     -18.663 -23.818  -5.427  1.00  0.00    -0.388 OA
ATOM     31  H6  UNL     1     -19.562 -23.525  -5.513  1.00  0.00     0.210 HD
ENDBRANCH  29  30
BRANCH  29  32
HETATM   32  C12 UNL     1     -17.660 -25.599  -4.251  1.00  0.00    -0.024 A 
HETATM   33  C13 UNL     1     -17.713 -25.044  -3.016  1.00  0.00     0.013 A 
HETATM   34  C14 UNL     1     -16.794 -25.435  -2.028  1.00  0.00     0.040 A 
HETATM   35  C15 UNL     1     -15.822 -26.377  -2.269  1.00  0.00     0.098 A 
HETATM   36  C16 UNL     1     -15.786 -26.928  -3.532  1.00  0.00     0.099 A 
HETATM   37  C17 UNL     1     -16.674 -26.562  -4.510  1.00  0.00     0.049 A 
BRANCH  35  38
HETATM   38  O7  UNL     1     -14.936 -26.728  -1.257  1.00  0.00    -0.358 OA
ATOM     39  H7  UNL     1     -14.011 -26.828  -1.453  1.00  0.00     0.217 HD
ENDBRANCH  35  38
BRANCH  36  40
HETATM   40  O8  UNL     1     -14.790 -27.886  -3.760  1.00  0.00    -0.358 OA
ATOM     41  H8  UNL     1     -14.015 -27.822  -3.214  1.00  0.00     0.217 HD
ENDBRANCH  36  40
ENDBRANCH  29  32
ENDBRANCH  27  29
ENDBRANCH  26  27
ENDBRANCH  24  26
ENDBRANCH   1  24
BRANCH   1  42
HETATM   42  C18 UNL     1     -20.423 -26.760 -10.584  1.00  0.00     0.074 A 
HETATM   43  C19 UNL     1     -21.749 -26.602 -10.283  1.00  0.00     0.085 A 
HETATM   44  S1  UNL     1     -22.521 -27.571 -11.467  1.00  0.00    -0.064 SA
HETATM   45  C20 UNL     1     -21.135 -28.123 -12.272  1.00  0.00     0.142 A 
HETATM   46  N7  UNL     1     -20.141 -27.545 -11.607  1.00  0.00    -0.335 N 
ATOM     47  H7  UNL     1     -19.172 -27.706 -11.883  1.00  0.00     0.168 HD
BRANCH  45  48
HETATM   48  N6  UNL     1     -21.028 -28.933 -13.315  1.00  0.00    -0.380 N 
ATOM     49  H62 UNL     1     -21.650 -28.976 -14.123  1.00  0.00     0.158 HD
ATOM     50  H61 UNL     1     -20.330 -29.650 -13.514  1.00  0.00     0.158 HD
ENDBRANCH  45  48
ENDBRANCH   1  42
TORSDOF 16
ENDMDL
