MODEL 1
REMARK VINA RESULT: -8.711446811      0.000      0.000
REMARK  5 active torsions:
REMARK  status: ('A' for Active; 'I' for Inactive)
REMARK    1  A    between atoms: C11_12  and  C12_13 
REMARK    2  A    between atoms: C12_13  and  C13_14 
REMARK    3  A    between atoms: C13_14  and  C14_15 
REMARK    4  A    between atoms: C18_19  and  O2_20 
REMARK    5  A    between atoms: O2_20  and  C19_21 
ROOT
HETATM    1  C1  UNL     1      33.740  -2.543  30.809  1.00  0.00     0.016 C 
HETATM    2  C2  UNL     1      33.170  -1.360  30.829  1.00  0.00    -0.062 C 
HETATM    3  C3  UNL     1      32.260  -0.853  31.897  1.00  0.00     0.077 C 
HETATM    4  C4  UNL     1      31.338  -0.002  31.127  1.00  0.00    -0.009 C 
HETATM    5  C5  UNL     1      31.914   0.350  29.968  1.00  0.00     0.020 C 
HETATM    6  C6  UNL     1      31.471   1.174  28.842  1.00  0.00     0.162 C 
HETATM    7  O1  UNL     1      31.872   0.651  27.752  1.00  0.00    -0.292 OA
HETATM    8  C7  UNL     1      30.710   2.410  28.632  1.00  0.00     0.117 C 
HETATM    9  C8  UNL     1      29.343   2.421  29.166  1.00  0.00    -0.076 C 
HETATM   10  C9  UNL     1      28.380   3.240  28.319  1.00  0.00     0.044 C 
HETATM   11  C10 UNL     1      28.724   1.897  30.205  1.00  0.00     0.012 C 
HETATM   12  C11 UNL     1      29.049   1.046  31.358  1.00  0.00    -0.024 C 
HETATM   13  C18 UNL     1      30.051   0.295  31.738  1.00  0.00     0.082 C 
HETATM   14  C21 UNL     1      33.268  -0.266  29.858  1.00  0.00     0.148 C 
HETATM   15 CL1  UNL     1      34.456   0.960  30.274  1.00  0.00    -0.115 Cl
ENDROOT
BRANCH  12  16
HETATM   16  C12 UNL     1      28.007   1.162  32.389  1.00  0.00     0.042 C 
BRANCH  16  17
HETATM   17  C13 UNL     1      27.427   2.588  32.191  1.00  0.00     0.014 C 
BRANCH  17  18
HETATM   18  C14 UNL     1      28.127   3.560  33.109  1.00  0.00    -0.044 A 
HETATM   19  C15 UNL     1      28.740   2.936  34.330  1.00  0.00     0.015 C 
HETATM   20  C16 UNL     1      27.778   4.997  33.089  1.00  0.00     0.010 A 
HETATM   21  C17 UNL     1      29.014   4.568  32.390  1.00  0.00     0.010 A 
ENDBRANCH  17  18
ENDBRANCH  16  17
ENDBRANCH  12  16
BRANCH  13  22
HETATM   22  O2  UNL     1      29.800  -0.319  32.931  1.00  0.00    -0.350 OA
BRANCH  22  23
HETATM   23  C19 UNL     1      30.666   0.098  34.013  1.00  0.00     0.171 C 
HETATM   24  C20 UNL     1      30.091  -0.199  35.359  1.00  0.00     0.034 C 
ENDBRANCH  22  23
ENDBRANCH  13  22
TORSDOF 5
ENDMDL
MODEL 2
REMARK VINA RESULT: -8.667066023      2.240      6.472
REMARK  5 active torsions:
REMARK  status: ('A' for Active; 'I' for Inactive)
REMARK    1  A    between atoms: C11_12  and  C12_13 
REMARK    2  A    between atoms: C12_13  and  C13_14 
REMARK    3  A    between atoms: C13_14  and  C14_15 
REMARK    4  A    between atoms: C18_19  and  O2_20 
REMARK    5  A    between atoms: O2_20  and  C19_21 
ROOT
HETATM    1  C1  UNL     1      27.664   3.246  28.621  1.00  0.00     0.016 C 
HETATM    2  C2  UNL     1      28.337   3.123  29.743  1.00  0.00    -0.062 C 
HETATM    3  C3  UNL     1      29.823   3.092  29.865  1.00  0.00     0.077 C 
HETATM    4  C4  UNL     1      30.012   2.179  31.004  1.00  0.00    -0.009 C 
HETATM    5  C5  UNL     1      28.886   2.131  31.732  1.00  0.00     0.020 C 
HETATM    6  C6  UNL     1      28.513   1.409  32.950  1.00  0.00     0.162 C 
HETATM    7  O1  UNL     1      27.306   1.014  32.856  1.00  0.00    -0.292 OA
HETATM    8  C7  UNL     1      29.138   1.026  34.221  1.00  0.00     0.117 C 
HETATM    9  C8  UNL     1      30.353   0.209  34.119  1.00  0.00    -0.076 C 
HETATM   10  C9  UNL     1      30.499  -0.786  35.261  1.00  0.00     0.044 C 
HETATM   11  C10 UNL     1      31.366   0.113  33.281  1.00  0.00     0.012 C 
HETATM   12  C11 UNL     1      31.821   0.747  32.036  1.00  0.00    -0.024 C 
HETATM   13  C18 UNL     1      31.315   1.546  31.132  1.00  0.00     0.082 C 
HETATM   14  C21 UNL     1      27.837   2.993  31.115  1.00  0.00     0.148 C 
HETATM   15 CL1  UNL     1      27.785   4.505  32.008  1.00  0.00    -0.115 Cl
ENDROOT
BRANCH  12  16
HETATM   16  C12 UNL     1      33.251   0.482  31.820  1.00  0.00     0.042 C 
BRANCH  16  17
HETATM   17  C13 UNL     1      33.484  -0.914  32.459  1.00  0.00     0.014 C 
BRANCH  17  18
HETATM   18  C14 UNL     1      33.870  -1.910  31.394  1.00  0.00    -0.044 A 
HETATM   19  C15 UNL     1      35.301  -1.824  30.947  1.00  0.00     0.015 C 
HETATM   20  C16 UNL     1      32.840  -2.512  30.520  1.00  0.00     0.010 A 
HETATM   21  C17 UNL     1      33.360  -3.322  31.648  1.00  0.00     0.010 A 
ENDBRANCH  17  18
ENDBRANCH  16  17
ENDBRANCH  12  16
BRANCH  13  22
HETATM   22  O2  UNL     1      32.205   1.802  30.128  1.00  0.00    -0.350 OA
BRANCH  22  23
HETATM   23  C19 UNL     1      32.351   0.728  29.169  1.00  0.00     0.171 C 
HETATM   24  C20 UNL     1      31.836   1.090  27.815  1.00  0.00     0.034 C 
ENDBRANCH  22  23
ENDBRANCH  13  22
TORSDOF 5
ENDMDL
MODEL 3
REMARK VINA RESULT: -8.647912830      1.870      4.101
REMARK  5 active torsions:
REMARK  status: ('A' for Active; 'I' for Inactive)
REMARK    1  A    between atoms: C11_12  and  C12_13 
REMARK    2  A    between atoms: C12_13  and  C13_14 
REMARK    3  A    between atoms: C13_14  and  C14_15 
REMARK    4  A    between atoms: C18_19  and  O2_20 
REMARK    5  A    between atoms: O2_20  and  C19_21 
ROOT
HETATM    1  C1  UNL     1      34.837  -1.700  29.671  1.00  0.00     0.016 C 
HETATM    2  C2  UNL     1      33.699  -1.397  30.253  1.00  0.00    -0.062 C 
HETATM    3  C3  UNL     1      32.706  -0.404  29.753  1.00  0.00     0.077 C 
HETATM    4  C4  UNL     1      32.159   0.135  31.009  1.00  0.00    -0.009 C 
HETATM    5  C5  UNL     1      32.379  -0.738  32.003  1.00  0.00     0.020 C 
HETATM    6  C6  UNL     1      32.053  -0.728  33.431  1.00  0.00     0.162 C 
HETATM    7  O1  UNL     1      33.018  -1.237  34.089  1.00  0.00    -0.292 OA
HETATM    8  C7  UNL     1      30.943  -0.302  34.290  1.00  0.00     0.117 C 
HETATM    9  C8  UNL     1      30.572   1.114  34.206  1.00  0.00    -0.076 C 
HETATM   10  C9  UNL     1      30.081   1.682  35.529  1.00  0.00     0.044 C 
HETATM   11  C10 UNL     1      30.553   2.037  33.264  1.00  0.00     0.012 C 
HETATM   12  C11 UNL     1      30.879   2.151  31.837  1.00  0.00    -0.024 C 
HETATM   13  C18 UNL     1      31.505   1.433  30.940  1.00  0.00     0.082 C 
HETATM   14  C21 UNL     1      33.121  -1.926  31.493  1.00  0.00     0.148 C 
HETATM   15 CL1  UNL     1      31.963  -3.224  31.248  1.00  0.00    -0.115 Cl
ENDROOT
BRANCH  12  16
HETATM   16  C12 UNL     1      30.241   3.344  31.259  1.00  0.00     0.042 C 
BRANCH  16  17
HETATM   17  C13 UNL     1      30.225   4.372  32.422  1.00  0.00     0.014 C 
BRANCH  17  18
HETATM   18  C14 UNL     1      28.807   4.796  32.716  1.00  0.00    -0.044 A 
HETATM   19  C15 UNL     1      27.764   4.103  31.887  1.00  0.00     0.015 C 
HETATM   20  C16 UNL     1      28.529   6.107  33.340  1.00  0.00     0.010 A 
HETATM   21  C17 UNL     1      28.483   4.900  34.200  1.00  0.00     0.010 A 
ENDBRANCH  17  18
ENDBRANCH  16  17
ENDBRANCH  12  16
BRANCH  13  22
HETATM   22  O2  UNL     1      31.542   2.056  29.726  1.00  0.00    -0.350 OA
BRANCH  22  23
HETATM   23  C19 UNL     1      30.600   1.537  28.758  1.00  0.00     0.171 C 
HETATM   24  C20 UNL     1      29.471   2.477  28.490  1.00  0.00     0.034 C 
ENDBRANCH  22  23
ENDBRANCH  13  22
TORSDOF 5
ENDMDL
MODEL 4
REMARK VINA RESULT: -8.549923772      2.406      5.799
REMARK  5 active torsions:
REMARK  status: ('A' for Active; 'I' for Inactive)
REMARK    1  A    between atoms: C11_12  and  C12_13 
REMARK    2  A    between atoms: C12_13  and  C13_14 
REMARK    3  A    between atoms: C13_14  and  C14_15 
REMARK    4  A    between atoms: C18_19  and  O2_20 
REMARK    5  A    between atoms: O2_20  and  C19_21 
ROOT
HETATM    1  C1  UNL     1      27.890   5.075  33.325  1.00  0.00     0.016 C 
HETATM    2  C2  UNL     1      28.337   3.976  32.763  1.00  0.00    -0.062 C 
HETATM    3  C3  UNL     1      29.286   3.007  33.383  1.00  0.00     0.077 C 
HETATM    4  C4  UNL     1      30.042   2.534  32.212  1.00  0.00    -0.009 C 
HETATM    5  C5  UNL     1      29.327   2.755  31.098  1.00  0.00     0.020 C 
HETATM    6  C6  UNL     1      29.578   2.487  29.680  1.00  0.00     0.162 C 
HETATM    7  O1  UNL     1      29.132   3.454  28.982  1.00  0.00    -0.292 OA
HETATM    8  C7  UNL     1      30.187   1.431  28.865  1.00  0.00     0.117 C 
HETATM    9  C8  UNL     1      31.589   1.118  29.162  1.00  0.00    -0.076 C 
HETATM   10  C9  UNL     1      32.382   0.705  27.931  1.00  0.00     0.044 C 
HETATM   11  C10 UNL     1      32.352   1.101  30.238  1.00  0.00     0.012 C 
HETATM   12  C11 UNL     1      32.223   1.376  31.675  1.00  0.00    -0.024 C 
HETATM   13  C18 UNL     1      31.343   1.934  32.465  1.00  0.00     0.082 C 
HETATM   14  C21 UNL     1      28.038   3.424  31.437  1.00  0.00     0.148 C 
HETATM   15 CL1  UNL     1      26.776   2.202  31.434  1.00  0.00    -0.115 Cl
ENDROOT
BRANCH  12  16
HETATM   16  C12 UNL     1      33.340   0.768  32.414  1.00  0.00     0.042 C 
BRANCH  16  17
HETATM   17  C13 UNL     1      33.522  -0.627  31.756  1.00  0.00     0.014 C 
BRANCH  17  18
HETATM   18  C14 UNL     1      34.901  -0.736  31.154  1.00  0.00    -0.044 A 
HETATM   19  C15 UNL     1      35.869   0.316  31.615  1.00  0.00     0.015 C 
HETATM   20  C16 UNL     1      35.107  -1.443  29.872  1.00  0.00     0.010 A 
HETATM   21  C17 UNL     1      35.458  -2.153  31.126  1.00  0.00     0.010 A 
ENDBRANCH  17  18
ENDBRANCH  16  17
ENDBRANCH  12  16
BRANCH  13  22
HETATM   22  O2  UNL     1      31.764   1.950  33.763  1.00  0.00    -0.350 OA
BRANCH  22  23
HETATM   23  C19 UNL     1      30.816   1.400  34.708  1.00  0.00     0.171 C 
HETATM   24  C20 UNL     1      30.791  -0.093  34.698  1.00  0.00     0.034 C 
ENDBRANCH  22  23
ENDBRANCH  13  22
TORSDOF 5
ENDMDL
MODEL 5
REMARK VINA RESULT: -8.219671228      0.939      1.024
REMARK  5 active torsions:
REMARK  status: ('A' for Active; 'I' for Inactive)
REMARK    1  A    between atoms: C11_12  and  C12_13 
REMARK    2  A    between atoms: C12_13  and  C13_14 
REMARK    3  A    between atoms: C13_14  and  C14_15 
REMARK    4  A    between atoms: C18_19  and  O2_20 
REMARK    5  A    between atoms: O2_20  and  C19_21 
ROOT
HETATM    1  C1  UNL     1      33.507  -1.760  31.901  1.00  0.00     0.016 C 
HETATM    2  C2  UNL     1      32.945  -0.606  31.622  1.00  0.00    -0.062 C 
HETATM    3  C3  UNL     1      32.108   0.200  32.557  1.00  0.00     0.077 C 
HETATM    4  C4  UNL     1      31.142   0.822  31.636  1.00  0.00    -0.009 C 
HETATM    5  C5  UNL     1      31.645   0.822  30.393  1.00  0.00     0.020 C 
HETATM    6  C6  UNL     1      31.134   1.307  29.109  1.00  0.00     0.162 C 
HETATM    7  O1  UNL     1      31.461   0.491  28.188  1.00  0.00    -0.292 OA
HETATM    8  C7  UNL     1      30.366   2.451  28.606  1.00  0.00     0.117 C 
HETATM    9  C8  UNL     1      29.037   2.642  29.197  1.00  0.00    -0.076 C 
HETATM   10  C9  UNL     1      28.025   3.212  28.214  1.00  0.00     0.044 C 
HETATM   11  C10 UNL     1      28.484   2.444  30.377  1.00  0.00     0.012 C 
HETATM   12  C11 UNL     1      28.878   1.944  31.701  1.00  0.00    -0.024 C 
HETATM   13  C18 UNL     1      29.899   1.307  32.215  1.00  0.00     0.082 C 
HETATM   14  C21 UNL     1      32.986   0.170  30.378  1.00  0.00     0.148 C 
HETATM   15 CL1  UNL     1      34.204   1.436  30.360  1.00  0.00    -0.115 Cl
ENDROOT
BRANCH  12  16
HETATM   16  C12 UNL     1      27.905   2.367  32.719  1.00  0.00     0.042 C 
BRANCH  16  17
HETATM   17  C13 UNL     1      27.722   3.888  32.467  1.00  0.00     0.014 C 
BRANCH  17  18
HETATM   18  C14 UNL     1      28.548   4.676  33.453  1.00  0.00    -0.044 A 
HETATM   19  C15 UNL     1      28.874   3.942  34.722  1.00  0.00     0.015 C 
HETATM   20  C16 UNL     1      28.563   6.154  33.409  1.00  0.00     0.010 A 
HETATM   21  C17 UNL     1      29.716   5.426  32.828  1.00  0.00     0.010 A 
ENDBRANCH  17  18
ENDBRANCH  16  17
ENDBRANCH  12  16
BRANCH  13  22
HETATM   22  O2  UNL     1      29.722   1.057  33.546  1.00  0.00    -0.350 OA
BRANCH  22  23
HETATM   23  C19 UNL     1      29.327  -0.301  33.853  1.00  0.00     0.171 C 
HETATM   24  C20 UNL     1      29.348  -0.589  35.319  1.00  0.00     0.034 C 
ENDBRANCH  22  23
ENDBRANCH  13  22
TORSDOF 5
ENDMDL
