MODEL 1
REMARK VINA RESULT: -9.832562698      0.000      0.000
REMARK  5 active torsions:
REMARK  status: ('A' for Active; 'I' for Inactive)
REMARK    1  A    between atoms: C2_2  and  C9_11 
REMARK    2  A    between atoms: C3_3  and  C4_4 
REMARK    3  A    between atoms: C4_4  and  O1_5 
REMARK    4  A    between atoms: O1_5  and  C5_6 
REMARK    5  A    between atoms: C5_6  and  C6_8 
ROOT
HETATM    1  C9  UNL     1      31.164   2.340  31.441  1.00  0.00     0.023 C 
HETATM    2  C10 UNL     1      31.736   3.487  32.316  1.00  0.00     0.010 C 
HETATM    3  C11 UNL     1      30.533   4.346  32.663  1.00  0.00     0.006 C 
HETATM    4  C12 UNL     1      29.520   3.226  32.817  1.00  0.00    -0.001 C 
HETATM    5  C13 UNL     1      28.201   3.607  33.288  1.00  0.00    -0.014 C 
HETATM    6  C14 UNL     1      27.665   4.947  32.908  1.00  0.00     0.010 C 
HETATM    7  C15 UNL     1      27.244   2.460  33.038  1.00  0.00     0.005 C 
HETATM    8  C16 UNL     1      27.364   1.850  31.698  1.00  0.00     0.006 C 
HETATM    9  C17 UNL     1      28.776   1.453  31.287  1.00  0.00    -0.002 C 
HETATM   10  C18 UNL     1      28.662   1.264  29.757  1.00  0.00     0.048 C 
HETATM   11  C19 UNL     1      28.915   2.622  29.205  1.00  0.00     0.101 C 
HETATM   12  C20 UNL     1      27.661   3.155  28.507  1.00  0.00     0.051 C 
HETATM   13  F1  UNL     1      29.877   2.591  28.187  1.00  0.00    -0.243 F 
HETATM   14  C21 UNL     1      29.325   3.520  30.341  1.00  0.00     0.054 C 
HETATM   15  C22 UNL     1      29.678   2.579  31.473  1.00  0.00    -0.022 C 
ENDROOT
BRANCH   1  16
HETATM   16  C2  UNL     1      31.669   1.048  31.864  1.00  0.00    -0.081 C 
HETATM   17  C1  UNL     1      31.683   0.614  33.315  1.00  0.00     0.043 C 
HETATM   18  C3  UNL     1      32.178   0.174  31.018  1.00  0.00     0.002 C 
BRANCH  18  19
HETATM   19  C4  UNL     1      32.298   0.325  29.554  1.00  0.00     0.206 C 
BRANCH  19  20
HETATM   20  O1  UNL     1      33.639  -0.063  29.233  1.00  0.00    -0.317 OA
BRANCH  20  21
HETATM   21  C5  UNL     1      34.056  -1.376  29.281  1.00  0.00     0.262 C 
HETATM   22  O2  UNL     1      33.515  -2.216  28.527  1.00  0.00    -0.265 OA
BRANCH  21  23
HETATM   23  C6  UNL     1      35.132  -1.757  30.221  1.00  0.00     0.077 C 
HETATM   24  C7  UNL     1      35.770  -0.464  30.724  1.00  0.00     0.020 C 
HETATM   25  C8  UNL     1      34.590  -2.571  31.376  1.00  0.00     0.020 C 
ENDBRANCH  21  23
ENDBRANCH  20  21
ENDBRANCH  19  20
ENDBRANCH  18  19
ENDBRANCH   1  16
TORSDOF 5
ENDMDL
MODEL 2
REMARK VINA RESULT: -9.673985220      0.942      1.276
REMARK  5 active torsions:
REMARK  status: ('A' for Active; 'I' for Inactive)
REMARK    1  A    between atoms: C2_2  and  C9_11 
REMARK    2  A    between atoms: C3_3  and  C4_4 
REMARK    3  A    between atoms: C4_4  and  O1_5 
REMARK    4  A    between atoms: O1_5  and  C5_6 
REMARK    5  A    between atoms: C5_6  and  C6_8 
ROOT
HETATM    1  C9  UNL     1      31.220   2.284  31.566  1.00  0.00     0.023 C 
HETATM    2  C10 UNL     1      31.772   3.447  32.430  1.00  0.00     0.010 C 
HETATM    3  C11 UNL     1      30.564   4.322  32.719  1.00  0.00     0.006 C 
HETATM    4  C12 UNL     1      29.539   3.211  32.868  1.00  0.00    -0.001 C 
HETATM    5  C13 UNL     1      28.209   3.612  33.288  1.00  0.00    -0.014 C 
HETATM    6  C14 UNL     1      27.693   4.945  32.860  1.00  0.00     0.010 C 
HETATM    7  C15 UNL     1      27.252   2.464  33.035  1.00  0.00     0.005 C 
HETATM    8  C16 UNL     1      27.410   1.822  31.714  1.00  0.00     0.006 C 
HETATM    9  C17 UNL     1      28.832   1.407  31.357  1.00  0.00    -0.002 C 
HETATM   10  C18 UNL     1      28.764   1.182  29.830  1.00  0.00     0.048 C 
HETATM   11  C19 UNL     1      29.043   2.525  29.253  1.00  0.00     0.101 C 
HETATM   12  C20 UNL     1      27.816   3.048  28.504  1.00  0.00     0.051 C 
HETATM   13  F1  UNL     1      30.036   2.464  28.268  1.00  0.00    -0.243 F 
HETATM   14  C21 UNL     1      29.423   3.447  30.381  1.00  0.00     0.054 C 
HETATM   15  C22 UNL     1      29.735   2.532  31.546  1.00  0.00    -0.022 C 
ENDROOT
BRANCH   1  16
HETATM   16  C2  UNL     1      31.702   0.999  32.034  1.00  0.00    -0.081 C 
HETATM   17  C1  UNL     1      31.675   0.602  33.496  1.00  0.00     0.043 C 
HETATM   18  C3  UNL     1      32.226   0.099  31.225  1.00  0.00     0.002 C 
BRANCH  18  19
HETATM   19  C4  UNL     1      32.385   0.211  29.761  1.00  0.00     0.206 C 
BRANCH  19  20
HETATM   20  O1  UNL     1      33.717   0.695  29.553  1.00  0.00    -0.317 OA
BRANCH  20  21
HETATM   21  C5  UNL     1      34.821   0.057  30.077  1.00  0.00     0.262 C 
HETATM   22  O2  UNL     1      35.140  -1.072  29.641  1.00  0.00    -0.265 OA
BRANCH  21  23
HETATM   23  C6  UNL     1      35.601   0.725  31.142  1.00  0.00     0.077 C 
HETATM   24  C7  UNL     1      36.096  -0.366  32.089  1.00  0.00     0.020 C 
HETATM   25  C8  UNL     1      36.765   1.502  30.566  1.00  0.00     0.020 C 
ENDBRANCH  21  23
ENDBRANCH  20  21
ENDBRANCH  19  20
ENDBRANCH  18  19
ENDBRANCH   1  16
TORSDOF 5
ENDMDL
MODEL 3
REMARK VINA RESULT: -9.660666560      1.545      1.964
REMARK  5 active torsions:
REMARK  status: ('A' for Active; 'I' for Inactive)
REMARK    1  A    between atoms: C2_2  and  C9_11 
REMARK    2  A    between atoms: C3_3  and  C4_4 
REMARK    3  A    between atoms: C4_4  and  O1_5 
REMARK    4  A    between atoms: O1_5  and  C5_6 
REMARK    5  A    between atoms: C5_6  and  C6_8 
ROOT
HETATM    1  C9  UNL     1      31.145   1.103  32.282  1.00  0.00     0.023 C 
HETATM    2  C10 UNL     1      32.264   1.889  33.013  1.00  0.00     0.010 C 
HETATM    3  C11 UNL     1      31.808   3.337  32.974  1.00  0.00     0.006 C 
HETATM    4  C12 UNL     1      30.321   3.088  33.154  1.00  0.00    -0.001 C 
HETATM    5  C13 UNL     1      29.482   4.263  33.304  1.00  0.00    -0.014 C 
HETATM    6  C14 UNL     1      29.869   5.515  32.590  1.00  0.00     0.010 C 
HETATM    7  C15 UNL     1      28.035   3.856  33.107  1.00  0.00     0.005 C 
HETATM    8  C16 UNL     1      27.806   2.970  31.947  1.00  0.00     0.006 C 
HETATM    9  C17 UNL     1      28.709   1.745  31.875  1.00  0.00    -0.002 C 
HETATM   10  C18 UNL     1      28.550   1.272  30.413  1.00  0.00     0.048 C 
HETATM   11  C19 UNL     1      29.584   2.041  29.669  1.00  0.00     0.101 C 
HETATM   12  C20 UNL     1      28.923   2.997  28.673  1.00  0.00     0.051 C 
HETATM   13  F1  UNL     1      30.365   1.203  28.862  1.00  0.00    -0.243 F 
HETATM   14  C21 UNL     1      30.416   2.795  30.672  1.00  0.00     0.054 C 
HETATM   15  C22 UNL     1      30.100   2.150  32.005  1.00  0.00    -0.022 C 
ENDROOT
BRANCH   1  16
HETATM   16  C2  UNL     1      30.759  -0.084  33.021  1.00  0.00    -0.081 C 
HETATM   17  C1  UNL     1      30.455  -0.056  34.505  1.00  0.00     0.043 C 
HETATM   18  C3  UNL     1      30.677  -1.274  32.461  1.00  0.00     0.002 C 
BRANCH  18  19
HETATM   19  C4  UNL     1      30.919  -1.603  31.041  1.00  0.00     0.206 C 
BRANCH  19  20
HETATM   20  O1  UNL     1      31.681  -2.817  31.050  1.00  0.00    -0.317 OA
BRANCH  20  21
HETATM   21  C5  UNL     1      33.048  -2.825  31.221  1.00  0.00     0.262 C 
HETATM   22  O2  UNL     1      33.568  -3.701  31.948  1.00  0.00    -0.265 OA
BRANCH  21  23
HETATM   23  C6  UNL     1      33.866  -1.797  30.540  1.00  0.00     0.077 C 
HETATM   24  C7  UNL     1      35.296  -1.945  31.055  1.00  0.00     0.020 C 
HETATM   25  C8  UNL     1      33.818  -1.964  29.037  1.00  0.00     0.020 C 
ENDBRANCH  21  23
ENDBRANCH  20  21
ENDBRANCH  19  20
ENDBRANCH  18  19
ENDBRANCH   1  16
TORSDOF 5
ENDMDL
MODEL 4
REMARK VINA RESULT: -9.534008933      0.637      1.004
REMARK  5 active torsions:
REMARK  status: ('A' for Active; 'I' for Inactive)
REMARK    1  A    between atoms: C2_2  and  C9_11 
REMARK    2  A    between atoms: C3_3  and  C4_4 
REMARK    3  A    between atoms: C4_4  and  O1_5 
REMARK    4  A    between atoms: O1_5  and  C5_6 
REMARK    5  A    between atoms: C5_6  and  C6_8 
ROOT
HETATM    1  C9  UNL     1      31.174   2.303  31.546  1.00  0.00     0.023 C 
HETATM    2  C10 UNL     1      31.732   3.460  32.416  1.00  0.00     0.010 C 
HETATM    3  C11 UNL     1      30.527   4.334  32.717  1.00  0.00     0.006 C 
HETATM    4  C12 UNL     1      29.501   3.223  32.863  1.00  0.00    -0.001 C 
HETATM    5  C13 UNL     1      28.173   3.622  33.293  1.00  0.00    -0.014 C 
HETATM    6  C14 UNL     1      27.657   4.960  32.877  1.00  0.00     0.010 C 
HETATM    7  C15 UNL     1      27.213   2.478  33.036  1.00  0.00     0.005 C 
HETATM    8  C16 UNL     1      27.365   1.846  31.710  1.00  0.00     0.006 C 
HETATM    9  C17 UNL     1      28.784   1.432  31.343  1.00  0.00    -0.002 C 
HETATM   10  C18 UNL     1      28.708   1.218  29.815  1.00  0.00     0.048 C 
HETATM   11  C19 UNL     1      28.986   2.564  29.246  1.00  0.00     0.101 C 
HETATM   12  C20 UNL     1      27.755   3.095  28.507  1.00  0.00     0.051 C 
HETATM   13  F1  UNL     1      29.974   2.509  28.255  1.00  0.00    -0.243 F 
HETATM   14  C21 UNL     1      29.373   3.478  30.379  1.00  0.00     0.054 C 
HETATM   15  C22 UNL     1      29.689   2.554  31.535  1.00  0.00    -0.022 C 
ENDROOT
BRANCH   1  16
HETATM   16  C2  UNL     1      31.657   1.015  32.003  1.00  0.00    -0.081 C 
HETATM   17  C1  UNL     1      31.570   0.578  33.451  1.00  0.00     0.043 C 
HETATM   18  C3  UNL     1      32.233   0.146  31.195  1.00  0.00     0.002 C 
BRANCH  18  19
HETATM   19  C4  UNL     1      32.456   0.299  29.743  1.00  0.00     0.206 C 
BRANCH  19  20
HETATM   20  O1  UNL     1      33.733  -0.296  29.484  1.00  0.00    -0.317 OA
BRANCH  20  21
HETATM   21  C5  UNL     1      34.849   0.004  30.234  1.00  0.00     0.262 C 
HETATM   22  O2  UNL     1      35.174   1.201  30.395  1.00  0.00    -0.265 OA
BRANCH  21  23
HETATM   23  C6  UNL     1      35.634  -1.100  30.831  1.00  0.00     0.077 C 
HETATM   24  C7  UNL     1      36.226  -0.575  32.138  1.00  0.00     0.020 C 
HETATM   25  C8  UNL     1      34.769  -2.315  31.085  1.00  0.00     0.020 C 
ENDBRANCH  21  23
ENDBRANCH  20  21
ENDBRANCH  19  20
ENDBRANCH  18  19
ENDBRANCH   1  16
TORSDOF 5
ENDMDL
MODEL 5
REMARK VINA RESULT: -9.380470105      2.151      3.622
REMARK  5 active torsions:
REMARK  status: ('A' for Active; 'I' for Inactive)
REMARK    1  A    between atoms: C2_2  and  C9_11 
REMARK    2  A    between atoms: C3_3  and  C4_4 
REMARK    3  A    between atoms: C4_4  and  O1_5 
REMARK    4  A    between atoms: O1_5  and  C5_6 
REMARK    5  A    between atoms: C5_6  and  C6_8 
ROOT
HETATM    1  C9  UNL     1      29.491   0.803  31.086  1.00  0.00     0.023 C 
HETATM    2  C10 UNL     1      28.259   1.131  30.203  1.00  0.00     0.010 C 
HETATM    3  C11 UNL     1      27.620   2.341  30.864  1.00  0.00     0.006 C 
HETATM    4  C12 UNL     1      28.900   3.036  31.295  1.00  0.00    -0.001 C 
HETATM    5  C13 UNL     1      28.752   4.354  31.884  1.00  0.00    -0.014 C 
HETATM    6  C14 UNL     1      27.528   4.647  32.687  1.00  0.00     0.010 C 
HETATM    7  C15 UNL     1      30.050   4.730  32.571  1.00  0.00     0.005 C 
HETATM    8  C16 UNL     1      30.635   3.651  33.393  1.00  0.00     0.006 C 
HETATM    9  C17 UNL     1      30.781   2.305  32.696  1.00  0.00    -0.002 C 
HETATM   10  C18 UNL     1      30.994   1.319  33.866  1.00  0.00     0.048 C 
HETATM   11  C19 UNL     1      29.616   0.928  34.266  1.00  0.00     0.101 C 
HETATM   12  C20 UNL     1      29.313   1.420  35.683  1.00  0.00     0.051 C 
HETATM   13  F1  UNL     1      29.483  -0.463  34.359  1.00  0.00    -0.243 F 
HETATM   14  C21 UNL     1      28.655   1.522  33.270  1.00  0.00     0.054 C 
HETATM   15  C22 UNL     1      29.515   1.924  32.091  1.00  0.00    -0.022 C 
ENDROOT
BRANCH   1  16
HETATM   16  C2  UNL     1      30.674   0.568  30.281  1.00  0.00    -0.081 C 
HETATM   17  C1  UNL     1      31.003   1.396  29.056  1.00  0.00     0.043 C 
HETATM   18  C3  UNL     1      31.528  -0.402  30.540  1.00  0.00     0.002 C 
BRANCH  18  19
HETATM   19  C4  UNL     1      31.462  -1.364  31.659  1.00  0.00     0.206 C 
BRANCH  19  20
HETATM   20  O1  UNL     1      32.806  -1.489  32.141  1.00  0.00    -0.317 OA
BRANCH  20  21
HETATM   21  C5  UNL     1      33.677  -2.438  31.652  1.00  0.00     0.262 C 
HETATM   22  O2  UNL     1      33.400  -3.651  31.792  1.00  0.00    -0.265 OA
BRANCH  21  23
HETATM   23  C6  UNL     1      34.916  -1.999  30.973  1.00  0.00     0.077 C 
HETATM   24  C7  UNL     1      34.572  -1.788  29.500  1.00  0.00     0.020 C 
HETATM   25  C8  UNL     1      35.455  -0.724  31.585  1.00  0.00     0.020 C 
ENDBRANCH  21  23
ENDBRANCH  20  21
ENDBRANCH  19  20
ENDBRANCH  18  19
ENDBRANCH   1  16
TORSDOF 5
ENDMDL
