MODEL 1
REMARK VINA RESULT: -9.775000535      0.000      0.000
REMARK  4 active torsions:
REMARK  status: ('A' for Active; 'I' for Inactive)
REMARK    1  A    between atoms: C2_2  and  C3_3 
REMARK    2  A    between atoms: C3_3  and  S1_4 
REMARK    3  A    between atoms: S1_4  and  C4_5 
REMARK    4  A    between atoms: C17_18  and  C18_19 
ROOT
HETATM    1  C4  UNL     1      28.867   1.918  32.308  1.00  0.00     0.052 C 
HETATM    2  C5  UNL     1      29.044   2.514  30.926  1.00  0.00     0.016 C 
HETATM    3  C6  UNL     1      29.975   1.539  30.182  1.00  0.00     0.009 C 
HETATM    4  C7  UNL     1      30.255   0.473  31.177  1.00  0.00     0.031 C 
HETATM    5  C8  UNL     1      30.240   1.295  32.473  1.00  0.00     0.006 C 
HETATM    6  C9  UNL     1      30.389   0.354  33.600  1.00  0.00     0.007 C 
HETATM    7  C10 UNL     1      31.811  -0.161  33.579  1.00  0.00     0.009 C 
HETATM    8  C11 UNL     1      32.466   0.042  32.207  1.00  0.00     0.031 C 
HETATM    9  C12 UNL     1      33.764  -0.666  32.155  1.00  0.00     0.008 C 
HETATM   10  C13 UNL     1      34.914   0.311  32.448  1.00  0.00     0.007 C 
HETATM   11  C14 UNL     1      35.573   0.398  31.085  1.00  0.00     0.006 C 
HETATM   12  C15 UNL     1      35.563  -1.056  30.669  1.00  0.00    -0.003 C 
HETATM   13  C16 UNL     1      36.454  -1.889  31.554  1.00  0.00     0.011 C 
HETATM   14  C17 UNL     1      34.091  -1.407  30.931  1.00  0.00     0.020 C 
HETATM   15  C19 UNL     1      33.312  -1.145  29.715  1.00  0.00     0.020 C 
HETATM   16  C20 UNL     1      32.274  -0.080  29.802  1.00  0.00     0.045 C 
HETATM   17  C21 UNL     1      31.515  -0.269  31.078  1.00  0.00     0.111 C 
HETATM   18  F1  UNL     1      31.235  -1.640  31.180  1.00  0.00    -0.242 F 
ENDROOT
BRANCH   1  19
HETATM   19  S1  UNL     1      28.515   3.101  33.594  1.00  0.00    -0.160 SA
BRANCH  19  20
HETATM   20  C3  UNL     1      28.014   4.717  33.025  1.00  0.00     0.100 C 
BRANCH  20  21
HETATM   21  C2  UNL     1      29.100   5.706  33.055  1.00  0.00    -0.027 C 
HETATM   22  C1  UNL     1      30.332   5.433  32.679  1.00  0.00     0.007 C 
ENDBRANCH  20  21
ENDBRANCH  19  20
ENDBRANCH   1  19
BRANCH  14  23
HETATM   23  C18 UNL     1      34.101  -2.899  31.180  1.00  0.00     0.241 C 
HETATM   24  O1  UNL     1      33.413  -3.419  32.026  1.00  0.00    -0.306 OA
ENDBRANCH  14  23
TORSDOF 4
ENDMDL
MODEL 2
REMARK VINA RESULT: -9.293992250      1.704      2.849
REMARK  4 active torsions:
REMARK  status: ('A' for Active; 'I' for Inactive)
REMARK    1  A    between atoms: C2_2  and  C3_3 
REMARK    2  A    between atoms: C3_3  and  S1_4 
REMARK    3  A    between atoms: S1_4  and  C4_5 
REMARK    4  A    between atoms: C17_18  and  C18_19 
ROOT
HETATM    1  C4  UNL     1      28.933   2.327  33.822  1.00  0.00     0.052 C 
HETATM    2  C5  UNL     1      28.714   1.098  34.681  1.00  0.00     0.016 C 
HETATM    3  C6  UNL     1      30.080   0.390  34.730  1.00  0.00     0.009 C 
HETATM    4  C7  UNL     1      30.966   1.253  33.909  1.00  0.00     0.031 C 
HETATM    5  C8  UNL     1      29.964   1.763  32.864  1.00  0.00     0.006 C 
HETATM    6  C9  UNL     1      30.664   2.748  32.017  1.00  0.00     0.007 C 
HETATM    7  C10 UNL     1      31.650   1.990  31.155  1.00  0.00     0.009 C 
HETATM    8  C11 UNL     1      31.959   0.604  31.734  1.00  0.00     0.031 C 
HETATM    9  C12 UNL     1      33.082  -0.015  30.996  1.00  0.00     0.008 C 
HETATM   10  C13 UNL     1      32.548  -0.978  29.926  1.00  0.00     0.007 C 
HETATM   11  C14 UNL     1      32.963  -2.316  30.507  1.00  0.00     0.006 C 
HETATM   12  C15 UNL     1      34.366  -2.001  30.973  1.00  0.00    -0.003 C 
HETATM   13  C16 UNL     1      35.280  -1.705  29.812  1.00  0.00     0.011 C 
HETATM   14  C17 UNL     1      34.109  -0.717  31.776  1.00  0.00     0.020 C 
HETATM   15  C19 UNL     1      33.820  -1.073  33.170  1.00  0.00     0.020 C 
HETATM   16  C20 UNL     1      32.457  -0.745  33.675  1.00  0.00     0.045 C 
HETATM   17  C21 UNL     1      32.115   0.644  33.234  1.00  0.00     0.111 C 
HETATM   18  F1  UNL     1      33.248   1.433  33.481  1.00  0.00    -0.242 F 
ENDROOT
BRANCH   1  19
HETATM   19  S1  UNL     1      27.481   2.911  32.968  1.00  0.00    -0.160 SA
BRANCH  19  20
HETATM   20  C3  UNL     1      27.478   4.652  32.574  1.00  0.00     0.100 C 
BRANCH  20  21
HETATM   21  C2  UNL     1      28.257   5.462  33.519  1.00  0.00    -0.027 C 
HETATM   22  C1  UNL     1      29.386   6.060  33.197  1.00  0.00     0.007 C 
ENDBRANCH  20  21
ENDBRANCH  19  20
ENDBRANCH   1  19
BRANCH  14  23
HETATM   23  C18 UNL     1      35.428   0.021  31.735  1.00  0.00     0.241 C 
HETATM   24  O1  UNL     1      36.252  -0.074  32.614  1.00  0.00    -0.306 OA
ENDBRANCH  14  23
TORSDOF 4
ENDMDL
MODEL 3
REMARK VINA RESULT: -9.117719430      2.709      6.695
REMARK  4 active torsions:
REMARK  status: ('A' for Active; 'I' for Inactive)
REMARK    1  A    between atoms: C2_2  and  C3_3 
REMARK    2  A    between atoms: C3_3  and  S1_4 
REMARK    3  A    between atoms: S1_4  and  C4_5 
REMARK    4  A    between atoms: C17_18  and  C18_19 
ROOT
HETATM    1  C4  UNL     1      33.135  -1.110  31.420  1.00  0.00     0.052 C 
HETATM    2  C5  UNL     1      33.618  -0.946  32.846  1.00  0.00     0.016 C 
HETATM    3  C6  UNL     1      32.413  -0.377  33.618  1.00  0.00     0.009 C 
HETATM    4  C7  UNL     1      31.347  -0.262  32.592  1.00  0.00     0.031 C 
HETATM    5  C8  UNL     1      32.189   0.073  31.354  1.00  0.00     0.006 C 
HETATM    6  C9  UNL     1      31.281   0.108  30.192  1.00  0.00     0.007 C 
HETATM    7  C10 UNL     1      30.420   1.346  30.322  1.00  0.00     0.009 C 
HETATM    8  C11 UNL     1      30.403   1.873  31.762  1.00  0.00     0.031 C 
HETATM    9  C12 UNL     1      29.386   2.939  31.900  1.00  0.00     0.008 C 
HETATM   10  C13 UNL     1      30.047   4.321  31.784  1.00  0.00     0.007 C 
HETATM   11  C14 UNL     1      29.917   4.825  33.208  1.00  0.00     0.006 C 
HETATM   12  C15 UNL     1      28.500   4.406  33.530  1.00  0.00    -0.003 C 
HETATM   13  C16 UNL     1      27.498   5.155  32.688  1.00  0.00     0.011 C 
HETATM   14  C17 UNL     1      28.544   2.931  33.102  1.00  0.00     0.020 C 
HETATM   15  C19 UNL     1      28.954   2.112  34.249  1.00  0.00     0.020 C 
HETATM   16  C20 UNL     1      30.251   1.389  34.124  1.00  0.00     0.045 C 
HETATM   17  C21 UNL     1      30.305   0.754  32.770  1.00  0.00     0.111 C 
HETATM   18  F1  UNL     1      29.055   0.154  32.557  1.00  0.00    -0.242 F 
ENDROOT
BRANCH   1  19
HETATM   19  S1  UNL     1      34.413  -1.010  30.181  1.00  0.00    -0.160 SA
BRANCH  19  20
HETATM   20  C3  UNL     1      35.984  -0.387  30.755  1.00  0.00     0.100 C 
BRANCH  20  21
HETATM   21  C2  UNL     1      36.031   1.078  30.843  1.00  0.00    -0.027 C 
HETATM   22  C1  UNL     1      37.054   1.792  30.423  1.00  0.00     0.007 C 
ENDBRANCH  20  21
ENDBRANCH  19  20
ENDBRANCH   1  19
BRANCH  14  23
HETATM   23  C18 UNL     1      27.109   2.597  32.764  1.00  0.00     0.241 C 
HETATM   24  O1  UNL     1      26.535   1.646  33.241  1.00  0.00    -0.306 OA
ENDBRANCH  14  23
TORSDOF 4
ENDMDL
MODEL 4
REMARK VINA RESULT: -8.893476797      1.104      1.584
REMARK  4 active torsions:
REMARK  status: ('A' for Active; 'I' for Inactive)
REMARK    1  A    between atoms: C2_2  and  C3_3 
REMARK    2  A    between atoms: C3_3  and  S1_4 
REMARK    3  A    between atoms: S1_4  and  C4_5 
REMARK    4  A    between atoms: C17_18  and  C18_19 
ROOT
HETATM    1  C4  UNL     1      28.555   1.353  32.005  1.00  0.00     0.052 C 
HETATM    2  C5  UNL     1      28.769   2.027  30.665  1.00  0.00     0.016 C 
HETATM    3  C6  UNL     1      29.846   1.185  29.956  1.00  0.00     0.009 C 
HETATM    4  C7  UNL     1      30.161   0.107  30.927  1.00  0.00     0.031 C 
HETATM    5  C8  UNL     1      29.969   0.862  32.250  1.00  0.00     0.006 C 
HETATM    6  C9  UNL     1      30.132  -0.111  33.347  1.00  0.00     0.007 C 
HETATM    7  C10 UNL     1      31.598  -0.481  33.415  1.00  0.00     0.009 C 
HETATM    8  C11 UNL     1      32.325  -0.150  32.105  1.00  0.00     0.031 C 
HETATM    9  C12 UNL     1      33.689  -0.723  32.125  1.00  0.00     0.008 C 
HETATM   10  C13 UNL     1      34.709   0.348  32.542  1.00  0.00     0.007 C 
HETATM   11  C14 UNL     1      35.452   0.564  31.239  1.00  0.00     0.006 C 
HETATM   12  C15 UNL     1      35.621  -0.863  30.767  1.00  0.00    -0.003 C 
HETATM   13  C16 UNL     1      36.526  -1.644  31.684  1.00  0.00     0.011 C 
HETATM   14  C17 UNL     1      34.177  -1.371  30.901  1.00  0.00     0.020 C 
HETATM   15  C19 UNL     1      33.465  -1.130  29.640  1.00  0.00     0.020 C 
HETATM   16  C20 UNL     1      32.320  -0.179  29.690  1.00  0.00     0.045 C 
HETATM   17  C21 UNL     1      31.494  -0.501  30.896  1.00  0.00     0.111 C 
HETATM   18  F1  UNL     1      31.350  -1.896  30.922  1.00  0.00    -0.242 F 
ENDROOT
BRANCH   1  19
HETATM   19  S1  UNL     1      27.992   2.435  33.305  1.00  0.00    -0.160 SA
BRANCH  19  20
HETATM   20  C3  UNL     1      29.262   3.013  34.418  1.00  0.00     0.100 C 
BRANCH  20  21
HETATM   21  C2  UNL     1      29.292   2.284  35.693  1.00  0.00    -0.027 C 
HETATM   22  C1  UNL     1      28.451   1.315  35.989  1.00  0.00     0.007 C 
ENDBRANCH  20  21
ENDBRANCH  19  20
ENDBRANCH   1  19
BRANCH  14  23
HETATM   23  C18 UNL     1      34.321  -2.864  31.091  1.00  0.00     0.241 C 
HETATM   24  O1  UNL     1      33.610  -3.494  31.838  1.00  0.00    -0.306 OA
ENDBRANCH  14  23
TORSDOF 4
ENDMDL
MODEL 5
REMARK VINA RESULT: -8.883211660      1.626      2.332
REMARK  4 active torsions:
REMARK  status: ('A' for Active; 'I' for Inactive)
REMARK    1  A    between atoms: C2_2  and  C3_3 
REMARK    2  A    between atoms: C3_3  and  S1_4 
REMARK    3  A    between atoms: S1_4  and  C4_5 
REMARK    4  A    between atoms: C17_18  and  C18_19 
ROOT
HETATM    1  C4  UNL     1      28.792   2.323  32.897  1.00  0.00     0.052 C 
HETATM    2  C5  UNL     1      28.040   1.013  32.774  1.00  0.00     0.016 C 
HETATM    3  C6  UNL     1      29.112  -0.084  32.912  1.00  0.00     0.009 C 
HETATM    4  C7  UNL     1      30.378   0.669  33.102  1.00  0.00     0.031 C 
HETATM    5  C8  UNL     1      30.096   1.907  32.242  1.00  0.00     0.006 C 
HETATM    6  C9  UNL     1      31.228   2.838  32.413  1.00  0.00     0.007 C 
HETATM    7  C10 UNL     1      32.423   2.238  31.704  1.00  0.00     0.009 C 
HETATM    8  C11 UNL     1      32.247   0.731  31.476  1.00  0.00     0.031 C 
HETATM    9  C12 UNL     1      33.513   0.141  30.988  1.00  0.00     0.008 C 
HETATM   10  C13 UNL     1      33.483   0.011  29.458  1.00  0.00     0.007 C 
HETATM   11  C14 UNL     1      33.402  -1.494  29.296  1.00  0.00     0.006 C 
HETATM   12  C15 UNL     1      34.410  -1.946  30.330  1.00  0.00    -0.003 C 
HETATM   13  C16 UNL     1      35.808  -1.522  29.959  1.00  0.00     0.011 C 
HETATM   14  C17 UNL     1      33.929  -1.149  31.552  1.00  0.00     0.020 C 
HETATM   15  C19 UNL     1      32.945  -1.950  32.289  1.00  0.00     0.020 C 
HETATM   16  C20 UNL     1      31.557  -1.411  32.354  1.00  0.00     0.045 C 
HETATM   17  C21 UNL     1      31.636   0.049  32.676  1.00  0.00     0.111 C 
HETATM   18  F1  UNL     1      32.573   0.182  33.711  1.00  0.00    -0.242 F 
ENDROOT
BRANCH   1  19
HETATM   19  S1  UNL     1      28.036   3.701  32.059  1.00  0.00    -0.160 SA
BRANCH  19  20
HETATM   20  C3  UNL     1      27.478   5.025  33.118  1.00  0.00     0.100 C 
BRANCH  20  21
HETATM   21  C2  UNL     1      28.508   6.040  33.371  1.00  0.00    -0.027 C 
HETATM   22  C1  UNL     1      29.767   5.893  33.014  1.00  0.00     0.007 C 
ENDBRANCH  20  21
ENDBRANCH  19  20
ENDBRANCH   1  19
BRANCH  14  23
HETATM   23  C18 UNL     1      35.164  -0.999  32.411  1.00  0.00     0.241 C 
HETATM   24  O1  UNL     1      35.632   0.079  32.691  1.00  0.00    -0.306 OA
ENDBRANCH  14  23
TORSDOF 4
ENDMDL
