MODEL 1
REMARK VINA RESULT: -9.357525659      0.000      0.000
REMARK  5 active torsions:
REMARK  status: ('A' for Active; 'I' for Inactive)
REMARK    1  A    between atoms: C4_5  and  C6_7 
REMARK    2  A    between atoms: C6_7  and  C7_8 
REMARK    3  A    between atoms: C7_8  and  N2_9 
REMARK    4  A    between atoms: N2_9  and  C8_10 
REMARK    5  A    between atoms: N2_9  and  C14_16 
ROOT
HETATM    1  C7  UNL     1      30.679   1.991  32.438  1.00  0.00     0.275 C 
ENDROOT
BRANCH   1   2
HETATM    2  C6  UNL     1      32.056   1.752  32.058  1.00  0.00     0.041 C 
BRANCH   2   3
HETATM    3  C4  UNL     1      32.277   0.583  31.085  1.00  0.00    -0.018 C 
HETATM    4  C3  UNL     1      33.569   0.991  30.349  1.00  0.00     0.030 C 
HETATM    5  C2  UNL     1      34.781   0.322  30.975  1.00  0.00     0.117 C 
HETATM    6  N1  UNL     1      34.681  -1.058  30.693  1.00  0.00    -0.415 N 
HETATM    7  C1  UNL     1      35.759  -1.904  30.972  1.00  0.00     0.143 C 
HETATM    8  C20 UNL     1      33.366  -1.555  30.755  1.00  0.00     0.142 C 
HETATM    9  C18 UNL     1      32.416  -0.742  31.649  1.00  0.00     0.056 C 
HETATM   10  C19 UNL     1      31.138  -1.582  31.660  1.00  0.00     0.035 C 
HETATM   11 CL1  UNL     1      33.119  -0.842  33.268  1.00  0.00    -0.117 Cl
HETATM   12  C5  UNL     1      31.221   0.635  30.001  1.00  0.00     0.017 C 
ENDBRANCH   2   3
ENDBRANCH   1   2
BRANCH   1  13
HETATM   13  N2  UNL     1      30.242   2.349  33.749  1.00  0.00     0.101 N 
BRANCH  13  14
HETATM   14  C8  UNL     1      29.630   3.632  33.515  1.00  0.00     0.224 C 
HETATM   15  C9  UNL     1      30.129   4.674  32.688  1.00  0.00     0.036 C 
HETATM   16  C10 UNL     1      29.452   6.006  33.164  1.00  0.00     0.002 C 
HETATM   17  C11 UNL     1      28.004   5.818  33.445  1.00  0.00     0.000 C 
HETATM   18  C12 UNL     1      27.562   4.698  32.523  1.00  0.00     0.002 C 
HETATM   19  C13 UNL     1      28.195   3.382  32.962  1.00  0.00     0.036 C 
ENDBRANCH  13  14
BRANCH  13  20
HETATM   20  C14 UNL     1      29.562   1.398  34.524  1.00  0.00     0.149 C 
HETATM   21  C15 UNL     1      30.421   0.277  35.070  1.00  0.00     0.048 C 
HETATM   22  C16 UNL     1      29.083   2.059  35.805  1.00  0.00     0.048 C 
HETATM   23  C17 UNL     1      28.397   0.699  33.872  1.00  0.00     0.048 C 
ENDBRANCH  13  20
ENDBRANCH   1  13
TORSDOF 5
ENDMDL
MODEL 2
REMARK VINA RESULT: -9.193403657      1.960      3.337
REMARK  5 active torsions:
REMARK  status: ('A' for Active; 'I' for Inactive)
REMARK    1  A    between atoms: C4_5  and  C6_7 
REMARK    2  A    between atoms: C6_7  and  C7_8 
REMARK    3  A    between atoms: C7_8  and  N2_9 
REMARK    4  A    between atoms: N2_9  and  C8_10 
REMARK    5  A    between atoms: N2_9  and  C14_16 
ROOT
HETATM    1  C7  UNL     1      30.780   2.639  30.893  1.00  0.00     0.275 C 
ENDROOT
BRANCH   1   2
HETATM    2  C6  UNL     1      31.599   1.544  30.412  1.00  0.00     0.041 C 
BRANCH   2   3
HETATM    3  C4  UNL     1      32.480   0.866  31.473  1.00  0.00    -0.018 C 
HETATM    4  C3  UNL     1      31.514  -0.145  32.122  1.00  0.00     0.030 C 
HETATM    5  C2  UNL     1      31.687  -1.526  31.511  1.00  0.00     0.117 C 
HETATM    6  N1  UNL     1      32.954  -1.999  31.913  1.00  0.00    -0.415 N 
HETATM    7  C1  UNL     1      33.311  -3.328  31.668  1.00  0.00     0.143 C 
HETATM    8  C20 UNL     1      33.948  -1.002  31.943  1.00  0.00     0.142 C 
HETATM    9  C18 UNL     1      33.679   0.197  31.019  1.00  0.00     0.056 C 
HETATM   10  C19 UNL     1      34.965   1.019  31.128  1.00  0.00     0.035 C 
HETATM   11 CL1  UNL     1      33.635  -0.487  29.390  1.00  0.00    -0.117 Cl
HETATM   12  C5  UNL     1      32.761   1.852  32.586  1.00  0.00     0.017 C 
ENDBRANCH   2   3
ENDBRANCH   1   2
BRANCH   1  13
HETATM   13  N2  UNL     1      29.365   2.586  31.071  1.00  0.00     0.101 N 
BRANCH  13  14
HETATM   14  C8  UNL     1      29.143   3.671  31.992  1.00  0.00     0.224 C 
HETATM   15  C9  UNL     1      28.963   3.568  33.399  1.00  0.00     0.036 C 
HETATM   16  C10 UNL     1      28.236   4.876  33.868  1.00  0.00     0.002 C 
HETATM   17  C11 UNL     1      28.797   6.085  33.208  1.00  0.00     0.000 C 
HETATM   18  C12 UNL     1      30.247   5.746  32.925  1.00  0.00     0.002 C 
HETATM   19  C13 UNL     1      30.329   4.670  31.847  1.00  0.00     0.036 C 
ENDBRANCH  13  14
BRANCH  13  20
HETATM   20  C14 UNL     1      28.539   2.468  29.943  1.00  0.00     0.149 C 
HETATM   21  C15 UNL     1      27.902   1.108  29.748  1.00  0.00     0.048 C 
HETATM   22  C16 UNL     1      27.316   3.347  30.134  1.00  0.00     0.048 C 
HETATM   23  C17 UNL     1      29.165   2.787  28.609  1.00  0.00     0.048 C 
ENDBRANCH  13  20
ENDBRANCH   1  13
TORSDOF 5
ENDMDL
MODEL 3
REMARK VINA RESULT: -9.128440129      1.664      3.362
REMARK  5 active torsions:
REMARK  status: ('A' for Active; 'I' for Inactive)
REMARK    1  A    between atoms: C4_5  and  C6_7 
REMARK    2  A    between atoms: C6_7  and  C7_8 
REMARK    3  A    between atoms: C7_8  and  N2_9 
REMARK    4  A    between atoms: N2_9  and  C8_10 
REMARK    5  A    between atoms: N2_9  and  C14_16 
ROOT
HETATM    1  C7  UNL     1      30.935   1.127  31.599  1.00  0.00     0.275 C 
ENDROOT
BRANCH   1   2
HETATM    2  C6  UNL     1      31.363   0.003  30.791  1.00  0.00     0.041 C 
BRANCH   2   3
HETATM    3  C4  UNL     1      32.774   0.121  30.195  1.00  0.00    -0.018 C 
HETATM    4  C3  UNL     1      33.447   1.160  31.114  1.00  0.00     0.030 C 
HETATM    5  C2  UNL     1      34.271   0.475  32.191  1.00  0.00     0.117 C 
HETATM    6  N1  UNL     1      35.370  -0.132  31.545  1.00  0.00    -0.415 N 
HETATM    7  C1  UNL     1      36.413  -0.670  32.304  1.00  0.00     0.143 C 
HETATM    8  C20 UNL     1      35.053  -0.695  30.295  1.00  0.00     0.142 C 
HETATM    9  C18 UNL     1      33.575  -1.082  30.124  1.00  0.00     0.056 C 
HETATM   10  C19 UNL     1      33.553  -1.800  28.774  1.00  0.00     0.035 C 
HETATM   11 CL1  UNL     1      33.280  -2.303  31.369  1.00  0.00    -0.117 Cl
HETATM   12  C5  UNL     1      32.690   0.830  28.861  1.00  0.00     0.017 C 
ENDBRANCH   2   3
ENDBRANCH   1   2
BRANCH   1  13
HETATM   13  N2  UNL     1      29.605   1.644  31.642  1.00  0.00     0.101 N 
BRANCH  13  14
HETATM   14  C8  UNL     1      29.307   1.574  33.049  1.00  0.00     0.224 C 
HETATM   15  C9  UNL     1      28.523   0.585  33.704  1.00  0.00     0.036 C 
HETATM   16  C10 UNL     1      28.041   1.202  35.063  1.00  0.00     0.002 C 
HETATM   17  C11 UNL     1      29.129   1.955  35.742  1.00  0.00     0.000 C 
HETATM   18  C12 UNL     1      30.413   1.279  35.305  1.00  0.00     0.002 C 
HETATM   19  C13 UNL     1      30.659   1.538  33.821  1.00  0.00     0.036 C 
ENDBRANCH  13  14
BRANCH  13  20
HETATM   20  C14 UNL     1      29.307   2.820  30.938  1.00  0.00     0.149 C 
HETATM   21  C15 UNL     1      28.095   3.580  31.434  1.00  0.00     0.048 C 
HETATM   22  C16 UNL     1      30.414   3.832  31.180  1.00  0.00     0.048 C 
HETATM   23  C17 UNL     1      29.087   2.685  29.453  1.00  0.00     0.048 C 
ENDBRANCH  13  20
ENDBRANCH   1  13
TORSDOF 5
ENDMDL
MODEL 4
REMARK VINA RESULT: -8.929081940      2.104      3.214
REMARK  5 active torsions:
REMARK  status: ('A' for Active; 'I' for Inactive)
REMARK    1  A    between atoms: C4_5  and  C6_7 
REMARK    2  A    between atoms: C6_7  and  C7_8 
REMARK    3  A    between atoms: C7_8  and  N2_9 
REMARK    4  A    between atoms: N2_9  and  C8_10 
REMARK    5  A    between atoms: N2_9  and  C14_16 
ROOT
HETATM    1  C7  UNL     1      30.062   2.291  32.390  1.00  0.00     0.275 C 
ENDROOT
BRANCH   1   2
HETATM    2  C6  UNL     1      31.412   1.793  32.229  1.00  0.00     0.041 C 
BRANCH   2   3
HETATM    3  C4  UNL     1      31.532   0.282  31.979  1.00  0.00    -0.018 C 
HETATM    4  C3  UNL     1      31.280   0.167  30.462  1.00  0.00     0.030 C 
HETATM    5  C2  UNL     1      32.592   0.105  29.700  1.00  0.00     0.117 C 
HETATM    6  N1  UNL     1      33.194  -1.132  30.014  1.00  0.00    -0.415 N 
HETATM    7  C1  UNL     1      34.320  -1.559  29.304  1.00  0.00     0.143 C 
HETATM    8  C20 UNL     1      33.023  -1.522  31.355  1.00  0.00     0.142 C 
HETATM    9  C18 UNL     1      32.779  -0.359  32.332  1.00  0.00     0.056 C 
HETATM   10  C19 UNL     1      32.796  -1.042  33.701  1.00  0.00     0.035 C 
HETATM   11 CL1  UNL     1      34.237   0.635  32.228  1.00  0.00    -0.117 Cl
HETATM   12  C5  UNL     1      30.336  -0.416  32.590  1.00  0.00     0.017 C 
ENDBRANCH   2   3
ENDBRANCH   1   2
BRANCH   1  13
HETATM   13  N2  UNL     1      29.604   3.573  31.957  1.00  0.00     0.101 N 
BRANCH  13  14
HETATM   14  C8  UNL     1      28.820   3.230  30.798  1.00  0.00     0.224 C 
HETATM   15  C9  UNL     1      29.297   3.044  29.473  1.00  0.00     0.036 C 
HETATM   16  C10 UNL     1      28.073   3.228  28.510  1.00  0.00     0.002 C 
HETATM   17  C11 UNL     1      26.854   2.556  29.035  1.00  0.00     0.000 C 
HETATM   18  C12 UNL     1      27.366   1.388  29.854  1.00  0.00     0.002 C 
HETATM   19  C13 UNL     1      28.070   1.899  31.107  1.00  0.00     0.036 C 
ENDBRANCH  13  14
BRANCH  13  20
HETATM   20  C14 UNL     1      29.074   4.463  32.902  1.00  0.00     0.149 C 
HETATM   21  C15 UNL     1      27.618   4.827  32.701  1.00  0.00     0.048 C 
HETATM   22  C16 UNL     1      29.027   3.774  34.255  1.00  0.00     0.048 C 
HETATM   23  C17 UNL     1      29.778   5.787  33.055  1.00  0.00     0.048 C 
ENDBRANCH  13  20
ENDBRANCH   1  13
TORSDOF 5
ENDMDL
MODEL 5
REMARK VINA RESULT: -8.918857279      2.018      3.394
REMARK  5 active torsions:
REMARK  status: ('A' for Active; 'I' for Inactive)
REMARK    1  A    between atoms: C4_5  and  C6_7 
REMARK    2  A    between atoms: C6_7  and  C7_8 
REMARK    3  A    between atoms: C7_8  and  N2_9 
REMARK    4  A    between atoms: N2_9  and  C8_10 
REMARK    5  A    between atoms: N2_9  and  C14_16 
ROOT
HETATM    1  C7  UNL     1      30.125   1.812  30.927  1.00  0.00     0.275 C 
ENDROOT
BRANCH   1   2
HETATM    2  C6  UNL     1      30.553   0.428  30.940  1.00  0.00     0.041 C 
BRANCH   2   3
HETATM    3  C4  UNL     1      31.650   0.089  31.961  1.00  0.00    -0.018 C 
HETATM    4  C3  UNL     1      31.696  -1.451  31.914  1.00  0.00     0.030 C 
HETATM    5  C2  UNL     1      32.805  -1.931  30.993  1.00  0.00     0.117 C 
HETATM    6  N1  UNL     1      34.028  -1.600  31.615  1.00  0.00    -0.415 N 
HETATM    7  C1  UNL     1      35.228  -2.095  31.096  1.00  0.00     0.143 C 
HETATM    8  C20 UNL     1      34.010  -0.356  32.273  1.00  0.00     0.142 C 
HETATM    9  C18 UNL     1      32.969   0.639  31.735  1.00  0.00     0.056 C 
HETATM   10  C19 UNL     1      33.280   1.924  32.504  1.00  0.00     0.035 C 
HETATM   11 CL1  UNL     1      33.433   0.914  30.051  1.00  0.00    -0.117 Cl
HETATM   12  C5  UNL     1      31.139   0.386  33.354  1.00  0.00     0.017 C 
ENDBRANCH   2   3
ENDBRANCH   1   2
BRANCH   1  13
HETATM   13  N2  UNL     1      28.769   2.251  31.017  1.00  0.00     0.101 N 
BRANCH  13  14
HETATM   14  C8  UNL     1      28.888   3.399  31.879  1.00  0.00     0.224 C 
HETATM   15  C9  UNL     1      28.776   3.413  33.296  1.00  0.00     0.036 C 
HETATM   16  C10 UNL     1      28.436   4.885  33.718  1.00  0.00     0.002 C 
HETATM   17  C11 UNL     1      29.243   5.876  32.958  1.00  0.00     0.000 C 
HETATM   18  C12 UNL     1      30.539   5.163  32.626  1.00  0.00     0.002 C 
HETATM   19  C13 UNL     1      30.278   4.051  31.615  1.00  0.00     0.036 C 
ENDBRANCH  13  14
BRANCH  13  20
HETATM   20  C14 UNL     1      28.005   2.352  29.846  1.00  0.00     0.149 C 
HETATM   21  C15 UNL     1      27.141   3.592  29.743  1.00  0.00     0.048 C 
HETATM   22  C16 UNL     1      28.939   2.539  28.663  1.00  0.00     0.048 C 
HETATM   23  C17 UNL     1      27.065   1.211  29.548  1.00  0.00     0.048 C 
ENDBRANCH  13  20
ENDBRANCH   1  13
TORSDOF 5
ENDMDL
