MODEL 1
REMARK VINA RESULT: -7.133235041      0.000      0.000
REMARK  3 active torsions:
REMARK  status: ('A' for Active; 'I' for Inactive)
REMARK    1  A    between atoms: C3_7  and  N3_8 
REMARK    2  A    between atoms: C6_11  and  N4_12 
REMARK       I    between atoms: N4_12  and  C7_14 
REMARK    3  A    between atoms: C7_14  and  C8_16 
ROOT
HETATM    1  N3  UNL     1      12.494   8.287  83.436  1.00  0.00    -0.346 N 
HETATM    2  C4  UNL     1      13.119   7.198  82.701  1.00  0.00     0.128 C 
HETATM    3  C5  UNL     1      13.495   7.735  81.337  1.00  0.00     0.045 C 
HETATM    4  C6  UNL     1      14.507   8.858  81.528  1.00  0.00     0.087 C 
HETATM    5  C11 UNL     1      14.041   9.867  82.557  1.00  0.00     0.045 C 
HETATM    6  C12 UNL     1      12.579   9.603  82.832  1.00  0.00     0.128 C 
ENDROOT
BRANCH   1   7
HETATM    7  C3  UNL     1      11.839   8.066  84.675  1.00  0.00     0.243 A 
HETATM    8  N2  UNL     1      10.547   7.907  84.902  1.00  0.00    -0.263 N 
HETATM    9  N1  UNL     1      10.324   7.721  86.208  1.00  0.00    -0.280 N 
ATOM     10  H2  UNL     1       9.823   7.924  84.183  1.00  0.00     0.190 HD
HETATM   11  C2  UNL     1      11.533   7.770  86.783  1.00  0.00     0.138 A 
ATOM     12  H1  UNL     1       9.426   7.573  86.668  1.00  0.00     0.189 HD
HETATM   13  C1  UNL     1      11.891   7.627  88.209  1.00  0.00     0.099 C 
HETATM   14  O2  UNL     1      12.443   7.981  85.833  1.00  0.00    -0.264 OA
ENDBRANCH   1   7
BRANCH   4  15
HETATM   15  N4  UNL     1      14.732   9.573  80.301  1.00  0.00    -0.356 N 
HETATM   16  C7  UNL     1      15.866  10.396  80.141  1.00  0.00     0.221 C 
HETATM   17  O1  UNL     1      16.714  10.532  81.060  1.00  0.00    -0.273 OA
ATOM     18  H4  UNL     1      14.062   9.485  79.537  1.00  0.00     0.162 HD
BRANCH  16  19
HETATM   19  C8  UNL     1      16.104  11.136  78.877  1.00  0.00     0.070 C 
HETATM   20  C9  UNL     1      14.784  11.848  78.555  1.00  0.00     0.019 C 
HETATM   21  C10 UNL     1      16.402  10.181  77.744  1.00  0.00     0.019 C 
ENDBRANCH  16  19
ENDBRANCH   4  15
TORSDOF 3
ENDMDL
MODEL 2
REMARK VINA RESULT: -6.870266381      1.031      1.128
REMARK  3 active torsions:
REMARK  status: ('A' for Active; 'I' for Inactive)
REMARK    1  A    between atoms: C3_7  and  N3_8 
REMARK    2  A    between atoms: C6_11  and  N4_12 
REMARK       I    between atoms: N4_12  and  C7_14 
REMARK    3  A    between atoms: C7_14  and  C8_16 
ROOT
HETATM    1  N3  UNL     1      12.738   8.261  83.694  1.00  0.00    -0.346 N 
HETATM    2  C4  UNL     1      13.562   7.238  83.069  1.00  0.00     0.128 C 
HETATM    3  C5  UNL     1      13.869   7.705  81.663  1.00  0.00     0.045 C 
HETATM    4  C6  UNL     1      14.662   9.003  81.754  1.00  0.00     0.087 C 
HETATM    5  C11 UNL     1      14.002  10.003  82.680  1.00  0.00     0.045 C 
HETATM    6  C12 UNL     1      12.603   9.510  82.969  1.00  0.00     0.128 C 
ENDROOT
BRANCH   1   7
HETATM    7  C3  UNL     1      12.103   8.041  84.944  1.00  0.00     0.243 A 
HETATM    8  N2  UNL     1      12.622   8.139  86.154  1.00  0.00    -0.263 N 
HETATM    9  N1  UNL     1      11.700   7.851  87.080  1.00  0.00    -0.280 N 
ATOM     10  H2  UNL     1      13.589   8.396  86.355  1.00  0.00     0.190 HD
HETATM   11  C2  UNL     1      10.585   7.572  86.392  1.00  0.00     0.138 A 
ATOM     12  H1  UNL     1      11.819   7.846  88.093  1.00  0.00     0.189 HD
HETATM   13  C1  UNL     1       9.252   7.188  86.900  1.00  0.00     0.099 C 
HETATM   14  O2  UNL     1      10.850   7.693  85.093  1.00  0.00    -0.264 OA
ENDBRANCH   1   7
BRANCH   4  15
HETATM   15  N4  UNL     1      14.786   9.632  80.466  1.00  0.00    -0.356 N 
HETATM   16  C7  UNL     1      15.853  10.511  80.189  1.00  0.00     0.221 C 
HETATM   17  O1  UNL     1      16.728  10.774  81.054  1.00  0.00    -0.273 OA
ATOM     18  H4  UNL     1      14.092   9.439  79.743  1.00  0.00     0.162 HD
BRANCH  16  19
HETATM   19  C8  UNL     1      15.986  11.161  78.862  1.00  0.00     0.070 C 
HETATM   20  C9  UNL     1      14.609  11.760  78.551  1.00  0.00     0.019 C 
HETATM   21  C10 UNL     1      16.299  10.140  77.793  1.00  0.00     0.019 C 
ENDBRANCH  16  19
ENDBRANCH   4  15
TORSDOF 3
ENDMDL
MODEL 3
REMARK VINA RESULT: -6.634653243      1.329      1.596
REMARK  3 active torsions:
REMARK  status: ('A' for Active; 'I' for Inactive)
REMARK    1  A    between atoms: C3_7  and  N3_8 
REMARK    2  A    between atoms: C6_11  and  N4_12 
REMARK       I    between atoms: N4_12  and  C7_14 
REMARK    3  A    between atoms: C7_14  and  C8_16 
ROOT
HETATM    1  N3  UNL     1      13.020   8.535  84.372  1.00  0.00    -0.346 N 
HETATM    2  C4  UNL     1      13.605   7.385  83.699  1.00  0.00     0.128 C 
HETATM    3  C5  UNL     1      13.543   7.653  82.212  1.00  0.00     0.045 C 
HETATM    4  C6  UNL     1      14.383   8.890  81.915  1.00  0.00     0.087 C 
HETATM    5  C11 UNL     1      14.035  10.041  82.835  1.00  0.00     0.045 C 
HETATM    6  C12 UNL     1      12.746   9.693  83.543  1.00  0.00     0.128 C 
ENDROOT
BRANCH   1   7
HETATM    7  C3  UNL     1      12.735   8.516  85.761  1.00  0.00     0.243 A 
HETATM    8  N2  UNL     1      13.004   9.441  86.665  1.00  0.00    -0.263 N 
HETATM    9  N1  UNL     1      12.576   9.051  87.871  1.00  0.00    -0.280 N 
ATOM     10  H2  UNL     1      13.472  10.327  86.471  1.00  0.00     0.190 HD
HETATM   11  C2  UNL     1      12.029   7.844  87.677  1.00  0.00     0.138 A 
ATOM     12  H1  UNL     1      12.650   9.562  88.750  1.00  0.00     0.189 HD
HETATM   13  C1  UNL     1      11.396   6.941  88.662  1.00  0.00     0.099 C 
HETATM   14  O2  UNL     1      12.135   7.535  86.387  1.00  0.00    -0.264 OA
ENDBRANCH   1   7
BRANCH   4  15
HETATM   15  N4  UNL     1      14.181   9.346  80.566  1.00  0.00    -0.356 N 
HETATM   16  C7  UNL     1      15.234   9.939  79.838  1.00  0.00     0.221 C 
HETATM   17  O1  UNL     1      16.378  10.089  80.342  1.00  0.00    -0.273 OA
ATOM     18  H4  UNL     1      13.265   9.240  80.129  1.00  0.00     0.162 HD
BRANCH  16  19
HETATM   19  C8  UNL     1      15.032  10.411  78.446  1.00  0.00     0.070 C 
HETATM   20  C9  UNL     1      16.391  10.259  77.751  1.00  0.00     0.019 C 
HETATM   21  C10 UNL     1      14.664  11.877  78.425  1.00  0.00     0.019 C 
ENDBRANCH  16  19
ENDBRANCH   4  15
TORSDOF 3
ENDMDL
MODEL 4
REMARK VINA RESULT: -6.555343277      3.664      7.403
REMARK  3 active torsions:
REMARK  status: ('A' for Active; 'I' for Inactive)
REMARK    1  A    between atoms: C3_7  and  N3_8 
REMARK    2  A    between atoms: C6_11  and  N4_12 
REMARK       I    between atoms: N4_12  and  C7_14 
REMARK    3  A    between atoms: C7_14  and  C8_16 
ROOT
HETATM    1  N3  UNL     1      14.522   7.773  81.369  1.00  0.00    -0.346 N 
HETATM    2  C4  UNL     1      15.272   6.858  82.216  1.00  0.00     0.128 C 
HETATM    3  C5  UNL     1      14.338   5.729  82.595  1.00  0.00     0.045 C 
HETATM    4  C6  UNL     1      13.922   5.006  81.320  1.00  0.00     0.087 C 
HETATM    5  C11 UNL     1      13.436   5.970  80.259  1.00  0.00     0.045 C 
HETATM    6  C12 UNL     1      13.222   7.313  80.919  1.00  0.00     0.128 C 
ENDROOT
BRANCH   1   7
HETATM    7  C3  UNL     1      15.040   9.044  81.008  1.00  0.00     0.243 A 
HETATM    8  N2  UNL     1      15.862   9.818  81.693  1.00  0.00    -0.263 N 
HETATM    9  N1  UNL     1      16.117  10.941  81.013  1.00  0.00    -0.280 N 
ATOM     10  H2  UNL     1      16.247   9.591  82.611  1.00  0.00     0.190 HD
HETATM   11  C2  UNL     1      15.419  10.832  79.876  1.00  0.00     0.138 A 
ATOM     12  H1  UNL     1      16.716  11.716  81.299  1.00  0.00     0.189 HD
HETATM   13  C1  UNL     1      15.325  11.781  78.747  1.00  0.00     0.099 C 
HETATM   14  O2  UNL     1      14.769   9.669  79.891  1.00  0.00    -0.264 OA
ENDBRANCH   1   7
BRANCH   4  15
HETATM   15  N4  UNL     1      12.855   4.075  81.572  1.00  0.00    -0.356 N 
HETATM   16  C7  UNL     1      13.129   2.729  81.891  1.00  0.00     0.221 C 
HETATM   17  O1  UNL     1      14.309   2.299  81.964  1.00  0.00    -0.273 OA
ATOM     18  H4  UNL     1      11.887   4.393  81.519  1.00  0.00     0.162 HD
BRANCH  16  19
HETATM   19  C8  UNL     1      12.032   1.765  82.152  1.00  0.00     0.070 C 
HETATM   20  C9  UNL     1      10.978   2.538  82.954  1.00  0.00     0.019 C 
HETATM   21  C10 UNL     1      12.517   0.620  83.010  1.00  0.00     0.019 C 
ENDBRANCH  16  19
ENDBRANCH   4  15
TORSDOF 3
ENDMDL
MODEL 5
REMARK VINA RESULT: -6.540689531      3.153      3.614
REMARK  3 active torsions:
REMARK  status: ('A' for Active; 'I' for Inactive)
REMARK    1  A    between atoms: C3_7  and  N3_8 
REMARK    2  A    between atoms: C6_11  and  N4_12 
REMARK       I    between atoms: N4_12  and  C7_14 
REMARK    3  A    between atoms: C7_14  and  C8_16 
ROOT
HETATM    1  N3  UNL     1      13.730   5.988  81.997  1.00  0.00    -0.346 N 
HETATM    2  C4  UNL     1      14.867   6.669  82.596  1.00  0.00     0.128 C 
HETATM    3  C5  UNL     1      15.412   7.629  81.562  1.00  0.00     0.045 C 
HETATM    4  C6  UNL     1      14.327   8.651  81.241  1.00  0.00     0.087 C 
HETATM    5  C11 UNL     1      13.002   7.986  80.929  1.00  0.00     0.045 C 
HETATM    6  C12 UNL     1      13.263   6.511  80.727  1.00  0.00     0.128 C 
ENDROOT
BRANCH   1   7
HETATM    7  C3  UNL     1      13.117   4.873  82.625  1.00  0.00     0.243 A 
HETATM    8  N2  UNL     1      13.078   4.577  83.912  1.00  0.00    -0.263 N 
HETATM    9  N1  UNL     1      12.403   3.438  84.107  1.00  0.00    -0.280 N 
ATOM     10  H2  UNL     1      13.503   5.137  84.652  1.00  0.00     0.190 HD
HETATM   11  C2  UNL     1      12.023   3.040  82.886  1.00  0.00     0.138 A 
ATOM     12  H1  UNL     1      12.217   2.973  84.995  1.00  0.00     0.189 HD
HETATM   13  C1  UNL     1      11.247   1.844  82.498  1.00  0.00     0.099 C 
HETATM   14  O2  UNL     1      12.467   3.927  81.997  1.00  0.00    -0.264 OA
ENDBRANCH   1   7
BRANCH   4  15
HETATM   15  N4  UNL     1      14.682   9.449  80.099  1.00  0.00    -0.356 N 
HETATM   16  C7  UNL     1      15.777  10.338  80.150  1.00  0.00     0.221 C 
HETATM   17  O1  UNL     1      16.474  10.461  81.190  1.00  0.00    -0.273 OA
ATOM     18  H4  UNL     1      14.136   9.373  79.241  1.00  0.00     0.162 HD
BRANCH  16  19
HETATM   19  C8  UNL     1      16.149  11.164  78.975  1.00  0.00     0.070 C 
HETATM   20  C9  UNL     1      14.881  11.935  78.588  1.00  0.00     0.019 C 
HETATM   21  C10 UNL     1      16.533  10.288  77.804  1.00  0.00     0.019 C 
ENDBRANCH  16  19
ENDBRANCH   4  15
TORSDOF 3
ENDMDL
