MODEL 1
REMARK VINA RESULT: -5.868089138      0.000      0.000
REMARK  5 active torsions:
REMARK  status: ('A' for Active; 'I' for Inactive)
REMARK    1  A    between atoms: N1_1  and  C1_5 
REMARK    2  A    between atoms: C4_8  and  N2_9 
REMARK    3  A    between atoms: N2_9  and  C5_11 
REMARK    4  A    between atoms: C7_14  and  N3_15 
REMARK    5  A    between atoms: N3_15  and  C8_17 
ROOT
HETATM    1  C1  UNL     1     -21.541  15.413  -6.272  1.00  0.00     0.206 C 
HETATM    2  C2  UNL     1     -20.225  14.702  -6.085  1.00  0.00     0.037 C 
HETATM    3  C3  UNL     1     -19.909  14.362  -4.687  1.00  0.00     0.027 C 
HETATM    4  C4  UNL     1     -20.264  15.378  -3.657  1.00  0.00     0.085 C 
HETATM    5  C6  UNL     1     -21.357  16.305  -3.986  1.00  0.00     0.052 C 
HETATM    6  C7  UNL     1     -21.579  16.659  -5.402  1.00  0.00     0.116 C 
ENDROOT
BRANCH   1   7
HETATM    7  N1  UNL     1     -21.590  15.880  -7.646  1.00  0.00    -0.073 N 
ATOM      8  H13 UNL     1     -21.017  16.709  -7.806  1.00  0.00     0.274 HD
ATOM      9  H12 UNL     1     -21.108  15.259  -8.297  1.00  0.00     0.274 HD
ATOM     10  H11 UNL     1     -22.572  16.022  -7.885  1.00  0.00     0.274 HD
ENDBRANCH   1   7
BRANCH   6  11
HETATM   11  N3  UNL     1     -20.736  17.697  -5.925  1.00  0.00    -0.361 N 
ATOM     12  H3  UNL     1     -19.907  17.430  -6.457  1.00  0.00     0.162 HD
BRANCH  11  13
HETATM   13  C8  UNL     1     -21.007  19.095  -5.731  1.00  0.00     0.348 C 
HETATM   14  O2  UNL     1     -22.173  19.456  -5.406  1.00  0.00    -0.284 OA
ENDBRANCH  11  13
ENDBRANCH   6  11
BRANCH   4  15
HETATM   15  N2  UNL     1     -19.090  16.129  -3.260  1.00  0.00    -0.364 N 
ATOM     16  H2  UNL     1     -19.092  16.593  -2.351  1.00  0.00     0.162 HD
BRANCH  15  17
HETATM   17  C5  UNL     1     -17.940  16.245  -4.077  1.00  0.00     0.348 C 
HETATM   18  O1  UNL     1     -17.845  17.097  -5.000  1.00  0.00    -0.284 OA
ENDBRANCH  15  17
ENDBRANCH   4  15
TORSDOF 5
ENDMDL
MODEL 2
REMARK VINA RESULT: -5.736412436      2.178      3.341
REMARK  5 active torsions:
REMARK  status: ('A' for Active; 'I' for Inactive)
REMARK    1  A    between atoms: N1_1  and  C1_5 
REMARK    2  A    between atoms: C4_8  and  N2_9 
REMARK    3  A    between atoms: N2_9  and  C5_11 
REMARK    4  A    between atoms: C7_14  and  N3_15 
REMARK    5  A    between atoms: N3_15  and  C8_17 
ROOT
HETATM    1  C1  UNL     1     -19.949  15.588  -3.742  1.00  0.00     0.206 C 
HETATM    2  C2  UNL     1     -19.645  14.246  -4.355  1.00  0.00     0.037 C 
HETATM    3  C3  UNL     1     -18.742  14.296  -5.518  1.00  0.00     0.027 C 
HETATM    4  C4  UNL     1     -18.940  15.428  -6.466  1.00  0.00     0.085 C 
HETATM    5  C6  UNL     1     -19.554  16.650  -5.926  1.00  0.00     0.052 C 
HETATM    6  C7  UNL     1     -20.504  16.524  -4.803  1.00  0.00     0.116 C 
ENDROOT
BRANCH   1   7
HETATM    7  N1  UNL     1     -21.018  15.393  -2.778  1.00  0.00    -0.073 N 
ATOM      8  H13 UNL     1     -21.523  16.253  -2.564  1.00  0.00     0.274 HD
ATOM      9  H12 UNL     1     -21.806  14.868  -3.158  1.00  0.00     0.274 HD
ATOM     10  H11 UNL     1     -20.609  14.955  -1.953  1.00  0.00     0.274 HD
ENDBRANCH   1   7
BRANCH   6  11
HETATM   11  N3  UNL     1     -21.851  16.179  -5.162  1.00  0.00    -0.361 N 
ATOM     12  H3  UNL     1     -22.056  15.213  -5.415  1.00  0.00     0.162 HD
BRANCH  11  13
HETATM   13  C8  UNL     1     -22.923  17.137  -5.180  1.00  0.00     0.348 C 
HETATM   14  O2  UNL     1     -22.648  18.369  -5.169  1.00  0.00    -0.284 OA
ENDBRANCH  11  13
ENDBRANCH   6  11
BRANCH   4  15
HETATM   15  N2  UNL     1     -19.675  14.987  -7.634  1.00  0.00    -0.364 N 
ATOM     16  H2  UNL     1     -19.549  14.027  -7.957  1.00  0.00     0.162 HD
BRANCH  15  17
HETATM   17  C5  UNL     1     -20.560  15.830  -8.348  1.00  0.00     0.348 C 
HETATM   18  O1  UNL     1     -21.811  15.705  -8.293  1.00  0.00    -0.284 OA
ENDBRANCH  15  17
ENDBRANCH   4  15
TORSDOF 5
ENDMDL
MODEL 3
REMARK VINA RESULT: -5.664406238      1.607      3.626
REMARK  5 active torsions:
REMARK  status: ('A' for Active; 'I' for Inactive)
REMARK    1  A    between atoms: N1_1  and  C1_5 
REMARK    2  A    between atoms: C4_8  and  N2_9 
REMARK    3  A    between atoms: N2_9  and  C5_11 
REMARK    4  A    between atoms: C7_14  and  N3_15 
REMARK    5  A    between atoms: N3_15  and  C8_17 
ROOT
HETATM    1  C1  UNL     1     -18.363  15.680  -3.812  1.00  0.00     0.206 C 
HETATM    2  C2  UNL     1     -19.764  15.782  -3.266  1.00  0.00     0.037 C 
HETATM    3  C3  UNL     1     -20.795  15.159  -4.113  1.00  0.00     0.027 C 
HETATM    4  C4  UNL     1     -20.644  15.334  -5.585  1.00  0.00     0.085 C 
HETATM    5  C6  UNL     1     -19.284  15.568  -6.091  1.00  0.00     0.052 C 
HETATM    6  C7  UNL     1     -18.315  16.260  -5.216  1.00  0.00     0.116 C 
ENDROOT
BRANCH   1   7
HETATM    7  N1  UNL     1     -17.516  16.533  -2.996  1.00  0.00    -0.073 N 
ATOM      8  H13 UNL     1     -17.740  16.483  -2.002  1.00  0.00     0.274 HD
ATOM      9  H12 UNL     1     -16.554  16.197  -2.932  1.00  0.00     0.274 HD
ATOM     10  H11 UNL     1     -17.583  17.479  -3.373  1.00  0.00     0.274 HD
ENDBRANCH   1   7
BRANCH   6  11
HETATM   11  N3  UNL     1     -18.400  17.692  -5.202  1.00  0.00    -0.361 N 
ATOM     12  H3  UNL     1     -18.255  18.181  -4.319  1.00  0.00     0.162 HD
BRANCH  11  13
HETATM   13  C8  UNL     1     -18.682  18.469  -6.379  1.00  0.00     0.348 C 
HETATM   14  O2  UNL     1     -19.811  19.022  -6.495  1.00  0.00    -0.284 OA
ENDBRANCH  11  13
ENDBRANCH   6  11
BRANCH   4  15
HETATM   15  N2  UNL     1     -21.530  16.376  -6.065  1.00  0.00    -0.364 N 
ATOM     16  H2  UNL     1     -21.402  16.724  -7.016  1.00  0.00     0.162 HD
BRANCH  15  17
HETATM   17  C5  UNL     1     -22.564  16.930  -5.274  1.00  0.00     0.348 C 
HETATM   18  O1  UNL     1     -22.696  18.170  -5.099  1.00  0.00    -0.284 OA
ENDBRANCH  15  17
ENDBRANCH   4  15
TORSDOF 5
ENDMDL
MODEL 4
REMARK VINA RESULT: -5.659702741      2.076      3.715
REMARK  5 active torsions:
REMARK  status: ('A' for Active; 'I' for Inactive)
REMARK    1  A    between atoms: N1_1  and  C1_5 
REMARK    2  A    between atoms: C4_8  and  N2_9 
REMARK    3  A    between atoms: N2_9  and  C5_11 
REMARK    4  A    between atoms: C7_14  and  N3_15 
REMARK    5  A    between atoms: N3_15  and  C8_17 
ROOT
HETATM    1  C1  UNL     1     -18.756  14.493  -6.599  1.00  0.00     0.206 C 
HETATM    2  C2  UNL     1     -19.818  15.194  -7.407  1.00  0.00     0.037 C 
HETATM    3  C3  UNL     1     -19.716  16.663  -7.404  1.00  0.00     0.027 C 
HETATM    4  C4  UNL     1     -19.340  17.302  -6.112  1.00  0.00     0.085 C 
HETATM    5  C6  UNL     1     -18.567  16.483  -5.165  1.00  0.00     0.052 C 
HETATM    6  C7  UNL     1     -18.765  15.020  -5.173  1.00  0.00     0.116 C 
ENDROOT
BRANCH   1   7
HETATM    7  N1  UNL     1     -19.132  13.092  -6.512  1.00  0.00    -0.073 N 
ATOM      8  H13 UNL     1     -19.858  12.917  -5.818  1.00  0.00     0.274 HD
ATOM      9  H12 UNL     1     -19.648  12.766  -7.329  1.00  0.00     0.274 HD
ATOM     10  H11 UNL     1     -18.279  12.558  -6.341  1.00  0.00     0.274 HD
ENDBRANCH   1   7
BRANCH   6  11
HETATM   11  N3  UNL     1     -19.900  14.541  -4.437  1.00  0.00    -0.361 N 
ATOM     12  H3  UNL     1     -20.488  13.822  -4.860  1.00  0.00     0.162 HD
BRANCH  11  13
HETATM   13  C8  UNL     1     -20.246  15.029  -3.130  1.00  0.00     0.348 C 
HETATM   14  O2  UNL     1     -21.082  15.970  -3.027  1.00  0.00    -0.284 OA
ENDBRANCH  11  13
ENDBRANCH   6  11
BRANCH   4  15
HETATM   15  N2  UNL     1     -20.512  17.838  -5.450  1.00  0.00    -0.364 N 
ATOM     16  H2  UNL     1     -21.021  17.239  -4.799  1.00  0.00     0.162 HD
BRANCH  15  17
HETATM   17  C5  UNL     1     -20.981  19.155  -5.667  1.00  0.00     0.348 C 
HETATM   18  O1  UNL     1     -22.159  19.511  -5.399  1.00  0.00    -0.284 OA
ENDBRANCH  15  17
ENDBRANCH   4  15
TORSDOF 5
ENDMDL
MODEL 5
REMARK VINA RESULT: -5.650030652      1.789      3.346
REMARK  5 active torsions:
REMARK  status: ('A' for Active; 'I' for Inactive)
REMARK    1  A    between atoms: N1_1  and  C1_5 
REMARK    2  A    between atoms: C4_8  and  N2_9 
REMARK    3  A    between atoms: N2_9  and  C5_11 
REMARK    4  A    between atoms: C7_14  and  N3_15 
REMARK    5  A    between atoms: N3_15  and  C8_17 
ROOT
HETATM    1  C1  UNL     1     -18.755  16.062  -5.349  1.00  0.00     0.206 C 
HETATM    2  C2  UNL     1     -19.853  15.368  -4.585  1.00  0.00     0.037 C 
HETATM    3  C3  UNL     1     -20.866  14.714  -5.430  1.00  0.00     0.027 C 
HETATM    4  C4  UNL     1     -21.277  15.444  -6.662  1.00  0.00     0.085 C 
HETATM    5  C6  UNL     1     -20.305  16.389  -7.232  1.00  0.00     0.052 C 
HETATM    6  C7  UNL     1     -19.359  17.063  -6.320  1.00  0.00     0.116 C 
ENDROOT
BRANCH   1   7
HETATM    7  N1  UNL     1     -17.987  16.842  -4.394  1.00  0.00    -0.073 N 
ATOM      8  H13 UNL     1     -17.768  17.779  -4.731  1.00  0.00     0.274 HD
ATOM      9  H12 UNL     1     -18.530  17.118  -3.576  1.00  0.00     0.274 HD
ATOM     10  H11 UNL     1     -17.156  16.299  -4.156  1.00  0.00     0.274 HD
ENDBRANCH   1   7
BRANCH   6  11
HETATM   11  N3  UNL     1     -19.867  18.221  -5.641  1.00  0.00    -0.361 N 
ATOM     12  H3  UNL     1     -20.140  18.132  -4.662  1.00  0.00     0.162 HD
BRANCH  11  13
HETATM   13  C8  UNL     1     -20.010  19.501  -6.280  1.00  0.00     0.348 C 
HETATM   14  O2  UNL     1     -20.934  20.276  -5.905  1.00  0.00    -0.284 OA
ENDBRANCH  11  13
ENDBRANCH   6  11
BRANCH   4  15
HETATM   15  N2  UNL     1     -22.545  16.114  -6.455  1.00  0.00    -0.364 N 
ATOM     16  H2  UNL     1     -23.208  16.155  -7.230  1.00  0.00     0.162 HD
BRANCH  15  17
HETATM   17  C5  UNL     1     -22.904  16.715  -5.225  1.00  0.00     0.348 C 
HETATM   18  O1  UNL     1     -22.927  17.963  -5.059  1.00  0.00    -0.284 OA
ENDBRANCH  15  17
ENDBRANCH   4  15
TORSDOF 5
ENDMDL
