MODEL 1
REMARK VINA RESULT: -7.975504962      0.000      0.000
REMARK  5 active torsions:
REMARK  status: ('A' for Active; 'I' for Inactive)
REMARK    1  A    between atoms: C4_8  and  N3_9 
REMARK    2  A    between atoms: N3_9  and  C5_11 
REMARK    3  A    between atoms: C5_11  and  C6_12 
REMARK    4  A    between atoms: C10_17  and  N4_18 
REMARK    5  A    between atoms: N4_18  and  C11_20 
ROOT
HETATM    1  O1  UNL     1       0.586   6.951  12.479  1.00  0.00    -0.268 OA
HETATM    2  C1  UNL     1      -0.569   6.652  12.863  1.00  0.00     0.260 A 
HETATM    3  C2  UNL     1      -1.491   7.665  13.141  1.00  0.00     0.095 A 
HETATM    4  C3  UNL     1      -2.765   7.363  13.564  1.00  0.00     0.140 A 
HETATM    5  N1  UNL     1      -3.095   6.071  13.703  1.00  0.00    -0.096 N 
HETATM    6  N2  UNL     1      -4.321   5.728  14.112  1.00  0.00    -0.262 N 
ATOM      7  H2  UNL     1      -4.988   6.473  14.313  1.00  0.00     0.190 HD
HETATM    8  C4  UNL     1      -4.720   4.462  14.272  1.00  0.00     0.162 A 
HETATM    9  C10 UNL     1      -3.821   3.456  14.002  1.00  0.00     0.167 A 
HETATM   10  N5  UNL     1      -2.588   3.757  13.592  1.00  0.00    -0.171 N 
ATOM     11  H5  UNL     1      -1.917   3.016  13.389  1.00  0.00     0.186 HD
HETATM   12  C17 UNL     1      -2.240   5.054  13.448  1.00  0.00     0.707 A 
HETATM   13  N6  UNL     1      -0.992   5.393  13.032  1.00  0.00    -0.154 N 
ATOM     14  H6  UNL     1      -0.334   4.638  12.835  1.00  0.00     0.187 HD
ENDROOT
BRANCH   8  15
HETATM   15  N3  UNL     1      -5.890   4.122  14.662  1.00  0.00    -0.366 N 
ATOM     16  H3  UNL     1      -6.550   3.816  13.948  1.00  0.00     0.161 HD
BRANCH  15  17
HETATM   17  C5  UNL     1      -6.346   4.134  16.015  1.00  0.00     0.186 C 
BRANCH  17  18
HETATM   18  C6  UNL     1      -6.340   2.760  16.546  1.00  0.00     0.070 A 
HETATM   19  C7  UNL     1      -7.438   1.970  16.761  1.00  0.00     0.036 A 
HETATM   20  C8  UNL     1      -6.984   0.754  17.267  1.00  0.00     0.027 A 
HETATM   21  C9  UNL     1      -5.620   0.878  17.330  1.00  0.00     0.142 A 
HETATM   22  O2  UNL     1      -5.291   2.071  16.897  1.00  0.00    -0.325 OA
ENDBRANCH  17  18
ENDBRANCH  15  17
ENDBRANCH   8  15
BRANCH   9  23
HETATM   23  N4  UNL     1      -4.179   2.213  14.149  1.00  0.00    -0.339 N 
ATOM     24  H4  UNL     1      -4.316   1.819  15.080  1.00  0.00     0.167 HD
BRANCH  23  25
HETATM   25  C11 UNL     1      -4.376   1.416  12.993  1.00  0.00     0.033 A 
HETATM   26  C12 UNL     1      -4.866   1.937  11.798  1.00  0.00     0.029 A 
HETATM   27  C13 UNL     1      -5.057   1.161  10.676  1.00  0.00     0.002 A 
HETATM   28  C14 UNL     1      -4.751  -0.183  10.735  1.00  0.00     0.000 A 
HETATM   29  C15 UNL     1      -4.260  -0.715  11.924  1.00  0.00     0.002 A 
HETATM   30  C16 UNL     1      -4.073   0.074  13.040  1.00  0.00     0.029 A 
ENDBRANCH  23  25
ENDBRANCH   9  23
TORSDOF 5
ENDMDL
MODEL 2
REMARK VINA RESULT: -7.693172501      1.736      4.170
REMARK  5 active torsions:
REMARK  status: ('A' for Active; 'I' for Inactive)
REMARK    1  A    between atoms: C4_8  and  N3_9 
REMARK    2  A    between atoms: N3_9  and  C5_11 
REMARK    3  A    between atoms: C5_11  and  C6_12 
REMARK    4  A    between atoms: C10_17  and  N4_18 
REMARK    5  A    between atoms: N4_18  and  C11_20 
ROOT
HETATM    1  O1  UNL     1      -1.093   8.972  14.778  1.00  0.00    -0.268 OA
HETATM    2  C1  UNL     1      -1.805   8.113  14.208  1.00  0.00     0.260 A 
HETATM    3  C2  UNL     1      -2.412   8.414  12.985  1.00  0.00     0.095 A 
HETATM    4  C3  UNL     1      -3.198   7.487  12.340  1.00  0.00     0.140 A 
HETATM    5  N1  UNL     1      -3.367   6.289  12.918  1.00  0.00    -0.096 N 
HETATM    6  N2  UNL     1      -4.122   5.356  12.330  1.00  0.00    -0.262 N 
ATOM      7  H2  UNL     1      -4.561   5.584  11.437  1.00  0.00     0.190 HD
HETATM    8  C4  UNL     1      -4.335   4.142  12.847  1.00  0.00     0.162 A 
HETATM    9  C10 UNL     1      -3.743   3.834  14.051  1.00  0.00     0.167 A 
HETATM   10  N5  UNL     1      -2.982   4.737  14.670  1.00  0.00    -0.171 N 
ATOM     11  H5  UNL     1      -2.541   4.515  15.562  1.00  0.00     0.186 HD
HETATM   12  C17 UNL     1      -2.803   5.949  14.101  1.00  0.00     0.707 A 
HETATM   13  N6  UNL     1      -2.034   6.890  14.705  1.00  0.00    -0.154 N 
ATOM     14  H6  UNL     1      -1.601   6.650  15.598  1.00  0.00     0.187 HD
ENDROOT
BRANCH   8  15
HETATM   15  N3  UNL     1      -5.055   3.241  12.293  1.00  0.00    -0.366 N 
ATOM     16  H3  UNL     1      -5.946   3.018  12.735  1.00  0.00     0.161 HD
BRANCH  15  17
HETATM   17  C5  UNL     1      -4.713   2.523  11.108  1.00  0.00     0.186 C 
BRANCH  17  18
HETATM   18  C6  UNL     1      -4.528   1.098  11.435  1.00  0.00     0.070 A 
HETATM   19  C7  UNL     1      -4.775   0.038  10.604  1.00  0.00     0.036 A 
HETATM   20  C8  UNL     1      -4.467  -1.124  11.309  1.00  0.00     0.027 A 
HETATM   21  C9  UNL     1      -4.047  -0.695  12.542  1.00  0.00     0.142 A 
HETATM   22  O2  UNL     1      -4.101   0.615  12.567  1.00  0.00    -0.325 OA
ENDBRANCH  17  18
ENDBRANCH  15  17
ENDBRANCH   8  15
BRANCH   9  23
HETATM   23  N4  UNL     1      -3.931   2.660  14.581  1.00  0.00    -0.339 N 
ATOM     24  H4  UNL     1      -3.410   1.850  14.244  1.00  0.00     0.167 HD
BRANCH  23  25
HETATM   25  C11 UNL     1      -4.871   2.525  15.633  1.00  0.00     0.033 A 
HETATM   26  C12 UNL     1      -5.951   3.392  15.789  1.00  0.00     0.029 A 
HETATM   27  C13 UNL     1      -6.863   3.259  16.812  1.00  0.00     0.002 A 
HETATM   28  C14 UNL     1      -6.706   2.230  17.717  1.00  0.00     0.000 A 
HETATM   29  C15 UNL     1      -5.631   1.358  17.572  1.00  0.00     0.002 A 
HETATM   30  C16 UNL     1      -4.724   1.502  16.542  1.00  0.00     0.029 A 
ENDBRANCH  23  25
ENDBRANCH   9  23
TORSDOF 5
ENDMDL
MODEL 3
REMARK VINA RESULT: -7.593012793      1.370      1.872
REMARK  5 active torsions:
REMARK  status: ('A' for Active; 'I' for Inactive)
REMARK    1  A    between atoms: C4_8  and  N3_9 
REMARK    2  A    between atoms: N3_9  and  C5_11 
REMARK    3  A    between atoms: C5_11  and  C6_12 
REMARK    4  A    between atoms: C10_17  and  N4_18 
REMARK    5  A    between atoms: N4_18  and  C11_20 
ROOT
HETATM    1  O1  UNL     1       0.096   6.629   9.821  1.00  0.00    -0.268 OA
HETATM    2  C1  UNL     1      -0.521   6.237  10.839  1.00  0.00     0.260 A 
HETATM    3  C2  UNL     1      -0.119   6.673  12.105  1.00  0.00     0.095 A 
HETATM    4  C3  UNL     1      -0.780   6.257  13.238  1.00  0.00     0.140 A 
HETATM    5  N1  UNL     1      -1.819   5.422  13.093  1.00  0.00    -0.096 N 
HETATM    6  N2  UNL     1      -2.493   4.991  14.164  1.00  0.00    -0.262 N 
ATOM      7  H2  UNL     1      -2.193   5.313  15.084  1.00  0.00     0.190 HD
HETATM    8  C4  UNL     1      -3.537   4.160  14.096  1.00  0.00     0.162 A 
HETATM    9  C10 UNL     1      -3.943   3.723  12.855  1.00  0.00     0.167 A 
HETATM   10  N5  UNL     1      -3.297   4.131  11.762  1.00  0.00    -0.171 N 
ATOM     11  H5  UNL     1      -3.593   3.812  10.839  1.00  0.00     0.186 HD
HETATM   12  C17 UNL     1      -2.248   4.971  11.891  1.00  0.00     0.707 A 
HETATM   13  N6  UNL     1      -1.569   5.405  10.797  1.00  0.00    -0.154 N 
ATOM     14  H6  UNL     1      -1.879   5.074   9.883  1.00  0.00     0.187 HD
ENDROOT
BRANCH   8  15
HETATM   15  N3  UNL     1      -4.189   3.740  15.113  1.00  0.00    -0.366 N 
ATOM     16  H3  UNL     1      -5.074   4.202  15.325  1.00  0.00     0.161 HD
BRANCH  15  17
HETATM   17  C5  UNL     1      -3.781   2.678  15.975  1.00  0.00     0.186 C 
BRANCH  17  18
HETATM   18  C6  UNL     1      -4.972   1.964  16.469  1.00  0.00     0.070 A 
HETATM   19  C7  UNL     1      -6.265   2.410  16.414  1.00  0.00     0.036 A 
HETATM   20  C8  UNL     1      -7.070   1.429  16.988  1.00  0.00     0.027 A 
HETATM   21  C9  UNL     1      -6.207   0.431  17.363  1.00  0.00     0.142 A 
HETATM   22  O2  UNL     1      -4.989   0.792  17.038  1.00  0.00    -0.325 OA
ENDBRANCH  17  18
ENDBRANCH  15  17
ENDBRANCH   8  15
BRANCH   9  23
HETATM   23  N4  UNL     1      -4.957   2.913  12.755  1.00  0.00    -0.339 N 
ATOM     24  H4  UNL     1      -5.896   3.225  13.002  1.00  0.00     0.167 HD
BRANCH  23  25
HETATM   25  C11 UNL     1      -4.734   1.590  12.297  1.00  0.00     0.033 A 
HETATM   26  C12 UNL     1      -4.173   0.602  13.103  1.00  0.00     0.029 A 
HETATM   27  C13 UNL     1      -3.957  -0.682  12.657  1.00  0.00     0.002 A 
HETATM   28  C14 UNL     1      -4.309  -1.007  11.363  1.00  0.00     0.000 A 
HETATM   29  C15 UNL     1      -4.871  -0.029  10.548  1.00  0.00     0.002 A 
HETATM   30  C16 UNL     1      -5.082   1.255  11.008  1.00  0.00     0.029 A 
ENDBRANCH  23  25
ENDBRANCH   9  23
TORSDOF 5
ENDMDL
MODEL 4
REMARK VINA RESULT: -7.433261628      3.385      7.305
REMARK  5 active torsions:
REMARK  status: ('A' for Active; 'I' for Inactive)
REMARK    1  A    between atoms: C4_8  and  N3_9 
REMARK    2  A    between atoms: N3_9  and  C5_11 
REMARK    3  A    between atoms: C5_11  and  C6_12 
REMARK    4  A    between atoms: C10_17  and  N4_18 
REMARK    5  A    between atoms: N4_18  and  C11_20 
ROOT
HETATM    1  O1  UNL     1      -3.655   1.434  16.567  1.00  0.00    -0.268 OA
HETATM    2  C1  UNL     1      -4.080   2.359  15.835  1.00  0.00     0.260 A 
HETATM    3  C2  UNL     1      -5.452   2.484  15.602  1.00  0.00     0.095 A 
HETATM    4  C3  UNL     1      -5.944   3.491  14.803  1.00  0.00     0.140 A 
HETATM    5  N1  UNL     1      -5.069   4.346  14.254  1.00  0.00    -0.096 N 
HETATM    6  N2  UNL     1      -5.498   5.340  13.469  1.00  0.00    -0.262 N 
ATOM      7  H2  UNL     1      -6.502   5.425  13.305  1.00  0.00     0.190 HD
HETATM    8  C4  UNL     1      -4.686   6.228  12.889  1.00  0.00     0.162 A 
HETATM    9  C10 UNL     1      -3.332   6.115  13.111  1.00  0.00     0.167 A 
HETATM   10  N5  UNL     1      -2.864   5.137  13.887  1.00  0.00    -0.171 N 
ATOM     11  H5  UNL     1      -1.862   5.047  14.056  1.00  0.00     0.186 HD
HETATM   12  C17 UNL     1      -3.732   4.267  14.447  1.00  0.00     0.707 A 
HETATM   13  N6  UNL     1      -3.286   3.260  15.242  1.00  0.00    -0.154 N 
ATOM     14  H6  UNL     1      -2.281   3.186  15.399  1.00  0.00     0.187 HD
ENDROOT
BRANCH   8  15
HETATM   15  N3  UNL     1      -5.084   7.183  12.138  1.00  0.00    -0.366 N 
ATOM     16  H3  UNL     1      -4.373   7.806  11.756  1.00  0.00     0.161 HD
BRANCH  15  17
HETATM   17  C5  UNL     1      -6.443   7.448  11.790  1.00  0.00     0.186 C 
BRANCH  17  18
HETATM   18  C6  UNL     1      -6.598   7.369  10.326  1.00  0.00     0.070 A 
HETATM   19  C7  UNL     1      -7.630   7.887   9.591  1.00  0.00     0.036 A 
HETATM   20  C8  UNL     1      -7.381   7.588   8.253  1.00  0.00     0.027 A 
HETATM   21  C9  UNL     1      -6.197   6.896   8.255  1.00  0.00     0.142 A 
HETATM   22  O2  UNL     1      -5.778   6.794   9.493  1.00  0.00    -0.325 OA
ENDBRANCH  17  18
ENDBRANCH  15  17
ENDBRANCH   8  15
BRANCH   9  23
HETATM   23  N4  UNL     1      -2.514   6.964  12.560  1.00  0.00    -0.339 N 
ATOM     24  H4  UNL     1      -2.157   6.805  11.618  1.00  0.00     0.167 HD
BRANCH  23  25
HETATM   25  C11 UNL     1      -2.127   8.116  13.291  1.00  0.00     0.033 A 
HETATM   26  C12 UNL     1      -1.857   8.080  14.658  1.00  0.00     0.029 A 
HETATM   27  C13 UNL     1      -1.482   9.199  15.366  1.00  0.00     0.002 A 
HETATM   28  C14 UNL     1      -1.368  10.403  14.702  1.00  0.00     0.000 A 
HETATM   29  C15 UNL     1      -1.635  10.451  13.337  1.00  0.00     0.002 A 
HETATM   30  C16 UNL     1      -2.010   9.322  12.638  1.00  0.00     0.029 A 
ENDBRANCH  23  25
ENDBRANCH   9  23
TORSDOF 5
ENDMDL
MODEL 5
REMARK VINA RESULT: -7.352904045      2.584      6.164
REMARK  5 active torsions:
REMARK  status: ('A' for Active; 'I' for Inactive)
REMARK    1  A    between atoms: C4_8  and  N3_9 
REMARK    2  A    between atoms: N3_9  and  C5_11 
REMARK    3  A    between atoms: C5_11  and  C6_12 
REMARK    4  A    between atoms: C10_17  and  N4_18 
REMARK    5  A    between atoms: N4_18  and  C11_20 
ROOT
HETATM    1  O1  UNL     1      -5.914  -0.653  17.531  1.00  0.00    -0.268 OA
HETATM    2  C1  UNL     1      -5.909   0.481  16.999  1.00  0.00     0.260 A 
HETATM    3  C2  UNL     1      -7.039   1.298  17.097  1.00  0.00     0.095 A 
HETATM    4  C3  UNL     1      -7.059   2.548  16.522  1.00  0.00     0.140 A 
HETATM    5  N1  UNL     1      -5.965   2.959  15.865  1.00  0.00    -0.096 N 
HETATM    6  N2  UNL     1      -5.937   4.165  15.289  1.00  0.00    -0.262 N 
ATOM      7  H2  UNL     1      -6.766   4.755  15.366  1.00  0.00     0.190 HD
HETATM    8  C4  UNL     1      -4.883   4.641  14.619  1.00  0.00     0.162 A 
HETATM    9  C10 UNL     1      -3.764   3.846  14.515  1.00  0.00     0.167 A 
HETATM   10  N5  UNL     1      -3.753   2.636  15.075  1.00  0.00    -0.171 N 
ATOM     11  H5  UNL     1      -2.927   2.042  15.002  1.00  0.00     0.186 HD
HETATM   12  C17 UNL     1      -4.847   2.207  15.740  1.00  0.00     0.707 A 
HETATM   13  N6  UNL     1      -4.867   0.980  16.322  1.00  0.00    -0.154 N 
ATOM     14  H6  UNL     1      -4.031   0.400  16.238  1.00  0.00     0.187 HD
ENDROOT
BRANCH   8  15
HETATM   15  N3  UNL     1      -4.844   5.793  14.065  1.00  0.00    -0.366 N 
ATOM     16  H3  UNL     1      -3.967   6.310  14.121  1.00  0.00     0.161 HD
BRANCH  15  17
HETATM   17  C5  UNL     1      -5.928   6.414  13.373  1.00  0.00     0.186 C 
BRANCH  17  18
HETATM   18  C6  UNL     1      -5.479   6.826  12.031  1.00  0.00     0.070 A 
HETATM   19  C7  UNL     1      -4.431   7.659  11.747  1.00  0.00     0.036 A 
HETATM   20  C8  UNL     1      -4.356   7.779  10.361  1.00  0.00     0.027 A 
HETATM   21  C9  UNL     1      -5.378   7.002   9.879  1.00  0.00     0.142 A 
HETATM   22  O2  UNL     1      -6.007   6.464  10.896  1.00  0.00    -0.325 OA
ENDBRANCH  17  18
ENDBRANCH  15  17
ENDBRANCH   8  15
BRANCH   9  23
HETATM   23  N4  UNL     1      -2.721   4.280  13.868  1.00  0.00    -0.339 N 
ATOM     24  H4  UNL     1      -1.889   4.587  14.373  1.00  0.00     0.167 HD
BRANCH  23  25
HETATM   25  C11 UNL     1      -2.761   4.320  12.452  1.00  0.00     0.033 A 
HETATM   26  C12 UNL     1      -3.743   3.667  11.711  1.00  0.00     0.029 A 
HETATM   27  C13 UNL     1      -3.779   3.706  10.335  1.00  0.00     0.002 A 
HETATM   28  C14 UNL     1      -2.809   4.419   9.662  1.00  0.00     0.000 A 
HETATM   29  C15 UNL     1      -1.822   5.076  10.391  1.00  0.00     0.002 A 
HETATM   30  C16 UNL     1      -1.797   5.028  11.770  1.00  0.00     0.029 A 
ENDBRANCH  23  25
ENDBRANCH   9  23
TORSDOF 5
ENDMDL
