MODEL 1
REMARK VINA RESULT: -8.447989469      0.000      0.000
REMARK  4 active torsions:
REMARK  status: ('A' for Active; 'I' for Inactive)
REMARK    1  A    between atoms: N3_17  and  C10_19 
REMARK    2  A    between atoms: C10_19  and  C11_20 
REMARK    3  A    between atoms: C11_20  and  C12_21 
REMARK    4  A    between atoms: C15_24  and  O3_25 
ROOT
HETATM    1  C1  UNL     1      -0.678   3.609  12.100  1.00  0.00     0.147 C 
HETATM    2  N1  UNL     1      -1.865   4.220  12.632  1.00  0.00    -0.378 N 
ATOM      3  H1  UNL     1      -2.076   4.105  13.624  1.00  0.00     0.160 HD
HETATM    4  C2  UNL     1      -2.674   4.908  11.899  1.00  0.00     0.138 A 
HETATM    5  N2  UNL     1      -2.342   5.037  10.545  1.00  0.00    -0.264 N 
ATOM      6  H2  UNL     1      -1.493   4.597  10.189  1.00  0.00     0.180 HD
HETATM    7  S1  UNL     1      -3.342   5.924   9.484  1.00  0.00     0.265 S 
HETATM    8  O1  UNL     1      -3.806   4.970   8.398  1.00  0.00    -0.200 OA
HETATM    9  O2  UNL     1      -2.522   7.026   8.880  1.00  0.00    -0.200 OA
HETATM   10  C3  UNL     1      -4.698   6.548  10.386  1.00  0.00     0.092 A 
HETATM   11  C4  UNL     1      -5.650   7.315   9.691  1.00  0.00     0.026 A 
HETATM   12  C5  UNL     1      -6.727   7.821  10.363  1.00  0.00     0.002 A 
HETATM   13  C6  UNL     1      -6.915   7.606  11.704  1.00  0.00     0.001 A 
HETATM   14  C7  UNL     1      -5.962   6.846  12.361  1.00  0.00     0.015 A 
HETATM   15  C8  UNL     1      -4.838   6.303  11.723  1.00  0.00     0.017 A 
HETATM   16  C9  UNL     1      -3.889   5.510  12.530  1.00  0.00     0.085 A 
HETATM   17  N3  UNL     1      -4.023   5.295  13.732  1.00  0.00    -0.386 N 
ATOM     18  H3  UNL     1      -3.202   4.730  13.948  1.00  0.00     0.159 HD
ENDROOT
BRANCH  17  19
HETATM   19  C10 UNL     1      -4.639   5.383  14.926  1.00  0.00     0.124 C 
BRANCH  19  20
HETATM   20  C11 UNL     1      -6.096   4.834  14.924  1.00  0.00     0.058 C 
BRANCH  20  21
HETATM   21  C12 UNL     1      -6.011   3.493  15.536  1.00  0.00    -0.057 A 
HETATM   22  C13 UNL     1      -6.844   3.136  16.582  1.00  0.00     0.010 A 
HETATM   23  C14 UNL     1      -6.774   1.885  17.163  1.00  0.00     0.037 A 
HETATM   24  C15 UNL     1      -5.870   0.940  16.724  1.00  0.00     0.065 A 
HETATM   25  C16 UNL     1      -5.042   1.301  15.682  1.00  0.00     0.037 A 
HETATM   26  C17 UNL     1      -5.107   2.549  15.096  1.00  0.00     0.010 A 
BRANCH  24  27
HETATM   27  O3  UNL     1      -5.797  -0.320  17.307  1.00  0.00    -0.361 OA
ATOM     28  H3  UNL     1      -5.127  -0.945  17.055  1.00  0.00     0.217 HD
ENDBRANCH  24  27
ENDBRANCH  20  21
ENDBRANCH  19  20
ENDBRANCH  17  19
TORSDOF 4
ENDMDL
MODEL 2
REMARK VINA RESULT: -8.437944599      3.231      6.389
REMARK  4 active torsions:
REMARK  status: ('A' for Active; 'I' for Inactive)
REMARK    1  A    between atoms: N3_17  and  C10_19 
REMARK    2  A    between atoms: C10_19  and  C11_20 
REMARK    3  A    between atoms: C11_20  and  C12_21 
REMARK    4  A    between atoms: C15_24  and  O3_25 
ROOT
HETATM    1  C1  UNL     1      -3.609  -1.221  12.064  1.00  0.00     0.147 C 
HETATM    2  N1  UNL     1      -3.925   0.177  11.956  1.00  0.00    -0.378 N 
ATOM      3  H1  UNL     1      -3.839   0.632  11.047  1.00  0.00     0.160 HD
HETATM    4  C2  UNL     1      -4.314   0.875  12.970  1.00  0.00     0.138 A 
HETATM    5  N2  UNL     1      -4.416   0.206  14.194  1.00  0.00    -0.264 N 
ATOM      6  H2  UNL     1      -4.189  -0.787  14.248  1.00  0.00     0.180 HD
HETATM    7  S1  UNL     1      -4.918   1.034  15.600  1.00  0.00     0.265 S 
HETATM    8  O1  UNL     1      -3.791   0.931  16.611  1.00  0.00    -0.200 OA
HETATM    9  O2  UNL     1      -6.145   0.353  16.130  1.00  0.00    -0.200 OA
HETATM   10  C3  UNL     1      -5.232   2.699  15.184  1.00  0.00     0.092 A 
HETATM   11  C4  UNL     1      -5.662   3.560  16.210  1.00  0.00     0.026 A 
HETATM   12  C5  UNL     1      -5.917   4.872  15.924  1.00  0.00     0.002 A 
HETATM   13  C6  UNL     1      -5.769   5.384  14.661  1.00  0.00     0.001 A 
HETATM   14  C7  UNL     1      -5.344   4.512  13.672  1.00  0.00     0.015 A 
HETATM   15  C8  UNL     1      -5.068   3.158  13.908  1.00  0.00     0.017 A 
HETATM   16  C9  UNL     1      -4.621   2.326  12.772  1.00  0.00     0.085 A 
HETATM   17  N3  UNL     1      -4.477   2.748  11.628  1.00  0.00    -0.386 N 
ATOM     18  H3  UNL     1      -4.169   1.916  11.124  1.00  0.00     0.159 HD
ENDROOT
BRANCH  17  19
HETATM   19  C10 UNL     1      -4.495   3.684  10.661  1.00  0.00     0.124 C 
BRANCH  19  20
HETATM   20  C11 UNL     1      -3.099   4.306  10.362  1.00  0.00     0.058 C 
BRANCH  20  21
HETATM   21  C12 UNL     1      -2.867   5.288  11.441  1.00  0.00    -0.057 A 
HETATM   22  C13 UNL     1      -1.995   5.009  12.478  1.00  0.00     0.010 A 
HETATM   23  C14 UNL     1      -1.771   5.919  13.493  1.00  0.00     0.037 A 
HETATM   24  C15 UNL     1      -2.406   7.142  13.514  1.00  0.00     0.065 A 
HETATM   25  C16 UNL     1      -3.275   7.414  12.477  1.00  0.00     0.037 A 
HETATM   26  C17 UNL     1      -3.504   6.511  11.459  1.00  0.00     0.010 A 
BRANCH  24  27
HETATM   27  O3  UNL     1      -2.183   8.059  14.533  1.00  0.00    -0.361 OA
ATOM     28  H3  UNL     1      -2.379   7.852  15.440  1.00  0.00     0.217 HD
ENDBRANCH  24  27
ENDBRANCH  20  21
ENDBRANCH  19  20
ENDBRANCH  17  19
TORSDOF 4
ENDMDL
MODEL 3
REMARK VINA RESULT: -8.393100782      1.913      2.218
REMARK  4 active torsions:
REMARK  status: ('A' for Active; 'I' for Inactive)
REMARK    1  A    between atoms: N3_17  and  C10_19 
REMARK    2  A    between atoms: C10_19  and  C11_20 
REMARK    3  A    between atoms: C11_20  and  C12_21 
REMARK    4  A    between atoms: C15_24  and  O3_25 
ROOT
HETATM    1  C1  UNL     1      -5.045   1.376  11.115  1.00  0.00     0.147 C 
HETATM    2  N1  UNL     1      -4.807   2.555  11.901  1.00  0.00    -0.378 N 
ATOM      3  H1  UNL     1      -5.072   2.552  12.886  1.00  0.00     0.160 HD
HETATM    4  C2  UNL     1      -4.270   3.618  11.403  1.00  0.00     0.138 A 
HETATM    5  N2  UNL     1      -3.925   3.573  10.047  1.00  0.00    -0.264 N 
ATOM      6  H2  UNL     1      -4.101   2.725   9.509  1.00  0.00     0.180 HD
HETATM    7  S1  UNL     1      -3.211   4.924   9.286  1.00  0.00     0.265 S 
HETATM    8  O1  UNL     1      -4.134   5.346   8.158  1.00  0.00    -0.200 OA
HETATM    9  O2  UNL     1      -1.884   4.499   8.729  1.00  0.00    -0.200 OA
HETATM   10  C3  UNL     1      -3.040   6.201  10.461  1.00  0.00     0.092 A 
HETATM   11  C4  UNL     1      -2.466   7.412  10.034  1.00  0.00     0.026 A 
HETATM   12  C5  UNL     1      -2.316   8.437  10.925  1.00  0.00     0.002 A 
HETATM   13  C6  UNL     1      -2.708   8.326  12.235  1.00  0.00     0.001 A 
HETATM   14  C7  UNL     1      -3.270   7.122  12.626  1.00  0.00     0.015 A 
HETATM   15  C8  UNL     1      -3.447   6.038  11.755  1.00  0.00     0.017 A 
HETATM   16  C9  UNL     1      -4.058   4.804  12.289  1.00  0.00     0.085 A 
HETATM   17  N3  UNL     1      -4.421   4.667  13.454  1.00  0.00    -0.386 N 
ATOM     18  H3  UNL     1      -4.783   3.713  13.462  1.00  0.00     0.159 HD
ENDROOT
BRANCH  17  19
HETATM   19  C10 UNL     1      -4.612   5.060  14.727  1.00  0.00     0.124 C 
BRANCH  19  20
HETATM   20  C11 UNL     1      -6.044   4.771  15.267  1.00  0.00     0.058 C 
BRANCH  20  21
HETATM   21  C12 UNL     1      -5.984   3.405  15.825  1.00  0.00    -0.057 A 
HETATM   22  C13 UNL     1      -7.014   2.912  16.607  1.00  0.00     0.010 A 
HETATM   23  C14 UNL     1      -6.969   1.636  17.134  1.00  0.00     0.037 A 
HETATM   24  C15 UNL     1      -5.896   0.801  16.903  1.00  0.00     0.065 A 
HETATM   25  C16 UNL     1      -4.872   1.298  16.123  1.00  0.00     0.037 A 
HETATM   26  C17 UNL     1      -4.910   2.572  15.593  1.00  0.00     0.010 A 
BRANCH  24  27
HETATM   27  O3  UNL     1      -5.847  -0.483  17.432  1.00  0.00    -0.361 OA
ATOM     28  H3  UNL     1      -5.842  -1.251  16.873  1.00  0.00     0.217 HD
ENDBRANCH  24  27
ENDBRANCH  20  21
ENDBRANCH  19  20
ENDBRANCH  17  19
TORSDOF 4
ENDMDL
MODEL 4
REMARK VINA RESULT: -8.351556247      2.530      3.402
REMARK  4 active torsions:
REMARK  status: ('A' for Active; 'I' for Inactive)
REMARK    1  A    between atoms: N3_17  and  C10_19 
REMARK    2  A    between atoms: C10_19  and  C11_20 
REMARK    3  A    between atoms: C11_20  and  C12_21 
REMARK    4  A    between atoms: C15_24  and  O3_25 
ROOT
HETATM    1  C1  UNL     1      -3.581   4.185  10.213  1.00  0.00     0.147 C 
HETATM    2  N1  UNL     1      -3.654   4.744  11.534  1.00  0.00    -0.378 N 
ATOM      3  H1  UNL     1      -4.338   4.368  12.192  1.00  0.00     0.160 HD
HETATM    4  C2  UNL     1      -2.885   5.707  11.918  1.00  0.00     0.138 A 
HETATM    5  N2  UNL     1      -1.964   6.189  10.982  1.00  0.00    -0.264 N 
ATOM      6  H2  UNL     1      -1.928   5.776  10.050  1.00  0.00     0.180 HD
HETATM    7  S1  UNL     1      -0.899   7.462  11.382  1.00  0.00     0.265 S 
HETATM    8  O1  UNL     1      -1.179   8.604  10.423  1.00  0.00    -0.200 OA
HETATM    9  O2  UNL     1       0.506   6.971  11.197  1.00  0.00    -0.200 OA
HETATM   10  C3  UNL     1      -1.203   7.944  13.031  1.00  0.00     0.092 A 
HETATM   11  C4  UNL     1      -0.424   8.988  13.562  1.00  0.00     0.026 A 
HETATM   12  C5  UNL     1      -0.632   9.395  14.849  1.00  0.00     0.002 A 
HETATM   13  C6  UNL     1      -1.583   8.818  15.651  1.00  0.00     0.001 A 
HETATM   14  C7  UNL     1      -2.335   7.793  15.100  1.00  0.00     0.015 A 
HETATM   15  C8  UNL     1      -2.164   7.334  13.787  1.00  0.00     0.017 A 
HETATM   16  C9  UNL     1      -3.026   6.234  13.312  1.00  0.00     0.085 A 
HETATM   17  N3  UNL     1      -3.887   5.691  13.998  1.00  0.00    -0.386 N 
ATOM     18  H3  UNL     1      -4.271   4.993  13.361  1.00  0.00     0.159 HD
ENDROOT
BRANCH  17  19
HETATM   19  C10 UNL     1      -4.612   5.494  15.116  1.00  0.00     0.124 C 
BRANCH  19  20
HETATM   20  C11 UNL     1      -6.014   4.867  14.854  1.00  0.00     0.058 C 
BRANCH  20  21
HETATM   21  C12 UNL     1      -5.970   3.533  15.486  1.00  0.00    -0.057 A 
HETATM   22  C13 UNL     1      -6.813   3.218  16.537  1.00  0.00     0.010 A 
HETATM   23  C14 UNL     1      -6.782   1.973  17.136  1.00  0.00     0.037 A 
HETATM   24  C15 UNL     1      -5.909   0.994  16.710  1.00  0.00     0.065 A 
HETATM   25  C16 UNL     1      -5.071   1.314  15.662  1.00  0.00     0.037 A 
HETATM   26  C17 UNL     1      -5.097   2.555  15.058  1.00  0.00     0.010 A 
BRANCH  24  27
HETATM   27  O3  UNL     1      -5.875  -0.259  17.310  1.00  0.00    -0.361 OA
ATOM     28  H3  UNL     1      -5.384  -0.413  18.109  1.00  0.00     0.217 HD
ENDBRANCH  24  27
ENDBRANCH  20  21
ENDBRANCH  19  20
ENDBRANCH  17  19
TORSDOF 4
ENDMDL
MODEL 5
REMARK VINA RESULT: -8.315489977      1.677      2.093
REMARK  4 active torsions:
REMARK  status: ('A' for Active; 'I' for Inactive)
REMARK    1  A    between atoms: N3_17  and  C10_19 
REMARK    2  A    between atoms: C10_19  and  C11_20 
REMARK    3  A    between atoms: C11_20  and  C12_21 
REMARK    4  A    between atoms: C15_24  and  O3_25 
ROOT
HETATM    1  C1  UNL     1       0.174   5.706  12.137  1.00  0.00     0.147 C 
HETATM    2  N1  UNL     1      -1.237   5.545  12.356  1.00  0.00    -0.378 N 
ATOM      3  H1  UNL     1      -1.570   4.698  12.816  1.00  0.00     0.160 HD
HETATM    4  C2  UNL     1      -2.096   6.435  11.989  1.00  0.00     0.138 A 
HETATM    5  N2  UNL     1      -1.590   7.580  11.363  1.00  0.00    -0.264 N 
ATOM      6  H2  UNL     1      -0.585   7.674  11.220  1.00  0.00     0.180 HD
HETATM    7  S1  UNL     1      -2.638   8.820  10.836  1.00  0.00     0.265 S 
HETATM    8  O1  UNL     1      -2.454   8.959   9.336  1.00  0.00    -0.200 OA
HETATM    9  O2  UNL     1      -2.237  10.093  11.521  1.00  0.00    -0.200 OA
HETATM   10  C3  UNL     1      -4.277   8.367  11.223  1.00  0.00     0.092 A 
HETATM   11  C4  UNL     1      -5.304   9.261  10.871  1.00  0.00     0.026 A 
HETATM   12  C5  UNL     1      -6.602   8.941  11.157  1.00  0.00     0.002 A 
HETATM   13  C6  UNL     1      -6.942   7.769  11.782  1.00  0.00     0.001 A 
HETATM   14  C7  UNL     1      -5.909   6.909  12.116  1.00  0.00     0.015 A 
HETATM   15  C8  UNL     1      -4.562   7.185  11.848  1.00  0.00     0.017 A 
HETATM   16  C9  UNL     1      -3.549   6.190  12.252  1.00  0.00     0.085 A 
HETATM   17  N3  UNL     1      -3.814   5.130  12.814  1.00  0.00    -0.386 N 
ATOM     18  H3  UNL     1      -2.893   4.710  12.939  1.00  0.00     0.159 HD
ENDROOT
BRANCH  17  19
HETATM   19  C10 UNL     1      -4.630   4.208  13.357  1.00  0.00     0.124 C 
BRANCH  19  20
HETATM   20  C11 UNL     1      -5.150   4.586  14.776  1.00  0.00     0.058 C 
BRANCH  20  21
HETATM   21  C12 UNL     1      -5.372   3.300  15.467  1.00  0.00    -0.057 A 
HETATM   22  C13 UNL     1      -4.442   2.279  15.383  1.00  0.00     0.010 A 
HETATM   23  C14 UNL     1      -4.639   1.071  16.024  1.00  0.00     0.037 A 
HETATM   24  C15 UNL     1      -5.771   0.834  16.775  1.00  0.00     0.065 A 
HETATM   25  C16 UNL     1      -6.696   1.855  16.855  1.00  0.00     0.037 A 
HETATM   26  C17 UNL     1      -6.505   3.064  16.217  1.00  0.00     0.010 A 
BRANCH  24  27
HETATM   27  O3  UNL     1      -5.973  -0.380  17.421  1.00  0.00    -0.361 OA
ATOM     28  H3  UNL     1      -6.813  -0.823  17.393  1.00  0.00     0.217 HD
ENDBRANCH  24  27
ENDBRANCH  20  21
ENDBRANCH  19  20
ENDBRANCH  17  19
TORSDOF 4
ENDMDL
