MODEL 1
REMARK VINA RESULT: -6.183007861      0.000      0.000
REMARK  8 active torsions:
REMARK  status: ('A' for Active; 'I' for Inactive)
REMARK    1  A    between atoms: C2_2  and  C3_3 
REMARK    2  A    between atoms: C3_3  and  S1_4 
REMARK    3  A    between atoms: S1_4  and  C4_5 
REMARK    4  A    between atoms: C5_6  and  O1_7 
REMARK    5  A    between atoms: C6_9  and  C7_10 
REMARK    6  A    between atoms: C7_10  and  S2_11 
REMARK    7  A    between atoms: C9_14  and  N1_15 
REMARK    8  A    between atoms: C11_21  and  O4_22 
ROOT
HETATM    1  C4  UNL     1      -3.897   2.727  11.935  1.00  0.00     0.128 C 
HETATM    2  C5  UNL     1      -2.871   3.317  11.000  1.00  0.00     0.165 C 
HETATM    3  C6  UNL     1      -1.937   4.071  11.924  1.00  0.00     0.163 C 
HETATM    4  O2  UNL     1      -2.318   3.728  13.211  1.00  0.00    -0.356 OA
HETATM    5  C9  UNL     1      -3.683   3.628  13.136  1.00  0.00     0.255 C 
ENDROOT
BRANCH   5   6
HETATM    6  N1  UNL     1      -4.308   3.056  14.325  1.00  0.00    -0.249 N 
HETATM    7  S3  UNL     1      -3.661   2.091  15.548  1.00  0.00     0.056 SA
HETATM    8  C10 UNL     1      -5.069   1.899  16.490  1.00  0.00     0.307 A 
HETATM    9  O3  UNL     1      -5.251   1.253  17.587  1.00  0.00    -0.258 OA
HETATM   10  N2  UNL     1      -5.964   2.599  15.796  1.00  0.00    -0.281 N 
HETATM   11  C11 UNL     1      -5.583   3.187  14.699  1.00  0.00     0.235 A 
ATOM     12  H2  UNL     1      -6.929   2.674  16.119  1.00  0.00     0.173 HD
BRANCH  11  13
HETATM   13  O4  UNL     1      -6.386   3.892  13.957  1.00  0.00    -0.332 OA
ATOM     14  H4  UNL     1      -7.083   4.384  14.374  1.00  0.00     0.221 HD
ENDBRANCH  11  13
ENDBRANCH   5   6
BRANCH   1  15
HETATM   15  S1  UNL     1      -3.573   1.010  12.248  1.00  0.00    -0.157 SA
BRANCH  15  16
HETATM   16  C3  UNL     1      -4.218  -0.026  10.926  1.00  0.00     0.074 C 
BRANCH  16  17
HETATM   17  C2  UNL     1      -3.110  -0.874  10.281  1.00  0.00     0.006 C 
HETATM   18  C1  UNL     1      -2.781  -2.069  11.150  1.00  0.00     0.006 C 
ENDBRANCH  16  17
ENDBRANCH  15  16
ENDBRANCH   1  15
BRANCH   2  19
HETATM   19  O1  UNL     1      -2.215   2.426  10.200  1.00  0.00    -0.392 OA
ATOM     20  H1  UNL     1      -1.852   2.781   9.397  1.00  0.00     0.210 HD
ENDBRANCH   2  19
BRANCH   3  21
HETATM   21  C7  UNL     1      -0.510   3.581  11.736  1.00  0.00     0.108 C 
BRANCH  21  22
HETATM   22  S2  UNL     1       0.545   4.809  10.967  1.00  0.00    -0.171 SA
HETATM   23  C8  UNL     1       1.758   4.077   9.855  1.00  0.00     0.089 C 
ENDBRANCH  21  22
ENDBRANCH   3  21
TORSDOF 8
ENDMDL
MODEL 2
REMARK VINA RESULT: -6.161031187      3.213      5.098
REMARK  8 active torsions:
REMARK  status: ('A' for Active; 'I' for Inactive)
REMARK    1  A    between atoms: C2_2  and  C3_3 
REMARK    2  A    between atoms: C3_3  and  S1_4 
REMARK    3  A    between atoms: S1_4  and  C4_5 
REMARK    4  A    between atoms: C5_6  and  O1_7 
REMARK    5  A    between atoms: C6_9  and  C7_10 
REMARK    6  A    between atoms: C7_10  and  S2_11 
REMARK    7  A    between atoms: C9_14  and  N1_15 
REMARK    8  A    between atoms: C11_21  and  O4_22 
ROOT
HETATM    1  C4  UNL     1      -2.875   3.771  12.111  1.00  0.00     0.128 C 
HETATM    2  C5  UNL     1      -3.114   5.211  11.728  1.00  0.00     0.165 C 
HETATM    3  C6  UNL     1      -3.800   5.113  10.381  1.00  0.00     0.163 C 
HETATM    4  O2  UNL     1      -4.076   3.770  10.192  1.00  0.00    -0.356 OA
HETATM    5  C9  UNL     1      -2.995   3.129  10.742  1.00  0.00     0.255 C 
ENDROOT
BRANCH   5   6
HETATM    6  N1  UNL     1      -3.155   1.684  10.865  1.00  0.00    -0.249 N 
HETATM    7  S3  UNL     1      -2.002   0.463  11.036  1.00  0.00     0.056 SA
HETATM    8  C10 UNL     1      -3.058  -0.874  11.099  1.00  0.00     0.307 A 
HETATM    9  O3  UNL     1      -2.802  -2.128  11.224  1.00  0.00    -0.258 OA
HETATM   10  N2  UNL     1      -4.250  -0.292  10.984  1.00  0.00    -0.281 N 
HETATM   11  C11 UNL     1      -4.304   1.003  10.865  1.00  0.00     0.235 A 
ATOM     12  H2  UNL     1      -5.104  -0.850  10.989  1.00  0.00     0.173 HD
BRANCH  11  13
HETATM   13  O4  UNL     1      -5.421   1.659  10.748  1.00  0.00    -0.332 OA
ATOM     14  H4  UNL     1      -5.590   2.386  11.335  1.00  0.00     0.221 HD
ENDBRANCH  11  13
ENDBRANCH   5   6
BRANCH   1  15
HETATM   15  S1  UNL     1      -4.080   3.208  13.286  1.00  0.00    -0.157 SA
BRANCH  15  16
HETATM   16  C3  UNL     1      -3.428   3.258  14.962  1.00  0.00     0.074 C 
BRANCH  16  17
HETATM   17  C2  UNL     1      -3.774   1.980  15.742  1.00  0.00     0.006 C 
HETATM   18  C1  UNL     1      -4.103   0.849  14.791  1.00  0.00     0.006 C 
ENDBRANCH  16  17
ENDBRANCH  15  16
ENDBRANCH   1  15
BRANCH   2  19
HETATM   19  O1  UNL     1      -3.822   5.954  12.628  1.00  0.00    -0.392 OA
ATOM     20  H1  UNL     1      -4.691   6.221  12.350  1.00  0.00     0.210 HD
ENDBRANCH   2  19
BRANCH   3  21
HETATM   21  C7  UNL     1      -5.134   5.841  10.421  1.00  0.00     0.108 C 
BRANCH  21  22
HETATM   22  S2  UNL     1      -5.453   6.779   8.927  1.00  0.00    -0.171 SA
HETATM   23  C8  UNL     1      -7.128   6.542   8.309  1.00  0.00     0.089 C 
ENDBRANCH  21  22
ENDBRANCH   3  21
TORSDOF 8
ENDMDL
MODEL 3
REMARK VINA RESULT: -6.125504451      2.024      2.301
REMARK  8 active torsions:
REMARK  status: ('A' for Active; 'I' for Inactive)
REMARK    1  A    between atoms: C2_2  and  C3_3 
REMARK    2  A    between atoms: C3_3  and  S1_4 
REMARK    3  A    between atoms: S1_4  and  C4_5 
REMARK    4  A    between atoms: C5_6  and  O1_7 
REMARK    5  A    between atoms: C6_9  and  C7_10 
REMARK    6  A    between atoms: C7_10  and  S2_11 
REMARK    7  A    between atoms: C9_14  and  N1_15 
REMARK    8  A    between atoms: C11_21  and  O4_22 
ROOT
HETATM    1  C4  UNL     1      -3.413   3.015  10.881  1.00  0.00     0.128 C 
HETATM    2  C5  UNL     1      -3.460   4.117   9.850  1.00  0.00     0.165 C 
HETATM    3  C6  UNL     1      -3.668   5.370  10.676  1.00  0.00     0.163 C 
HETATM    4  O2  UNL     1      -3.528   4.981  11.997  1.00  0.00    -0.356 OA
HETATM    5  C9  UNL     1      -4.088   3.730  12.035  1.00  0.00     0.255 C 
ENDROOT
BRANCH   5   6
HETATM    6  N1  UNL     1      -3.864   3.011  13.285  1.00  0.00    -0.249 N 
HETATM    7  S3  UNL     1      -4.143   1.396  13.688  1.00  0.00     0.056 SA
HETATM    8  C10 UNL     1      -3.608   1.444  15.306  1.00  0.00     0.307 A 
HETATM    9  O3  UNL     1      -3.559   0.512  16.191  1.00  0.00    -0.258 OA
HETATM   10  N2  UNL     1      -3.242   2.716  15.440  1.00  0.00    -0.281 N 
HETATM   11  C11 UNL     1      -3.370   3.514  14.420  1.00  0.00     0.235 A 
ATOM     12  H2  UNL     1      -2.868   3.059  16.326  1.00  0.00     0.173 HD
BRANCH  11  13
HETATM   13  O4  UNL     1      -3.038   4.771  14.456  1.00  0.00    -0.332 OA
ATOM     14  H4  UNL     1      -2.525   5.089  15.189  1.00  0.00     0.221 HD
ENDBRANCH  11  13
ENDBRANCH   5   6
BRANCH   1  15
HETATM   15  S1  UNL     1      -1.744   2.513  11.213  1.00  0.00    -0.157 SA
BRANCH  15  16
HETATM   16  C3  UNL     1      -1.507   0.764  10.864  1.00  0.00     0.074 C 
BRANCH  16  17
HETATM   17  C2  UNL     1      -2.816   0.095  10.415  1.00  0.00     0.006 C 
HETATM   18  C1  UNL     1      -2.963  -1.269  11.056  1.00  0.00     0.006 C 
ENDBRANCH  16  17
ENDBRANCH  15  16
ENDBRANCH   1  15
BRANCH   2  19
HETATM   19  O1  UNL     1      -2.376   4.203   9.025  1.00  0.00    -0.392 OA
ATOM     20  H1  UNL     1      -2.351   4.962   8.453  1.00  0.00     0.210 HD
ENDBRANCH   2  19
BRANCH   3  21
HETATM   21  C7  UNL     1      -2.563   6.374  10.387  1.00  0.00     0.108 C 
BRANCH  21  22
HETATM   22  S2  UNL     1      -1.437   6.576  11.767  1.00  0.00    -0.171 SA
HETATM   23  C8  UNL     1       0.163   5.806  11.471  1.00  0.00     0.089 C 
ENDBRANCH  21  22
ENDBRANCH   3  21
TORSDOF 8
ENDMDL
MODEL 4
REMARK VINA RESULT: -6.081936911      2.946      5.226
REMARK  8 active torsions:
REMARK  status: ('A' for Active; 'I' for Inactive)
REMARK    1  A    between atoms: C2_2  and  C3_3 
REMARK    2  A    between atoms: C3_3  and  S1_4 
REMARK    3  A    between atoms: S1_4  and  C4_5 
REMARK    4  A    between atoms: C5_6  and  O1_7 
REMARK    5  A    between atoms: C6_9  and  C7_10 
REMARK    6  A    between atoms: C7_10  and  S2_11 
REMARK    7  A    between atoms: C9_14  and  N1_15 
REMARK    8  A    between atoms: C11_21  and  O4_22 
ROOT
HETATM    1  C4  UNL     1      -3.133   3.443  13.199  1.00  0.00     0.128 C 
HETATM    2  C5  UNL     1      -3.414   4.925  13.260  1.00  0.00     0.165 C 
HETATM    3  C6  UNL     1      -4.029   5.228  11.909  1.00  0.00     0.163 C 
HETATM    4  O2  UNL     1      -4.239   4.000  11.304  1.00  0.00    -0.356 OA
HETATM    5  C9  UNL     1      -3.160   3.249  11.695  1.00  0.00     0.255 C 
ENDROOT
BRANCH   5   6
HETATM    6  N1  UNL     1      -3.265   1.832  11.362  1.00  0.00    -0.249 N 
HETATM    7  S3  UNL     1      -2.089   0.622  11.330  1.00  0.00     0.056 SA
HETATM    8  C10 UNL     1      -3.078  -0.678  10.843  1.00  0.00     0.307 A 
HETATM    9  O3  UNL     1      -2.781  -1.911  10.628  1.00  0.00    -0.258 OA
HETATM   10  N2  UNL     1      -4.270  -0.095  10.733  1.00  0.00    -0.281 N 
HETATM   11  C11 UNL     1      -4.369   1.176  10.995  1.00  0.00     0.235 A 
ATOM     12  H2  UNL     1      -5.088  -0.634  10.450  1.00  0.00     0.173 HD
BRANCH  11  13
HETATM   13  O4  UNL     1      -5.490   1.831  10.916  1.00  0.00    -0.332 OA
ATOM     14  H4  UNL     1      -6.240   1.517  11.408  1.00  0.00     0.221 HD
ENDBRANCH  11  13
ENDBRANCH   5   6
BRANCH   1  15
HETATM   15  S1  UNL     1      -4.369   2.517  14.073  1.00  0.00    -0.157 SA
BRANCH  15  16
HETATM   16  C3  UNL     1      -3.817   2.099  15.734  1.00  0.00     0.074 C 
BRANCH  16  17
HETATM   17  C2  UNL     1      -4.938   1.442  16.554  1.00  0.00     0.006 C 
HETATM   18  C1  UNL     1      -6.134   2.366  16.656  1.00  0.00     0.006 C 
ENDBRANCH  16  17
ENDBRANCH  15  16
ENDBRANCH   1  15
BRANCH   2  19
HETATM   19  O1  UNL     1      -4.195   5.338  14.300  1.00  0.00    -0.392 OA
ATOM     20  H1  UNL     1      -4.334   4.700  14.991  1.00  0.00     0.210 HD
ENDBRANCH   2  19
BRANCH   3  21
HETATM   21  C7  UNL     1      -5.393   5.874  12.090  1.00  0.00     0.108 C 
BRANCH  21  22
HETATM   22  S2  UNL     1      -5.706   7.170  10.892  1.00  0.00    -0.171 SA
HETATM   23  C8  UNL     1      -5.790   6.544   9.206  1.00  0.00     0.089 C 
ENDBRANCH  21  22
ENDBRANCH   3  21
TORSDOF 8
ENDMDL
MODEL 5
REMARK VINA RESULT: -6.063363202      2.714      6.478
REMARK  8 active torsions:
REMARK  status: ('A' for Active; 'I' for Inactive)
REMARK    1  A    between atoms: C2_2  and  C3_3 
REMARK    2  A    between atoms: C3_3  and  S1_4 
REMARK    3  A    between atoms: S1_4  and  C4_5 
REMARK    4  A    between atoms: C5_6  and  O1_7 
REMARK    5  A    between atoms: C6_9  and  C7_10 
REMARK    6  A    between atoms: C7_10  and  S2_11 
REMARK    7  A    between atoms: C9_14  and  N1_15 
REMARK    8  A    between atoms: C11_21  and  O4_22 
ROOT
HETATM    1  C4  UNL     1      -4.393   4.582  13.250  1.00  0.00     0.128 C 
HETATM    2  C5  UNL     1      -5.517   4.858  14.218  1.00  0.00     0.165 C 
HETATM    3  C6  UNL     1      -6.116   3.489  14.468  1.00  0.00     0.163 C 
HETATM    4  O2  UNL     1      -5.260   2.584  13.864  1.00  0.00    -0.356 OA
HETATM    5  C9  UNL     1      -4.841   3.230  12.730  1.00  0.00     0.255 C 
ENDROOT
BRANCH   5   6
HETATM    6  N1  UNL     1      -3.749   2.562  12.028  1.00  0.00    -0.249 N 
HETATM    7  S3  UNL     1      -2.687   3.138  10.851  1.00  0.00     0.056 SA
HETATM    8  C10 UNL     1      -1.779   1.714  10.613  1.00  0.00     0.307 A 
HETATM    9  O3  UNL     1      -0.791   1.483   9.823  1.00  0.00    -0.258 OA
HETATM   10  N2  UNL     1      -2.356   0.871  11.466  1.00  0.00    -0.281 N 
HETATM   11  C11 UNL     1      -3.355   1.296  12.184  1.00  0.00     0.235 A 
ATOM     12  H2  UNL     1      -2.022  -0.089  11.554  1.00  0.00     0.173 HD
BRANCH  11  13
HETATM   13  O4  UNL     1      -3.980   0.545  13.044  1.00  0.00    -0.332 OA
ATOM     14  H4  UNL     1      -4.405  -0.246  12.737  1.00  0.00     0.221 HD
ENDBRANCH  11  13
ENDBRANCH   5   6
BRANCH   1  15
HETATM   15  S1  UNL     1      -2.822   4.558  14.076  1.00  0.00    -0.157 SA
BRANCH  15  16
HETATM   16  C3  UNL     1      -1.830   5.991  13.632  1.00  0.00     0.074 C 
BRANCH  16  17
HETATM   17  C2  UNL     1      -2.222   7.228  14.455  1.00  0.00     0.006 C 
HETATM   18  C1  UNL     1      -1.097   8.243  14.460  1.00  0.00     0.006 C 
ENDBRANCH  16  17
ENDBRANCH  15  16
ENDBRANCH   1  15
BRANCH   2  19
HETATM   19  O1  UNL     1      -5.163   5.497  15.371  1.00  0.00    -0.392 OA
ATOM     20  H1  UNL     1      -5.840   5.553  16.036  1.00  0.00     0.210 HD
ENDBRANCH   2  19
BRANCH   3  21
HETATM   21  C7  UNL     1      -6.112   3.182  15.957  1.00  0.00     0.108 C 
BRANCH  21  22
HETATM   22  S2  UNL     1      -4.957   1.881  16.389  1.00  0.00    -0.171 SA
HETATM   23  C8  UNL     1      -5.769   0.455  17.129  1.00  0.00     0.089 C 
ENDBRANCH  21  22
ENDBRANCH   3  21
TORSDOF 8
ENDMDL
