MODEL 1
REMARK VINA RESULT: -7.942181198      0.000      0.000
REMARK  10 active torsions:
REMARK  status: ('A' for Active; 'I' for Inactive)
REMARK    1  A    between atoms: O1_2  and  C2_3 
REMARK    2  A    between atoms: N1_6  and  O3_8 
REMARK    3  A    between atoms: C7_14  and  C8_15 
REMARK    4  A    between atoms: C8_15  and  O5_16 
REMARK    5  A    between atoms: C8_15  and  C9_18 
REMARK    6  A    between atoms: C9_18  and  C10_19 
REMARK    7  A    between atoms: N2_20  and  C11_22 
REMARK    8  A    between atoms: C11_22  and  C12_23 
REMARK    9  A    between atoms: C12_23  and  C13_24 
REMARK   10  A    between atoms: C13_24  and  C14_25 
ROOT
HETATM    1  C2  UNL     1      -4.196   0.926  11.524  1.00  0.00     0.306 A 
HETATM    2  O2  UNL     1      -4.418   0.190  12.726  1.00  0.00    -0.298 OA
HETATM    3  C3  UNL     1      -4.271   1.079  13.760  1.00  0.00     0.172 A 
HETATM    4  N1  UNL     1      -4.411   0.702  15.007  1.00  0.00    -0.247 N 
ATOM      5  H1  UNL     1      -4.291   1.401  15.741  1.00  0.00     0.196 HD
HETATM    6  C4  UNL     1      -3.955   2.413  13.244  1.00  0.00     0.014 A 
HETATM    7  C5  UNL     1      -3.926   2.264  11.930  1.00  0.00     0.054 A 
HETATM    8  C6  UNL     1      -3.656   3.285  10.914  1.00  0.00     0.168 C 
HETATM    9  O4  UNL     1      -4.388   2.987   9.898  1.00  0.00    -0.292 OA
HETATM   10  C7  UNL     1      -2.924   4.482  10.566  1.00  0.00     0.093 C 
HETATM   11  C15 UNL     1      -2.525   5.485  11.668  1.00  0.00    -0.004 C 
HETATM   12  C16 UNL     1      -3.184   6.838  11.447  1.00  0.00     0.011 C 
HETATM   13  C17 UNL     1      -2.932   4.754  12.805  1.00  0.00     0.010 C 
HETATM   14  C18 UNL     1      -3.112   4.680  14.189  1.00  0.00    -0.010 C 
HETATM   15  C19 UNL     1      -3.921   5.863  14.718  1.00  0.00     0.010 C 
HETATM   16  C20 UNL     1      -3.809   3.358  14.357  1.00  0.00     0.023 C 
HETATM   17  C21 UNL     1      -5.158   3.626  14.959  1.00  0.00     0.015 C 
ENDROOT
BRANCH  10  18
HETATM   18  C8  UNL     1      -1.651   4.113   9.846  1.00  0.00     0.134 C 
BRANCH  18  19
HETATM   19  O5  UNL     1      -1.478   2.735   9.758  1.00  0.00    -0.394 OA
ATOM     20  H5  UNL     1      -1.772   2.391   8.923  1.00  0.00     0.210 HD
ENDBRANCH  18  19
BRANCH  18  21
HETATM   21  C9  UNL     1      -1.558   4.671   8.447  1.00  0.00     0.076 C 
BRANCH  21  22
HETATM   22  C10 UNL     1      -2.712   5.571   8.143  1.00  0.00     0.058 C 
HETATM   23  N2  UNL     1      -3.455   5.255   7.162  1.00  0.00    -0.402 N 
ATOM     24  H2  UNL     1      -3.240   4.413   6.627  1.00  0.00     0.158 HD
BRANCH  23  25
HETATM   25  C11 UNL     1      -4.575   6.042   6.793  1.00  0.00     0.119 C 
BRANCH  25  26
HETATM   26  C12 UNL     1      -4.817   7.076   7.861  1.00  0.00     0.030 C 
BRANCH  26  27
HETATM   27  C13 UNL     1      -6.283   7.269   8.047  1.00  0.00     0.114 C 
BRANCH  27  28
HETATM   28  C14 UNL     1      -6.677   7.043   9.444  1.00  0.00     0.172 C 
HETATM   29  O6  UNL     1      -7.399   7.807  10.100  1.00  0.00    -0.648 OA
HETATM   30  O7  UNL     1      -6.201   5.883  10.071  1.00  0.00    -0.648 OA
ENDBRANCH  27  28
ENDBRANCH  26  27
ENDBRANCH  25  26
ENDBRANCH  23  25
ENDBRANCH  21  22
ENDBRANCH  18  21
ENDBRANCH  10  18
BRANCH   1  31
HETATM   31  O1  UNL     1      -3.172   0.310  10.793  1.00  0.00    -0.361 OA
HETATM   32  C1  UNL     1      -3.111  -1.036  11.002  1.00  0.00     0.205 C 
ENDBRANCH   1  31
BRANCH   4  33
HETATM   33  O3  UNL     1      -4.705  -0.564  15.371  1.00  0.00    -0.288 OA
ATOM     34  H3  UNL     1      -5.199  -0.781  16.152  1.00  0.00     0.244 HD
ENDBRANCH   4  33
TORSDOF 10
ENDMDL
MODEL 2
REMARK VINA RESULT: -7.769891794      2.006      3.920
REMARK  10 active torsions:
REMARK  status: ('A' for Active; 'I' for Inactive)
REMARK    1  A    between atoms: O1_2  and  C2_3 
REMARK    2  A    between atoms: N1_6  and  O3_8 
REMARK    3  A    between atoms: C7_14  and  C8_15 
REMARK    4  A    between atoms: C8_15  and  O5_16 
REMARK    5  A    between atoms: C8_15  and  C9_18 
REMARK    6  A    between atoms: C9_18  and  C10_19 
REMARK    7  A    between atoms: N2_20  and  C11_22 
REMARK    8  A    between atoms: C11_22  and  C12_23 
REMARK    9  A    between atoms: C12_23  and  C13_24 
REMARK   10  A    between atoms: C13_24  and  C14_25 
ROOT
HETATM    1  C2  UNL     1      -4.207   0.654  11.962  1.00  0.00     0.306 A 
HETATM    2  O2  UNL     1      -4.291  -0.073  13.186  1.00  0.00    -0.298 OA
HETATM    3  C3  UNL     1      -4.406   0.859  14.186  1.00  0.00     0.172 A 
HETATM    4  N1  UNL     1      -4.498   0.501  15.443  1.00  0.00    -0.247 N 
ATOM      5  H1  UNL     1      -4.582   1.232  16.150  1.00  0.00     0.196 HD
HETATM    6  C4  UNL     1      -4.405   2.211  13.624  1.00  0.00     0.014 A 
HETATM    7  C5  UNL     1      -4.288   2.030  12.320  1.00  0.00     0.054 A 
HETATM    8  C6  UNL     1      -4.235   3.053  11.270  1.00  0.00     0.168 C 
HETATM    9  O4  UNL     1      -4.832   2.550  10.246  1.00  0.00    -0.292 OA
HETATM   10  C7  UNL     1      -3.804   4.379  10.894  1.00  0.00     0.093 C 
HETATM   11  C15 UNL     1      -3.706   5.486  11.964  1.00  0.00    -0.004 C 
HETATM   12  C16 UNL     1      -4.665   6.628  11.666  1.00  0.00     0.011 C 
HETATM   13  C17 UNL     1      -3.966   4.716  13.118  1.00  0.00     0.010 C 
HETATM   14  C18 UNL     1      -4.178   4.647  14.497  1.00  0.00    -0.010 C 
HETATM   15  C19 UNL     1      -5.270   5.612  14.952  1.00  0.00     0.010 C 
HETATM   16  C20 UNL     1      -4.537   3.200  14.701  1.00  0.00     0.023 C 
HETATM   17  C21 UNL     1      -5.934   3.150  15.250  1.00  0.00     0.015 C 
ENDROOT
BRANCH  10  18
HETATM   18  C8  UNL     1      -2.452   4.311  10.229  1.00  0.00     0.134 C 
BRANCH  18  19
HETATM   19  O5  UNL     1      -1.969   3.008  10.156  1.00  0.00    -0.394 OA
ATOM     20  H5  UNL     1      -1.779   2.746   9.263  1.00  0.00     0.210 HD
ENDBRANCH  18  19
BRANCH  18  21
HETATM   21  C9  UNL     1      -2.430   4.879   8.832  1.00  0.00     0.076 C 
BRANCH  21  22
HETATM   22  C10 UNL     1      -1.041   4.917   8.281  1.00  0.00     0.058 C 
HETATM   23  N2  UNL     1      -0.543   3.819   7.881  1.00  0.00    -0.402 N 
ATOM     24  H2  UNL     1      -1.099   2.966   7.950  1.00  0.00     0.158 HD
BRANCH  23  25
HETATM   25  C11 UNL     1       0.767   3.749   7.342  1.00  0.00     0.119 C 
BRANCH  25  26
HETATM   26  C12 UNL     1       1.686   4.596   8.183  1.00  0.00     0.030 C 
BRANCH  26  27
HETATM   27  C13 UNL     1       2.429   3.728   9.140  1.00  0.00     0.114 C 
BRANCH  27  28
HETATM   28  C14 UNL     1       1.998   3.970  10.523  1.00  0.00     0.172 C 
HETATM   29  O6  UNL     1       0.824   3.898  10.912  1.00  0.00    -0.648 OA
HETATM   30  O7  UNL     1       2.986   4.303  11.460  1.00  0.00    -0.648 OA
ENDBRANCH  27  28
ENDBRANCH  26  27
ENDBRANCH  25  26
ENDBRANCH  23  25
ENDBRANCH  21  22
ENDBRANCH  18  21
ENDBRANCH  10  18
BRANCH   1  31
HETATM   31  O1  UNL     1      -3.036   0.284  11.289  1.00  0.00    -0.361 OA
HETATM   32  C1  UNL     1      -3.003  -1.043  10.978  1.00  0.00     0.205 C 
ENDBRANCH   1  31
BRANCH   4  33
HETATM   33  O3  UNL     1      -4.489  -0.785  15.851  1.00  0.00    -0.288 OA
ATOM     34  H3  UNL     1      -5.262  -1.238  16.167  1.00  0.00     0.244 HD
ENDBRANCH   4  33
TORSDOF 10
ENDMDL
MODEL 3
REMARK VINA RESULT: -7.752715246      2.208      4.258
REMARK  10 active torsions:
REMARK  status: ('A' for Active; 'I' for Inactive)
REMARK    1  A    between atoms: O1_2  and  C2_3 
REMARK    2  A    between atoms: N1_6  and  O3_8 
REMARK    3  A    between atoms: C7_14  and  C8_15 
REMARK    4  A    between atoms: C8_15  and  O5_16 
REMARK    5  A    between atoms: C8_15  and  C9_18 
REMARK    6  A    between atoms: C9_18  and  C10_19 
REMARK    7  A    between atoms: N2_20  and  C11_22 
REMARK    8  A    between atoms: C11_22  and  C12_23 
REMARK    9  A    between atoms: C12_23  and  C13_24 
REMARK   10  A    between atoms: C13_24  and  C14_25 
ROOT
HETATM    1  C2  UNL     1      -4.133   0.710  12.004  1.00  0.00     0.306 A 
HETATM    2  O2  UNL     1      -4.280  -0.046  13.205  1.00  0.00    -0.298 OA
HETATM    3  C3  UNL     1      -4.453   0.861  14.219  1.00  0.00     0.172 A 
HETATM    4  N1  UNL     1      -4.612   0.473  15.460  1.00  0.00    -0.247 N 
ATOM      5  H1  UNL     1      -4.737   1.187  16.178  1.00  0.00     0.196 HD
HETATM    6  C4  UNL     1      -4.426   2.227  13.690  1.00  0.00     0.014 A 
HETATM    7  C5  UNL     1      -4.238   2.077  12.390  1.00  0.00     0.054 A 
HETATM    8  C6  UNL     1      -4.132   3.125  11.369  1.00  0.00     0.168 C 
HETATM    9  O4  UNL     1      -4.670   2.645  10.302  1.00  0.00    -0.292 OA
HETATM   10  C7  UNL     1      -3.687   4.461  11.048  1.00  0.00     0.093 C 
HETATM   11  C15 UNL     1      -3.651   5.542  12.149  1.00  0.00    -0.004 C 
HETATM   12  C16 UNL     1      -4.597   6.688  11.827  1.00  0.00     0.011 C 
HETATM   13  C17 UNL     1      -3.971   4.744  13.268  1.00  0.00     0.010 C 
HETATM   14  C18 UNL     1      -4.256   4.641  14.632  1.00  0.00    -0.010 C 
HETATM   15  C19 UNL     1      -5.376   5.593  15.049  1.00  0.00     0.010 C 
HETATM   16  C20 UNL     1      -4.621   3.189  14.781  1.00  0.00     0.023 C 
HETATM   17  C21 UNL     1      -6.045   3.122  15.252  1.00  0.00     0.015 C 
ENDROOT
BRANCH  10  18
HETATM   18  C8  UNL     1      -2.300   4.412  10.457  1.00  0.00     0.134 C 
BRANCH  18  19
HETATM   19  O5  UNL     1      -1.985   3.149   9.963  1.00  0.00    -0.394 OA
ATOM     20  H5  UNL     1      -2.074   3.102   9.019  1.00  0.00     0.210 HD
ENDBRANCH  18  19
BRANCH  18  21
HETATM   21  C9  UNL     1      -2.078   5.402   9.340  1.00  0.00     0.076 C 
BRANCH  21  22
HETATM   22  C10 UNL     1      -0.809   6.167   9.535  1.00  0.00     0.058 C 
HETATM   23  N2  UNL     1      -0.098   5.869  10.544  1.00  0.00    -0.402 N 
ATOM     24  H2  UNL     1      -0.414   5.131  11.175  1.00  0.00     0.158 HD
BRANCH  23  25
HETATM   25  C11 UNL     1       1.123   6.536  10.817  1.00  0.00     0.119 C 
BRANCH  25  26
HETATM   26  C12 UNL     1       2.210   5.508  10.996  1.00  0.00     0.030 C 
BRANCH  26  27
HETATM   27  C13 UNL     1       2.764   5.128   9.665  1.00  0.00     0.114 C 
BRANCH  27  28
HETATM   28  C14 UNL     1       2.489   3.720   9.356  1.00  0.00     0.172 C 
HETATM   29  O6  UNL     1       3.335   2.917   8.938  1.00  0.00    -0.648 OA
HETATM   30  O7  UNL     1       1.180   3.258   9.551  1.00  0.00    -0.648 OA
ENDBRANCH  27  28
ENDBRANCH  26  27
ENDBRANCH  25  26
ENDBRANCH  23  25
ENDBRANCH  21  22
ENDBRANCH  18  21
ENDBRANCH  10  18
BRANCH   1  31
HETATM   31  O1  UNL     1      -2.925   0.359  11.388  1.00  0.00    -0.361 OA
HETATM   32  C1  UNL     1      -2.995  -0.833  10.731  1.00  0.00     0.205 C 
ENDBRANCH   1  31
BRANCH   4  33
HETATM   33  O3  UNL     1      -4.620  -0.822  15.837  1.00  0.00    -0.288 OA
ATOM     34  H3  UNL     1      -4.890  -1.113  16.700  1.00  0.00     0.244 HD
ENDBRANCH   4  33
TORSDOF 10
ENDMDL
MODEL 4
REMARK VINA RESULT: -7.705796130      1.533      1.789
REMARK  10 active torsions:
REMARK  status: ('A' for Active; 'I' for Inactive)
REMARK    1  A    between atoms: O1_2  and  C2_3 
REMARK    2  A    between atoms: N1_6  and  O3_8 
REMARK    3  A    between atoms: C7_14  and  C8_15 
REMARK    4  A    between atoms: C8_15  and  O5_16 
REMARK    5  A    between atoms: C8_15  and  C9_18 
REMARK    6  A    between atoms: C9_18  and  C10_19 
REMARK    7  A    between atoms: N2_20  and  C11_22 
REMARK    8  A    between atoms: C11_22  and  C12_23 
REMARK    9  A    between atoms: C12_23  and  C13_24 
REMARK   10  A    between atoms: C13_24  and  C14_25 
ROOT
HETATM    1  C2  UNL     1      -4.121   0.768  11.797  1.00  0.00     0.306 A 
HETATM    2  O2  UNL     1      -4.339   0.050  13.009  1.00  0.00    -0.298 OA
HETATM    3  C3  UNL     1      -4.305   0.974  14.022  1.00  0.00     0.172 A 
HETATM    4  N1  UNL     1      -4.470   0.621  15.273  1.00  0.00    -0.247 N 
ATOM      5  H1  UNL     1      -4.437   1.346  15.990  1.00  0.00     0.196 HD
HETATM    6  C4  UNL     1      -4.070   2.314  13.480  1.00  0.00     0.014 A 
HETATM    7  C5  UNL     1      -3.972   2.134  12.174  1.00  0.00     0.054 A 
HETATM    8  C6  UNL     1      -3.736   3.146  11.140  1.00  0.00     0.168 C 
HETATM    9  O4  UNL     1      -4.399   2.765  10.104  1.00  0.00    -0.292 OA
HETATM   10  C7  UNL     1      -3.084   4.386  10.787  1.00  0.00     0.093 C 
HETATM   11  C15 UNL     1      -2.811   5.445  11.874  1.00  0.00    -0.004 C 
HETATM   12  C16 UNL     1      -3.561   6.737  11.586  1.00  0.00     0.011 C 
HETATM   13  C17 UNL     1      -3.210   4.716  13.015  1.00  0.00     0.010 C 
HETATM   14  C18 UNL     1      -3.444   4.665  14.391  1.00  0.00    -0.010 C 
HETATM   15  C19 UNL     1      -4.363   5.795  14.851  1.00  0.00     0.010 C 
HETATM   16  C20 UNL     1      -4.045   3.297  14.570  1.00  0.00     0.023 C 
HETATM   17  C21 UNL     1      -5.436   3.476  15.107  1.00  0.00     0.015 C 
ENDROOT
BRANCH  10  18
HETATM   18  C8  UNL     1      -1.755   4.098  10.132  1.00  0.00     0.134 C 
BRANCH  18  19
HETATM   19  O5  UNL     1      -1.897   3.737   8.795  1.00  0.00    -0.394 OA
ATOM     20  H5  UNL     1      -2.430   4.357   8.312  1.00  0.00     0.210 HD
ENDBRANCH  18  19
BRANCH  18  21
HETATM   21  C9  UNL     1      -0.786   5.252  10.188  1.00  0.00     0.076 C 
BRANCH  21  22
HETATM   22  C10 UNL     1      -0.575   5.853   8.836  1.00  0.00     0.058 C 
HETATM   23  N2  UNL     1      -1.514   6.563   8.361  1.00  0.00    -0.402 N 
ATOM     24  H2  UNL     1      -2.364   6.696   8.911  1.00  0.00     0.158 HD
BRANCH  23  25
HETATM   25  C11 UNL     1      -1.412   7.177   7.086  1.00  0.00     0.119 C 
BRANCH  25  26
HETATM   26  C12 UNL     1      -2.286   6.430   6.114  1.00  0.00     0.030 C 
BRANCH  26  27
HETATM   27  C13 UNL     1      -3.686   6.932   6.212  1.00  0.00     0.114 C 
BRANCH  27  28
HETATM   28  C14 UNL     1      -4.587   5.897   6.733  1.00  0.00     0.172 C 
HETATM   29  O6  UNL     1      -5.823   5.945   6.662  1.00  0.00    -0.648 OA
HETATM   30  O7  UNL     1      -4.004   4.782   7.351  1.00  0.00    -0.648 OA
ENDBRANCH  27  28
ENDBRANCH  26  27
ENDBRANCH  25  26
ENDBRANCH  23  25
ENDBRANCH  21  22
ENDBRANCH  18  21
ENDBRANCH  10  18
BRANCH   1  31
HETATM   31  O1  UNL     1      -3.022   0.214  11.128  1.00  0.00    -0.361 OA
HETATM   32  C1  UNL     1      -3.086  -1.145  11.044  1.00  0.00     0.205 C 
ENDBRANCH   1  31
BRANCH   4  33
HETATM   33  O3  UNL     1      -4.683  -0.654  15.662  1.00  0.00    -0.288 OA
ATOM     34  H3  UNL     1      -4.266  -1.401  15.250  1.00  0.00     0.244 HD
ENDBRANCH   4  33
TORSDOF 10
ENDMDL
MODEL 5
REMARK VINA RESULT: -7.686410498      3.361      7.372
REMARK  10 active torsions:
REMARK  status: ('A' for Active; 'I' for Inactive)
REMARK    1  A    between atoms: O1_2  and  C2_3 
REMARK    2  A    between atoms: N1_6  and  O3_8 
REMARK    3  A    between atoms: C7_14  and  C8_15 
REMARK    4  A    between atoms: C8_15  and  O5_16 
REMARK    5  A    between atoms: C8_15  and  C9_18 
REMARK    6  A    between atoms: C9_18  and  C10_19 
REMARK    7  A    between atoms: N2_20  and  C11_22 
REMARK    8  A    between atoms: C11_22  and  C12_23 
REMARK    9  A    between atoms: C12_23  and  C13_24 
REMARK   10  A    between atoms: C13_24  and  C14_25 
ROOT
HETATM    1  C2  UNL     1      -1.316   6.293  12.679  1.00  0.00     0.306 A 
HETATM    2  O2  UNL     1       0.088   6.346  12.431  1.00  0.00    -0.298 OA
HETATM    3  C3  UNL     1       0.435   5.135  11.889  1.00  0.00     0.172 A 
HETATM    4  N1  UNL     1       1.673   4.869  11.552  1.00  0.00    -0.247 N 
ATOM      5  H1  UNL     1       1.880   3.953  11.153  1.00  0.00     0.196 HD
HETATM    6  C4  UNL     1      -0.745   4.274  11.770  1.00  0.00     0.014 A 
HETATM    7  C5  UNL     1      -1.740   5.004  12.245  1.00  0.00     0.054 A 
HETATM    8  C6  UNL     1      -3.153   4.632  12.363  1.00  0.00     0.168 C 
HETATM    9  O4  UNL     1      -3.828   5.708  12.154  1.00  0.00    -0.292 OA
HETATM   10  C7  UNL     1      -4.110   3.578  12.609  1.00  0.00     0.093 C 
HETATM   11  C15 UNL     1      -3.769   2.125  12.217  1.00  0.00    -0.004 C 
HETATM   12  C16 UNL     1      -4.730   1.599  11.162  1.00  0.00     0.011 C 
HETATM   13  C17 UNL     1      -2.424   2.300  11.828  1.00  0.00     0.010 C 
HETATM   14  C18 UNL     1      -1.247   1.771  11.292  1.00  0.00    -0.010 C 
HETATM   15  C19 UNL     1      -1.495   1.078   9.954  1.00  0.00     0.010 C 
HETATM   16  C20 UNL     1      -0.365   2.985  11.180  1.00  0.00     0.023 C 
HETATM   17  C21 UNL     1      -0.041   3.182   9.727  1.00  0.00     0.015 C 
ENDROOT
BRANCH  10  18
HETATM   18  C8  UNL     1      -4.475   3.548  14.073  1.00  0.00     0.134 C 
BRANCH  18  19
HETATM   19  O5  UNL     1      -3.355   3.621  14.895  1.00  0.00    -0.394 OA
ATOM     20  H5  UNL     1      -2.548   3.484  14.413  1.00  0.00     0.210 HD
ENDBRANCH  18  19
BRANCH  18  21
HETATM   21  C9  UNL     1      -5.414   4.654  14.489  1.00  0.00     0.076 C 
BRANCH  21  22
HETATM   22  C10 UNL     1      -6.294   4.224  15.618  1.00  0.00     0.058 C 
HETATM   23  N2  UNL     1      -6.132   3.048  16.068  1.00  0.00    -0.402 N 
ATOM     24  H2  UNL     1      -5.419   2.449  15.650  1.00  0.00     0.158 HD
BRANCH  23  25
HETATM   25  C11 UNL     1      -6.916   2.546  17.138  1.00  0.00     0.119 C 
BRANCH  25  26
HETATM   26  C12 UNL     1      -7.027   1.050  17.000  1.00  0.00     0.030 C 
BRANCH  26  27
HETATM   27  C13 UNL     1      -5.763   0.409  17.463  1.00  0.00     0.114 C 
BRANCH  27  28
HETATM   28  C14 UNL     1      -4.765   0.364  16.388  1.00  0.00     0.172 C 
HETATM   29  O6  UNL     1      -4.825  -0.391  15.408  1.00  0.00    -0.648 OA
HETATM   30  O7  UNL     1      -3.672   1.238  16.482  1.00  0.00    -0.648 OA
ENDBRANCH  27  28
ENDBRANCH  26  27
ENDBRANCH  25  26
ENDBRANCH  23  25
ENDBRANCH  21  22
ENDBRANCH  18  21
ENDBRANCH  10  18
BRANCH   1  31
HETATM   31  O1  UNL     1      -1.553   6.571  14.032  1.00  0.00    -0.361 OA
HETATM   32  C1  UNL     1      -1.754   7.897  14.270  1.00  0.00     0.205 C 
ENDBRANCH   1  31
BRANCH   4  33
HETATM   33  O3  UNL     1       2.688   5.744  11.708  1.00  0.00    -0.288 OA
ATOM     34  H3  UNL     1       3.128   5.890  12.536  1.00  0.00     0.244 HD
ENDBRANCH   4  33
TORSDOF 10
ENDMDL
