MODEL 1
REMARK VINA RESULT: -5.143593099      0.000      0.000
REMARK  1 active torsions:
REMARK  status: ('A' for Active; 'I' for Inactive)
REMARK    1  A    between atoms: N1_5  and  O1_7 
ROOT
HETATM    1  C1  UNL     1     -31.515 -19.276  10.670  1.00  0.00     0.021 C 
HETATM    2  C2  UNL     1     -30.388 -18.298  10.566  1.00  0.00     0.048 C 
HETATM    3  C3  UNL     1     -29.576 -18.511   9.280  1.00  0.00     0.069 C 
HETATM    4  C4  UNL     1     -28.279 -17.799   9.370  1.00  0.00     0.011 C 
HETATM    5  N1  UNL     1     -27.381 -18.084   8.497  1.00  0.00    -0.277 N 
ATOM      6  H1  UNL     1     -27.609 -18.782   7.790  1.00  0.00     0.193 HD
HETATM    7  C5  UNL     1     -28.047 -16.806  10.430  1.00  0.00     0.064 C 
HETATM    8  C6  UNL     1     -27.936 -17.403  11.797  1.00  0.00     0.080 C 
HETATM    9  S1  UNL     1     -29.236 -18.669  11.950  1.00  0.00    -0.164 SA
ENDROOT
BRANCH   5  10
HETATM   10  O1  UNL     1     -26.138 -17.513   8.450  1.00  0.00    -0.290 OA
ATOM     11  H1  UNL     1     -25.725 -17.188   7.659  1.00  0.00     0.244 HD
ENDBRANCH   5  10
TORSDOF 1
ENDMDL
MODEL 2
REMARK VINA RESULT: -5.087912211      3.187      4.104
REMARK  1 active torsions:
REMARK  status: ('A' for Active; 'I' for Inactive)
REMARK    1  A    between atoms: N1_5  and  O1_7 
ROOT
HETATM    1  C1  UNL     1     -28.218 -16.253  12.201  1.00  0.00     0.021 C 
HETATM    2  C2  UNL     1     -29.246 -16.915  11.340  1.00  0.00     0.048 C 
HETATM    3  C3  UNL     1     -29.979 -18.032  12.098  1.00  0.00     0.069 C 
HETATM    4  C4  UNL     1     -30.713 -18.900  11.145  1.00  0.00     0.011 C 
HETATM    5  N1  UNL     1     -31.160 -20.022  11.584  1.00  0.00    -0.277 N 
ATOM      6  H1  UNL     1     -30.987 -20.253  12.562  1.00  0.00     0.193 HD
HETATM    7  C5  UNL     1     -30.911 -18.474   9.751  1.00  0.00     0.064 C 
HETATM    8  C6  UNL     1     -29.653 -18.468   8.942  1.00  0.00     0.080 C 
HETATM    9  S1  UNL     1     -28.338 -17.749   9.977  1.00  0.00    -0.164 SA
ENDROOT
BRANCH   5  10
HETATM   10  O1  UNL     1     -31.853 -20.927  10.828  1.00  0.00    -0.290 OA
ATOM     11  H1  UNL     1     -32.596 -20.710  10.277  1.00  0.00     0.244 HD
ENDBRANCH   5  10
TORSDOF 1
ENDMDL
MODEL 3
REMARK VINA RESULT: -5.076216894      2.654      3.568
REMARK  1 active torsions:
REMARK  status: ('A' for Active; 'I' for Inactive)
REMARK    1  A    between atoms: N1_5  and  O1_7 
ROOT
HETATM    1  C1  UNL     1     -27.159 -16.271  10.422  1.00  0.00     0.021 C 
HETATM    2  C2  UNL     1     -28.129 -17.409  10.431  1.00  0.00     0.048 C 
HETATM    3  C3  UNL     1     -29.042 -17.379   9.196  1.00  0.00     0.069 C 
HETATM    4  C4  UNL     1     -30.208 -18.272   9.401  1.00  0.00     0.011 C 
HETATM    5  N1  UNL     1     -31.191 -18.165   8.581  1.00  0.00    -0.277 N 
ATOM      6  H1  UNL     1     -31.116 -17.473   7.836  1.00  0.00     0.193 HD
HETATM    7  C5  UNL     1     -30.220 -19.239  10.509  1.00  0.00     0.064 C 
HETATM    8  C6  UNL     1     -30.335 -18.603  11.859  1.00  0.00     0.080 C 
HETATM    9  S1  UNL     1     -29.235 -17.152  11.876  1.00  0.00    -0.164 SA
ENDROOT
BRANCH   5  10
HETATM   10  O1  UNL     1     -32.334 -18.916   8.641  1.00  0.00    -0.290 OA
ATOM     11  H1  UNL     1     -33.177 -18.589   8.932  1.00  0.00     0.244 HD
ENDBRANCH   5  10
TORSDOF 1
ENDMDL
MODEL 4
REMARK VINA RESULT: -4.876529257      2.162      2.264
REMARK  1 active torsions:
REMARK  status: ('A' for Active; 'I' for Inactive)
REMARK    1  A    between atoms: N1_5  and  O1_7 
ROOT
HETATM    1  C1  UNL     1     -30.219 -19.517  11.196  1.00  0.00     0.021 C 
HETATM    2  C2  UNL     1     -29.991 -18.062  11.452  1.00  0.00     0.048 C 
HETATM    3  C3  UNL     1     -29.674 -17.306  10.153  1.00  0.00     0.069 C 
HETATM    4  C4  UNL     1     -29.101 -15.974  10.463  1.00  0.00     0.011 C 
HETATM    5  N1  UNL     1     -28.545 -15.326   9.503  1.00  0.00    -0.277 N 
ATOM      6  H1  UNL     1     -28.530 -15.762   8.581  1.00  0.00     0.193 HD
HETATM    7  C5  UNL     1     -29.174 -15.431  11.828  1.00  0.00     0.064 C 
HETATM    8  C6  UNL     1     -28.303 -16.153  12.808  1.00  0.00     0.080 C 
HETATM    9  S1  UNL     1     -28.475 -17.937  12.484  1.00  0.00    -0.164 SA
ENDROOT
BRANCH   5  10
HETATM   10  O1  UNL     1     -27.972 -14.090   9.632  1.00  0.00    -0.290 OA
ATOM     11  H1  UNL     1     -28.383 -13.277   9.364  1.00  0.00     0.244 HD
ENDBRANCH   5  10
TORSDOF 1
ENDMDL
MODEL 5
REMARK VINA RESULT: -4.808653970      3.377      3.683
REMARK  1 active torsions:
REMARK  status: ('A' for Active; 'I' for Inactive)
REMARK    1  A    between atoms: N1_5  and  O1_7 
ROOT
HETATM    1  C1  UNL     1     -30.315 -18.154   9.042  1.00  0.00     0.021 C 
HETATM    2  C2  UNL     1     -29.344 -18.014  10.171  1.00  0.00     0.048 C 
HETATM    3  C3  UNL     1     -30.002 -18.340  11.521  1.00  0.00     0.069 C 
HETATM    4  C4  UNL     1     -29.154 -17.851  12.635  1.00  0.00     0.011 C 
HETATM    5  N1  UNL     1     -29.676 -17.810  13.808  1.00  0.00    -0.277 N 
ATOM      6  H1  UNL     1     -30.643 -18.117  13.909  1.00  0.00     0.193 HD
HETATM    7  C5  UNL     1     -27.767 -17.430  12.385  1.00  0.00     0.064 C 
HETATM    8  C6  UNL     1     -27.658 -16.159  11.601  1.00  0.00     0.080 C 
HETATM    9  S1  UNL     1     -28.884 -16.237  10.257  1.00  0.00    -0.164 SA
ENDROOT
BRANCH   5  10
HETATM   10  O1  UNL     1     -29.022 -17.383  14.932  1.00  0.00    -0.290 OA
ATOM     11  H1  UNL     1     -28.806 -16.477  15.115  1.00  0.00     0.244 HD
ENDBRANCH   5  10
TORSDOF 1
ENDMDL
