MODEL 1
REMARK VINA RESULT: -6.050573068      0.000      0.000
REMARK  1 active torsions:
REMARK  status: ('A' for Active; 'I' for Inactive)
REMARK    1  A    between atoms: N1_9  and  O2_11 
ROOT
HETATM    1  C1  UNL     1     -31.738 -20.282  11.210  1.00  0.00     0.046 C 
HETATM    2  C2  UNL     1     -30.725 -19.224  10.928  1.00  0.00     0.164 C 
HETATM    3  O1  UNL     1     -30.720 -18.190  11.859  1.00  0.00    -0.380 OA
HETATM    4  C3  UNL     1     -29.454 -17.647  11.926  1.00  0.00     0.168 C 
HETATM    5  C4  UNL     1     -29.140 -16.695  10.809  1.00  0.00     0.027 C 
HETATM    6  C5  UNL     1     -28.806 -17.360   9.516  1.00  0.00     0.008 C 
HETATM    7  C6  UNL     1     -30.007 -17.851   8.754  1.00  0.00     0.057 C 
HETATM    8  C7  UNL     1     -30.939 -18.625   9.598  1.00  0.00     0.038 C 
HETATM    9  N1  UNL     1     -32.097 -18.795   9.090  1.00  0.00    -0.275 N 
ATOM     10  H1  UNL     1     -32.780 -19.324   9.632  1.00  0.00     0.193 HD
ENDROOT
BRANCH   9  11
HETATM   11  O2  UNL     1     -32.487 -18.319   7.872  1.00  0.00    -0.290 OA
ATOM     12  H2  UNL     1     -33.352 -17.974   7.678  1.00  0.00     0.244 HD
ENDBRANCH   9  11
TORSDOF 1
ENDMDL
MODEL 2
REMARK VINA RESULT: -5.830320631      2.747      3.818
REMARK  1 active torsions:
REMARK  status: ('A' for Active; 'I' for Inactive)
REMARK    1  A    between atoms: N1_9  and  O2_11 
ROOT
HETATM    1  C1  UNL     1     -27.487 -15.641  11.520  1.00  0.00     0.046 C 
HETATM    2  C2  UNL     1     -28.483 -16.691  11.157  1.00  0.00     0.164 C 
HETATM    3  O1  UNL     1     -28.632 -17.680  12.124  1.00  0.00    -0.380 OA
HETATM    4  C3  UNL     1     -29.910 -18.195  12.051  1.00  0.00     0.168 C 
HETATM    5  C4  UNL     1     -30.103 -19.192  10.945  1.00  0.00     0.027 C 
HETATM    6  C5  UNL     1     -30.251 -18.581   9.592  1.00  0.00     0.008 C 
HETATM    7  C6  UNL     1     -28.950 -18.150   8.970  1.00  0.00     0.057 C 
HETATM    8  C7  UNL     1     -28.115 -17.355   9.893  1.00  0.00     0.038 C 
HETATM    9  N1  UNL     1     -26.898 -17.233   9.531  1.00  0.00    -0.275 N 
ATOM     10  H1  UNL     1     -26.277 -16.692  10.134  1.00  0.00     0.193 HD
ENDROOT
BRANCH   9  11
HETATM   11  O2  UNL     1     -26.367 -17.772   8.396  1.00  0.00    -0.290 OA
ATOM     12  H2  UNL     1     -26.749 -18.494   7.910  1.00  0.00     0.244 HD
ENDBRANCH   9  11
TORSDOF 1
ENDMDL
MODEL 3
REMARK VINA RESULT: -5.770217440      1.981      3.127
REMARK  1 active torsions:
REMARK  status: ('A' for Active; 'I' for Inactive)
REMARK    1  A    between atoms: N1_9  and  O2_11 
ROOT
HETATM    1  C1  UNL     1     -31.701 -19.705  11.125  1.00  0.00     0.046 C 
HETATM    2  C2  UNL     1     -30.700 -18.804  10.481  1.00  0.00     0.164 C 
HETATM    3  O1  UNL     1     -29.702 -19.479   9.787  1.00  0.00    -0.380 OA
HETATM    4  C3  UNL     1     -29.243 -18.680   8.761  1.00  0.00     0.168 C 
HETATM    5  C4  UNL     1     -28.275 -17.621   9.200  1.00  0.00     0.027 C 
HETATM    6  C5  UNL     1     -28.914 -16.444   9.857  1.00  0.00     0.008 C 
HETATM    7  C6  UNL     1     -29.300 -16.680  11.293  1.00  0.00     0.057 C 
HETATM    8  C7  UNL     1     -30.043 -17.943  11.481  1.00  0.00     0.038 C 
HETATM    9  N1  UNL     1     -30.119 -18.335  12.692  1.00  0.00    -0.275 N 
ATOM     10  H1  UNL     1     -30.623 -19.202  12.878  1.00  0.00     0.193 HD
ENDROOT
BRANCH   9  11
HETATM   11  O2  UNL     1     -29.577 -17.676  13.758  1.00  0.00    -0.290 OA
ATOM     12  H2  UNL     1     -29.138 -18.098  14.488  1.00  0.00     0.244 HD
ENDBRANCH   9  11
TORSDOF 1
ENDMDL
MODEL 4
REMARK VINA RESULT: -5.384843559      2.593      3.652
REMARK  1 active torsions:
REMARK  status: ('A' for Active; 'I' for Inactive)
REMARK    1  A    between atoms: N1_9  and  O2_11 
ROOT
HETATM    1  C1  UNL     1     -29.983 -17.502   8.919  1.00  0.00     0.046 C 
HETATM    2  C2  UNL     1     -29.300 -17.496  10.245  1.00  0.00     0.164 C 
HETATM    3  O1  UNL     1     -30.173 -17.538  11.327  1.00  0.00    -0.380 OA
HETATM    4  C3  UNL     1     -29.546 -18.147  12.393  1.00  0.00     0.168 C 
HETATM    5  C4  UNL     1     -28.602 -17.250  13.139  1.00  0.00     0.027 C 
HETATM    6  C5  UNL     1     -27.290 -17.043  12.460  1.00  0.00     0.008 C 
HETATM    7  C6  UNL     1     -27.336 -16.049  11.331  1.00  0.00     0.057 C 
HETATM    8  C7  UNL     1     -28.455 -16.298  10.400  1.00  0.00     0.038 C 
HETATM    9  N1  UNL     1     -28.719 -15.323   9.620  1.00  0.00    -0.275 N 
ATOM     10  H1  UNL     1     -29.485 -15.443   8.956  1.00  0.00     0.193 HD
ENDROOT
BRANCH   9  11
HETATM   11  O2  UNL     1     -28.052 -14.133   9.610  1.00  0.00    -0.290 OA
ATOM     12  H2  UNL     1     -28.383 -13.331   9.221  1.00  0.00     0.244 HD
ENDBRANCH   9  11
TORSDOF 1
ENDMDL
MODEL 5
REMARK VINA RESULT: -5.366338953      3.088      3.891
REMARK  1 active torsions:
REMARK  status: ('A' for Active; 'I' for Inactive)
REMARK    1  A    between atoms: N1_9  and  O2_11 
ROOT
HETATM    1  C1  UNL     1     -29.549 -18.338  10.697  1.00  0.00     0.046 C 
HETATM    2  C2  UNL     1     -28.844 -17.094  11.124  1.00  0.00     0.164 C 
HETATM    3  O1  UNL     1     -29.579 -15.932  10.912  1.00  0.00    -0.380 OA
HETATM    4  C3  UNL     1     -29.205 -14.984  11.841  1.00  0.00     0.168 C 
HETATM    5  C4  UNL     1     -27.922 -14.279  11.510  1.00  0.00     0.027 C 
HETATM    6  C5  UNL     1     -26.695 -15.076  11.801  1.00  0.00     0.008 C 
HETATM    7  C6  UNL     1     -26.384 -16.121  10.763  1.00  0.00     0.057 C 
HETATM    8  C7  UNL     1     -27.559 -16.944  10.416  1.00  0.00     0.038 C 
HETATM    9  N1  UNL     1     -27.431 -17.621   9.342  1.00  0.00    -0.275 N 
ATOM     10  H1  UNL     1     -28.215 -18.208   9.056  1.00  0.00     0.193 HD
ENDROOT
BRANCH   9  11
HETATM   11  O2  UNL     1     -26.321 -17.617   8.549  1.00  0.00    -0.290 OA
ATOM     12  H2  UNL     1     -26.294 -17.938   7.655  1.00  0.00     0.244 HD
ENDBRANCH   9  11
TORSDOF 1
ENDMDL
