MODEL 1
REMARK VINA RESULT: -7.146423753      0.000      0.000
REMARK  7 active torsions:
REMARK  status: ('A' for Active; 'I' for Inactive)
REMARK    1  A    between atoms: C1_4  and  S1_6 
REMARK    2  A    between atoms: S1_6  and  C2_7 
REMARK    3  A    between atoms: C2_7  and  C3_8 
REMARK       I    between atoms: C3_8  and  N3_10 
REMARK    4  A    between atoms: N3_10  and  C4_12 
REMARK    5  A    between atoms: C5_15  and  C6_16 
REMARK    6  A    between atoms: C6_16  and  N5_17 
REMARK    7  A    between atoms: N6_20  and  C9_21 
ROOT
HETATM    1  C4  UNL     1      -2.955   2.181  12.310  1.00  0.00     0.151 A 
HETATM    2  N4  UNL     1      -2.479   3.243  11.654  1.00  0.00    -0.338 N 
ATOM      3  H4  UNL     1      -2.609   4.186  12.020  1.00  0.00     0.168 HD
HETATM    4  C5  UNL     1      -1.842   3.040  10.532  1.00  0.00     0.046 A 
HETATM    5  C16 UNL     1      -1.699   1.755  10.096  1.00  0.00     0.080 A 
HETATM    6  S2  UNL     1      -2.492   0.872  11.322  1.00  0.00    -0.064 SA
ENDROOT
BRANCH   4   7
HETATM    7  C6  UNL     1      -1.283   4.189   9.715  1.00  0.00     0.332 C 
BRANCH   7   8
HETATM    8  N5  UNL     1       0.132   3.990   9.637  1.00  0.00     0.123 N 
HETATM    9  C7  UNL     1       0.723   4.558   8.447  1.00  0.00     0.305 C 
HETATM   10  C8  UNL     1       2.190   4.607   8.807  1.00  0.00     0.305 C 
HETATM   11  N6  UNL     1       2.230   4.582  10.252  1.00  0.00     0.123 N 
HETATM   12  C15 UNL     1       0.854   4.654  10.692  1.00  0.00     0.543 C 
BRANCH  11  13
HETATM   13  C9  UNL     1       2.982   5.774  10.677  1.00  0.00     0.225 C 
HETATM   14  C10 UNL     1       4.256   5.774   9.897  1.00  0.00     0.036 C 
HETATM   15  C11 UNL     1       5.282   6.636  10.637  1.00  0.00     0.002 C 
HETATM   16  C12 UNL     1       5.611   5.829  11.879  1.00  0.00     0.000 C 
HETATM   17  C13 UNL     1       4.431   5.587  12.744  1.00  0.00     0.002 C 
HETATM   18  C14 UNL     1       3.102   5.852  12.137  1.00  0.00     0.036 C 
ENDBRANCH  11  13
ENDBRANCH   7   8
ENDBRANCH   4   7
BRANCH   1  19
HETATM   19  N3  UNL     1      -3.619   2.148  13.445  1.00  0.00    -0.306 N 
HETATM   20  C3  UNL     1      -4.767   3.018  13.526  1.00  0.00     0.233 C 
HETATM   21  O1  UNL     1      -5.458   3.145  12.496  1.00  0.00    -0.272 OA
ATOM     22  H3  UNL     1      -3.340   1.546  14.220  1.00  0.00     0.171 HD
BRANCH  20  23
HETATM   23  C2  UNL     1      -5.023   3.679  14.812  1.00  0.00     0.185 C 
BRANCH  23  24
HETATM   24  S1  UNL     1      -5.976   2.719  15.969  1.00  0.00    -0.088 SA
BRANCH  24  25
HETATM   25  C1  UNL     1      -5.184   1.289  16.618  1.00  0.00     0.148 C 
HETATM   26  N1  UNL     1      -5.771   0.425  17.330  1.00  0.00    -0.382 N 
ATOM     27  H12 UNL     1      -5.311  -0.405  17.707  1.00  0.00     0.157 HD
ATOM     28  H11 UNL     1      -6.756   0.572  17.550  1.00  0.00     0.157 HD
HETATM   29  N2  UNL     1      -3.813   1.085  16.312  1.00  0.00    -0.075 NA
ENDBRANCH  24  25
ENDBRANCH  23  24
ENDBRANCH  20  23
ENDBRANCH   1  19
TORSDOF 7
ENDMDL
MODEL 2
REMARK VINA RESULT: -7.008553717      3.960      7.983
REMARK  7 active torsions:
REMARK  status: ('A' for Active; 'I' for Inactive)
REMARK    1  A    between atoms: C1_4  and  S1_6 
REMARK    2  A    between atoms: S1_6  and  C2_7 
REMARK    3  A    between atoms: C2_7  and  C3_8 
REMARK       I    between atoms: C3_8  and  N3_10 
REMARK    4  A    between atoms: N3_10  and  C4_12 
REMARK    5  A    between atoms: C5_15  and  C6_16 
REMARK    6  A    between atoms: C6_16  and  N5_17 
REMARK    7  A    between atoms: N6_20  and  C9_21 
ROOT
HETATM    1  C4  UNL     1      -1.318   4.309  11.990  1.00  0.00     0.151 A 
HETATM    2  N4  UNL     1      -2.596   4.661  12.150  1.00  0.00    -0.338 N 
ATOM      3  H4  UNL     1      -3.342   3.968  12.087  1.00  0.00     0.168 HD
HETATM    4  C5  UNL     1      -2.866   5.916  12.390  1.00  0.00     0.046 A 
HETATM    5  C16 UNL     1      -1.825   6.795  12.465  1.00  0.00     0.080 A 
HETATM    6  S2  UNL     1      -0.482   5.781  12.185  1.00  0.00    -0.064 SA
ENDROOT
BRANCH   4   7
HETATM    7  C6  UNL     1      -4.290   6.404  12.570  1.00  0.00     0.332 C 
BRANCH   7   8
HETATM    8  N5  UNL     1      -4.699   6.012  13.883  1.00  0.00     0.123 N 
HETATM    9  C7  UNL     1      -6.099   6.263  14.144  1.00  0.00     0.305 C 
HETATM   10  C8  UNL     1      -6.363   5.397  15.353  1.00  0.00     0.305 C 
HETATM   11  N6  UNL     1      -5.325   4.392  15.337  1.00  0.00     0.123 N 
HETATM   12  C15 UNL     1      -4.591   4.592  14.107  1.00  0.00     0.543 C 
BRANCH  11  13
HETATM   13  C9  UNL     1      -6.000   3.083  15.340  1.00  0.00     0.225 C 
HETATM   14  C10 UNL     1      -6.821   3.030  16.587  1.00  0.00     0.036 C 
HETATM   15  C11 UNL     1      -7.110   1.565  16.920  1.00  0.00     0.002 C 
HETATM   16  C12 UNL     1      -5.763   1.012  17.343  1.00  0.00     0.000 C 
HETATM   17  C13 UNL     1      -4.737   1.098  16.276  1.00  0.00     0.002 C 
HETATM   18  C14 UNL     1      -5.056   1.981  15.124  1.00  0.00     0.036 C 
ENDBRANCH  11  13
ENDBRANCH   7   8
ENDBRANCH   4   7
BRANCH   1  19
HETATM   19  N3  UNL     1      -0.819   3.117  11.744  1.00  0.00    -0.306 N 
HETATM   20  C3  UNL     1      -1.491   2.355  10.719  1.00  0.00     0.233 C 
HETATM   21  O1  UNL     1      -1.912   2.983   9.729  1.00  0.00    -0.272 OA
ATOM     22  H3  UNL     1      -0.009   2.753  12.246  1.00  0.00     0.171 HD
BRANCH  20  23
HETATM   23  C2  UNL     1      -1.622   0.909  10.932  1.00  0.00     0.185 C 
BRANCH  23  24
HETATM   24  S1  UNL     1      -3.157   0.397  11.674  1.00  0.00    -0.088 SA
BRANCH  24  25
HETATM   25  C1  UNL     1      -4.613   1.115  11.001  1.00  0.00     0.148 C 
HETATM   26  N1  UNL     1      -5.325   0.558  10.117  1.00  0.00    -0.382 N 
ATOM     27  H12 UNL     1      -6.171   0.975   9.727  1.00  0.00     0.157 HD
ATOM     28  H11 UNL     1      -5.031  -0.353   9.767  1.00  0.00     0.157 HD
HETATM   29  N2  UNL     1      -5.023   2.384  11.489  1.00  0.00    -0.075 NA
ENDBRANCH  24  25
ENDBRANCH  23  24
ENDBRANCH  20  23
ENDBRANCH   1  19
TORSDOF 7
ENDMDL
MODEL 3
REMARK VINA RESULT: -6.896273546      2.576      3.865
REMARK  7 active torsions:
REMARK  status: ('A' for Active; 'I' for Inactive)
REMARK    1  A    between atoms: C1_4  and  S1_6 
REMARK    2  A    between atoms: S1_6  and  C2_7 
REMARK    3  A    between atoms: C2_7  and  C3_8 
REMARK       I    between atoms: C3_8  and  N3_10 
REMARK    4  A    between atoms: N3_10  and  C4_12 
REMARK    5  A    between atoms: C5_15  and  C6_16 
REMARK    6  A    between atoms: C6_16  and  N5_17 
REMARK    7  A    between atoms: N6_20  and  C9_21 
ROOT
HETATM    1  C4  UNL     1      -3.759   1.375  12.769  1.00  0.00     0.151 A 
HETATM    2  N4  UNL     1      -2.850   2.171  12.200  1.00  0.00    -0.338 N 
ATOM      3  H4  UNL     1      -2.609   3.070  12.617  1.00  0.00     0.168 HD
HETATM    4  C5  UNL     1      -2.279   1.768  11.097  1.00  0.00     0.046 A 
HETATM    5  C16 UNL     1      -2.643   0.554  10.590  1.00  0.00     0.080 A 
HETATM    6  S2  UNL     1      -3.805   0.029  11.724  1.00  0.00    -0.064 SA
ENDROOT
BRANCH   4   7
HETATM    7  C6  UNL     1      -1.248   2.616  10.378  1.00  0.00     0.332 C 
BRANCH   7   8
HETATM    8  N5  UNL     1      -0.723   3.533  11.342  1.00  0.00     0.123 N 
HETATM    9  C7  UNL     1       0.244   4.453  10.786  1.00  0.00     0.305 C 
HETATM   10  C8  UNL     1       0.300   5.537  11.837  1.00  0.00     0.305 C 
HETATM   11  N6  UNL     1      -0.942   5.425  12.568  1.00  0.00     0.123 N 
HETATM   12  C15 UNL     1      -1.723   4.420  11.881  1.00  0.00     0.543 C 
BRANCH  11  13
HETATM   13  C9  UNL     1      -1.598   6.741  12.497  1.00  0.00     0.225 C 
HETATM   14  C10 UNL     1      -0.618   7.735  13.031  1.00  0.00     0.036 C 
HETATM   15  C11 UNL     1      -1.382   8.983  13.476  1.00  0.00     0.002 C 
HETATM   16  C12 UNL     1      -2.149   8.527  14.703  1.00  0.00     0.000 C 
HETATM   17  C13 UNL     1      -3.099   7.424  14.417  1.00  0.00     0.002 C 
HETATM   18  C14 UNL     1      -2.926   6.724  13.119  1.00  0.00     0.036 C 
ENDBRANCH  11  13
ENDBRANCH   7   8
ENDBRANCH   4   7
BRANCH   1  19
HETATM   19  N3  UNL     1      -4.452   1.574  13.869  1.00  0.00    -0.306 N 
HETATM   20  C3  UNL     1      -5.130   2.844  13.962  1.00  0.00     0.233 C 
HETATM   21  O1  UNL     1      -5.630   3.299  12.916  1.00  0.00    -0.272 OA
ATOM     22  H3  UNL     1      -4.507   0.875  14.610  1.00  0.00     0.171 HD
BRANCH  20  23
HETATM   23  C2  UNL     1      -5.172   3.490  15.280  1.00  0.00     0.185 C 
BRANCH  23  24
HETATM   24  S1  UNL     1      -4.952   2.389  16.661  1.00  0.00    -0.088 SA
BRANCH  24  25
HETATM   25  C1  UNL     1      -6.234   1.213  16.918  1.00  0.00     0.148 C 
HETATM   26  N1  UNL     1      -7.465   1.491  16.847  1.00  0.00    -0.382 N 
ATOM     27  H12 UNL     1      -8.209   0.809  16.996  1.00  0.00     0.157 HD
ATOM     28  H11 UNL     1      -7.729   2.454  16.639  1.00  0.00     0.157 HD
HETATM   29  N2  UNL     1      -5.867  -0.128  17.207  1.00  0.00    -0.075 NA
ENDBRANCH  24  25
ENDBRANCH  23  24
ENDBRANCH  20  23
ENDBRANCH   1  19
TORSDOF 7
ENDMDL
MODEL 4
REMARK VINA RESULT: -6.849623569      2.958      8.927
REMARK  7 active torsions:
REMARK  status: ('A' for Active; 'I' for Inactive)
REMARK    1  A    between atoms: C1_4  and  S1_6 
REMARK    2  A    between atoms: S1_6  and  C2_7 
REMARK    3  A    between atoms: C2_7  and  C3_8 
REMARK       I    between atoms: C3_8  and  N3_10 
REMARK    4  A    between atoms: N3_10  and  C4_12 
REMARK    5  A    between atoms: C5_15  and  C6_16 
REMARK    6  A    between atoms: C6_16  and  N5_17 
REMARK    7  A    between atoms: N6_20  and  C9_21 
ROOT
HETATM    1  C4  UNL     1       0.378   4.338  11.229  1.00  0.00     0.151 A 
HETATM    2  N4  UNL     1      -0.655   3.724  11.812  1.00  0.00    -0.338 N 
ATOM      3  H4  UNL     1      -0.800   3.785  12.820  1.00  0.00     0.168 HD
HETATM    4  C5  UNL     1      -1.476   3.045  11.056  1.00  0.00     0.046 A 
HETATM    5  C16 UNL     1      -1.230   3.004   9.714  1.00  0.00     0.080 A 
HETATM    6  S2  UNL     1       0.184   3.949   9.582  1.00  0.00    -0.064 SA
ENDROOT
BRANCH   4   7
HETATM    7  C6  UNL     1      -2.666   2.305  11.636  1.00  0.00     0.332 C 
BRANCH   7   8
HETATM    8  N5  UNL     1      -3.127   3.075  12.750  1.00  0.00     0.123 N 
HETATM    9  C7  UNL     1      -4.193   3.989  12.409  1.00  0.00     0.305 C 
HETATM   10  C8  UNL     1      -4.773   4.329  13.762  1.00  0.00     0.305 C 
HETATM   11  N6  UNL     1      -4.379   3.242  14.630  1.00  0.00     0.123 N 
HETATM   12  C15 UNL     1      -3.727   2.268  13.783  1.00  0.00     0.543 C 
BRANCH  11  13
HETATM   13  C9  UNL     1      -5.615   2.692  15.211  1.00  0.00     0.225 C 
HETATM   14  C10 UNL     1      -6.270   3.809  15.956  1.00  0.00     0.036 C 
HETATM   15  C11 UNL     1      -7.229   3.212  16.988  1.00  0.00     0.002 C 
HETATM   16  C12 UNL     1      -6.313   2.572  18.014  1.00  0.00     0.000 C 
HETATM   17  C13 UNL     1      -5.453   1.507  17.442  1.00  0.00     0.002 C 
HETATM   18  C14 UNL     1      -5.363   1.456  15.960  1.00  0.00     0.036 C 
ENDBRANCH  11  13
ENDBRANCH   7   8
ENDBRANCH   4   7
BRANCH   1  19
HETATM   19  N3  UNL     1       1.319   5.069  11.787  1.00  0.00    -0.306 N 
HETATM   20  C3  UNL     1       1.051   6.485  11.862  1.00  0.00     0.233 C 
HETATM   21  O1  UNL     1      -0.121   6.829  12.106  1.00  0.00    -0.272 OA
ATOM     22  H3  UNL     1       2.183   4.661  12.144  1.00  0.00     0.171 HD
BRANCH  20  23
HETATM   23  C2  UNL     1       2.181   7.396  11.644  1.00  0.00     0.185 C 
BRANCH  23  24
HETATM   24  S1  UNL     1       3.766   6.754  12.137  1.00  0.00    -0.088 SA
BRANCH  24  25
HETATM   25  C1  UNL     1       4.687   5.932  10.885  1.00  0.00     0.148 C 
HETATM   26  N1  UNL     1       5.911   6.150  10.658  1.00  0.00    -0.382 N 
ATOM     27  H12 UNL     1       6.445   5.673   9.932  1.00  0.00     0.157 HD
ATOM     28  H11 UNL     1       6.388   6.850  11.226  1.00  0.00     0.157 HD
HETATM   29  N2  UNL     1       4.023   4.957  10.095  1.00  0.00    -0.075 NA
ENDBRANCH  24  25
ENDBRANCH  23  24
ENDBRANCH  20  23
ENDBRANCH   1  19
TORSDOF 7
ENDMDL
MODEL 5
REMARK VINA RESULT: -6.849472021      2.277      3.063
REMARK  7 active torsions:
REMARK  status: ('A' for Active; 'I' for Inactive)
REMARK    1  A    between atoms: C1_4  and  S1_6 
REMARK    2  A    between atoms: S1_6  and  C2_7 
REMARK    3  A    between atoms: C2_7  and  C3_8 
REMARK       I    between atoms: C3_8  and  N3_10 
REMARK    4  A    between atoms: N3_10  and  C4_12 
REMARK    5  A    between atoms: C5_15  and  C6_16 
REMARK    6  A    between atoms: C6_16  and  N5_17 
REMARK    7  A    between atoms: N6_20  and  C9_21 
ROOT
HETATM    1  C4  UNL     1      -4.154   1.634  12.515  1.00  0.00     0.151 A 
HETATM    2  N4  UNL     1      -2.934   2.076  12.200  1.00  0.00    -0.338 N 
ATOM      3  H4  UNL     1      -2.476   2.796  12.760  1.00  0.00     0.168 HD
HETATM    4  C5  UNL     1      -2.342   1.562  11.155  1.00  0.00     0.046 A 
HETATM    5  C16 UNL     1      -3.005   0.602  10.447  1.00  0.00     0.080 A 
HETATM    6  S2  UNL     1      -4.469   0.469  11.313  1.00  0.00    -0.064 SA
ENDROOT
BRANCH   4   7
HETATM    7  C6  UNL     1      -0.963   2.017  10.717  1.00  0.00     0.332 C 
BRANCH   7   8
HETATM    8  N5  UNL     1      -1.039   3.432  10.519  1.00  0.00     0.123 N 
HETATM    9  C7  UNL     1       0.061   4.152  11.122  1.00  0.00     0.305 C 
HETATM   10  C8  UNL     1      -0.008   5.490  10.425  1.00  0.00     0.305 C 
HETATM   11  N6  UNL     1      -0.730   5.245   9.196  1.00  0.00     0.123 N 
HETATM   12  C15 UNL     1      -0.939   3.815   9.134  1.00  0.00     0.543 C 
BRANCH  11  13
HETATM   13  C9  UNL     1       0.137   5.698   8.096  1.00  0.00     0.225 C 
HETATM   14  C10 UNL     1      -0.226   4.877   6.902  1.00  0.00     0.036 C 
HETATM   15  C11 UNL     1       0.942   4.909   5.914  1.00  0.00     0.002 C 
HETATM   16  C12 UNL     1       2.026   4.099   6.601  1.00  0.00     0.000 C 
HETATM   17  C13 UNL     1       2.444   4.675   7.903  1.00  0.00     0.002 C 
HETATM   18  C14 UNL     1       1.551   5.710   8.484  1.00  0.00     0.036 C 
ENDBRANCH  11  13
ENDBRANCH   7   8
ENDBRANCH   4   7
BRANCH   1  19
HETATM   19  N3  UNL     1      -4.928   2.003  13.513  1.00  0.00    -0.306 N 
HETATM   20  C3  UNL     1      -5.023   3.424  13.740  1.00  0.00     0.233 C 
HETATM   21  O1  UNL     1      -5.045   4.160  12.735  1.00  0.00    -0.272 OA
ATOM     22  H3  UNL     1      -5.429   1.327  14.090  1.00  0.00     0.171 HD
BRANCH  20  23
HETATM   23  C2  UNL     1      -5.086   3.882  15.134  1.00  0.00     0.185 C 
BRANCH  23  24
HETATM   24  S1  UNL     1      -5.993   2.813  16.231  1.00  0.00    -0.088 SA
BRANCH  24  25
HETATM   25  C1  UNL     1      -5.183   1.324  16.699  1.00  0.00     0.148 C 
HETATM   26  N1  UNL     1      -5.743   0.397  17.351  1.00  0.00    -0.382 N 
ATOM     27  H12 UNL     1      -5.273  -0.467  17.622  1.00  0.00     0.157 HD
ATOM     28  H11 UNL     1      -6.715   0.525  17.630  1.00  0.00     0.157 HD
HETATM   29  N2  UNL     1      -3.830   1.146  16.309  1.00  0.00    -0.075 NA
ENDBRANCH  24  25
ENDBRANCH  23  24
ENDBRANCH  20  23
ENDBRANCH   1  19
TORSDOF 7
ENDMDL
