MODEL 1
REMARK VINA RESULT: -6.693211112      0.000      0.000
REMARK  8 active torsions:
REMARK  status: ('A' for Active; 'I' for Inactive)
REMARK    1  A    between atoms: C2_2  and  C3_3 
REMARK    2  A    between atoms: C3_3  and  S1_4 
REMARK    3  A    between atoms: S1_4  and  C4_5 
REMARK    4  A    between atoms: C5_8  and  C6_9 
REMARK    5  A    between atoms: C6_9  and  O1_10 
REMARK    6  A    between atoms: N2_12  and  O2_14 
REMARK    7  A    between atoms: C7_16  and  C8_17 
REMARK       I    between atoms: C8_17  and  N3_19 
REMARK    8  A    between atoms: C10_22  and  C11_23 
ROOT
HETATM    1  C4  UNL     1      -3.719   2.612  14.986  1.00  0.00     0.203 C 
HETATM    2  N1  UNL     1      -3.698   1.764  13.832  1.00  0.00    -0.389 N 
ATOM      3  H1  UNL     1      -3.100   0.939  13.770  1.00  0.00     0.156 HD
HETATM    4  C5  UNL     1      -4.581   2.160  12.767  1.00  0.00     0.169 C 
HETATM    5  C7  UNL     1      -4.301   3.458  12.126  1.00  0.00     0.132 C 
HETATM    6  C10 UNL     1      -4.742   4.555  13.074  1.00  0.00     0.170 C 
HETATM    7  S2  UNL     1      -3.729   4.373  14.572  1.00  0.00    -0.117 SA
ENDROOT
BRANCH   4   8
HETATM    8  C6  UNL     1      -4.746   0.996  11.876  1.00  0.00     0.159 C 
HETATM    9  N2  UNL     1      -5.080   1.110  10.633  1.00  0.00    -0.249 N 
ATOM     10  H2  UNL     1      -5.238   2.041  10.248  1.00  0.00     0.196 HD
BRANCH   8  11
HETATM   11  O1  UNL     1      -4.538  -0.271  12.376  1.00  0.00    -0.347 OA
ATOM     12  H1  UNL     1      -4.521  -1.009  11.779  1.00  0.00     0.219 HD
ENDBRANCH   8  11
BRANCH   9  13
HETATM   13  O2  UNL     1      -5.229   0.018   9.818  1.00  0.00    -0.288 OA
ATOM     14  H2  UNL     1      -5.102  -0.868  10.136  1.00  0.00     0.244 HD
ENDBRANCH   9  13
ENDBRANCH   4   8
BRANCH   5  15
HETATM   15  C8  UNL     1      -2.943   3.669  11.595  1.00  0.00     0.225 C 
HETATM   16  O3  UNL     1      -1.939   3.027  12.084  1.00  0.00    -0.273 OA
HETATM   17  N3  UNL     1      -2.633   4.552  10.548  1.00  0.00    -0.365 N 
HETATM   18  C9  UNL     1      -1.283   4.693  10.082  1.00  0.00     0.149 C 
ATOM     19  H3  UNL     1      -3.376   5.100  10.113  1.00  0.00     0.161 HD
ENDBRANCH   5  15
BRANCH   1  20
HETATM   20  S1  UNL     1      -5.113   2.294  16.084  1.00  0.00    -0.134 SA
BRANCH  20  21
HETATM   21  C3  UNL     1      -5.128   0.511  16.426  1.00  0.00     0.076 C 
BRANCH  21  22
HETATM   22  C2  UNL     1      -6.248   0.254  17.411  1.00  0.00     0.006 C 
HETATM   23  C1  UNL     1      -7.427   1.093  16.980  1.00  0.00     0.006 C 
ENDBRANCH  21  22
ENDBRANCH  20  21
ENDBRANCH   1  20
BRANCH   6  24
HETATM   24  C11 UNL     1      -4.643   5.894  12.491  1.00  0.00     0.313 C 
HETATM   25  O4  UNL     1      -5.362   6.182  11.549  1.00  0.00    -0.259 OA
HETATM   26  F1  UNL     1      -3.776   6.785  12.989  1.00  0.00    -0.163 F 
ENDBRANCH   6  24
TORSDOF 8
ENDMDL
MODEL 2
REMARK VINA RESULT: -6.640284533      1.043      1.172
REMARK  8 active torsions:
REMARK  status: ('A' for Active; 'I' for Inactive)
REMARK    1  A    between atoms: C2_2  and  C3_3 
REMARK    2  A    between atoms: C3_3  and  S1_4 
REMARK    3  A    between atoms: S1_4  and  C4_5 
REMARK    4  A    between atoms: C5_8  and  C6_9 
REMARK    5  A    between atoms: C6_9  and  O1_10 
REMARK    6  A    between atoms: N2_12  and  O2_14 
REMARK    7  A    between atoms: C7_16  and  C8_17 
REMARK       I    between atoms: C8_17  and  N3_19 
REMARK    8  A    between atoms: C10_22  and  C11_23 
ROOT
HETATM    1  C4  UNL     1      -3.917   1.603  15.164  1.00  0.00     0.203 C 
HETATM    2  N1  UNL     1      -3.824   0.986  13.875  1.00  0.00    -0.389 N 
ATOM      3  H1  UNL     1      -3.219   0.185  13.693  1.00  0.00     0.156 HD
HETATM    4  C5  UNL     1      -4.648   1.579  12.855  1.00  0.00     0.169 C 
HETATM    5  C7  UNL     1      -4.341   2.973  12.486  1.00  0.00     0.132 C 
HETATM    6  C10 UNL     1      -4.842   3.874  13.597  1.00  0.00     0.170 C 
HETATM    7  S2  UNL     1      -3.916   3.410  15.089  1.00  0.00    -0.117 SA
ENDROOT
BRANCH   4   8
HETATM    8  C6  UNL     1      -4.754   0.603  11.753  1.00  0.00     0.159 C 
HETATM    9  N2  UNL     1      -5.073   0.944  10.548  1.00  0.00    -0.249 N 
ATOM     10  H2  UNL     1      -5.261   1.926  10.345  1.00  0.00     0.196 HD
BRANCH   8  11
HETATM   11  O1  UNL     1      -4.506  -0.728  12.006  1.00  0.00    -0.347 OA
ATOM     12  H1  UNL     1      -4.742  -1.093  12.850  1.00  0.00     0.219 HD
ENDBRANCH   8  11
BRANCH   9  13
HETATM   13  O2  UNL     1      -5.167   0.024   9.535  1.00  0.00    -0.288 OA
ATOM     14  H2  UNL     1      -5.071  -0.907   9.691  1.00  0.00     0.244 HD
ENDBRANCH   9  13
ENDBRANCH   4   8
BRANCH   5  15
HETATM   15  C8  UNL     1      -2.956   3.274  12.082  1.00  0.00     0.225 C 
HETATM   16  O3  UNL     1      -2.005   2.442  12.327  1.00  0.00    -0.273 OA
HETATM   17  N3  UNL     1      -2.565   4.449  11.419  1.00  0.00    -0.365 N 
HETATM   18  C9  UNL     1      -1.195   4.662  11.052  1.00  0.00     0.149 C 
ATOM     19  H3  UNL     1      -3.263   5.159  11.196  1.00  0.00     0.161 HD
ENDBRANCH   5  15
BRANCH   1  20
HETATM   20  S1  UNL     1      -5.369   1.090  16.102  1.00  0.00    -0.134 SA
BRANCH  20  21
HETATM   21  C3  UNL     1      -6.552   2.466  16.052  1.00  0.00     0.076 C 
BRANCH  21  22
HETATM   22  C2  UNL     1      -6.967   2.752  17.479  1.00  0.00     0.006 C 
HETATM   23  C1  UNL     1      -6.276   1.738  18.359  1.00  0.00     0.006 C 
ENDBRANCH  21  22
ENDBRANCH  20  21
ENDBRANCH   1  20
BRANCH   6  24
HETATM   24  C11 UNL     1      -4.720   5.298  13.282  1.00  0.00     0.313 C 
HETATM   25  O4  UNL     1      -5.404   5.767  12.387  1.00  0.00    -0.259 OA
HETATM   26  F1  UNL     1      -3.868   6.071  13.969  1.00  0.00    -0.163 F 
ENDBRANCH   6  24
TORSDOF 8
ENDMDL
MODEL 3
REMARK VINA RESULT: -6.536805120      1.877      1.989
REMARK  8 active torsions:
REMARK  status: ('A' for Active; 'I' for Inactive)
REMARK    1  A    between atoms: C2_2  and  C3_3 
REMARK    2  A    between atoms: C3_3  and  S1_4 
REMARK    3  A    between atoms: S1_4  and  C4_5 
REMARK    4  A    between atoms: C5_8  and  C6_9 
REMARK    5  A    between atoms: C6_9  and  O1_10 
REMARK    6  A    between atoms: N2_12  and  O2_14 
REMARK    7  A    between atoms: C7_16  and  C8_17 
REMARK       I    between atoms: C8_17  and  N3_19 
REMARK    8  A    between atoms: C10_22  and  C11_23 
ROOT
HETATM    1  C4  UNL     1      -3.720   3.479  14.027  1.00  0.00     0.203 C 
HETATM    2  N1  UNL     1      -3.376   2.161  13.582  1.00  0.00    -0.389 N 
ATOM      3  H1  UNL     1      -2.796   1.530  14.136  1.00  0.00     0.156 HD
HETATM    4  C5  UNL     1      -3.906   1.794  12.296  1.00  0.00     0.169 C 
HETATM    5  C7  UNL     1      -3.436   2.579  11.139  1.00  0.00     0.132 C 
HETATM    6  C10 UNL     1      -4.119   3.931  11.180  1.00  0.00     0.170 C 
HETATM    7  S2  UNL     1      -3.587   4.726  12.725  1.00  0.00    -0.117 SA
ENDROOT
BRANCH   4   8
HETATM    8  C6  UNL     1      -3.820   0.325  12.187  1.00  0.00     0.159 C 
HETATM    9  N2  UNL     1      -3.126  -0.267  11.273  1.00  0.00    -0.249 N 
ATOM     10  H2  UNL     1      -2.615   0.299  10.596  1.00  0.00     0.196 HD
BRANCH   8  11
HETATM   11  O1  UNL     1      -4.503  -0.458  13.091  1.00  0.00    -0.347 OA
ATOM     12  H1  UNL     1      -4.657  -1.374  12.889  1.00  0.00     0.219 HD
ENDBRANCH   8  11
BRANCH   9  13
HETATM   13  O2  UNL     1      -3.056  -1.634  11.185  1.00  0.00    -0.288 OA
ATOM     14  H2  UNL     1      -3.536  -2.200  11.777  1.00  0.00     0.244 HD
ENDBRANCH   9  13
ENDBRANCH   4   8
BRANCH   5  15
HETATM   15  C8  UNL     1      -1.979   2.676  10.938  1.00  0.00     0.225 C 
HETATM   16  O3  UNL     1      -1.162   2.174  11.798  1.00  0.00    -0.273 OA
HETATM   17  N3  UNL     1      -1.375   3.299   9.834  1.00  0.00    -0.365 N 
HETATM   18  C9  UNL     1       0.054   3.343   9.708  1.00  0.00     0.149 C 
ATOM     19  H3  UNL     1      -1.957   3.725   9.113  1.00  0.00     0.161 HD
ENDBRANCH   5  15
BRANCH   1  20
HETATM   20  S1  UNL     1      -5.376   3.587  14.730  1.00  0.00    -0.134 SA
BRANCH  20  21
HETATM   21  C3  UNL     1      -5.664   2.056  15.663  1.00  0.00     0.076 C 
BRANCH  21  22
HETATM   22  C2  UNL     1      -6.770   2.338  16.657  1.00  0.00     0.006 C 
HETATM   23  C1  UNL     1      -7.346   1.007  17.077  1.00  0.00     0.006 C 
ENDBRANCH  21  22
ENDBRANCH  20  21
ENDBRANCH   1  20
BRANCH   6  24
HETATM   24  C11 UNL     1      -3.838   4.753  10.001  1.00  0.00     0.313 C 
HETATM   25  O4  UNL     1      -4.112   4.315   8.896  1.00  0.00    -0.259 OA
HETATM   26  F1  UNL     1      -3.289   5.967  10.141  1.00  0.00    -0.163 F 
ENDBRANCH   6  24
TORSDOF 8
ENDMDL
MODEL 4
REMARK VINA RESULT: -6.517175747      1.243      1.408
REMARK  8 active torsions:
REMARK  status: ('A' for Active; 'I' for Inactive)
REMARK    1  A    between atoms: C2_2  and  C3_3 
REMARK    2  A    between atoms: C3_3  and  S1_4 
REMARK    3  A    between atoms: S1_4  and  C4_5 
REMARK    4  A    between atoms: C5_8  and  C6_9 
REMARK    5  A    between atoms: C6_9  and  O1_10 
REMARK    6  A    between atoms: N2_12  and  O2_14 
REMARK    7  A    between atoms: C7_16  and  C8_17 
REMARK       I    between atoms: C8_17  and  N3_19 
REMARK    8  A    between atoms: C10_22  and  C11_23 
ROOT
HETATM    1  C4  UNL     1      -3.842   2.653  14.411  1.00  0.00     0.203 C 
HETATM    2  N1  UNL     1      -3.736   1.556  13.496  1.00  0.00    -0.389 N 
ATOM      3  H1  UNL     1      -3.181   0.725  13.700  1.00  0.00     0.156 HD
HETATM    4  C5  UNL     1      -4.471   1.713  12.269  1.00  0.00     0.169 C 
HETATM    5  C7  UNL     1      -4.051   2.815  11.384  1.00  0.00     0.132 C 
HETATM    6  C10 UNL     1      -4.536   4.116  11.992  1.00  0.00     0.170 C 
HETATM    7  S2  UNL     1      -3.711   4.267  13.604  1.00  0.00    -0.117 SA
ENDROOT
BRANCH   4   8
HETATM    8  C6  UNL     1      -4.596   0.376  11.658  1.00  0.00     0.159 C 
HETATM    9  N2  UNL     1      -4.107  -0.689  12.203  1.00  0.00    -0.249 N 
ATOM     10  H2  UNL     1      -3.613  -0.607  13.092  1.00  0.00     0.196 HD
BRANCH   8  11
HETATM   11  O1  UNL     1      -5.258   0.243  10.457  1.00  0.00    -0.347 OA
ATOM     12  H1  UNL     1      -6.067  -0.253  10.425  1.00  0.00     0.219 HD
ENDBRANCH   8  11
BRANCH   9  13
HETATM   13  O2  UNL     1      -4.232  -1.925  11.621  1.00  0.00    -0.288 OA
ATOM     14  H2  UNL     1      -3.510  -2.542  11.593  1.00  0.00     0.244 HD
ENDBRANCH   9  13
ENDBRANCH   4   8
BRANCH   5  15
HETATM   15  C8  UNL     1      -2.632   2.860  10.989  1.00  0.00     0.225 C 
HETATM   16  O3  UNL     1      -1.735   2.261  11.694  1.00  0.00    -0.273 OA
HETATM   17  N3  UNL     1      -2.149   3.530   9.854  1.00  0.00    -0.365 N 
HETATM   18  C9  UNL     1      -0.751   3.518   9.534  1.00  0.00     0.149 C 
ATOM     19  H3  UNL     1      -2.800   4.032   9.250  1.00  0.00     0.161 HD
ENDBRANCH   5  15
BRANCH   1  20
HETATM   20  S1  UNL     1      -5.366   2.639  15.374  1.00  0.00    -0.134 SA
BRANCH  20  21
HETATM   21  C3  UNL     1      -5.093   1.540  16.793  1.00  0.00     0.076 C 
BRANCH  21  22
HETATM   22  C2  UNL     1      -6.304   1.661  17.693  1.00  0.00     0.006 C 
HETATM   23  C1  UNL     1      -7.456   0.983  16.989  1.00  0.00     0.006 C 
ENDBRANCH  21  22
ENDBRANCH  20  21
ENDBRANCH   1  20
BRANCH   6  24
HETATM   24  C11 UNL     1      -4.301   5.276  11.132  1.00  0.00     0.313 C 
HETATM   25  O4  UNL     1      -4.818   5.309  10.028  1.00  0.00    -0.259 OA
HETATM   26  F1  UNL     1      -3.528   6.285  11.556  1.00  0.00    -0.163 F 
ENDBRANCH   6  24
TORSDOF 8
ENDMDL
MODEL 5
REMARK VINA RESULT: -6.220367720      2.657      4.151
REMARK  8 active torsions:
REMARK  status: ('A' for Active; 'I' for Inactive)
REMARK    1  A    between atoms: C2_2  and  C3_3 
REMARK    2  A    between atoms: C3_3  and  S1_4 
REMARK    3  A    between atoms: S1_4  and  C4_5 
REMARK    4  A    between atoms: C5_8  and  C6_9 
REMARK    5  A    between atoms: C6_9  and  O1_10 
REMARK    6  A    between atoms: N2_12  and  O2_14 
REMARK    7  A    between atoms: C7_16  and  C8_17 
REMARK       I    between atoms: C8_17  and  N3_19 
REMARK    8  A    between atoms: C10_22  and  C11_23 
ROOT
HETATM    1  C4  UNL     1      -5.027   1.862  13.732  1.00  0.00     0.203 C 
HETATM    2  N1  UNL     1      -4.465   3.179  13.765  1.00  0.00    -0.389 N 
ATOM      3  H1  UNL     1      -4.998   3.994  14.069  1.00  0.00     0.156 HD
HETATM    4  C5  UNL     1      -3.094   3.267  13.337  1.00  0.00     0.169 C 
HETATM    5  C7  UNL     1      -2.816   2.913  11.933  1.00  0.00     0.132 C 
HETATM    6  C10 UNL     1      -2.895   1.406  11.804  1.00  0.00     0.170 C 
HETATM    7  S2  UNL     1      -4.599   0.944  12.233  1.00  0.00    -0.117 SA
ENDROOT
BRANCH   4   8
HETATM    8  C6  UNL     1      -2.565   4.558  13.819  1.00  0.00     0.159 C 
HETATM    9  N2  UNL     1      -3.329   5.556  14.117  1.00  0.00    -0.249 N 
ATOM     10  H2  UNL     1      -4.339   5.454  14.018  1.00  0.00     0.196 HD
BRANCH   8  11
HETATM   11  O1  UNL     1      -1.204   4.718  13.960  1.00  0.00    -0.347 OA
ATOM     12  H1  UNL     1      -0.873   5.335  14.602  1.00  0.00     0.219 HD
ENDBRANCH   8  11
BRANCH   9  13
HETATM   13  O2  UNL     1      -2.822   6.750  14.564  1.00  0.00    -0.288 OA
ATOM     14  H2  UNL     1      -3.091   7.581  14.191  1.00  0.00     0.244 HD
ENDBRANCH   9  13
ENDBRANCH   4   8
BRANCH   5  15
HETATM   15  C8  UNL     1      -3.586   3.620  10.895  1.00  0.00     0.225 C 
HETATM   16  O3  UNL     1      -4.874   3.576  10.887  1.00  0.00    -0.273 OA
HETATM   17  N3  UNL     1      -3.010   4.376   9.861  1.00  0.00    -0.365 N 
HETATM   18  C9  UNL     1      -3.833   5.042   8.893  1.00  0.00     0.149 C 
ATOM     19  H3  UNL     1      -1.995   4.453   9.798  1.00  0.00     0.161 HD
ENDBRANCH   5  15
BRANCH   1  20
HETATM   20  S1  UNL     1      -4.567   0.850  15.151  1.00  0.00    -0.134 SA
BRANCH  20  21
HETATM   21  C3  UNL     1      -4.998   1.792  16.642  1.00  0.00     0.076 C 
BRANCH  21  22
HETATM   22  C2  UNL     1      -5.879   0.903  17.494  1.00  0.00     0.006 C 
HETATM   23  C1  UNL     1      -7.287   1.021  16.959  1.00  0.00     0.006 C 
ENDBRANCH  21  22
ENDBRANCH  20  21
ENDBRANCH   1  20
BRANCH   6  24
HETATM   24  C11 UNL     1      -2.499   0.920  10.482  1.00  0.00     0.313 C 
HETATM   25  O4  UNL     1      -3.176   0.062   9.940  1.00  0.00    -0.259 OA
HETATM   26  F1  UNL     1      -1.409   1.413   9.879  1.00  0.00    -0.163 F 
ENDBRANCH   6  24
TORSDOF 8
ENDMDL
