MODEL 1
REMARK VINA RESULT: -6.647134809      0.000      0.000
REMARK  12 active torsions:
REMARK  status: ('A' for Active; 'I' for Inactive)
REMARK    1  A    between atoms: C4_4  and  C5_5 
REMARK    2  A    between atoms: N1_6  and  C6_8 
REMARK    3  A    between atoms: C6_8  and  C7_9 
REMARK    4  A    between atoms: C7_9  and  C9_13 
REMARK    5  A    between atoms: C9_13  and  O1_14 
REMARK    6  A    between atoms: O1_14  and  N3_15 
REMARK    7  A    between atoms: C10_17  and  N4_19 
REMARK    8  A    between atoms: N4_19  and  O2_21 
REMARK    9  A    between atoms: C13_24  and  N5_25 
REMARK   10  A    between atoms: N5_25  and  N6_27 
REMARK   11  A    between atoms: N6_27  and  N7_28 
REMARK   12  A    between atoms: C14_31  and  O4_32 
ROOT
HETATM    1  C7  UNL     1      -3.934   6.529  11.877  1.00  0.00     0.229 C 
HETATM    2  F1  UNL     1      -4.101   7.831  11.455  1.00  0.00    -0.223 F 
HETATM    3  C8  UNL     1      -2.540   6.185  11.755  1.00  0.00     0.107 C 
HETATM    4  N2  UNL     1      -1.432   5.902  11.640  1.00  0.00    -0.194 NA
ENDROOT
BRANCH   1   5
HETATM    5  C6  UNL     1      -4.526   6.281  13.222  1.00  0.00     0.180 C 
BRANCH   5   6
HETATM    6  N1  UNL     1      -4.804   4.926  13.513  1.00  0.00    -0.395 N 
HETATM    7  C5  UNL     1      -5.381   4.486  14.556  1.00  0.00     0.092 C 
ATOM      8  H1  UNL     1      -4.513   4.236  12.820  1.00  0.00     0.158 HD
BRANCH   7   9
HETATM    9  C4  UNL     1      -5.606   3.037  14.728  1.00  0.00     0.193 C 
HETATM   10  C3  UNL     1      -5.842   2.671  16.149  1.00  0.00    -0.018 C 
HETATM   11  C2  UNL     1      -6.786   3.099  16.958  1.00  0.00    -0.023 C 
HETATM   12  C14 UNL     1      -4.775   1.700  16.497  1.00  0.00     0.200 C 
HETATM   13  C1  UNL     1      -6.876   2.629  18.352  1.00  0.00     0.036 C 
HETATM   14  C13 UNL     1      -3.731   2.027  15.420  1.00  0.00     0.284 C 
HETATM   15  O3  UNL     1      -4.515   2.272  14.316  1.00  0.00    -0.347 OA
BRANCH  12  16
HETATM   16  O4  UNL     1      -5.252   0.409  16.336  1.00  0.00    -0.387 OA
ATOM     17  H4  UNL     1      -5.531   0.065  17.177  1.00  0.00     0.210 HD
ENDBRANCH  12  16
BRANCH  14  18
HETATM   18  N5  UNL     1      -3.024   3.212  15.856  1.00  0.00    -0.220 N 
ATOM     19  H5  UNL     1      -3.158   3.526  16.817  1.00  0.00     0.200 HD
BRANCH  18  20
HETATM   20  N6  UNL     1      -2.284   3.852  15.145  1.00  0.00    -0.246 NA
BRANCH  20  21
HETATM   21  N7  UNL     1      -1.489   4.650  14.649  1.00  0.00    -0.261 N 
ATOM     22  H72 UNL     1      -0.889   4.600  15.473  1.00  0.00     0.193 HD
ATOM     23  H71 UNL     1      -0.975   5.308  14.065  1.00  0.00     0.193 HD
ENDBRANCH  20  21
ENDBRANCH  18  20
ENDBRANCH  14  18
ENDBRANCH   7   9
ENDBRANCH   5   6
ENDBRANCH   1   5
BRANCH   1  24
HETATM   24  C9  UNL     1      -4.712   5.663  10.878  1.00  0.00     0.262 C 
BRANCH  24  25
HETATM   25  O1  UNL     1      -3.966   4.479  10.642  1.00  0.00    -0.275 OA
BRANCH  25  26
HETATM   26  N3  UNL     1      -4.675   3.299  10.603  1.00  0.00    -0.253 N 
HETATM   27  C10 UNL     1      -4.141   2.222  11.020  1.00  0.00     0.119 C 
HETATM   28  C11 UNL     1      -4.924   0.965  10.968  1.00  0.00     0.093 C 
ATOM     29  H3  UNL     1      -5.629   3.289  10.241  1.00  0.00     0.195 HD
BRANCH  27  30
HETATM   30  N4  UNL     1      -2.818   2.144  11.543  1.00  0.00    -0.252 N 
HETATM   31  C12 UNL     1      -1.947   1.106  11.005  1.00  0.00     0.187 C 
BRANCH  30  32
HETATM   32  O2  UNL     1      -2.352   2.970  12.490  1.00  0.00    -0.286 OA
ATOM     33  H2  UNL     1      -1.502   2.865  12.902  1.00  0.00     0.244 HD
ENDBRANCH  30  32
ENDBRANCH  27  30
ENDBRANCH  25  26
ENDBRANCH  24  25
ENDBRANCH   1  24
TORSDOF 12
ENDMDL
MODEL 2
REMARK VINA RESULT: -6.602381349      1.235      1.660
REMARK  12 active torsions:
REMARK  status: ('A' for Active; 'I' for Inactive)
REMARK    1  A    between atoms: C4_4  and  C5_5 
REMARK    2  A    between atoms: N1_6  and  C6_8 
REMARK    3  A    between atoms: C6_8  and  C7_9 
REMARK    4  A    between atoms: C7_9  and  C9_13 
REMARK    5  A    between atoms: C9_13  and  O1_14 
REMARK    6  A    between atoms: O1_14  and  N3_15 
REMARK    7  A    between atoms: C10_17  and  N4_19 
REMARK    8  A    between atoms: N4_19  and  O2_21 
REMARK    9  A    between atoms: C13_24  and  N5_25 
REMARK   10  A    between atoms: N5_25  and  N6_27 
REMARK   11  A    between atoms: N6_27  and  N7_28 
REMARK   12  A    between atoms: C14_31  and  O4_32 
ROOT
HETATM    1  C7  UNL     1      -4.489   6.613  11.471  1.00  0.00     0.229 C 
HETATM    2  F1  UNL     1      -5.460   6.110  10.631  1.00  0.00    -0.223 F 
HETATM    3  C8  UNL     1      -4.268   7.997  11.138  1.00  0.00     0.107 C 
HETATM    4  N2  UNL     1      -4.077   9.096  10.861  1.00  0.00    -0.194 NA
ENDROOT
BRANCH   1   5
HETATM    5  C6  UNL     1      -4.784   6.352  12.909  1.00  0.00     0.180 C 
BRANCH   5   6
HETATM    6  N1  UNL     1      -4.987   4.993  13.241  1.00  0.00    -0.395 N 
HETATM    7  C5  UNL     1      -5.528   4.554  14.303  1.00  0.00     0.092 C 
ATOM      8  H1  UNL     1      -4.668   4.299  12.564  1.00  0.00     0.158 HD
BRANCH   7   9
HETATM    9  C4  UNL     1      -5.676   3.101  14.519  1.00  0.00     0.193 C 
HETATM   10  C3  UNL     1      -5.818   2.759  15.958  1.00  0.00    -0.018 C 
HETATM   11  C2  UNL     1      -6.737   3.163  16.809  1.00  0.00    -0.023 C 
HETATM   12  C14 UNL     1      -4.690   1.847  16.269  1.00  0.00     0.200 C 
HETATM   13  C1  UNL     1      -6.729   2.723  18.214  1.00  0.00     0.036 C 
HETATM   14  C13 UNL     1      -3.722   2.195  15.130  1.00  0.00     0.284 C 
HETATM   15  O3  UNL     1      -4.574   2.377  14.065  1.00  0.00    -0.347 OA
BRANCH  12  16
HETATM   16  O4  UNL     1      -5.114   0.532  16.162  1.00  0.00    -0.387 OA
ATOM     17  H4  UNL     1      -4.721   0.132  15.395  1.00  0.00     0.210 HD
ENDBRANCH  12  16
BRANCH  14  18
HETATM   18  N5  UNL     1      -3.048   3.421  15.500  1.00  0.00    -0.220 N 
ATOM     19  H5  UNL     1      -3.195   3.785  16.442  1.00  0.00     0.200 HD
BRANCH  18  20
HETATM   20  N6  UNL     1      -2.322   4.040  14.757  1.00  0.00    -0.246 NA
BRANCH  20  21
HETATM   21  N7  UNL     1      -1.538   4.823  14.222  1.00  0.00    -0.261 N 
ATOM     22  H72 UNL     1      -0.951   4.054  13.901  1.00  0.00     0.193 HD
ATOM     23  H71 UNL     1      -1.031   5.630  13.860  1.00  0.00     0.193 HD
ENDBRANCH  20  21
ENDBRANCH  18  20
ENDBRANCH  14  18
ENDBRANCH   7   9
ENDBRANCH   5   6
ENDBRANCH   1   5
BRANCH   1  24
HETATM   24  C9  UNL     1      -3.204   5.846  11.131  1.00  0.00     0.262 C 
BRANCH  24  25
HETATM   25  O1  UNL     1      -3.570   4.582  10.600  1.00  0.00    -0.275 OA
BRANCH  25  26
HETATM   26  N3  UNL     1      -2.719   3.531  10.861  1.00  0.00    -0.253 N 
HETATM   27  C10 UNL     1      -3.182   2.354  10.990  1.00  0.00     0.119 C 
HETATM   28  C11 UNL     1      -2.247   1.239  11.271  1.00  0.00     0.093 C 
ATOM     29  H3  UNL     1      -1.716   3.698  10.951  1.00  0.00     0.195 HD
BRANCH  27  30
HETATM   30  N4  UNL     1      -4.565   2.029  10.878  1.00  0.00    -0.252 N 
HETATM   31  C12 UNL     1      -4.906   0.640  10.596  1.00  0.00     0.187 C 
BRANCH  30  32
HETATM   32  O2  UNL     1      -5.546   2.932  11.018  1.00  0.00    -0.286 OA
ATOM     33  H2  UNL     1      -6.075   3.010  11.803  1.00  0.00     0.244 HD
ENDBRANCH  30  32
ENDBRANCH  27  30
ENDBRANCH  25  26
ENDBRANCH  24  25
ENDBRANCH   1  24
TORSDOF 12
ENDMDL
MODEL 3
REMARK VINA RESULT: -6.465577572      2.519      5.319
REMARK  12 active torsions:
REMARK  status: ('A' for Active; 'I' for Inactive)
REMARK    1  A    between atoms: C4_4  and  C5_5 
REMARK    2  A    between atoms: N1_6  and  C6_8 
REMARK    3  A    between atoms: C6_8  and  C7_9 
REMARK    4  A    between atoms: C7_9  and  C9_13 
REMARK    5  A    between atoms: C9_13  and  O1_14 
REMARK    6  A    between atoms: O1_14  and  N3_15 
REMARK    7  A    between atoms: C10_17  and  N4_19 
REMARK    8  A    between atoms: N4_19  and  O2_21 
REMARK    9  A    between atoms: C13_24  and  N5_25 
REMARK   10  A    between atoms: N5_25  and  N6_27 
REMARK   11  A    between atoms: N6_27  and  N7_28 
REMARK   12  A    between atoms: C14_31  and  O4_32 
ROOT
HETATM    1  C7  UNL     1      -4.829   1.969  15.719  1.00  0.00     0.229 C 
HETATM    2  F1  UNL     1      -3.611   2.305  16.270  1.00  0.00    -0.223 F 
HETATM    3  C8  UNL     1      -5.515   1.087  16.630  1.00  0.00     0.107 C 
HETATM    4  N2  UNL     1      -6.055   0.369  17.347  1.00  0.00    -0.194 NA
ENDROOT
BRANCH   1   5
HETATM    5  C6  UNL     1      -5.614   3.162  15.290  1.00  0.00     0.180 C 
BRANCH   5   6
HETATM    6  N1  UNL     1      -4.872   4.361  15.189  1.00  0.00    -0.395 N 
HETATM    7  C5  UNL     1      -4.706   5.053  14.138  1.00  0.00     0.092 C 
ATOM      8  H1  UNL     1      -4.429   4.703  16.042  1.00  0.00     0.158 HD
BRANCH   7   9
HETATM    9  C4  UNL     1      -3.902   6.291  14.178  1.00  0.00     0.193 C 
HETATM   10  C3  UNL     1      -3.612   6.817  12.820  1.00  0.00    -0.018 C 
HETATM   11  C2  UNL     1      -4.463   7.184  11.886  1.00  0.00    -0.023 C 
HETATM   12  C14 UNL     1      -2.133   6.851  12.708  1.00  0.00     0.200 C 
HETATM   13  C1  UNL     1      -4.000   7.689  10.581  1.00  0.00     0.036 C 
HETATM   14  C13 UNL     1      -1.742   5.839  13.794  1.00  0.00     0.284 C 
HETATM   15  O3  UNL     1      -2.660   6.103  14.785  1.00  0.00    -0.347 OA
BRANCH  12  16
HETATM   16  O4  UNL     1      -1.671   8.116  13.034  1.00  0.00    -0.387 OA
ATOM     17  H4  UNL     1      -0.773   8.214  12.740  1.00  0.00     0.210 HD
ENDBRANCH  12  16
BRANCH  14  18
HETATM   18  N5  UNL     1      -1.920   4.517  13.231  1.00  0.00    -0.220 N 
ATOM     19  H5  UNL     1      -2.754   3.991  13.492  1.00  0.00     0.200 HD
BRANCH  18  20
HETATM   20  N6  UNL     1      -1.137   4.001  12.469  1.00  0.00    -0.246 NA
BRANCH  20  21
HETATM   21  N7  UNL     1      -0.154   3.552  11.880  1.00  0.00    -0.261 N 
ATOM     22  H72 UNL     1       0.395   3.561  12.740  1.00  0.00     0.193 HD
ATOM     23  H71 UNL     1       0.523   3.186  11.211  1.00  0.00     0.193 HD
ENDBRANCH  20  21
ENDBRANCH  18  20
ENDBRANCH  14  18
ENDBRANCH   7   9
ENDBRANCH   5   6
ENDBRANCH   1   5
BRANCH   1  24
HETATM   24  C9  UNL     1      -4.508   1.164  14.453  1.00  0.00     0.262 C 
BRANCH  24  25
HETATM   25  O1  UNL     1      -3.751   1.992  13.583  1.00  0.00    -0.275 OA
BRANCH  25  26
HETATM   26  N3  UNL     1      -3.133   1.370  12.521  1.00  0.00    -0.253 N 
HETATM   27  C10 UNL     1      -3.498   1.631  11.331  1.00  0.00     0.119 C 
HETATM   28  C11 UNL     1      -2.819   0.950  10.204  1.00  0.00     0.093 C 
ATOM     29  H3  UNL     1      -2.383   0.700  12.689  1.00  0.00     0.195 HD
BRANCH  27  30
HETATM   30  N4  UNL     1      -4.534   2.554  11.004  1.00  0.00    -0.252 N 
HETATM   31  C12 UNL     1      -4.130   3.869  10.519  1.00  0.00     0.187 C 
BRANCH  30  32
HETATM   32  O2  UNL     1      -5.838   2.268  11.121  1.00  0.00    -0.286 OA
ATOM     33  H2  UNL     1      -6.379   1.991  10.391  1.00  0.00     0.244 HD
ENDBRANCH  30  32
ENDBRANCH  27  30
ENDBRANCH  25  26
ENDBRANCH  24  25
ENDBRANCH   1  24
TORSDOF 12
ENDMDL
MODEL 4
REMARK VINA RESULT: -6.453495670      1.271      1.422
REMARK  12 active torsions:
REMARK  status: ('A' for Active; 'I' for Inactive)
REMARK    1  A    between atoms: C4_4  and  C5_5 
REMARK    2  A    between atoms: N1_6  and  C6_8 
REMARK    3  A    between atoms: C6_8  and  C7_9 
REMARK    4  A    between atoms: C7_9  and  C9_13 
REMARK    5  A    between atoms: C9_13  and  O1_14 
REMARK    6  A    between atoms: O1_14  and  N3_15 
REMARK    7  A    between atoms: C10_17  and  N4_19 
REMARK    8  A    between atoms: N4_19  and  O2_21 
REMARK    9  A    between atoms: C13_24  and  N5_25 
REMARK   10  A    between atoms: N5_25  and  N6_27 
REMARK   11  A    between atoms: N6_27  and  N7_28 
REMARK   12  A    between atoms: C14_31  and  O4_32 
ROOT
HETATM    1  C7  UNL     1      -4.282   6.937  12.052  1.00  0.00     0.229 C 
HETATM    2  F1  UNL     1      -4.921   7.874  11.268  1.00  0.00    -0.223 F 
HETATM    3  C8  UNL     1      -2.951   7.410  12.336  1.00  0.00     0.107 C 
HETATM    4  N2  UNL     1      -1.882   7.776  12.548  1.00  0.00    -0.194 NA
ENDROOT
BRANCH   1   5
HETATM    5  C6  UNL     1      -5.081   6.553  13.251  1.00  0.00     0.180 C 
BRANCH   5   6
HETATM    6  N1  UNL     1      -5.226   5.161  13.451  1.00  0.00    -0.395 N 
HETATM    7  C5  UNL     1      -5.664   4.596  14.502  1.00  0.00     0.092 C 
ATOM      8  H1  UNL     1      -4.954   4.552  12.679  1.00  0.00     0.158 HD
BRANCH   7   9
HETATM    9  C4  UNL     1      -5.762   3.125  14.573  1.00  0.00     0.193 C 
HETATM   10  C3  UNL     1      -5.811   2.632  15.973  1.00  0.00    -0.018 C 
HETATM   11  C2  UNL     1      -6.689   2.917  16.911  1.00  0.00    -0.023 C 
HETATM   12  C14 UNL     1      -4.645   1.728  16.124  1.00  0.00     0.200 C 
HETATM   13  C1  UNL     1      -6.589   2.335  18.260  1.00  0.00     0.036 C 
HETATM   14  C13 UNL     1      -3.753   2.221  14.975  1.00  0.00     0.284 C 
HETATM   15  O3  UNL     1      -4.670   2.486  13.984  1.00  0.00    -0.347 OA
BRANCH  12  16
HETATM   16  O4  UNL     1      -5.041   0.418  15.903  1.00  0.00    -0.387 OA
ATOM     17  H4  UNL     1      -5.438   0.069  16.692  1.00  0.00     0.210 HD
ENDBRANCH  12  16
BRANCH  14  18
HETATM   18  N5  UNL     1      -3.090   3.423  15.434  1.00  0.00    -0.220 N 
ATOM     19  H5  UNL     1      -3.280   3.744  16.384  1.00  0.00     0.200 HD
BRANCH  18  20
HETATM   20  N6  UNL     1      -2.326   4.070  14.756  1.00  0.00    -0.246 NA
BRANCH  20  21
HETATM   21  N7  UNL     1      -1.554   4.900  14.279  1.00  0.00    -0.261 N 
ATOM     22  H72 UNL     1      -2.296   5.599  14.232  1.00  0.00     0.193 HD
ATOM     23  H71 UNL     1      -0.762   5.421  13.901  1.00  0.00     0.193 HD
ENDBRANCH  20  21
ENDBRANCH  18  20
ENDBRANCH  14  18
ENDBRANCH   7   9
ENDBRANCH   5   6
ENDBRANCH   1   5
BRANCH   1  24
HETATM   24  C9  UNL     1      -4.150   5.682  11.180  1.00  0.00     0.262 C 
BRANCH  24  25
HETATM   25  O1  UNL     1      -3.067   4.910  11.675  1.00  0.00    -0.275 OA
BRANCH  25  26
HETATM   26  N3  UNL     1      -3.124   3.552  11.453  1.00  0.00    -0.253 N 
HETATM   27  C10 UNL     1      -2.057   2.902  11.215  1.00  0.00     0.119 C 
HETATM   28  C11 UNL     1      -2.142   1.441  10.978  1.00  0.00     0.093 C 
ATOM     29  H3  UNL     1      -4.021   3.068  11.481  1.00  0.00     0.195 HD
BRANCH  27  30
HETATM   30  N4  UNL     1      -0.763   3.495  11.160  1.00  0.00    -0.252 N 
HETATM   31  C12 UNL     1      -0.241   3.844   9.843  1.00  0.00     0.187 C 
BRANCH  30  32
HETATM   32  O2  UNL     1      -0.019   3.741  12.249  1.00  0.00    -0.286 OA
ATOM     33  H2  UNL     1       0.070   4.604  12.635  1.00  0.00     0.244 HD
ENDBRANCH  30  32
ENDBRANCH  27  30
ENDBRANCH  25  26
ENDBRANCH  24  25
ENDBRANCH   1  24
TORSDOF 12
ENDMDL
MODEL 5
REMARK VINA RESULT: -6.385001110      2.730      5.713
REMARK  12 active torsions:
REMARK  status: ('A' for Active; 'I' for Inactive)
REMARK    1  A    between atoms: C4_4  and  C5_5 
REMARK    2  A    between atoms: N1_6  and  C6_8 
REMARK    3  A    between atoms: C6_8  and  C7_9 
REMARK    4  A    between atoms: C7_9  and  C9_13 
REMARK    5  A    between atoms: C9_13  and  O1_14 
REMARK    6  A    between atoms: O1_14  and  N3_15 
REMARK    7  A    between atoms: C10_17  and  N4_19 
REMARK    8  A    between atoms: N4_19  and  O2_21 
REMARK    9  A    between atoms: C13_24  and  N5_25 
REMARK   10  A    between atoms: N5_25  and  N6_27 
REMARK   11  A    between atoms: N6_27  and  N7_28 
REMARK   12  A    between atoms: C14_31  and  O4_32 
ROOT
HETATM    1  C7  UNL     1      -6.296   2.298  16.561  1.00  0.00     0.229 C 
HETATM    2  F1  UNL     1      -7.351   1.449  16.302  1.00  0.00    -0.223 F 
HETATM    3  C8  UNL     1      -6.177   2.457  17.988  1.00  0.00     0.107 C 
HETATM    4  N2  UNL     1      -6.092   2.600  19.125  1.00  0.00    -0.194 NA
ENDROOT
BRANCH   1   5
HETATM    5  C6  UNL     1      -5.042   1.882  15.868  1.00  0.00     0.180 C 
BRANCH   5   6
HETATM    6  N1  UNL     1      -5.182   1.616  14.487  1.00  0.00    -0.395 N 
HETATM    7  C5  UNL     1      -4.238   1.382  13.670  1.00  0.00     0.092 C 
ATOM      8  H1  UNL     1      -6.130   1.612  14.111  1.00  0.00     0.158 HD
BRANCH   7   9
HETATM    9  C4  UNL     1      -4.531   1.119  12.247  1.00  0.00     0.193 C 
HETATM   10  C3  UNL     1      -3.744  -0.023  11.713  1.00  0.00    -0.018 C 
HETATM   11  C2  UNL     1      -3.728  -1.271  12.129  1.00  0.00    -0.023 C 
HETATM   12  C14 UNL     1      -2.950   0.526  10.586  1.00  0.00     0.200 C 
HETATM   13  C1  UNL     1      -2.881  -2.286  11.480  1.00  0.00     0.036 C 
HETATM   14  C13 UNL     1      -2.952   2.020  10.940  1.00  0.00     0.284 C 
HETATM   15  O3  UNL     1      -4.226   2.205  11.427  1.00  0.00    -0.347 OA
BRANCH  12  16
HETATM   16  O4  UNL     1      -3.623   0.307   9.395  1.00  0.00    -0.387 OA
ATOM     17  H4  UNL     1      -3.826  -0.617   9.309  1.00  0.00     0.210 HD
ENDBRANCH  12  16
BRANCH  14  18
HETATM   18  N5  UNL     1      -1.947   2.220  11.962  1.00  0.00    -0.220 N 
ATOM     19  H5  UNL     1      -1.879   1.529  12.710  1.00  0.00     0.200 HD
BRANCH  18  20
HETATM   20  N6  UNL     1      -1.184   3.158  11.980  1.00  0.00    -0.246 NA
BRANCH  20  21
HETATM   21  N7  UNL     1      -0.402   4.063  12.269  1.00  0.00    -0.261 N 
ATOM     22  H72 UNL     1      -1.030   4.407  12.995  1.00  0.00     0.193 HD
ATOM     23  H71 UNL     1       0.373   4.722  12.342  1.00  0.00     0.193 HD
ENDBRANCH  20  21
ENDBRANCH  18  20
ENDBRANCH  14  18
ENDBRANCH   7   9
ENDBRANCH   5   6
ENDBRANCH   1   5
BRANCH   1  24
HETATM   24  C9  UNL     1      -6.700   3.658  15.977  1.00  0.00     0.262 C 
BRANCH  24  25
HETATM   25  O1  UNL     1      -5.544   4.262  15.418  1.00  0.00    -0.275 OA
BRANCH  25  26
HETATM   26  N3  UNL     1      -5.733   5.037  14.296  1.00  0.00    -0.253 N 
HETATM   27  C10 UNL     1      -4.729   5.503  13.668  1.00  0.00     0.119 C 
HETATM   28  C11 UNL     1      -4.957   6.335  12.463  1.00  0.00     0.093 C 
ATOM     29  H3  UNL     1      -6.677   5.238  13.968  1.00  0.00     0.195 HD
BRANCH  27  30
HETATM   30  N4  UNL     1      -3.377   5.271  14.052  1.00  0.00    -0.252 N 
HETATM   31  C12 UNL     1      -2.514   6.437  14.198  1.00  0.00     0.187 C 
BRANCH  30  32
HETATM   32  O2  UNL     1      -2.876   4.049  14.282  1.00  0.00    -0.286 OA
ATOM     33  H2  UNL     1      -2.516   3.781  15.119  1.00  0.00     0.244 HD
ENDBRANCH  30  32
ENDBRANCH  27  30
ENDBRANCH  25  26
ENDBRANCH  24  25
ENDBRANCH   1  24
TORSDOF 12
ENDMDL
