MODEL 1
REMARK VINA RESULT: -4.208043045      0.000      0.000
REMARK  2 active torsions:
REMARK  status: ('A' for Active; 'I' for Inactive)
REMARK    1  A    between atoms: O1_1  and  C1_3 
REMARK    2  A    between atoms: C1_3  and  C2_5 
ROOT
HETATM    1  C2  UNL     1      -1.790  59.793  29.977  1.00  0.00     0.100 C 
HETATM    2  C3  UNL     1      -1.083  60.728  30.900  1.00  0.00     0.092 C 
HETATM    3  S1  UNL     1      -2.190  61.753  31.879  1.00  0.00    -0.167 SA
HETATM    4  C4  UNL     1      -3.753  62.083  31.037  1.00  0.00     0.084 C 
HETATM    5  C5  UNL     1      -4.502  60.819  30.688  1.00  0.00     0.084 C 
HETATM    6  S2  UNL     1      -3.405  59.397  30.648  1.00  0.00    -0.159 SA
ENDROOT
BRANCH   1   7
HETATM    7  C1  UNL     1      -1.001  58.508  29.797  1.00  0.00     0.228 C 
HETATM    8 CL1  UNL     1      -2.019  57.087  30.190  1.00  0.00    -0.094 Cl
BRANCH   7   9
HETATM    9  O1  UNL     1       0.110  58.448  30.597  1.00  0.00    -0.379 OA
ATOM     10  H1  UNL     1       0.839  58.178  30.050  1.00  0.00     0.211 HD
ENDBRANCH   7   9
ENDBRANCH   1   7
TORSDOF 2
ENDMDL
MODEL 2
REMARK VINA RESULT: -3.999859210      1.399      1.399
REMARK  2 active torsions:
REMARK  status: ('A' for Active; 'I' for Inactive)
REMARK    1  A    between atoms: O1_1  and  C1_3 
REMARK    2  A    between atoms: C1_3  and  C2_5 
ROOT
HETATM    1  C2  UNL     1      -1.490  59.611  30.008  1.00  0.00     0.100 C 
HETATM    2  C3  UNL     1      -1.064  60.771  30.845  1.00  0.00     0.092 C 
HETATM    3  S1  UNL     1      -2.427  61.614  31.660  1.00  0.00    -0.167 SA
HETATM    4  C4  UNL     1      -3.971  61.494  30.730  1.00  0.00     0.084 C 
HETATM    5  C5  UNL     1      -4.400  60.066  30.499  1.00  0.00     0.084 C 
HETATM    6  S2  UNL     1      -3.016  58.931  30.660  1.00  0.00    -0.159 SA
ENDROOT
BRANCH   1   7
HETATM    7  C1  UNL     1      -0.427  58.526  30.004  1.00  0.00     0.228 C 
HETATM    8 CL1  UNL     1       0.812  58.858  31.254  1.00  0.00    -0.094 Cl
BRANCH   7   9
HETATM    9  O1  UNL     1       0.223  58.421  28.802  1.00  0.00    -0.379 OA
ATOM     10  H1  UNL     1      -0.151  57.678  28.342  1.00  0.00     0.211 HD
ENDBRANCH   7   9
ENDBRANCH   1   7
TORSDOF 2
ENDMDL
MODEL 3
REMARK VINA RESULT: -3.929299021      2.825      3.767
REMARK  2 active torsions:
REMARK  status: ('A' for Active; 'I' for Inactive)
REMARK    1  A    between atoms: O1_1  and  C1_3 
REMARK    2  A    between atoms: C1_3  and  C2_5 
ROOT
HETATM    1  C2  UNL     1      -2.169  60.333  31.575  1.00  0.00     0.100 C 
HETATM    2  C3  UNL     1      -0.818  60.465  30.954  1.00  0.00     0.092 C 
HETATM    3  S1  UNL     1      -0.423  59.149  29.794  1.00  0.00    -0.167 SA
HETATM    4  C4  UNL     1      -1.249  57.596  30.203  1.00  0.00     0.084 C 
HETATM    5  C5  UNL     1      -2.752  57.729  30.236  1.00  0.00     0.084 C 
HETATM    6  S2  UNL     1      -3.254  59.439  30.462  1.00  0.00    -0.159 SA
ENDROOT
BRANCH   1   7
HETATM    7  C1  UNL     1      -2.771  61.698  31.862  1.00  0.00     0.228 C 
HETATM    8 CL1  UNL     1      -4.043  62.086  30.662  1.00  0.00    -0.094 Cl
BRANCH   7   9
HETATM    9  O1  UNL     1      -1.846  62.708  31.819  1.00  0.00    -0.379 OA
ATOM     10  H1  UNL     1      -1.799  63.010  30.919  1.00  0.00     0.211 HD
ENDBRANCH   7   9
ENDBRANCH   1   7
TORSDOF 2
ENDMDL
MODEL 4
REMARK VINA RESULT: -3.926615748      2.721      4.073
REMARK  2 active torsions:
REMARK  status: ('A' for Active; 'I' for Inactive)
REMARK    1  A    between atoms: O1_1  and  C1_3 
REMARK    2  A    between atoms: C1_3  and  C2_5 
ROOT
HETATM    1  C2  UNL     1      -2.781  59.800  30.239  1.00  0.00     0.100 C 
HETATM    2  C3  UNL     1      -2.840  58.312  30.147  1.00  0.00     0.092 C 
HETATM    3  S1  UNL     1      -1.252  57.507  30.399  1.00  0.00    -0.167 SA
HETATM    4  C4  UNL     1       0.137  58.542  29.887  1.00  0.00     0.084 C 
HETATM    5  C5  UNL     1       0.180  59.860  30.620  1.00  0.00     0.084 C 
HETATM    6  S2  UNL     1      -1.425  60.279  31.311  1.00  0.00    -0.159 SA
ENDROOT
BRANCH   1   7
HETATM    7  C1  UNL     1      -4.076  60.361  30.800  1.00  0.00     0.228 C 
HETATM    8 CL1  UNL     1      -5.442  59.259  30.442  1.00  0.00    -0.094 Cl
BRANCH   7   9
HETATM    9  O1  UNL     1      -4.395  61.589  30.281  1.00  0.00    -0.379 OA
ATOM     10  H1  UNL     1      -3.616  61.928  29.857  1.00  0.00     0.211 HD
ENDBRANCH   7   9
ENDBRANCH   1   7
TORSDOF 2
ENDMDL
MODEL 5
REMARK VINA RESULT: -3.888560502      2.982      4.295
REMARK  2 active torsions:
REMARK  status: ('A' for Active; 'I' for Inactive)
REMARK    1  A    between atoms: O1_1  and  C1_3 
REMARK    2  A    between atoms: C1_3  and  C2_5 
ROOT
HETATM    1  C2  UNL     1      -2.083  61.024  30.912  1.00  0.00     0.100 C 
HETATM    2  C3  UNL     1      -3.048  59.958  30.514  1.00  0.00     0.092 C 
HETATM    3  S1  UNL     1      -2.284  58.351  30.255  1.00  0.00    -0.167 SA
HETATM    4  C4  UNL     1      -0.569  58.481  29.702  1.00  0.00     0.084 C 
HETATM    5  C5  UNL     1       0.298  59.239  30.677  1.00  0.00     0.084 C 
HETATM    6  S2  UNL     1      -0.687  60.283  31.758  1.00  0.00    -0.159 SA
ENDROOT
BRANCH   1   7
HETATM    7  C1  UNL     1      -2.741  62.035  31.835  1.00  0.00     0.228 C 
HETATM    8 CL1  UNL     1      -4.225  62.697  31.083  1.00  0.00    -0.094 Cl
BRANCH   7   9
HETATM    9  O1  UNL     1      -1.926  63.096  32.132  1.00  0.00    -0.379 OA
ATOM     10  H1  UNL     1      -1.043  62.857  31.874  1.00  0.00     0.211 HD
ENDBRANCH   7   9
ENDBRANCH   1   7
TORSDOF 2
ENDMDL
