MODEL 1
REMARK VINA RESULT: -5.027212170      0.000      0.000
REMARK  7 active torsions:
REMARK  status: ('A' for Active; 'I' for Inactive)
REMARK    1  A    between atoms: C2_2  and  N1_3 
REMARK       I    between atoms: N1_3  and  C3_4 
REMARK    2  A    between atoms: N1_3  and  C4_9 
REMARK    3  A    between atoms: C4_9  and  C5_10 
REMARK    4  A    between atoms: C7_12  and  O1_13 
REMARK    5  A    between atoms: C7_12  and  N4_15 
REMARK    6  A    between atoms: C9_17  and  C10_18 
REMARK    7  A    between atoms: C11_21  and  C12_22 
ROOT
HETATM    1  C4  UNL     1      -6.744  -3.893 -30.622  1.00  0.00     0.088 C 
HETATM    2  C7  UNL     1      -5.713  -4.846 -30.652  1.00  0.00     0.166 C 
ENDROOT
BRANCH   2   3
HETATM    3  O1  UNL     1      -6.106  -6.139 -30.636  1.00  0.00    -0.344 OA
ATOM      4  H1  UNL     1      -6.734  -6.389 -31.303  1.00  0.00     0.219 HD
ENDBRANCH   2   3
BRANCH   2   5
HETATM    5  N4  UNL     1      -4.314  -4.789 -30.697  1.00  0.00    -0.354 N 
HETATM    6  C8  UNL     1      -3.374  -5.881 -30.217  1.00  0.00     0.143 C 
HETATM    7  C9  UNL     1      -2.474  -5.410 -31.311  1.00  0.00     0.127 C 
HETATM    8  C11 UNL     1      -3.109  -4.082 -30.988  1.00  0.00     0.102 C 
BRANCH   7   9
HETATM    9  C10 UNL     1      -1.055  -5.575 -31.168  1.00  0.00     0.180 C 
HETATM   10  O2  UNL     1      -0.438  -6.139 -30.227  1.00  0.00    -0.648 OA
HETATM   11  O3  UNL     1      -0.224  -5.066 -32.169  1.00  0.00    -0.648 OA
ENDBRANCH   7   9
BRANCH   8  12
HETATM   12  C12 UNL     1      -2.568  -3.365 -29.800  1.00  0.00     0.022 C 
HETATM   13  C13 UNL     1      -1.869  -2.085 -30.174  1.00  0.00     0.007 C 
ENDBRANCH   8  12
ENDBRANCH   2   5
BRANCH   1  14
HETATM   14  N1  UNL     1      -8.112  -4.506 -30.429  1.00  0.00    -0.294 N 
HETATM   15  C3  UNL     1      -8.799  -4.988 -31.554  1.00  0.00     0.193 C 
HETATM   16  N2  UNL     1      -9.173  -4.134 -32.461  1.00  0.00    -0.373 N 
HETATM   17  N3  UNL     1      -9.099  -6.357 -31.742  1.00  0.00    -0.063 NA
ATOM     18  H22 UNL     1      -8.957  -3.145 -32.326  1.00  0.00     0.158 HD
ATOM     19  H21 UNL     1      -9.671  -4.483 -33.279  1.00  0.00     0.158 HD
BRANCH  14  20
HETATM   20  C2  UNL     1      -8.655  -4.574 -29.135  1.00  0.00     0.090 C 
HETATM   21  C1  UNL     1      -9.702  -3.854 -28.787  1.00  0.00     0.030 C 
ENDBRANCH  14  20
ENDBRANCH   1  14
BRANCH   1  22
HETATM   22  C5  UNL     1      -6.788  -2.622 -30.673  1.00  0.00     0.003 C 
HETATM   23  C6  UNL     1      -6.799  -1.754 -31.843  1.00  0.00     0.038 C 
ENDBRANCH   1  22
TORSDOF 7
ENDMDL
MODEL 2
REMARK VINA RESULT: -4.832087927      1.082      1.975
REMARK  7 active torsions:
REMARK  status: ('A' for Active; 'I' for Inactive)
REMARK    1  A    between atoms: C2_2  and  N1_3 
REMARK       I    between atoms: N1_3  and  C3_4 
REMARK    2  A    between atoms: N1_3  and  C4_9 
REMARK    3  A    between atoms: C4_9  and  C5_10 
REMARK    4  A    between atoms: C7_12  and  O1_13 
REMARK    5  A    between atoms: C7_12  and  N4_15 
REMARK    6  A    between atoms: C9_17  and  C10_18 
REMARK    7  A    between atoms: C11_21  and  C12_22 
ROOT
HETATM    1  C4  UNL     1      -6.972  -3.891 -30.579  1.00  0.00     0.088 C 
HETATM    2  C7  UNL     1      -5.850  -4.734 -30.577  1.00  0.00     0.166 C 
ENDROOT
BRANCH   2   3
HETATM    3  O1  UNL     1      -6.109  -6.060 -30.588  1.00  0.00    -0.344 OA
ATOM      4  H1  UNL     1      -6.563  -6.387 -31.356  1.00  0.00     0.219 HD
ENDBRANCH   2   3
BRANCH   2   5
HETATM    5  N4  UNL     1      -4.463  -4.535 -30.567  1.00  0.00    -0.354 N 
HETATM    6  C8  UNL     1      -3.766  -3.197 -30.730  1.00  0.00     0.143 C 
HETATM    7  C9  UNL     1      -2.726  -3.772 -29.825  1.00  0.00     0.127 C 
HETATM    8  C11 UNL     1      -3.134  -5.055 -30.504  1.00  0.00     0.102 C 
BRANCH   7   9
HETATM    9  C10 UNL     1      -1.372  -3.308 -29.933  1.00  0.00     0.180 C 
HETATM   10  O2  UNL     1      -0.963  -2.253 -30.483  1.00  0.00    -0.648 OA
HETATM   11  O3  UNL     1      -0.358  -4.089 -29.374  1.00  0.00    -0.648 OA
ENDBRANCH   7   9
BRANCH   8  12
HETATM   12  C12 UNL     1      -2.553  -5.300 -31.852  1.00  0.00     0.022 C 
HETATM   13  C13 UNL     1      -1.990  -6.689 -31.988  1.00  0.00     0.007 C 
ENDBRANCH   8  12
ENDBRANCH   2   5
BRANCH   1  14
HETATM   14  N1  UNL     1      -8.278  -4.641 -30.444  1.00  0.00    -0.294 N 
HETATM   15  C3  UNL     1      -8.881  -5.155 -31.603  1.00  0.00     0.193 C 
HETATM   16  N2  UNL     1      -9.313  -4.316 -32.498  1.00  0.00    -0.373 N 
HETATM   17  N3  UNL     1      -9.037  -6.541 -31.836  1.00  0.00    -0.063 NA
ATOM     18  H22 UNL     1      -9.200  -3.315 -32.330  1.00  0.00     0.158 HD
ATOM     19  H21 UNL     1      -9.751  -4.689 -33.339  1.00  0.00     0.158 HD
BRANCH  14  20
HETATM   20  C2  UNL     1      -8.847  -4.801 -29.170  1.00  0.00     0.090 C 
HETATM   21  C1  UNL     1      -9.919  -4.128 -28.803  1.00  0.00     0.030 C 
ENDBRANCH  14  20
ENDBRANCH   1  14
BRANCH   1  22
HETATM   22  C5  UNL     1      -7.143  -2.630 -30.621  1.00  0.00     0.003 C 
HETATM   23  C6  UNL     1      -7.046  -1.732 -31.764  1.00  0.00     0.038 C 
ENDBRANCH   1  22
TORSDOF 7
ENDMDL
MODEL 3
REMARK VINA RESULT: -4.716961079      0.923      1.753
REMARK  7 active torsions:
REMARK  status: ('A' for Active; 'I' for Inactive)
REMARK    1  A    between atoms: C2_2  and  N1_3 
REMARK       I    between atoms: N1_3  and  C3_4 
REMARK    2  A    between atoms: N1_3  and  C4_9 
REMARK    3  A    between atoms: C4_9  and  C5_10 
REMARK    4  A    between atoms: C7_12  and  O1_13 
REMARK    5  A    between atoms: C7_12  and  N4_15 
REMARK    6  A    between atoms: C9_17  and  C10_18 
REMARK    7  A    between atoms: C11_21  and  C12_22 
ROOT
HETATM    1  C4  UNL     1      -6.708  -3.507 -31.036  1.00  0.00     0.088 C 
HETATM    2  C7  UNL     1      -5.757  -4.509 -30.784  1.00  0.00     0.166 C 
ENDROOT
BRANCH   2   3
HETATM    3  O1  UNL     1      -6.252  -5.734 -30.505  1.00  0.00    -0.344 OA
ATOM      4  H1  UNL     1      -5.804  -6.216 -29.820  1.00  0.00     0.219 HD
ENDBRANCH   2   3
BRANCH   2   5
HETATM    5  N4  UNL     1      -4.357  -4.557 -30.747  1.00  0.00    -0.354 N 
HETATM    6  C8  UNL     1      -3.532  -5.706 -30.197  1.00  0.00     0.143 C 
HETATM    7  C9  UNL     1      -2.537  -5.324 -31.243  1.00  0.00     0.127 C 
HETATM    8  C11 UNL     1      -3.087  -3.946 -30.975  1.00  0.00     0.102 C 
BRANCH   7   9
HETATM    9  C10 UNL     1      -1.145  -5.592 -31.014  1.00  0.00     0.180 C 
HETATM   10  O2  UNL     1      -0.643  -6.387 -30.178  1.00  0.00    -0.648 OA
HETATM   11  O3  UNL     1      -0.203  -4.912 -31.790  1.00  0.00    -0.648 OA
ENDBRANCH   7   9
BRANCH   8  12
HETATM   12  C12 UNL     1      -2.563  -3.251 -29.767  1.00  0.00     0.022 C 
HETATM   13  C13 UNL     1      -1.719  -2.055 -30.118  1.00  0.00     0.007 C 
ENDBRANCH   8  12
ENDBRANCH   2   5
BRANCH   1  14
HETATM   14  N1  UNL     1      -8.129  -3.967 -30.803  1.00  0.00    -0.294 N 
HETATM   15  C3  UNL     1      -8.765  -3.606 -29.604  1.00  0.00     0.193 C 
HETATM   16  N2  UNL     1      -8.296  -4.085 -28.489  1.00  0.00    -0.373 N 
HETATM   17  N3  UNL     1      -9.888  -2.749 -29.559  1.00  0.00    -0.063 NA
ATOM     18  H22 UNL     1      -7.485  -4.704 -28.521  1.00  0.00     0.158 HD
ATOM     19  H21 UNL     1      -8.757  -3.823 -27.619  1.00  0.00     0.158 HD
BRANCH  14  20
HETATM   20  C2  UNL     1      -8.769  -4.738 -31.787  1.00  0.00     0.090 C 
HETATM   21  C1  UNL     1      -9.551  -5.750 -31.471  1.00  0.00     0.030 C 
ENDBRANCH  14  20
ENDBRANCH   1  14
BRANCH   1  22
HETATM   22  C5  UNL     1      -6.648  -2.281 -31.374  1.00  0.00     0.003 C 
HETATM   23  C6  UNL     1      -7.389  -1.581 -32.415  1.00  0.00     0.038 C 
ENDBRANCH   1  22
TORSDOF 7
ENDMDL
MODEL 4
REMARK VINA RESULT: -4.625711827      1.435      2.575
REMARK  7 active torsions:
REMARK  status: ('A' for Active; 'I' for Inactive)
REMARK    1  A    between atoms: C2_2  and  N1_3 
REMARK       I    between atoms: N1_3  and  C3_4 
REMARK    2  A    between atoms: N1_3  and  C4_9 
REMARK    3  A    between atoms: C4_9  and  C5_10 
REMARK    4  A    between atoms: C7_12  and  O1_13 
REMARK    5  A    between atoms: C7_12  and  N4_15 
REMARK    6  A    between atoms: C9_17  and  C10_18 
REMARK    7  A    between atoms: C11_21  and  C12_22 
ROOT
HETATM    1  C4  UNL     1      -6.960  -3.390 -31.023  1.00  0.00     0.088 C 
HETATM    2  C7  UNL     1      -5.974  -4.334 -30.695  1.00  0.00     0.166 C 
ENDROOT
BRANCH   2   3
HETATM    3  O1  UNL     1      -6.420  -5.572 -30.392  1.00  0.00    -0.344 OA
ATOM      4  H1  UNL     1      -5.818  -6.121 -29.904  1.00  0.00     0.219 HD
ENDBRANCH   2   3
BRANCH   2   5
HETATM    5  N4  UNL     1      -4.576  -4.311 -30.600  1.00  0.00    -0.354 N 
HETATM    6  C8  UNL     1      -3.704  -3.077 -30.749  1.00  0.00     0.143 C 
HETATM    7  C9  UNL     1      -2.805  -3.750 -29.765  1.00  0.00     0.127 C 
HETATM    8  C11 UNL     1      -3.331  -4.992 -30.439  1.00  0.00     0.102 C 
BRANCH   7   9
HETATM    9  C10 UNL     1      -1.398  -3.464 -29.795  1.00  0.00     0.180 C 
HETATM   10  O2  UNL     1      -0.459  -4.182 -29.363  1.00  0.00    -0.648 OA
HETATM   11  O3  UNL     1      -0.979  -2.260 -30.365  1.00  0.00    -0.648 OA
ENDBRANCH   7   9
BRANCH   8  12
HETATM   12  C12 UNL     1      -2.704  -5.350 -31.740  1.00  0.00     0.022 C 
HETATM   13  C13 UNL     1      -2.184  -6.763 -31.754  1.00  0.00     0.007 C 
ENDBRANCH   8  12
ENDBRANCH   2   5
BRANCH   1  14
HETATM   14  N1  UNL     1      -8.366  -3.911 -30.830  1.00  0.00    -0.294 N 
HETATM   15  C3  UNL     1      -9.047  -3.588 -29.646  1.00  0.00     0.193 C 
HETATM   16  N2  UNL     1      -8.587  -4.055 -28.523  1.00  0.00    -0.373 N 
HETATM   17  N3  UNL     1     -10.206  -2.779 -29.625  1.00  0.00    -0.063 NA
ATOM     18  H22 UNL     1      -7.751  -4.639 -28.537  1.00  0.00     0.158 HD
ATOM     19  H21 UNL     1      -9.082  -3.820 -27.663  1.00  0.00     0.158 HD
BRANCH  14  20
HETATM   20  C2  UNL     1      -8.947  -4.701 -31.836  1.00  0.00     0.090 C 
HETATM   21  C1  UNL     1      -9.643  -5.782 -31.550  1.00  0.00     0.030 C 
ENDBRANCH  14  20
ENDBRANCH   1  14
BRANCH   1  22
HETATM   22  C5  UNL     1      -6.945  -2.175 -31.403  1.00  0.00     0.003 C 
HETATM   23  C6  UNL     1      -7.735  -1.533 -32.445  1.00  0.00     0.038 C 
ENDBRANCH   1  22
TORSDOF 7
ENDMDL
MODEL 5
REMARK VINA RESULT: -4.591564041      5.047      6.958
REMARK  7 active torsions:
REMARK  status: ('A' for Active; 'I' for Inactive)
REMARK    1  A    between atoms: C2_2  and  N1_3 
REMARK       I    between atoms: N1_3  and  C3_4 
REMARK    2  A    between atoms: N1_3  and  C4_9 
REMARK    3  A    between atoms: C4_9  and  C5_10 
REMARK    4  A    between atoms: C7_12  and  O1_13 
REMARK    5  A    between atoms: C7_12  and  N4_15 
REMARK    6  A    between atoms: C9_17  and  C10_18 
REMARK    7  A    between atoms: C11_21  and  C12_22 
ROOT
HETATM    1  C4  UNL     1     -10.322  -2.561 -28.556  1.00  0.00     0.088 C 
HETATM    2  C7  UNL     1     -10.450  -1.701 -29.658  1.00  0.00     0.166 C 
ENDROOT
BRANCH   2   3
HETATM    3  O1  UNL     1     -11.398  -0.745 -29.552  1.00  0.00    -0.344 OA
ATOM      4  H1  UNL     1     -11.120   0.073 -29.157  1.00  0.00     0.219 HD
ENDBRANCH   2   3
BRANCH   2   5
HETATM    5  N4  UNL     1      -9.809  -1.580 -30.898  1.00  0.00    -0.354 N 
HETATM    6  C8  UNL     1     -10.392  -2.006 -32.234  1.00  0.00     0.143 C 
HETATM    7  C9  UNL     1      -9.608  -0.865 -32.795  1.00  0.00     0.127 C 
HETATM    8  C11 UNL     1      -8.665  -1.227 -31.676  1.00  0.00     0.102 C 
BRANCH   7   9
HETATM    9  C10 UNL     1      -9.157  -0.931 -34.156  1.00  0.00     0.180 C 
HETATM   10  O2  UNL     1      -9.203  -1.919 -34.934  1.00  0.00    -0.648 OA
HETATM   11  O3  UNL     1      -8.594   0.215 -34.723  1.00  0.00    -0.648 OA
ENDBRANCH   7   9
BRANCH   8  12
HETATM   12  C12 UNL     1      -7.763  -2.385 -31.923  1.00  0.00     0.022 C 
HETATM   13  C13 UNL     1      -6.461  -2.266 -31.176  1.00  0.00     0.007 C 
ENDBRANCH   8  12
ENDBRANCH   2   5
BRANCH   1  14
HETATM   14  N1  UNL     1     -11.385  -2.339 -27.504  1.00  0.00    -0.294 N 
HETATM   15  C3  UNL     1     -11.346  -1.158 -26.745  1.00  0.00     0.193 C 
HETATM   16  N2  UNL     1     -10.338  -0.974 -25.943  1.00  0.00    -0.373 N 
HETATM   17  N3  UNL     1     -12.350  -0.166 -26.818  1.00  0.00    -0.063 NA
ATOM     18  H22 UNL     1      -9.613  -1.690 -25.891  1.00  0.00     0.158 HD
ATOM     19  H21 UNL     1     -10.309  -0.117 -25.392  1.00  0.00     0.158 HD
BRANCH  14  20
HETATM   20  C2  UNL     1     -12.376  -3.316 -27.317  1.00  0.00     0.090 C 
HETATM   21  C1  UNL     1     -12.584  -3.873 -26.141  1.00  0.00     0.030 C 
ENDBRANCH  14  20
ENDBRANCH   1  14
BRANCH   1  22
HETATM   22  C5  UNL     1      -9.541  -3.520 -28.256  1.00  0.00     0.003 C 
HETATM   23  C6  UNL     1      -9.006  -4.568 -29.116  1.00  0.00     0.038 C 
ENDBRANCH   1  22
TORSDOF 7
ENDMDL
