MODEL 1
REMARK VINA RESULT: -7.437842601      0.000      0.000
REMARK  5 active torsions:
REMARK  status: ('A' for Active; 'I' for Inactive)
REMARK    1  A    between atoms: C3_3  and  O1_4 
REMARK    2  A    between atoms: O1_4  and  C4_5 
REMARK    3  A    between atoms: C4_5  and  N1_6 
REMARK    4  A    between atoms: C5_7  and  N2_8 
REMARK    5  A    between atoms: C8_16  and  N4_17 
ROOT
HETATM    1  C1  UNL     1      18.834  31.483  72.917  1.00  0.00     0.014 C 
HETATM    2  C2  UNL     1      18.388  30.456  73.371  1.00  0.00    -0.091 C 
HETATM    3  C3  UNL     1      17.863  29.211  73.943  1.00  0.00     0.262 C 
ENDROOT
BRANCH   3   4
HETATM    4  O1  UNL     1      16.502  29.275  74.173  1.00  0.00    -0.359 OA
BRANCH   4   5
HETATM    5  C4  UNL     1      15.767  28.623  73.182  1.00  0.00     0.320 C 
BRANCH   5   6
HETATM    6  N1  UNL     1      14.393  28.518  73.622  1.00  0.00    -0.145 N 
HETATM    7  C5  UNL     1      13.439  29.097  72.892  1.00  0.00     0.684 A 
HETATM    8  N3  UNL     1      12.164  29.004  73.299  1.00  0.00    -0.155 N 
HETATM    9  C6  UNL     1      11.879  28.321  74.451  1.00  0.00     0.277 A 
ATOM     10  H3  UNL     1      11.417  29.436  72.758  1.00  0.00     0.187 HD
HETATM   11  O2  UNL     1      10.687  28.234  74.831  1.00  0.00    -0.266 OA
HETATM   12  C7  UNL     1      12.866  27.721  75.209  1.00  0.00     0.121 A 
HETATM   13  C8  UNL     1      12.612  27.022  76.377  1.00  0.00     0.119 A 
HETATM   14  C10 UNL     1      14.163  27.840  74.754  1.00  0.00     0.146 A 
HETATM   15  N5  UNL     1      13.684  26.472  77.039  1.00  0.00    -0.338 N 
HETATM   16  C9  UNL     1      14.931  26.601  76.580  1.00  0.00     0.183 A 
ATOM     17  H5  UNL     1      13.523  25.953  77.902  1.00  0.00     0.168 HD
HETATM   18  N6  UNL     1      15.179  27.277  75.447  1.00  0.00    -0.337 N 
ATOM     19  H6  UNL     1      16.137  27.368  75.108  1.00  0.00     0.168 HD
BRANCH   7  20
HETATM   20  N2  UNL     1      13.701  29.727  71.826  1.00  0.00    -0.234 N 
ATOM     21  H22 UNL     1      14.139  29.231  71.051  1.00  0.00     0.174 HD
ATOM     22  H21 UNL     1      13.490  30.719  71.720  1.00  0.00     0.174 HD
ENDBRANCH   7  20
BRANCH  13  23
HETATM   23  N4  UNL     1      11.466  26.879  76.840  1.00  0.00    -0.385 N 
ATOM     24  H42 UNL     1      10.767  26.366  76.304  1.00  0.00     0.157 HD
ATOM     25  H41 UNL     1      11.185  27.256  77.745  1.00  0.00     0.157 HD
ENDBRANCH  13  23
ENDBRANCH   5   6
ENDBRANCH   4   5
ENDBRANCH   3   4
TORSDOF 5
ENDMDL
MODEL 2
REMARK VINA RESULT: -7.305380898      1.393      3.277
REMARK  5 active torsions:
REMARK  status: ('A' for Active; 'I' for Inactive)
REMARK    1  A    between atoms: C3_3  and  O1_4 
REMARK    2  A    between atoms: O1_4  and  C4_5 
REMARK    3  A    between atoms: C4_5  and  N1_6 
REMARK    4  A    between atoms: C5_7  and  N2_8 
REMARK    5  A    between atoms: C8_16  and  N4_17 
ROOT
HETATM    1  C1  UNL     1      18.698  31.513  72.912  1.00  0.00     0.014 C 
HETATM    2  C2  UNL     1      18.742  30.791  73.880  1.00  0.00    -0.091 C 
HETATM    3  C3  UNL     1      18.804  29.934  75.069  1.00  0.00     0.262 C 
ENDROOT
BRANCH   3   4
HETATM    4  O1  UNL     1      17.564  29.437  75.422  1.00  0.00    -0.359 OA
BRANCH   4   5
HETATM    5  C4  UNL     1      17.303  28.200  74.830  1.00  0.00     0.320 C 
BRANCH   5   6
HETATM    6  N1  UNL     1      16.012  27.735  75.287  1.00  0.00    -0.145 N 
HETATM    7  C5  UNL     1      15.951  26.997  76.396  1.00  0.00     0.684 A 
HETATM    8  N3  UNL     1      14.755  26.562  76.821  1.00  0.00    -0.155 N 
HETATM    9  C6  UNL     1      13.633  26.886  76.105  1.00  0.00     0.277 A 
ATOM     10  H3  UNL     1      14.682  25.998  77.666  1.00  0.00     0.187 HD
HETATM   11  O2  UNL     1      12.516  26.479  76.503  1.00  0.00    -0.266 OA
HETATM   12  C7  UNL     1      13.695  27.651  74.956  1.00  0.00     0.121 A 
HETATM   13  C8  UNL     1      12.581  27.998  74.210  1.00  0.00     0.119 A 
HETATM   14  C10 UNL     1      14.944  28.078  74.555  1.00  0.00     0.146 A 
HETATM   15  N5  UNL     1      12.778  28.763  73.085  1.00  0.00    -0.338 N 
HETATM   16  C9  UNL     1      13.996  29.165  72.716  1.00  0.00     0.183 A 
ATOM     17  H5  UNL     1      11.973  29.031  72.519  1.00  0.00     0.168 HD
HETATM   18  N6  UNL     1      15.077  28.830  73.439  1.00  0.00    -0.337 N 
ATOM     19  H6  UNL     1      16.002  29.143  73.145  1.00  0.00     0.168 HD
BRANCH   7  20
HETATM   20  N2  UNL     1      16.986  26.698  77.059  1.00  0.00    -0.234 N 
ATOM     21  H22 UNL     1      17.854  26.498  76.563  1.00  0.00     0.174 HD
ATOM     22  H21 UNL     1      16.979  26.648  78.078  1.00  0.00     0.174 HD
ENDBRANCH   7  20
BRANCH  13  23
HETATM   23  N4  UNL     1      11.428  27.644  74.518  1.00  0.00    -0.385 N 
ATOM     24  H42 UNL     1      11.195  27.486  75.498  1.00  0.00     0.157 HD
ATOM     25  H41 UNL     1      10.691  27.502  73.827  1.00  0.00     0.157 HD
ENDBRANCH  13  23
ENDBRANCH   5   6
ENDBRANCH   4   5
ENDBRANCH   3   4
TORSDOF 5
ENDMDL
MODEL 3
REMARK VINA RESULT: -7.282246960      2.812      5.770
REMARK  5 active torsions:
REMARK  status: ('A' for Active; 'I' for Inactive)
REMARK    1  A    between atoms: C3_3  and  O1_4 
REMARK    2  A    between atoms: O1_4  and  C4_5 
REMARK    3  A    between atoms: C4_5  and  N1_6 
REMARK    4  A    between atoms: C5_7  and  N2_8 
REMARK    5  A    between atoms: C8_16  and  N4_17 
ROOT
HETATM    1  C1  UNL     1      13.974  25.151  81.925  1.00  0.00     0.014 C 
HETATM    2  C2  UNL     1      14.917  25.526  81.270  1.00  0.00    -0.091 C 
HETATM    3  C3  UNL     1      16.070  25.957  80.471  1.00  0.00     0.262 C 
ENDROOT
BRANCH   3   4
HETATM    4  O1  UNL     1      15.691  26.634  79.328  1.00  0.00    -0.359 OA
BRANCH   4   5
HETATM    5  C4  UNL     1      15.614  25.792  78.216  1.00  0.00     0.320 C 
BRANCH   5   6
HETATM    6  N1  UNL     1      15.727  26.597  77.021  1.00  0.00    -0.145 N 
HETATM    7  C5  UNL     1      16.942  26.936  76.588  1.00  0.00     0.684 A 
HETATM    8  N3  UNL     1      17.050  27.685  75.480  1.00  0.00    -0.155 N 
HETATM    9  C6  UNL     1      15.914  28.082  74.828  1.00  0.00     0.277 A 
ATOM     10  H3  UNL     1      17.968  27.956  75.128  1.00  0.00     0.187 HD
HETATM   11  O2  UNL     1      16.016  28.782  73.792  1.00  0.00    -0.266 OA
HETATM   12  C7  UNL     1      14.654  27.732  75.275  1.00  0.00     0.121 A 
HETATM   13  C8  UNL     1      13.485  28.114  74.639  1.00  0.00     0.119 A 
HETATM   14  C10 UNL     1      14.588  26.960  76.417  1.00  0.00     0.146 A 
HETATM   15  N5  UNL     1      12.294  27.700  75.187  1.00  0.00    -0.338 N 
HETATM   16  C9  UNL     1      12.255  26.954  76.293  1.00  0.00     0.183 A 
ATOM     17  H5  UNL     1      11.420  27.969  74.737  1.00  0.00     0.168 HD
HETATM   18  N6  UNL     1      13.387  26.582  76.911  1.00  0.00    -0.337 N 
ATOM     19  H6  UNL     1      13.342  26.012  77.755  1.00  0.00     0.168 HD
BRANCH   7  20
HETATM   20  N2  UNL     1      17.994  26.569  77.189  1.00  0.00    -0.234 N 
ATOM     21  H22 UNL     1      18.007  26.562  78.208  1.00  0.00     0.174 HD
ATOM     22  H21 UNL     1      18.832  26.283  76.683  1.00  0.00     0.174 HD
ENDBRANCH   7  20
BRANCH  13  23
HETATM   23  N4  UNL     1      13.477  28.809  73.607  1.00  0.00    -0.385 N 
ATOM     24  H42 UNL     1      14.269  28.767  72.966  1.00  0.00     0.157 HD
ATOM     25  H41 UNL     1      12.705  29.430  73.365  1.00  0.00     0.157 HD
ENDBRANCH  13  23
ENDBRANCH   5   6
ENDBRANCH   4   5
ENDBRANCH   3   4
TORSDOF 5
ENDMDL
MODEL 4
REMARK VINA RESULT: -7.112601077      2.048      3.617
REMARK  5 active torsions:
REMARK  status: ('A' for Active; 'I' for Inactive)
REMARK    1  A    between atoms: C3_3  and  O1_4 
REMARK    2  A    between atoms: O1_4  and  C4_5 
REMARK    3  A    between atoms: C4_5  and  N1_6 
REMARK    4  A    between atoms: C5_7  and  N2_8 
REMARK    5  A    between atoms: C8_16  and  N4_17 
ROOT
HETATM    1  C1  UNL     1      18.907  32.527  72.516  1.00  0.00     0.014 C 
HETATM    2  C2  UNL     1      18.980  31.584  73.267  1.00  0.00    -0.091 C 
HETATM    3  C3  UNL     1      19.080  30.455  74.198  1.00  0.00     0.262 C 
ENDROOT
BRANCH   3   4
HETATM    4  O1  UNL     1      17.841  29.942  74.534  1.00  0.00    -0.359 OA
BRANCH   4   5
HETATM    5  C4  UNL     1      17.692  28.614  74.129  1.00  0.00     0.320 C 
BRANCH   5   6
HETATM    6  N1  UNL     1      16.941  27.907  75.142  1.00  0.00    -0.145 N 
HETATM    7  C5  UNL     1      17.602  27.333  76.149  1.00  0.00     0.684 A 
HETATM    8  N3  UNL     1      16.907  26.674  77.089  1.00  0.00    -0.155 N 
HETATM    9  C6  UNL     1      15.544  26.607  76.989  1.00  0.00     0.277 A 
ATOM     10  H3  UNL     1      17.390  26.229  77.869  1.00  0.00     0.187 HD
HETATM   11  O2  UNL     1      14.895  25.991  77.867  1.00  0.00    -0.266 OA
HETATM   12  C7  UNL     1      14.857  27.201  75.946  1.00  0.00     0.121 A 
HETATM   13  C8  UNL     1      13.479  27.153  75.816  1.00  0.00     0.119 A 
HETATM   14  C10 UNL     1      15.609  27.869  75.002  1.00  0.00     0.146 A 
HETATM   15  N5  UNL     1      12.918  27.785  74.731  1.00  0.00    -0.338 N 
HETATM   16  C9  UNL     1      13.666  28.425  73.829  1.00  0.00     0.183 A 
ATOM     17  H5  UNL     1      11.905  27.764  74.613  1.00  0.00     0.168 HD
HETATM   18  N6  UNL     1      15.002  28.473  73.955  1.00  0.00    -0.337 N 
ATOM     19  H6  UNL     1      15.561  28.965  73.259  1.00  0.00     0.168 HD
BRANCH   7  20
HETATM   20  N2  UNL     1      18.862  27.396  76.244  1.00  0.00    -0.234 N 
ATOM     21  H22 UNL     1      19.277  27.985  76.965  1.00  0.00     0.174 HD
ATOM     22  H21 UNL     1      19.477  26.876  75.618  1.00  0.00     0.174 HD
ENDBRANCH   7  20
BRANCH  13  23
HETATM   23  N4  UNL     1      12.746  26.567  76.632  1.00  0.00    -0.385 N 
ATOM     24  H42 UNL     1      13.124  25.802  77.190  1.00  0.00     0.157 HD
ATOM     25  H41 UNL     1      11.767  26.819  76.775  1.00  0.00     0.157 HD
ENDBRANCH  13  23
ENDBRANCH   5   6
ENDBRANCH   4   5
ENDBRANCH   3   4
TORSDOF 5
ENDMDL
MODEL 5
REMARK VINA RESULT: -7.093010021      2.063      4.443
REMARK  5 active torsions:
REMARK  status: ('A' for Active; 'I' for Inactive)
REMARK    1  A    between atoms: C3_3  and  O1_4 
REMARK    2  A    between atoms: O1_4  and  C4_5 
REMARK    3  A    between atoms: C4_5  and  N1_6 
REMARK    4  A    between atoms: C5_7  and  N2_8 
REMARK    5  A    between atoms: C8_16  and  N4_17 
ROOT
HETATM    1  C1  UNL     1      17.748  26.208  77.644  1.00  0.00     0.014 C 
HETATM    2  C2  UNL     1      16.700  25.619  77.767  1.00  0.00    -0.091 C 
HETATM    3  C3  UNL     1      15.427  24.911  77.941  1.00  0.00     0.262 C 
ENDROOT
BRANCH   3   4
HETATM    4  O1  UNL     1      14.456  25.359  77.066  1.00  0.00    -0.359 OA
BRANCH   4   5
HETATM    5  C4  UNL     1      14.137  26.702  77.272  1.00  0.00     0.320 C 
BRANCH   5   6
HETATM    6  N1  UNL     1      13.433  27.192  76.107  1.00  0.00    -0.145 N 
HETATM    7  C5  UNL     1      12.108  27.058  76.055  1.00  0.00     0.684 A 
HETATM    8  N3  UNL     1      11.452  27.509  74.975  1.00  0.00    -0.155 N 
HETATM    9  C6  UNL     1      12.161  28.091  73.958  1.00  0.00     0.277 A 
ATOM     10  H3  UNL     1      10.439  27.420  74.912  1.00  0.00     0.187 HD
HETATM   11  O2  UNL     1      11.548  28.511  72.948  1.00  0.00    -0.266 OA
HETATM   12  C7  UNL     1      13.535  28.229  74.010  1.00  0.00     0.121 A 
HETATM   13  C8  UNL     1      14.281  28.813  73.000  1.00  0.00     0.119 A 
HETATM   14  C10 UNL     1      14.169  27.753  75.139  1.00  0.00     0.146 A 
HETATM   15  N5  UNL     1      15.643  28.890  73.175  1.00  0.00    -0.338 N 
HETATM   16  C9  UNL     1      16.235  28.422  74.276  1.00  0.00     0.183 A 
ATOM     17  H5  UNL     1      16.214  29.316  72.445  1.00  0.00     0.168 HD
HETATM   18  N6  UNL     1      15.512  27.856  75.256  1.00  0.00    -0.337 N 
ATOM     19  H6  UNL     1      15.978  27.503  76.092  1.00  0.00     0.168 HD
BRANCH   7  20
HETATM   20  N2  UNL     1      11.451  26.523  76.995  1.00  0.00    -0.234 N 
ATOM     21  H22 UNL     1      10.982  27.119  77.676  1.00  0.00     0.174 HD
ATOM     22  H21 UNL     1      11.379  25.510  77.095  1.00  0.00     0.174 HD
ENDBRANCH   7  20
BRANCH  13  23
HETATM   23  N4  UNL     1      13.770  29.261  71.959  1.00  0.00    -0.385 N 
ATOM     24  H42 UNL     1      14.269  29.174  71.074  1.00  0.00     0.157 HD
ATOM     25  H41 UNL     1      12.858  29.719  71.944  1.00  0.00     0.157 HD
ENDBRANCH  13  23
ENDBRANCH   5   6
ENDBRANCH   4   5
ENDBRANCH   3   4
TORSDOF 5
ENDMDL
