MODEL 1
REMARK VINA RESULT: -7.255567387      0.000      0.000
REMARK  3 active torsions:
REMARK  status: ('A' for Active; 'I' for Inactive)
REMARK    1  A    between atoms: C5_10  and  C6_11 
REMARK       I    between atoms: C6_11  and  N3_13 
REMARK    2  A    between atoms: N3_13  and  N4_15 
REMARK    3  A    between atoms: C7_17  and  C8_18 
ROOT
HETATM    1  C6  UNL     1      15.634  27.306  76.532  1.00  0.00     0.273 C 
HETATM    2  O1  UNL     1      15.080  26.211  76.829  1.00  0.00    -0.266 OA
HETATM    3  N3  UNL     1      14.865  28.511  76.552  1.00  0.00    -0.266 N 
ATOM      4  H3  UNL     1      15.354  29.371  76.305  1.00  0.00     0.190 HD
ENDROOT
BRANCH   1   5
HETATM    5  C5  UNL     1      17.050  27.414  76.155  1.00  0.00     0.077 A 
HETATM    6  C1  UNL     1      18.113  26.922  76.848  1.00  0.00     0.114 A 
HETATM    7  N1  UNL     1      17.913  26.155  77.848  1.00  0.00    -0.385 N 
HETATM    8  N2  UNL     1      19.397  27.211  76.463  1.00  0.00    -0.352 N 
ATOM      9  H12 UNL     1      18.710  25.786  78.367  1.00  0.00     0.157 HD
ATOM     10  H11 UNL     1      16.958  25.939  78.134  1.00  0.00     0.157 HD
HETATM   11  C2  UNL     1      19.646  27.977  75.402  1.00  0.00     0.089 A 
ATOM     12  H2  UNL     1      20.177  26.831  77.000  1.00  0.00     0.166 HD
HETATM   13  C3  UNL     1      18.586  28.503  74.656  1.00  0.00     0.018 A 
HETATM   14  C4  UNL     1      17.296  28.214  75.043  1.00  0.00     0.022 A 
ENDBRANCH   1   5
BRANCH   3  15
HETATM   15  N4  UNL     1      13.531  28.629  76.870  1.00  0.00    -0.305 N 
HETATM   16  C7  UNL     1      12.638  28.628  75.961  1.00  0.00     0.157 C 
ATOM     17  H4  UNL     1      13.253  28.720  77.848  1.00  0.00     0.186 HD
BRANCH  16  18
HETATM   18  C8  UNL     1      11.228  28.753  76.274  1.00  0.00     0.148 A 
HETATM   19  N5  UNL     1      10.525  27.891  77.044  1.00  0.00    -0.269 N 
HETATM   20  N6  UNL     1       9.297  28.370  77.115  1.00  0.00    -0.007 NA
ATOM     21  H5  UNL     1      10.875  27.039  77.482  1.00  0.00     0.185 HD
HETATM   22  N7  UNL     1       9.218  29.502  76.413  1.00  0.00    -0.007 NA
HETATM   23  N8  UNL     1      10.412  29.746  75.887  1.00  0.00    -0.269 N 
ATOM     24  H8  UNL     1      10.662  30.541  75.298  1.00  0.00     0.185 HD
ENDBRANCH  16  18
ENDBRANCH   3  15
TORSDOF 3
ENDMDL
MODEL 2
REMARK VINA RESULT: -6.999631898      1.444      1.934
REMARK  3 active torsions:
REMARK  status: ('A' for Active; 'I' for Inactive)
REMARK    1  A    between atoms: C5_10  and  C6_11 
REMARK       I    between atoms: C6_11  and  N3_13 
REMARK    2  A    between atoms: N3_13  and  N4_15 
REMARK    3  A    between atoms: C7_17  and  C8_18 
ROOT
HETATM    1  C6  UNL     1      15.644  27.915  75.410  1.00  0.00     0.273 C 
HETATM    2  O1  UNL     1      15.116  28.036  74.269  1.00  0.00    -0.266 OA
HETATM    3  N3  UNL     1      14.807  27.819  76.566  1.00  0.00    -0.266 N 
ATOM      4  H3  UNL     1      15.277  27.723  77.465  1.00  0.00     0.190 HD
ENDROOT
BRANCH   1   5
HETATM    5  C5  UNL     1      17.097  27.873  75.623  1.00  0.00     0.077 A 
HETATM    6  C1  UNL     1      18.053  28.368  74.789  1.00  0.00     0.114 A 
HETATM    7  N1  UNL     1      17.708  29.080  73.787  1.00  0.00    -0.385 N 
HETATM    8  N2  UNL     1      19.382  28.141  75.032  1.00  0.00    -0.352 N 
ATOM      9  H12 UNL     1      18.424  29.451  73.163  1.00  0.00     0.157 HD
ATOM     10  H11 UNL     1      16.718  29.249  73.607  1.00  0.00     0.157 HD
HETATM   11  C2  UNL     1      19.783  27.435  76.089  1.00  0.00     0.089 A 
ATOM     12  H2  UNL     1      20.080  28.522  74.392  1.00  0.00     0.166 HD
HETATM   13  C3  UNL     1      18.838  26.909  76.976  1.00  0.00     0.018 A 
HETATM   14  C4  UNL     1      17.502  27.135  76.731  1.00  0.00     0.022 A 
ENDBRANCH   1   5
BRANCH   3  15
HETATM   15  N4  UNL     1      13.431  27.843  76.587  1.00  0.00    -0.305 N 
HETATM   16  C7  UNL     1      12.794  28.941  76.474  1.00  0.00     0.157 C 
ATOM     17  H4  UNL     1      12.914  26.970  76.696  1.00  0.00     0.186 HD
BRANCH  16  18
HETATM   18  C8  UNL     1      11.345  28.989  76.497  1.00  0.00     0.148 A 
HETATM   19  N5  UNL     1      10.530  27.970  76.140  1.00  0.00    -0.269 N 
HETATM   20  N6  UNL     1       9.294  28.395  76.333  1.00  0.00    -0.007 NA
ATOM     21  H5  UNL     1      10.813  27.055  75.791  1.00  0.00     0.185 HD
HETATM   22  N7  UNL     1       9.320  29.646  76.797  1.00  0.00    -0.007 NA
HETATM   23  N8  UNL     1      10.588  30.022  76.901  1.00  0.00    -0.269 N 
ATOM     24  H8  UNL     1      10.925  30.928  77.226  1.00  0.00     0.185 HD
ENDBRANCH  16  18
ENDBRANCH   3  15
TORSDOF 3
ENDMDL
MODEL 3
REMARK VINA RESULT: -6.952636008      3.035      3.677
REMARK  3 active torsions:
REMARK  status: ('A' for Active; 'I' for Inactive)
REMARK    1  A    between atoms: C5_10  and  C6_11 
REMARK       I    between atoms: C6_11  and  N3_13 
REMARK    2  A    between atoms: N3_13  and  N4_15 
REMARK    3  A    between atoms: C7_17  and  C8_18 
ROOT
HETATM    1  C6  UNL     1      17.937  29.142  74.640  1.00  0.00     0.273 C 
HETATM    2  O1  UNL     1      17.796  29.967  73.694  1.00  0.00    -0.266 OA
HETATM    3  N3  UNL     1      16.872  28.238  74.947  1.00  0.00    -0.266 N 
ATOM      4  H3  UNL     1      17.029  27.590  75.718  1.00  0.00     0.190 HD
ENDROOT
BRANCH   1   5
HETATM    5  C5  UNL     1      19.151  29.060  75.462  1.00  0.00     0.077 A 
HETATM    6  C1  UNL     1      19.805  30.101  76.048  1.00  0.00     0.114 A 
HETATM    7  N1  UNL     1      19.275  31.262  76.042  1.00  0.00    -0.385 N 
HETATM    8  N2  UNL     1      21.009  29.910  76.675  1.00  0.00    -0.352 N 
ATOM      9  H12 UNL     1      19.765  32.041  76.480  1.00  0.00     0.157 HD
ATOM     10  H11 UNL     1      18.378  31.404  75.575  1.00  0.00     0.157 HD
HETATM   11  C2  UNL     1      21.575  28.706  76.735  1.00  0.00     0.089 A 
ATOM     12  H2  UNL     1      21.480  30.707  77.104  1.00  0.00     0.166 HD
HETATM   13  C3  UNL     1      20.940  27.605  76.151  1.00  0.00     0.018 A 
HETATM   14  C4  UNL     1      19.731  27.796  75.520  1.00  0.00     0.022 A 
ENDBRANCH   1   5
BRANCH   3  15
HETATM   15  N4  UNL     1      15.656  28.153  74.308  1.00  0.00    -0.305 N 
HETATM   16  C7  UNL     1      14.569  28.106  74.972  1.00  0.00     0.157 C 
ATOM     17  H4  UNL     1      15.624  28.127  73.288  1.00  0.00     0.186 HD
BRANCH  16  18
HETATM   18  C8  UNL     1      13.278  28.014  74.318  1.00  0.00     0.148 A 
HETATM   19  N5  UNL     1      12.791  28.915  73.434  1.00  0.00    -0.269 N 
HETATM   20  N6  UNL     1      11.614  28.458  73.046  1.00  0.00    -0.007 NA
ATOM     21  H5  UNL     1      13.242  29.777  73.129  1.00  0.00     0.185 HD
HETATM   22  N7  UNL     1      11.359  27.302  73.662  1.00  0.00    -0.007 NA
HETATM   23  N8  UNL     1      12.385  27.021  74.454  1.00  0.00    -0.269 N 
ATOM     24  H8  UNL     1      12.478  26.201  75.055  1.00  0.00     0.185 HD
ENDBRANCH  16  18
ENDBRANCH   3  15
TORSDOF 3
ENDMDL
MODEL 4
REMARK VINA RESULT: -6.780025746      3.220      6.064
REMARK  3 active torsions:
REMARK  status: ('A' for Active; 'I' for Inactive)
REMARK    1  A    between atoms: C5_10  and  C6_11 
REMARK       I    between atoms: C6_11  and  N3_13 
REMARK    2  A    between atoms: N3_13  and  N4_15 
REMARK    3  A    between atoms: C7_17  and  C8_18 
ROOT
HETATM    1  C6  UNL     1      13.182  27.453  75.526  1.00  0.00     0.273 C 
HETATM    2  O1  UNL     1      12.195  26.719  75.810  1.00  0.00    -0.266 OA
HETATM    3  N3  UNL     1      14.290  27.520  76.428  1.00  0.00    -0.266 N 
ATOM      4  H3  UNL     1      15.064  28.125  76.158  1.00  0.00     0.190 HD
ENDROOT
BRANCH   1   5
HETATM    5  C5  UNL     1      13.257  28.263  74.303  1.00  0.00     0.077 A 
HETATM    6  C1  UNL     1      12.206  28.766  73.598  1.00  0.00     0.114 A 
HETATM    7  N1  UNL     1      11.027  28.686  74.081  1.00  0.00    -0.385 N 
HETATM    8  N2  UNL     1      12.402  29.389  72.393  1.00  0.00    -0.352 N 
ATOM      9  H12 UNL     1      10.241  29.063  73.553  1.00  0.00     0.157 HD
ATOM     10  H11 UNL     1      10.881  28.222  74.979  1.00  0.00     0.157 HD
HETATM   11  C2  UNL     1      13.622  29.525  71.875  1.00  0.00     0.089 A 
ATOM     12  H2  UNL     1      11.598  29.755  71.883  1.00  0.00     0.166 HD
HETATM   13  C3  UNL     1      14.733  29.028  72.563  1.00  0.00     0.018 A 
HETATM   14  C4  UNL     1      14.537  28.401  73.774  1.00  0.00     0.022 A 
ENDBRANCH   1   5
BRANCH   3  15
HETATM   15  N4  UNL     1      14.418  26.849  77.624  1.00  0.00    -0.305 N 
HETATM   16  C7  UNL     1      15.033  25.735  77.687  1.00  0.00     0.157 C 
ATOM     17  H4  UNL     1      14.014  27.250  78.471  1.00  0.00     0.186 HD
BRANCH  16  18
HETATM   18  C8  UNL     1      15.176  25.012  78.935  1.00  0.00     0.148 A 
HETATM   19  N5  UNL     1      14.905  25.517  80.160  1.00  0.00    -0.269 N 
HETATM   20  N6  UNL     1      15.128  24.544  81.024  1.00  0.00    -0.007 NA
ATOM     21  H5  UNL     1      14.590  26.464  80.374  1.00  0.00     0.185 HD
HETATM   22  N7  UNL     1      15.529  23.452  80.371  1.00  0.00    -0.007 NA
HETATM   23  N8  UNL     1      15.563  23.734  79.075  1.00  0.00    -0.269 N 
ATOM     24  H8  UNL     1      15.834  23.097  78.325  1.00  0.00     0.185 HD
ENDBRANCH  16  18
ENDBRANCH   3  15
TORSDOF 3
ENDMDL
MODEL 5
REMARK VINA RESULT: -6.772365136      2.992      7.011
REMARK  3 active torsions:
REMARK  status: ('A' for Active; 'I' for Inactive)
REMARK    1  A    between atoms: C5_10  and  C6_11 
REMARK       I    between atoms: C6_11  and  N3_13 
REMARK    2  A    between atoms: N3_13  and  N4_15 
REMARK    3  A    between atoms: C7_17  and  C8_18 
ROOT
HETATM    1  C6  UNL     1      14.363  27.436  76.646  1.00  0.00     0.273 C 
HETATM    2  O1  UNL     1      15.476  28.031  76.679  1.00  0.00    -0.266 OA
HETATM    3  N3  UNL     1      14.196  26.215  77.371  1.00  0.00    -0.266 N 
ATOM      4  H3  UNL     1      13.281  25.770  77.315  1.00  0.00     0.190 HD
ENDROOT
BRANCH   1   5
HETATM    5  C5  UNL     1      13.208  27.932  75.885  1.00  0.00     0.077 A 
HETATM    6  C1  UNL     1      12.475  29.046  76.159  1.00  0.00     0.114 A 
HETATM    7  N1  UNL     1      12.874  29.857  77.060  1.00  0.00    -0.385 N 
HETATM    8  N2  UNL     1      11.333  29.325  75.455  1.00  0.00    -0.352 N 
ATOM      9  H12 UNL     1      12.325  30.691  77.265  1.00  0.00     0.157 HD
ATOM     10  H11 UNL     1      13.725  29.649  77.584  1.00  0.00     0.157 HD
HETATM   11  C2  UNL     1      10.905  28.522  74.482  1.00  0.00     0.089 A 
ATOM     12  H2  UNL     1      10.799  30.166  75.681  1.00  0.00     0.166 HD
HETATM   13  C3  UNL     1      11.626  27.368  74.161  1.00  0.00     0.018 A 
HETATM   14  C4  UNL     1      12.774  27.086  74.869  1.00  0.00     0.022 A 
ENDBRANCH   1   5
BRANCH   3  15
HETATM   15  N4  UNL     1      15.146  25.579  78.138  1.00  0.00    -0.305 N 
HETATM   16  C7  UNL     1      15.490  24.377  77.892  1.00  0.00     0.157 C 
ATOM     17  H4  UNL     1      15.581  26.077  78.915  1.00  0.00     0.186 HD
BRANCH  16  18
HETATM   18  C8  UNL     1      16.486  23.688  78.689  1.00  0.00     0.148 A 
HETATM   19  N5  UNL     1      16.413  23.497  80.025  1.00  0.00    -0.269 N 
HETATM   20  N6  UNL     1      17.486  22.805  80.363  1.00  0.00    -0.007 NA
ATOM     21  H5  UNL     1      15.675  23.822  80.649  1.00  0.00     0.185 HD
HETATM   22  N7  UNL     1      18.222  22.564  79.276  1.00  0.00    -0.007 NA
HETATM   23  N8  UNL     1      17.609  23.110  78.233  1.00  0.00    -0.269 N 
ATOM     24  H8  UNL     1      17.932  23.093  77.266  1.00  0.00     0.185 HD
ENDBRANCH  16  18
ENDBRANCH   3  15
TORSDOF 3
ENDMDL
