MODEL 1
REMARK VINA RESULT: -6.495964204      0.000      0.000
REMARK  1 active torsions:
REMARK  status: ('A' for Active; 'I' for Inactive)
REMARK    1  A    between atoms: N1_3  and  N2_4 
ROOT
HETATM    1  N2  UNL     1     -13.042 -28.950 -27.018  1.00  0.00    -0.271 N 
ATOM      2  H2  UNL     1     -13.051 -29.811 -26.471  1.00  0.00     0.190 HD
HETATM    3  C3  UNL     1     -12.051 -28.775 -27.805  1.00  0.00     0.224 C 
HETATM    4  N3  UNL     1     -10.979 -29.707 -27.949  1.00  0.00    -0.255 N 
ATOM      5  H3  UNL     1     -10.710 -30.446 -27.300  1.00  0.00     0.187 HD
HETATM    6  N4  UNL     1     -10.368 -29.388 -29.189  1.00  0.00    -0.006 NA
HETATM    7  N5  UNL     1     -10.664 -28.075 -29.452  1.00  0.00    -0.006 NA
HETATM    8  N6  UNL     1     -11.760 -27.712 -28.671  1.00  0.00    -0.255 N 
ATOM      9  H6  UNL     1     -12.264 -26.827 -28.721  1.00  0.00     0.187 HD
ENDROOT
BRANCH   1  10
HETATM   10  N1  UNL     1     -14.095 -28.087 -26.842  1.00  0.00    -0.321 N 
HETATM   11  C2  UNL     1     -15.327 -28.287 -27.538  1.00  0.00     0.168 C 
HETATM   12  C1  UNL     1     -16.529 -27.777 -26.774  1.00  0.00     0.189 C 
HETATM   13  O1  UNL     1     -16.305 -26.606 -26.106  1.00  0.00    -0.388 OA
HETATM   14  C5  UNL     1     -15.236 -26.606 -25.251  1.00  0.00     0.189 C 
HETATM   15  C4  UNL     1     -13.923 -26.964 -25.927  1.00  0.00     0.168 C 
ENDBRANCH   1  10
TORSDOF 1
ENDMDL
MODEL 2
REMARK VINA RESULT: -6.329022819      1.922      2.639
REMARK  1 active torsions:
REMARK  status: ('A' for Active; 'I' for Inactive)
REMARK    1  A    between atoms: N1_3  and  N2_4 
ROOT
HETATM    1  N2  UNL     1     -11.087 -27.687 -26.950  1.00  0.00    -0.271 N 
ATOM      2  H2  UNL     1     -10.530 -26.887 -27.248  1.00  0.00     0.190 HD
HETATM    3  C3  UNL     1     -10.452 -28.722 -26.554  1.00  0.00     0.224 C 
HETATM    4  N3  UNL     1      -9.027 -28.808 -26.511  1.00  0.00    -0.255 N 
ATOM      5  H3  UNL     1      -8.356 -28.227 -27.014  1.00  0.00     0.187 HD
HETATM    6  N4  UNL     1      -8.742 -29.873 -25.618  1.00  0.00    -0.006 NA
HETATM    7  N5  UNL     1      -9.848 -30.685 -25.602  1.00  0.00    -0.006 NA
HETATM    8  N6  UNL     1     -10.929 -29.955 -26.091  1.00  0.00    -0.255 N 
ATOM      9  H6  UNL     1     -11.901 -30.265 -26.109  1.00  0.00     0.187 HD
ENDROOT
BRANCH   1  10
HETATM   10  N1  UNL     1     -12.453 -27.553 -27.012  1.00  0.00    -0.321 N 
HETATM   11  C2  UNL     1     -13.215 -28.284 -27.975  1.00  0.00     0.168 C 
HETATM   12  C1  UNL     1     -14.616 -28.604 -27.503  1.00  0.00     0.189 C 
HETATM   13  O1  UNL     1     -15.204 -27.599 -26.788  1.00  0.00    -0.388 OA
HETATM   14  C5  UNL     1     -14.493 -27.144 -25.710  1.00  0.00     0.189 C 
HETATM   15  C4  UNL     1     -13.102 -26.649 -26.069  1.00  0.00     0.168 C 
ENDBRANCH   1  10
TORSDOF 1
ENDMDL
MODEL 3
REMARK VINA RESULT: -6.283679363      2.138      2.753
REMARK  1 active torsions:
REMARK  status: ('A' for Active; 'I' for Inactive)
REMARK    1  A    between atoms: N1_3  and  N2_4 
ROOT
HETATM    1  N2  UNL     1     -11.986 -28.384 -26.082  1.00  0.00    -0.271 N 
ATOM      2  H2  UNL     1     -12.015 -27.548 -25.498  1.00  0.00     0.190 HD
HETATM    3  C3  UNL     1     -10.838 -28.900 -26.299  1.00  0.00     0.224 C 
HETATM    4  N3  UNL     1      -9.619 -28.371 -25.775  1.00  0.00    -0.255 N 
ATOM      5  H3  UNL     1      -9.455 -27.428 -25.424  1.00  0.00     0.187 HD
HETATM    6  N4  UNL     1      -8.686 -29.437 -25.845  1.00  0.00    -0.006 NA
HETATM    7  N5  UNL     1      -9.130 -30.291 -26.824  1.00  0.00    -0.006 NA
HETATM    8  N6  UNL     1     -10.481 -30.030 -27.047  1.00  0.00    -0.255 N 
ATOM      9  H6  UNL     1     -11.102 -30.569 -27.650  1.00  0.00     0.187 HD
ENDROOT
BRANCH   1  10
HETATM   10  N1  UNL     1     -13.185 -28.852 -26.562  1.00  0.00    -0.321 N 
HETATM   11  C2  UNL     1     -13.891 -29.889 -25.876  1.00  0.00     0.168 C 
HETATM   12  C1  UNL     1     -15.390 -29.801 -26.052  1.00  0.00     0.189 C 
HETATM   13  O1  UNL     1     -15.781 -29.423 -27.305  1.00  0.00    -0.388 OA
HETATM   14  C5  UNL     1     -15.237 -28.256 -27.770  1.00  0.00     0.189 C 
HETATM   15  C4  UNL     1     -13.718 -28.263 -27.785  1.00  0.00     0.168 C 
ENDBRANCH   1  10
TORSDOF 1
ENDMDL
MODEL 4
REMARK VINA RESULT: -6.065766397      1.273      1.753
REMARK  1 active torsions:
REMARK  status: ('A' for Active; 'I' for Inactive)
REMARK    1  A    between atoms: N1_3  and  N2_4 
ROOT
HETATM    1  N2  UNL     1     -12.467 -28.045 -26.170  1.00  0.00    -0.271 N 
ATOM      2  H2  UNL     1     -11.879 -27.989 -25.338  1.00  0.00     0.190 HD
HETATM    3  C3  UNL     1     -11.877 -27.991 -27.302  1.00  0.00     0.224 C 
HETATM    4  N3  UNL     1     -10.463 -27.858 -27.453  1.00  0.00    -0.255 N 
ATOM      5  H3  UNL     1      -9.795 -27.523 -26.758  1.00  0.00     0.187 HD
HETATM    6  N4  UNL     1     -10.184 -28.292 -28.774  1.00  0.00    -0.006 NA
HETATM    7  N5  UNL     1     -11.340 -28.136 -29.497  1.00  0.00    -0.006 NA
HETATM    8  N6  UNL     1     -12.403 -28.042 -28.599  1.00  0.00    -0.255 N 
ATOM      9  H6  UNL     1     -13.392 -28.016 -28.845  1.00  0.00     0.187 HD
ENDROOT
BRANCH   1  10
HETATM   10  N1  UNL     1     -13.820 -28.171 -25.970  1.00  0.00    -0.321 N 
HETATM   11  C2  UNL     1     -14.598 -27.059 -25.523  1.00  0.00     0.168 C 
HETATM   12  C1  UNL     1     -16.028 -27.100 -26.015  1.00  0.00     0.189 C 
HETATM   13  O1  UNL     1     -16.573 -28.353 -26.031  1.00  0.00    -0.388 OA
HETATM   14  C5  UNL     1     -15.866 -29.300 -26.721  1.00  0.00     0.189 C 
HETATM   15  C4  UNL     1     -14.439 -29.466 -26.227  1.00  0.00     0.168 C 
ENDBRANCH   1  10
TORSDOF 1
ENDMDL
MODEL 5
REMARK VINA RESULT: -6.057440905      1.603      2.548
REMARK  1 active torsions:
REMARK  status: ('A' for Active; 'I' for Inactive)
REMARK    1  A    between atoms: N1_3  and  N2_4 
ROOT
HETATM    1  N2  UNL     1     -11.718 -27.810 -27.299  1.00  0.00    -0.271 N 
ATOM      2  H2  UNL     1     -11.463 -27.061 -27.943  1.00  0.00     0.190 HD
HETATM    3  C3  UNL     1     -10.796 -28.631 -26.971  1.00  0.00     0.224 C 
HETATM    4  N3  UNL     1      -9.455 -28.551 -27.455  1.00  0.00    -0.255 N 
ATOM      5  H3  UNL     1      -9.124 -28.054 -28.283  1.00  0.00     0.187 HD
HETATM    6  N4  UNL     1      -8.679 -29.309 -26.540  1.00  0.00    -0.006 NA
HETATM    7  N5  UNL     1      -9.531 -30.201 -25.940  1.00  0.00    -0.006 NA
HETATM    8  N6  UNL     1     -10.835 -29.744 -26.120  1.00  0.00    -0.255 N 
ATOM      9  H6  UNL     1     -11.673 -30.149 -25.704  1.00  0.00     0.187 HD
ENDROOT
BRANCH   1  10
HETATM   10  N1  UNL     1     -13.020 -27.844 -26.863  1.00  0.00    -0.321 N 
HETATM   11  C2  UNL     1     -13.458 -26.987 -25.805  1.00  0.00     0.168 C 
HETATM   12  C1  UNL     1     -14.918 -26.609 -25.916  1.00  0.00     0.189 C 
HETATM   13  O1  UNL     1     -15.723 -27.625 -26.349  1.00  0.00    -0.388 OA
HETATM   14  C5  UNL     1     -15.353 -28.213 -27.528  1.00  0.00     0.189 C 
HETATM   15  C4  UNL     1     -13.941 -28.773 -27.507  1.00  0.00     0.168 C 
ENDBRANCH   1  10
TORSDOF 1
ENDMDL
