MODEL 1
REMARK VINA RESULT: -6.700304369      0.000      0.000
REMARK  4 active torsions:
REMARK  status: ('A' for Active; 'I' for Inactive)
REMARK    1  A    between atoms: N1_1  and  N2_4 
REMARK    2  A    between atoms: N2_4  and  C1_6 
REMARK    3  A    between atoms: C2_9  and  S1_10 
REMARK    4  A    between atoms: S1_10  and  N4_11 
ROOT
HETATM    1  C1  UNL     1     -10.056 -29.112 -26.442  1.00  0.00     0.712 A 
HETATM    2  N3  UNL     1     -11.357 -29.186 -26.105  1.00  0.00    -0.175 N 
ATOM      3  H3  UNL     1     -11.636 -29.671 -25.252  1.00  0.00     0.185 HD
HETATM    4  C2  UNL     1     -12.287 -28.623 -26.889  1.00  0.00     0.180 A 
HETATM    5  C3  UNL     1     -11.841 -27.986 -28.024  1.00  0.00     0.151 A 
HETATM    6  N5  UNL     1     -10.516 -27.932 -28.333  1.00  0.00    -0.295 N 
ATOM      7  H5  UNL     1     -10.217 -27.452 -29.182  1.00  0.00     0.186 HD
HETATM    8  N6  UNL     1      -9.614 -28.493 -27.547  1.00  0.00    -0.131 N 
ATOM      9  H6  UNL     1      -8.619 -28.456 -27.772  1.00  0.00     0.205 HD
ENDROOT
BRANCH   4  10
HETATM   10  S1  UNL     1     -14.000 -28.652 -26.559  1.00  0.00     0.274 S 
HETATM   11  O1  UNL     1     -14.443 -30.077 -26.344  1.00  0.00    -0.199 OA
HETATM   12  O2  UNL     1     -14.756 -28.079 -27.710  1.00  0.00    -0.199 OA
BRANCH  10  13
HETATM   13  N4  UNL     1     -14.383 -27.677 -25.169  1.00  0.00    -0.323 N 
ATOM     14  H42 UNL     1     -14.151 -26.687 -25.091  1.00  0.00     0.169 HD
ATOM     15  H41 UNL     1     -14.864 -28.228 -24.458  1.00  0.00     0.169 HD
ENDBRANCH  10  13
ENDBRANCH   4  10
BRANCH   1  16
HETATM   16  N2  UNL     1      -9.136 -29.654 -25.691  1.00  0.00    -0.137 N 
ATOM     17  H2  UNL     1      -8.327 -29.095 -25.420  1.00  0.00     0.205 HD
BRANCH  16  18
HETATM   18  N1  UNL     1      -9.226 -30.979 -25.245  1.00  0.00    -0.331 N 
ATOM     19  H12 UNL     1     -10.115 -31.464 -25.362  1.00  0.00     0.177 HD
ATOM     20  H11 UNL     1      -8.436 -31.460 -24.815  1.00  0.00     0.177 HD
ENDBRANCH  16  18
ENDBRANCH   1  16
TORSDOF 4
ENDMDL
MODEL 2
REMARK VINA RESULT: -6.506319870      1.099      1.322
REMARK  4 active torsions:
REMARK  status: ('A' for Active; 'I' for Inactive)
REMARK    1  A    between atoms: N1_1  and  N2_4 
REMARK    2  A    between atoms: N2_4  and  C1_6 
REMARK    3  A    between atoms: C2_9  and  S1_10 
REMARK    4  A    between atoms: S1_10  and  N4_11 
ROOT
HETATM    1  C1  UNL     1     -10.217 -29.021 -26.425  1.00  0.00     0.712 A 
HETATM    2  N3  UNL     1     -11.510 -29.157 -26.073  1.00  0.00    -0.175 N 
ATOM      3  H3  UNL     1     -11.755 -29.657 -25.219  1.00  0.00     0.185 HD
HETATM    4  C2  UNL     1     -12.474 -28.635 -26.844  1.00  0.00     0.180 A 
HETATM    5  C3  UNL     1     -12.072 -27.973 -27.981  1.00  0.00     0.151 A 
HETATM    6  N5  UNL     1     -10.755 -27.856 -28.305  1.00  0.00    -0.295 N 
ATOM      7  H5  UNL     1     -10.488 -27.360 -29.155  1.00  0.00     0.186 HD
HETATM    8  N6  UNL     1      -9.818 -28.377 -27.533  1.00  0.00    -0.131 N 
ATOM      9  H6  UNL     1      -8.829 -28.293 -27.769  1.00  0.00     0.205 HD
ENDROOT
BRANCH   4  10
HETATM   10  S1  UNL     1     -14.179 -28.746 -26.494  1.00  0.00     0.274 S 
HETATM   11  O1  UNL     1     -14.497 -27.902 -25.287  1.00  0.00    -0.199 OA
HETATM   12  O2  UNL     1     -14.557 -30.160 -26.208  1.00  0.00    -0.199 OA
BRANCH  10  13
HETATM   13  N4  UNL     1     -15.129 -28.238 -27.861  1.00  0.00    -0.323 N 
ATOM     14  H42 UNL     1     -15.378 -28.852 -28.637  1.00  0.00     0.169 HD
ATOM     15  H41 UNL     1     -15.397 -27.257 -27.776  1.00  0.00     0.169 HD
ENDBRANCH  10  13
ENDBRANCH   4  10
BRANCH   1  16
HETATM   16  N2  UNL     1      -9.264 -29.522 -25.687  1.00  0.00    -0.137 N 
ATOM     17  H2  UNL     1      -8.508 -28.912 -25.375  1.00  0.00     0.205 HD
BRANCH  16  18
HETATM   18  N1  UNL     1      -9.247 -30.871 -25.310  1.00  0.00    -0.331 N 
ATOM     19  H12 UNL     1      -8.422 -31.422 -25.543  1.00  0.00     0.177 HD
ATOM     20  H11 UNL     1     -10.027 -31.305 -24.817  1.00  0.00     0.177 HD
ENDBRANCH  16  18
ENDBRANCH   1  16
TORSDOF 4
ENDMDL
MODEL 3
REMARK VINA RESULT: -6.234687628      1.101      1.195
REMARK  4 active torsions:
REMARK  status: ('A' for Active; 'I' for Inactive)
REMARK    1  A    between atoms: N1_1  and  N2_4 
REMARK    2  A    between atoms: N2_4  and  C1_6 
REMARK    3  A    between atoms: C2_9  and  S1_10 
REMARK    4  A    between atoms: S1_10  and  N4_11 
ROOT
HETATM    1  C1  UNL     1     -10.868 -28.170 -26.449  1.00  0.00     0.712 A 
HETATM    2  N3  UNL     1     -12.129 -28.408 -26.044  1.00  0.00    -0.175 N 
ATOM      3  H3  UNL     1     -12.317 -28.618 -25.064  1.00  0.00     0.185 HD
HETATM    4  C2  UNL     1     -13.137 -28.371 -26.926  1.00  0.00     0.180 A 
HETATM    5  C3  UNL     1     -12.811 -28.083 -28.231  1.00  0.00     0.151 A 
HETATM    6  N5  UNL     1     -11.523 -27.847 -28.605  1.00  0.00    -0.295 N 
ATOM      7  H5  UNL     1     -11.313 -27.637 -29.581  1.00  0.00     0.186 HD
HETATM    8  N6  UNL     1     -10.542 -27.888 -27.721  1.00  0.00    -0.131 N 
ATOM      9  H6  UNL     1      -9.575 -27.712 -27.994  1.00  0.00     0.205 HD
ENDROOT
BRANCH   4  10
HETATM   10  S1  UNL     1     -14.808 -28.663 -26.522  1.00  0.00     0.274 S 
HETATM   11  O1  UNL     1     -15.025 -30.142 -26.331  1.00  0.00    -0.199 OA
HETATM   12  O2  UNL     1     -15.696 -28.182 -27.620  1.00  0.00    -0.199 OA
BRANCH  10  13
HETATM   13  N4  UNL     1     -15.264 -27.789 -25.087  1.00  0.00    -0.323 N 
ATOM     14  H42 UNL     1     -14.685 -27.737 -24.249  1.00  0.00     0.169 HD
ATOM     15  H41 UNL     1     -16.175 -27.345 -25.204  1.00  0.00     0.169 HD
ENDBRANCH  10  13
ENDBRANCH   4  10
BRANCH   1  16
HETATM   16  N2  UNL     1      -9.873 -28.201 -25.605  1.00  0.00    -0.137 N 
ATOM     17  H2  UNL     1      -9.953 -27.688 -24.727  1.00  0.00     0.205 HD
BRANCH  16  18
HETATM   18  N1  UNL     1      -8.698 -28.919 -25.866  1.00  0.00    -0.331 N 
ATOM     19  H12 UNL     1      -8.635 -29.874 -25.517  1.00  0.00     0.177 HD
ATOM     20  H11 UNL     1      -7.921 -28.514 -26.387  1.00  0.00     0.177 HD
ENDBRANCH  16  18
ENDBRANCH   1  16
TORSDOF 4
ENDMDL
MODEL 4
REMARK VINA RESULT: -6.140456056      1.788      2.312
REMARK  4 active torsions:
REMARK  status: ('A' for Active; 'I' for Inactive)
REMARK    1  A    between atoms: N1_1  and  N2_4 
REMARK    2  A    between atoms: N2_4  and  C1_6 
REMARK    3  A    between atoms: C2_9  and  S1_10 
REMARK    4  A    between atoms: S1_10  and  N4_11 
ROOT
HETATM    1  C1  UNL     1     -11.131 -28.960 -26.654  1.00  0.00     0.712 A 
HETATM    2  N3  UNL     1     -11.970 -28.016 -26.189  1.00  0.00    -0.175 N 
ATOM      3  H3  UNL     1     -11.597 -27.146 -25.809  1.00  0.00     0.185 HD
HETATM    4  C2  UNL     1     -13.294 -28.218 -26.222  1.00  0.00     0.180 A 
HETATM    5  C3  UNL     1     -13.728 -29.415 -26.747  1.00  0.00     0.151 A 
HETATM    6  N5  UNL     1     -12.849 -30.346 -27.208  1.00  0.00    -0.295 N 
ATOM      7  H5  UNL     1     -13.201 -31.224 -27.591  1.00  0.00     0.186 HD
HETATM    8  N6  UNL     1     -11.547 -30.129 -27.167  1.00  0.00    -0.131 N 
ATOM      9  H6  UNL     1     -10.883 -30.823 -27.511  1.00  0.00     0.205 HD
ENDROOT
BRANCH   4  10
HETATM   10  S1  UNL     1     -14.479 -27.073 -25.649  1.00  0.00     0.274 S 
HETATM   11  O1  UNL     1     -15.740 -27.211 -26.462  1.00  0.00    -0.199 OA
HETATM   12  O2  UNL     1     -13.962 -25.681 -25.791  1.00  0.00    -0.199 OA
BRANCH  10  13
HETATM   13  N4  UNL     1     -14.812 -27.316 -23.958  1.00  0.00    -0.323 N 
ATOM     14  H42 UNL     1     -15.192 -28.182 -23.575  1.00  0.00     0.169 HD
ATOM     15  H41 UNL     1     -14.578 -26.483 -23.417  1.00  0.00     0.169 HD
ENDBRANCH  10  13
ENDBRANCH   4  10
BRANCH   1  16
HETATM   16  N2  UNL     1      -9.838 -28.781 -26.630  1.00  0.00    -0.137 N 
ATOM     17  H2  UNL     1      -9.322 -28.783 -27.510  1.00  0.00     0.205 HD
BRANCH  16  18
HETATM   18  N1  UNL     1      -9.137 -28.586 -25.432  1.00  0.00    -0.331 N 
ATOM     19  H12 UNL     1      -9.003 -29.391 -24.821  1.00  0.00     0.177 HD
ATOM     20  H11 UNL     1      -8.766 -27.675 -25.165  1.00  0.00     0.177 HD
ENDBRANCH  16  18
ENDBRANCH   1  16
TORSDOF 4
ENDMDL
MODEL 5
REMARK VINA RESULT: -6.105129982      1.772      2.280
REMARK  4 active torsions:
REMARK  status: ('A' for Active; 'I' for Inactive)
REMARK    1  A    between atoms: N1_1  and  N2_4 
REMARK    2  A    between atoms: N2_4  and  C1_6 
REMARK    3  A    between atoms: C2_9  and  S1_10 
REMARK    4  A    between atoms: S1_10  and  N4_11 
ROOT
HETATM    1  C1  UNL     1     -10.960 -29.159 -28.431  1.00  0.00     0.712 A 
HETATM    2  N3  UNL     1     -12.235 -29.356 -28.048  1.00  0.00    -0.175 N 
ATOM      3  H3  UNL     1     -12.778 -30.116 -28.457  1.00  0.00     0.185 HD
HETATM    4  C2  UNL     1     -12.793 -28.554 -27.130  1.00  0.00     0.180 A 
HETATM    5  C3  UNL     1     -12.003 -27.549 -26.621  1.00  0.00     0.151 A 
HETATM    6  N5  UNL     1     -10.717 -27.380 -27.032  1.00  0.00    -0.295 N 
ATOM      7  H5  UNL     1     -10.157 -26.625 -26.636  1.00  0.00     0.186 HD
HETATM    8  N6  UNL     1     -10.184 -28.181 -27.938  1.00  0.00    -0.131 N 
ATOM      9  H6  UNL     1      -9.221 -28.060 -28.251  1.00  0.00     0.205 HD
ENDROOT
BRANCH   4  10
HETATM   10  S1  UNL     1     -14.432 -28.708 -26.555  1.00  0.00     0.274 S 
HETATM   11  O1  UNL     1     -14.743 -30.164 -26.316  1.00  0.00    -0.199 OA
HETATM   12  O2  UNL     1     -15.387 -28.170 -27.568  1.00  0.00    -0.199 OA
BRANCH  10  13
HETATM   13  N4  UNL     1     -14.671 -27.786 -25.099  1.00  0.00    -0.323 N 
ATOM     14  H42 UNL     1     -14.199 -26.903 -24.905  1.00  0.00     0.169 HD
ATOM     15  H41 UNL     1     -15.338 -28.247 -24.480  1.00  0.00     0.169 HD
ENDBRANCH  10  13
ENDBRANCH   4  10
BRANCH   1  16
HETATM   16  N2  UNL     1     -10.400 -29.930 -29.323  1.00  0.00    -0.137 N 
ATOM     17  H2  UNL     1      -9.515 -30.384 -29.099  1.00  0.00     0.205 HD
BRANCH  16  18
HETATM   18  N1  UNL     1     -10.977 -30.153 -30.580  1.00  0.00    -0.331 N 
ATOM     19  H12 UNL     1     -11.820 -30.725 -30.624  1.00  0.00     0.177 HD
ATOM     20  H11 UNL     1     -10.581 -29.763 -31.435  1.00  0.00     0.177 HD
ENDBRANCH  16  18
ENDBRANCH   1  16
TORSDOF 4
ENDMDL
