MODEL 1
REMARK VINA RESULT: -6.007448891      0.000      0.000
REMARK  10 active torsions:
REMARK  status: ('A' for Active; 'I' for Inactive)
REMARK    1  A    between atoms: C2_2  and  C3_3 
REMARK    2  A    between atoms: C3_3  and  C4_4 
REMARK    3  A    between atoms: C4_4  and  C5_5 
REMARK    4  A    between atoms: C5_5  and  C6_6 
REMARK    5  A    between atoms: C6_6  and  N1_7 
REMARK    6  A    between atoms: N1_7  and  C8_9 
REMARK    7  A    between atoms: C8_9  and  C11_12 
REMARK    8  A    between atoms: C13_15  and  C15_17 
REMARK    9  A    between atoms: C15_17  and  O2_18 
REMARK   10  A    between atoms: C15_17  and  C16_20 
ROOT
HETATM    1  C11 UNL     1       0.987  37.681   1.959  1.00  0.00     0.172 C 
HETATM    2  C12 UNL     1       2.177  37.229   1.190  1.00  0.00     0.203 C 
HETATM    3  O1  UNL     1       2.493  35.903   1.263  1.00  0.00    -0.373 OA
HETATM    4  C13 UNL     1       2.345  35.290   2.474  1.00  0.00     0.107 C 
HETATM    5  C14 UNL     1       3.391  35.669   3.484  1.00  0.00     0.051 C 
HETATM    6  C18 UNL     1       0.992  35.629   3.031  1.00  0.00     0.209 C 
HETATM    7  O3  UNL     1       0.802  36.995   3.153  1.00  0.00    -0.378 OA
ENDROOT
BRANCH   1   8
HETATM    8  C8  UNL     1       1.081  39.138   2.318  1.00  0.00     0.052 C 
HETATM    9  C9  UNL     1       0.296  39.394   3.614  1.00  0.00     0.041 C 
HETATM   10  C10 UNL     1       2.521  39.512   2.693  1.00  0.00     0.041 C 
BRANCH   8  11
HETATM   11  N1  UNL     1       0.620  40.062   1.359  1.00  0.00    -0.386 N 
HETATM   12  C7  UNL     1      -0.526  39.763   0.627  1.00  0.00     0.149 C 
BRANCH  11  13
HETATM   13  C6  UNL     1       1.359  41.216   1.122  1.00  0.00     0.058 C 
BRANCH  13  14
HETATM   14  C5  UNL     1       0.668  42.369   0.483  1.00  0.00     0.044 C 
BRANCH  14  15
HETATM   15  C4  UNL     1       1.364  43.676   0.499  1.00  0.00     0.009 C 
BRANCH  15  16
HETATM   16  C3  UNL     1       2.005  43.914  -0.874  1.00  0.00     0.026 C 
BRANCH  16  17
HETATM   17  C2  UNL     1       1.048  43.758  -1.988  1.00  0.00    -0.037 C 
HETATM   18  C1  UNL     1       1.479  43.693  -3.254  1.00  0.00     0.007 C 
ENDBRANCH  16  17
ENDBRANCH  15  16
ENDBRANCH  14  15
ENDBRANCH  13  14
ENDBRANCH  11  13
ENDBRANCH   8  11
ENDBRANCH   1   8
BRANCH   4  19
HETATM   19  C15 UNL     1       2.439  33.792   2.280  1.00  0.00     0.176 C 
BRANCH  19  20
HETATM   20  O2  UNL     1       2.509  33.479   0.935  1.00  0.00    -0.389 OA
ATOM     21  H2  UNL     1       2.913  32.629   0.810  1.00  0.00     0.210 HD
ENDBRANCH  19  20
BRANCH  19  22
HETATM   22  C16 UNL     1       3.523  33.237   3.105  1.00  0.00    -0.003 C 
HETATM   23  C17 UNL     1       3.882  31.974   3.141  1.00  0.00     0.009 C 
ENDBRANCH  19  22
ENDBRANCH   4  19
TORSDOF 10
ENDMDL
MODEL 2
REMARK VINA RESULT: -5.993778692      1.732      3.015
REMARK  10 active torsions:
REMARK  status: ('A' for Active; 'I' for Inactive)
REMARK    1  A    between atoms: C2_2  and  C3_3 
REMARK    2  A    between atoms: C3_3  and  C4_4 
REMARK    3  A    between atoms: C4_4  and  C5_5 
REMARK    4  A    between atoms: C5_5  and  C6_6 
REMARK    5  A    between atoms: C6_6  and  N1_7 
REMARK    6  A    between atoms: N1_7  and  C8_9 
REMARK    7  A    between atoms: C8_9  and  C11_12 
REMARK    8  A    between atoms: C13_15  and  C15_17 
REMARK    9  A    between atoms: C15_17  and  O2_18 
REMARK   10  A    between atoms: C15_17  and  C16_20 
ROOT
HETATM    1  C11 UNL     1       0.936  37.793   1.895  1.00  0.00     0.172 C 
HETATM    2  C12 UNL     1       2.118  37.321   1.125  1.00  0.00     0.203 C 
HETATM    3  O1  UNL     1       2.434  35.997   1.226  1.00  0.00    -0.373 OA
HETATM    4  C13 UNL     1       2.298  35.413   2.453  1.00  0.00     0.107 C 
HETATM    5  C14 UNL     1       3.354  35.815   3.443  1.00  0.00     0.051 C 
HETATM    6  C18 UNL     1       0.951  35.767   3.016  1.00  0.00     0.209 C 
HETATM    7  O3  UNL     1       0.763  37.135   3.107  1.00  0.00    -0.378 OA
ENDROOT
BRANCH   1   8
HETATM    8  C8  UNL     1       1.035  39.258   2.218  1.00  0.00     0.052 C 
HETATM    9  C9  UNL     1       0.251  39.548   3.508  1.00  0.00     0.041 C 
HETATM   10  C10 UNL     1       2.477  39.636   2.584  1.00  0.00     0.041 C 
BRANCH   8  11
HETATM   11  N1  UNL     1       0.577  40.159   1.237  1.00  0.00    -0.386 N 
HETATM   12  C7  UNL     1       1.226  41.382   1.087  1.00  0.00     0.149 C 
BRANCH  11  13
HETATM   13  C6  UNL     1      -0.551  39.832   0.492  1.00  0.00     0.058 C 
BRANCH  13  14
HETATM   14  C5  UNL     1      -1.625  40.855   0.367  1.00  0.00     0.044 C 
BRANCH  14  15
HETATM   15  C4  UNL     1      -2.255  41.023  -0.962  1.00  0.00     0.009 C 
BRANCH  15  16
HETATM   16  C3  UNL     1      -3.731  41.395  -0.768  1.00  0.00     0.026 C 
BRANCH  16  17
HETATM   17  C2  UNL     1      -4.373  40.637   0.325  1.00  0.00    -0.037 C 
HETATM   18  C1  UNL     1      -5.546  40.021   0.131  1.00  0.00     0.007 C 
ENDBRANCH  16  17
ENDBRANCH  15  16
ENDBRANCH  14  15
ENDBRANCH  13  14
ENDBRANCH  11  13
ENDBRANCH   8  11
ENDBRANCH   1   8
BRANCH   4  19
HETATM   19  C15 UNL     1       2.389  33.911   2.294  1.00  0.00     0.176 C 
BRANCH  19  20
HETATM   20  O2  UNL     1       2.472  33.567   0.957  1.00  0.00    -0.389 OA
ATOM     21  H2  UNL     1       3.158  32.925   0.819  1.00  0.00     0.210 HD
ENDBRANCH  19  20
BRANCH  19  22
HETATM   22  C16 UNL     1       3.461  33.371   3.143  1.00  0.00    -0.003 C 
HETATM   23  C17 UNL     1       3.846  32.115   3.177  1.00  0.00     0.009 C 
ENDBRANCH  19  22
ENDBRANCH   4  19
TORSDOF 10
ENDMDL
MODEL 3
REMARK VINA RESULT: -5.919932421      0.804      1.335
REMARK  10 active torsions:
REMARK  status: ('A' for Active; 'I' for Inactive)
REMARK    1  A    between atoms: C2_2  and  C3_3 
REMARK    2  A    between atoms: C3_3  and  C4_4 
REMARK    3  A    between atoms: C4_4  and  C5_5 
REMARK    4  A    between atoms: C5_5  and  C6_6 
REMARK    5  A    between atoms: C6_6  and  N1_7 
REMARK    6  A    between atoms: N1_7  and  C8_9 
REMARK    7  A    between atoms: C8_9  and  C11_12 
REMARK    8  A    between atoms: C13_15  and  C15_17 
REMARK    9  A    between atoms: C15_17  and  O2_18 
REMARK   10  A    between atoms: C15_17  and  C16_20 
ROOT
HETATM    1  C11 UNL     1       0.996  37.705   1.967  1.00  0.00     0.172 C 
HETATM    2  C12 UNL     1       2.179  37.245   1.192  1.00  0.00     0.203 C 
HETATM    3  O1  UNL     1       2.487  35.918   1.261  1.00  0.00    -0.373 OA
HETATM    4  C13 UNL     1       2.341  35.304   2.473  1.00  0.00     0.107 C 
HETATM    5  C14 UNL     1       3.394  35.676   3.478  1.00  0.00     0.051 C 
HETATM    6  C18 UNL     1       0.993  35.652   3.037  1.00  0.00     0.209 C 
HETATM    7  O3  UNL     1       0.812  37.019   3.161  1.00  0.00    -0.378 OA
ENDROOT
BRANCH   1   8
HETATM    8  C8  UNL     1       1.102  39.161   2.326  1.00  0.00     0.052 C 
HETATM    9  C9  UNL     1       0.265  39.436   3.586  1.00  0.00     0.041 C 
HETATM   10  C10 UNL     1       2.531  39.509   2.764  1.00  0.00     0.041 C 
BRANCH   8  11
HETATM   11  N1  UNL     1       0.701  40.090   1.346  1.00  0.00    -0.386 N 
HETATM   12  C7  UNL     1      -0.468  39.855   0.627  1.00  0.00     0.149 C 
BRANCH  11  13
HETATM   13  C6  UNL     1       1.519  41.183   1.077  1.00  0.00     0.058 C 
BRANCH  13  14
HETATM   14  C5  UNL     1       0.885  42.528   1.004  1.00  0.00     0.044 C 
BRANCH  14  15
HETATM   15  C4  UNL     1       0.929  43.233  -0.297  1.00  0.00     0.009 C 
BRANCH  15  16
HETATM   16  C3  UNL     1       2.160  44.148  -0.324  1.00  0.00     0.026 C 
BRANCH  16  17
HETATM   17  C2  UNL     1       2.196  45.092   0.811  1.00  0.00    -0.037 C 
HETATM   18  C1  UNL     1       3.301  45.803   1.073  1.00  0.00     0.007 C 
ENDBRANCH  16  17
ENDBRANCH  15  16
ENDBRANCH  14  15
ENDBRANCH  13  14
ENDBRANCH  11  13
ENDBRANCH   8  11
ENDBRANCH   1   8
BRANCH   4  19
HETATM   19  C15 UNL     1       2.423  33.806   2.277  1.00  0.00     0.176 C 
BRANCH  19  20
HETATM   20  O2  UNL     1       2.493  33.494   0.932  1.00  0.00    -0.389 OA
ATOM     21  H2  UNL     1       3.044  34.116   0.473  1.00  0.00     0.210 HD
ENDBRANCH  19  20
BRANCH  19  22
HETATM   22  C16 UNL     1       3.501  33.241   3.103  1.00  0.00    -0.003 C 
HETATM   23  C17 UNL     1       3.843  31.974   3.147  1.00  0.00     0.009 C 
ENDBRANCH  19  22
ENDBRANCH   4  19
TORSDOF 10
ENDMDL
MODEL 4
REMARK VINA RESULT: -5.792844518      2.923      5.789
REMARK  10 active torsions:
REMARK  status: ('A' for Active; 'I' for Inactive)
REMARK    1  A    between atoms: C2_2  and  C3_3 
REMARK    2  A    between atoms: C3_3  and  C4_4 
REMARK    3  A    between atoms: C4_4  and  C5_5 
REMARK    4  A    between atoms: C5_5  and  C6_6 
REMARK    5  A    between atoms: C6_6  and  N1_7 
REMARK    6  A    between atoms: N1_7  and  C8_9 
REMARK    7  A    between atoms: C8_9  and  C11_12 
REMARK    8  A    between atoms: C13_15  and  C15_17 
REMARK    9  A    between atoms: C15_17  and  O2_18 
REMARK   10  A    between atoms: C15_17  and  C16_20 
ROOT
HETATM    1  C11 UNL     1      -0.763  39.695   2.353  1.00  0.00     0.172 C 
HETATM    2  C12 UNL     1      -0.022  39.694   1.064  1.00  0.00     0.203 C 
HETATM    3  O1  UNL     1       0.874  38.684   0.866  1.00  0.00    -0.373 OA
HETATM    4  C13 UNL     1       1.621  38.290   1.940  1.00  0.00     0.107 C 
HETATM    5  C14 UNL     1       2.696  39.265   2.328  1.00  0.00     0.051 C 
HETATM    6  C18 UNL     1       0.711  38.082   3.117  1.00  0.00     0.209 C 
HETATM    7  O3  UNL     1      -0.018  39.218   3.425  1.00  0.00    -0.378 OA
ENDROOT
BRANCH   1   8
HETATM    8  C8  UNL     1      -1.212  41.079   2.732  1.00  0.00     0.052 C 
HETATM    9  C9  UNL     1      -0.063  41.809   3.447  1.00  0.00     0.041 C 
HETATM   10  C10 UNL     1      -1.453  41.933   1.480  1.00  0.00     0.041 C 
BRANCH   8  11
HETATM   11  N1  UNL     1      -2.349  41.177   3.558  1.00  0.00    -0.386 N 
HETATM   12  C7  UNL     1      -3.607  40.945   3.009  1.00  0.00     0.149 C 
BRANCH  11  13
HETATM   13  C6  UNL     1      -2.190  41.567   4.884  1.00  0.00     0.058 C 
BRANCH  13  14
HETATM   14  C5  UNL     1      -2.415  40.547   5.944  1.00  0.00     0.044 C 
BRANCH  14  15
HETATM   15  C4  UNL     1      -1.225  40.040   6.666  1.00  0.00     0.009 C 
BRANCH  15  16
HETATM   16  C3  UNL     1      -1.561  38.674   7.277  1.00  0.00     0.026 C 
BRANCH  16  17
HETATM   17  C2  UNL     1      -0.811  38.404   8.521  1.00  0.00    -0.037 C 
HETATM   18  C1  UNL     1      -0.384  39.411   9.293  1.00  0.00     0.007 C 
ENDBRANCH  16  17
ENDBRANCH  15  16
ENDBRANCH  14  15
ENDBRANCH  13  14
ENDBRANCH  11  13
ENDBRANCH   8  11
ENDBRANCH   1   8
BRANCH   4  19
HETATM   19  C15 UNL     1       2.307  36.983   1.608  1.00  0.00     0.176 C 
BRANCH  19  20
HETATM   20  O2  UNL     1       3.679  37.143   1.592  1.00  0.00    -0.389 OA
ATOM     21  H2  UNL     1       4.115  36.314   1.751  1.00  0.00     0.210 HD
ENDBRANCH  19  20
BRANCH  19  22
HETATM   22  C16 UNL     1       1.815  35.910   2.486  1.00  0.00    -0.003 C 
HETATM   23  C17 UNL     1       2.248  34.670   2.489  1.00  0.00     0.009 C 
ENDBRANCH  19  22
ENDBRANCH   4  19
TORSDOF 10
ENDMDL
MODEL 5
REMARK VINA RESULT: -5.741990892      3.043      7.963
REMARK  10 active torsions:
REMARK  status: ('A' for Active; 'I' for Inactive)
REMARK    1  A    between atoms: C2_2  and  C3_3 
REMARK    2  A    between atoms: C3_3  and  C4_4 
REMARK    3  A    between atoms: C4_4  and  C5_5 
REMARK    4  A    between atoms: C5_5  and  C6_6 
REMARK    5  A    between atoms: C6_6  and  N1_7 
REMARK    6  A    between atoms: N1_7  and  C8_9 
REMARK    7  A    between atoms: C8_9  and  C11_12 
REMARK    8  A    between atoms: C13_15  and  C15_17 
REMARK    9  A    between atoms: C15_17  and  O2_18 
REMARK   10  A    between atoms: C15_17  and  C16_20 
ROOT
HETATM    1  C11 UNL     1      -0.666  39.670   1.839  1.00  0.00     0.172 C 
HETATM    2  C12 UNL     1      -1.704  40.536   2.459  1.00  0.00     0.203 C 
HETATM    3  O1  UNL     1      -2.893  40.647   1.798  1.00  0.00    -0.373 OA
HETATM    4  C13 UNL     1      -2.847  40.719   0.435  1.00  0.00     0.107 C 
HETATM    5  C14 UNL     1      -2.348  42.035  -0.092  1.00  0.00     0.051 C 
HETATM    6  C18 UNL     1      -1.957  39.625  -0.082  1.00  0.00     0.209 C 
HETATM    7  O3  UNL     1      -0.681  39.691   0.450  1.00  0.00    -0.378 OA
ENDROOT
BRANCH   1   8
HETATM    8  C8  UNL     1       0.719  40.082   2.254  1.00  0.00     0.052 C 
HETATM    9  C9  UNL     1       1.307  41.028   1.195  1.00  0.00     0.041 C 
HETATM   10  C10 UNL     1       0.671  40.949   3.520  1.00  0.00     0.041 C 
BRANCH   8  11
HETATM   11  N1  UNL     1       1.656  39.050   2.461  1.00  0.00    -0.386 N 
HETATM   12  C7  UNL     1       2.987  39.382   2.700  1.00  0.00     0.149 C 
BRANCH  11  13
HETATM   13  C6  UNL     1       1.239  37.727   2.354  1.00  0.00     0.058 C 
BRANCH  13  14
HETATM   14  C5  UNL     1       2.175  36.749   1.735  1.00  0.00     0.044 C 
BRANCH  14  15
HETATM   15  C4  UNL     1       2.132  35.355   2.232  1.00  0.00     0.009 C 
BRANCH  15  16
HETATM   16  C3  UNL     1       3.264  35.156   3.248  1.00  0.00     0.026 C 
BRANCH  16  17
HETATM   17  C2  UNL     1       3.778  33.772   3.269  1.00  0.00    -0.037 C 
HETATM   18  C1  UNL     1       3.029  32.759   2.814  1.00  0.00     0.007 C 
ENDBRANCH  16  17
ENDBRANCH  15  16
ENDBRANCH  14  15
ENDBRANCH  13  14
ENDBRANCH  11  13
ENDBRANCH   8  11
ENDBRANCH   1   8
BRANCH   4  19
HETATM   19  C15 UNL     1      -4.244  40.522  -0.114  1.00  0.00     0.176 C 
BRANCH  19  20
HETATM   20  O2  UNL     1      -5.113  40.144   0.893  1.00  0.00    -0.389 OA
ATOM     21  H2  UNL     1      -5.271  40.867   1.487  1.00  0.00     0.210 HD
ENDBRANCH  19  20
BRANCH  19  22
HETATM   22  C16 UNL     1      -4.661  41.703  -0.885  1.00  0.00    -0.003 C 
HETATM   23  C17 UNL     1      -5.676  41.748  -1.718  1.00  0.00     0.009 C 
ENDBRANCH  19  22
ENDBRANCH   4  19
TORSDOF 10
ENDMDL
