MODEL 1
REMARK VINA RESULT: -6.962813979      0.000      0.000
REMARK  8 active torsions:
REMARK  status: ('A' for Active; 'I' for Inactive)
REMARK    1  A    between atoms: C2_2  and  C3_3 
REMARK    2  A    between atoms: C3_3  and  N1_4 
REMARK    3  A    between atoms: N1_4  and  C4_6 
REMARK    4  A    between atoms: C4_6  and  N2_8 
REMARK    5  A    between atoms: C7_11  and  O1_12 
REMARK    6  A    between atoms: C7_11  and  C8_14 
REMARK    7  A    between atoms: C9_17  and  C10_18 
REMARK    8  A    between atoms: C10_18  and  C11_21 
ROOT
HETATM    1  N2  UNL     1      -2.435   3.712  11.237  1.00  0.00    -0.358 N 
HETATM    2  C5  UNL     1      -3.845   3.806  10.810  1.00  0.00     0.128 C 
HETATM    3  C6  UNL     1      -4.764   3.481  11.950  1.00  0.00     0.066 C 
HETATM    4  C7  UNL     1      -4.335   4.266  13.171  1.00  0.00     0.119 C 
HETATM    5  C13 UNL     1      -2.939   3.830  13.542  1.00  0.00     0.066 C 
HETATM    6  C14 UNL     1      -2.022   4.389  12.435  1.00  0.00     0.128 C 
ENDROOT
BRANCH   4   7
HETATM    7  O1  UNL     1      -4.300   5.629  12.854  1.00  0.00    -0.382 OA
ATOM      8  H1  UNL     1      -3.417   5.866  12.593  1.00  0.00     0.211 HD
ENDBRANCH   4   7
BRANCH   4   9
HETATM    9  C8  UNL     1      -5.203   4.025  14.325  1.00  0.00     0.117 A 
HETATM   10  N3  UNL     1      -5.316   2.857  14.970  1.00  0.00    -0.340 N 
HETATM   11  C9  UNL     1      -6.203   3.018  15.959  1.00  0.00     0.107 A 
ATOM     12  H3  UNL     1      -4.815   1.997  14.747  1.00  0.00     0.167 HD
HETATM   13  C12 UNL     1      -6.649   4.305  15.929  1.00  0.00     0.121 A 
HETATM   14  N4  UNL     1      -6.016   4.917  14.904  1.00  0.00    -0.351 N 
ATOM     15  H4  UNL     1      -6.137   5.890  14.621  1.00  0.00     0.166 HD
BRANCH  11  16
HETATM   16  C10 UNL     1      -6.580   1.913  16.888  1.00  0.00     0.382 C 
HETATM   17  F1  UNL     1      -6.545   2.428  18.167  1.00  0.00    -0.189 F 
HETATM   18  F2  UNL     1      -7.816   1.447  16.548  1.00  0.00    -0.189 F 
BRANCH  16  19
HETATM   19  C11 UNL     1      -5.582   0.789  16.837  1.00  0.00     0.460 C 
HETATM   20  F3  UNL     1      -4.380   1.261  17.317  1.00  0.00    -0.165 F 
HETATM   21  F4  UNL     1      -5.374   0.330  15.554  1.00  0.00    -0.165 F 
HETATM   22  F5  UNL     1      -5.984  -0.225  17.699  1.00  0.00    -0.165 F 
ENDBRANCH  16  19
ENDBRANCH  11  16
ENDBRANCH   4   9
BRANCH   1  23
HETATM   23  C4  UNL     1      -1.536   2.964  10.474  1.00  0.00     0.169 C 
HETATM   24  S1  UNL     1      -0.287   3.772   9.767  1.00  0.00    -0.041 SA
BRANCH  23  25
HETATM   25  N1  UNL     1      -1.671   1.593  10.254  1.00  0.00    -0.367 N 
ATOM     26  H1  UNL     1      -1.514   1.229   9.315  1.00  0.00     0.161 HD
BRANCH  25  27
HETATM   27  C3  UNL     1      -2.029   0.659  11.319  1.00  0.00     0.121 C 
BRANCH  27  28
HETATM   28  C2  UNL     1      -3.331   0.003  10.980  1.00  0.00     0.015 C 
HETATM   29  C1  UNL     1      -4.096  -0.123  12.296  1.00  0.00     0.006 C 
ENDBRANCH  27  28
ENDBRANCH  25  27
ENDBRANCH  23  25
ENDBRANCH   1  23
TORSDOF 8
ENDMDL
MODEL 2
REMARK VINA RESULT: -6.940103818      2.675      4.262
REMARK  8 active torsions:
REMARK  status: ('A' for Active; 'I' for Inactive)
REMARK    1  A    between atoms: C2_2  and  C3_3 
REMARK    2  A    between atoms: C3_3  and  N1_4 
REMARK    3  A    between atoms: N1_4  and  C4_6 
REMARK    4  A    between atoms: C4_6  and  N2_8 
REMARK    5  A    between atoms: C7_11  and  O1_12 
REMARK    6  A    between atoms: C7_11  and  C8_14 
REMARK    7  A    between atoms: C9_17  and  C10_18 
REMARK    8  A    between atoms: C10_18  and  C11_21 
ROOT
HETATM    1  N2  UNL     1      -2.388   6.409  12.678  1.00  0.00    -0.358 N 
HETATM    2  C5  UNL     1      -2.684   6.607  14.110  1.00  0.00     0.128 C 
HETATM    3  C6  UNL     1      -3.471   5.451  14.651  1.00  0.00     0.066 C 
HETATM    4  C7  UNL     1      -2.803   4.158  14.233  1.00  0.00     0.119 C 
HETATM    5  C13 UNL     1      -2.820   4.087  12.726  1.00  0.00     0.066 C 
HETATM    6  C14 UNL     1      -1.822   5.160  12.248  1.00  0.00     0.128 C 
ENDROOT
BRANCH   4   7
HETATM    7  O1  UNL     1      -1.469   4.172  14.657  1.00  0.00    -0.382 OA
ATOM      8  H1  UNL     1      -1.160   3.278  14.744  1.00  0.00     0.211 HD
ENDBRANCH   4   7
BRANCH   4   9
HETATM    9  C8  UNL     1      -3.498   2.977  14.748  1.00  0.00     0.117 A 
HETATM   10  N3  UNL     1      -4.303   2.965  15.818  1.00  0.00    -0.340 N 
HETATM   11  C9  UNL     1      -4.747   1.715  15.985  1.00  0.00     0.107 A 
ATOM     12  H3  UNL     1      -4.536   3.768  16.403  1.00  0.00     0.167 HD
HETATM   13  C12 UNL     1      -4.211   0.935  15.004  1.00  0.00     0.121 A 
HETATM   14  N4  UNL     1      -3.435   1.739  14.244  1.00  0.00    -0.351 N 
ATOM     15  H4  UNL     1      -2.895   1.452  13.427  1.00  0.00     0.166 HD
BRANCH  11  16
HETATM   16  C10 UNL     1      -5.671   1.331  17.091  1.00  0.00     0.382 C 
HETATM   17  F1  UNL     1      -5.759  -0.046  17.088  1.00  0.00    -0.189 F 
HETATM   18  F2  UNL     1      -5.184   1.818  18.269  1.00  0.00    -0.189 F 
BRANCH  16  19
HETATM   19  C11 UNL     1      -7.058   1.863  16.857  1.00  0.00     0.460 C 
HETATM   20  F3  UNL     1      -7.314   2.825  17.808  1.00  0.00    -0.165 F 
HETATM   21  F4  UNL     1      -8.022   0.885  16.974  1.00  0.00    -0.165 F 
HETATM   22  F5  UNL     1      -7.106   2.501  15.622  1.00  0.00    -0.165 F 
ENDBRANCH  16  19
ENDBRANCH  11  16
ENDBRANCH   4   9
BRANCH   1  23
HETATM   23  C4  UNL     1      -2.670   7.432  11.771  1.00  0.00     0.169 C 
HETATM   24  S1  UNL     1      -1.719   8.776  11.825  1.00  0.00    -0.041 SA
BRANCH  23  25
HETATM   25  N1  UNL     1      -3.729   7.385  10.865  1.00  0.00    -0.367 N 
ATOM     26  H1  UNL     1      -3.540   7.565   9.879  1.00  0.00     0.161 HD
BRANCH  25  27
HETATM   27  C3  UNL     1      -5.100   7.088  11.275  1.00  0.00     0.121 C 
BRANCH  27  28
HETATM   28  C2  UNL     1      -6.018   8.124  10.708  1.00  0.00     0.015 C 
HETATM   29  C1  UNL     1      -7.371   7.905  11.381  1.00  0.00     0.006 C 
ENDBRANCH  27  28
ENDBRANCH  25  27
ENDBRANCH  23  25
ENDBRANCH   1  23
TORSDOF 8
ENDMDL
MODEL 3
REMARK VINA RESULT: -6.919330422      1.808      2.841
REMARK  8 active torsions:
REMARK  status: ('A' for Active; 'I' for Inactive)
REMARK    1  A    between atoms: C2_2  and  C3_3 
REMARK    2  A    between atoms: C3_3  and  N1_4 
REMARK    3  A    between atoms: N1_4  and  C4_6 
REMARK    4  A    between atoms: C4_6  and  N2_8 
REMARK    5  A    between atoms: C7_11  and  O1_12 
REMARK    6  A    between atoms: C7_11  and  C8_14 
REMARK    7  A    between atoms: C9_17  and  C10_18 
REMARK    8  A    between atoms: C10_18  and  C11_21 
ROOT
HETATM    1  N2  UNL     1      -2.360   3.290  10.693  1.00  0.00    -0.358 N 
HETATM    2  C5  UNL     1      -2.621   2.004  11.366  1.00  0.00     0.128 C 
HETATM    3  C6  UNL     1      -3.286   2.227  12.691  1.00  0.00     0.066 C 
HETATM    4  C7  UNL     1      -4.445   3.184  12.509  1.00  0.00     0.119 C 
HETATM    5  C13 UNL     1      -3.892   4.501  12.021  1.00  0.00     0.066 C 
HETATM    6  C14 UNL     1      -3.426   4.246  10.574  1.00  0.00     0.128 C 
ENDROOT
BRANCH   4   7
HETATM    7  O1  UNL     1      -5.308   2.680  11.529  1.00  0.00    -0.382 OA
ATOM      8  H1  UNL     1      -5.993   3.317  11.360  1.00  0.00     0.211 HD
ENDBRANCH   4   7
BRANCH   4   9
HETATM    9  C8  UNL     1      -5.166   3.433  13.758  1.00  0.00     0.117 A 
HETATM   10  N3  UNL     1      -5.506   2.493  14.649  1.00  0.00    -0.340 N 
HETATM   11  C9  UNL     1      -6.156   3.094  15.652  1.00  0.00     0.107 A 
ATOM     12  H3  UNL     1      -5.304   1.496  14.577  1.00  0.00     0.167 HD
HETATM   13  C12 UNL     1      -6.224   4.427  15.381  1.00  0.00     0.121 A 
HETATM   14  N4  UNL     1      -5.603   4.620  14.196  1.00  0.00    -0.351 N 
ATOM     15  H4  UNL     1      -5.487   5.515  13.720  1.00  0.00     0.166 HD
BRANCH  11  16
HETATM   16  C10 UNL     1      -6.686   2.345  16.829  1.00  0.00     0.382 C 
HETATM   17  F1  UNL     1      -7.061   3.281  17.770  1.00  0.00    -0.189 F 
HETATM   18  F2  UNL     1      -7.730   1.564  16.427  1.00  0.00    -0.189 F 
BRANCH  16  19
HETATM   19  C11 UNL     1      -5.623   1.487  17.457  1.00  0.00     0.460 C 
HETATM   20  F3  UNL     1      -5.666   1.681  18.820  1.00  0.00    -0.165 F 
HETATM   21  F4  UNL     1      -4.357   1.817  17.022  1.00  0.00    -0.165 F 
HETATM   22  F5  UNL     1      -5.920   0.147  17.236  1.00  0.00    -0.165 F 
ENDBRANCH  16  19
ENDBRANCH  11  16
ENDBRANCH   4   9
BRANCH   1  23
HETATM   23  C4  UNL     1      -1.083   3.556  10.192  1.00  0.00     0.169 C 
HETATM   24  S1  UNL     1      -0.950   3.867   8.581  1.00  0.00    -0.041 SA
BRANCH  23  25
HETATM   25  N1  UNL     1       0.070   3.529  10.977  1.00  0.00    -0.367 N 
ATOM     26  H1  UNL     1       0.403   2.632  11.329  1.00  0.00     0.161 HD
BRANCH  25  27
HETATM   27  C3  UNL     1       0.818   4.738  11.314  1.00  0.00     0.121 C 
BRANCH  27  28
HETATM   28  C2  UNL     1       2.284   4.443  11.247  1.00  0.00     0.015 C 
HETATM   29  C1  UNL     1       2.594   4.170   9.777  1.00  0.00     0.006 C 
ENDBRANCH  27  28
ENDBRANCH  25  27
ENDBRANCH  23  25
ENDBRANCH   1  23
TORSDOF 8
ENDMDL
MODEL 4
REMARK VINA RESULT: -6.890723253      1.827      2.857
REMARK  8 active torsions:
REMARK  status: ('A' for Active; 'I' for Inactive)
REMARK    1  A    between atoms: C2_2  and  C3_3 
REMARK    2  A    between atoms: C3_3  and  N1_4 
REMARK    3  A    between atoms: N1_4  and  C4_6 
REMARK    4  A    between atoms: C4_6  and  N2_8 
REMARK    5  A    between atoms: C7_11  and  O1_12 
REMARK    6  A    between atoms: C7_11  and  C8_14 
REMARK    7  A    between atoms: C9_17  and  C10_18 
REMARK    8  A    between atoms: C10_18  and  C11_21 
ROOT
HETATM    1  N2  UNL     1      -2.479   3.124  10.646  1.00  0.00    -0.358 N 
HETATM    2  C5  UNL     1      -2.741   1.846  11.335  1.00  0.00     0.128 C 
HETATM    3  C6  UNL     1      -3.375   2.087  12.673  1.00  0.00     0.066 C 
HETATM    4  C7  UNL     1      -4.525   3.058  12.508  1.00  0.00     0.119 C 
HETATM    5  C13 UNL     1      -3.966   4.365  11.999  1.00  0.00     0.066 C 
HETATM    6  C14 UNL     1      -3.535   4.093  10.544  1.00  0.00     0.128 C 
ENDROOT
BRANCH   4   7
HETATM    7  O1  UNL     1      -5.415   2.559  11.551  1.00  0.00    -0.382 OA
ATOM      8  H1  UNL     1      -5.457   3.162  10.819  1.00  0.00     0.211 HD
ENDBRANCH   4   7
BRANCH   4   9
HETATM    9  C8  UNL     1      -5.216   3.326  13.770  1.00  0.00     0.117 A 
HETATM   10  N3  UNL     1      -5.556   2.396  14.672  1.00  0.00    -0.340 N 
HETATM   11  C9  UNL     1      -6.174   3.013  15.685  1.00  0.00     0.107 A 
ATOM     12  H3  UNL     1      -5.376   1.395  14.599  1.00  0.00     0.167 HD
HETATM   13  C12 UNL     1      -6.220   4.347  15.411  1.00  0.00     0.121 A 
HETATM   14  N4  UNL     1      -5.619   4.523  14.214  1.00  0.00    -0.351 N 
ATOM     15  H4  UNL     1      -5.494   5.414  13.731  1.00  0.00     0.166 HD
BRANCH  11  16
HETATM   16  C10 UNL     1      -6.695   2.279  16.875  1.00  0.00     0.382 C 
HETATM   17  F1  UNL     1      -7.028   3.225  17.823  1.00  0.00    -0.189 F 
HETATM   18  F2  UNL     1      -7.765   1.522  16.498  1.00  0.00    -0.189 F 
BRANCH  16  19
HETATM   19  C11 UNL     1      -5.638   1.398  17.482  1.00  0.00     0.460 C 
HETATM   20  F3  UNL     1      -5.656   1.585  18.847  1.00  0.00    -0.165 F 
HETATM   21  F4  UNL     1      -4.374   1.707  17.029  1.00  0.00    -0.165 F 
HETATM   22  F5  UNL     1      -5.964   0.065  17.259  1.00  0.00    -0.165 F 
ENDBRANCH  16  19
ENDBRANCH  11  16
ENDBRANCH   4   9
BRANCH   1  23
HETATM   23  C4  UNL     1      -1.210   3.370  10.117  1.00  0.00     0.169 C 
HETATM   24  S1  UNL     1       0.021   3.620  11.181  1.00  0.00    -0.041 SA
BRANCH  23  25
HETATM   25  N1  UNL     1      -0.953   3.453   8.748  1.00  0.00    -0.367 N 
ATOM     26  H1  UNL     1      -0.730   2.599   8.238  1.00  0.00     0.161 HD
BRANCH  25  27
HETATM   27  C3  UNL     1      -0.992   4.719   8.018  1.00  0.00     0.121 C 
BRANCH  27  28
HETATM   28  C2  UNL     1      -0.193   4.585   6.760  1.00  0.00     0.015 C 
HETATM   29  C1  UNL     1       1.120   3.916   7.162  1.00  0.00     0.006 C 
ENDBRANCH  27  28
ENDBRANCH  25  27
ENDBRANCH  23  25
ENDBRANCH   1  23
TORSDOF 8
ENDMDL
MODEL 5
REMARK VINA RESULT: -6.867706260      3.652      5.578
REMARK  8 active torsions:
REMARK  status: ('A' for Active; 'I' for Inactive)
REMARK    1  A    between atoms: C2_2  and  C3_3 
REMARK    2  A    between atoms: C3_3  and  N1_4 
REMARK    3  A    between atoms: N1_4  and  C4_6 
REMARK    4  A    between atoms: C4_6  and  N2_8 
REMARK    5  A    between atoms: C7_11  and  O1_12 
REMARK    6  A    between atoms: C7_11  and  C8_14 
REMARK    7  A    between atoms: C9_17  and  C10_18 
REMARK    8  A    between atoms: C10_18  and  C11_21 
ROOT
HETATM    1  N2  UNL     1      -2.386   6.988  12.913  1.00  0.00    -0.358 N 
HETATM    2  C5  UNL     1      -2.932   6.668  14.246  1.00  0.00     0.128 C 
HETATM    3  C6  UNL     1      -3.581   5.316  14.239  1.00  0.00     0.066 C 
HETATM    4  C7  UNL     1      -2.641   4.318  13.595  1.00  0.00     0.119 C 
HETATM    5  C13 UNL     1      -2.410   4.747  12.166  1.00  0.00     0.066 C 
HETATM    6  C14 UNL     1      -1.551   6.024  12.250  1.00  0.00     0.128 C 
ENDROOT
BRANCH   4   7
HETATM    7  O1  UNL     1      -1.413   4.344  14.265  1.00  0.00    -0.382 OA
ATOM      8  H1  UNL     1      -1.265   3.502  14.679  1.00  0.00     0.211 HD
ENDBRANCH   4   7
BRANCH   4   9
HETATM    9  C8  UNL     1      -3.192   2.963  13.575  1.00  0.00     0.117 A 
HETATM   10  N3  UNL     1      -3.400   2.234  12.471  1.00  0.00    -0.340 N 
HETATM   11  C9  UNL     1      -3.917   1.059  12.845  1.00  0.00     0.107 A 
ATOM     12  H3  UNL     1      -3.200   2.524  11.514  1.00  0.00     0.167 HD
HETATM   13  C12 UNL     1      -4.034   1.054  14.203  1.00  0.00     0.121 A 
HETATM   14  N4  UNL     1      -3.578   2.249  14.640  1.00  0.00    -0.351 N 
ATOM     15  H4  UNL     1      -3.535   2.554  15.613  1.00  0.00     0.166 HD
BRANCH  11  16
HETATM   16  C10 UNL     1      -4.278  -0.009  11.868  1.00  0.00     0.382 C 
HETATM   17  F1  UNL     1      -4.678  -1.109  12.597  1.00  0.00    -0.189 F 
HETATM   18  F2  UNL     1      -5.262   0.455  11.044  1.00  0.00    -0.189 F 
BRANCH  16  19
HETATM   19  C11 UNL     1      -3.088  -0.429  11.051  1.00  0.00     0.460 C 
HETATM   20  F3  UNL     1      -2.928  -1.790  11.194  1.00  0.00    -0.165 F 
HETATM   21  F4  UNL     1      -1.924   0.180  11.467  1.00  0.00    -0.165 F 
HETATM   22  F5  UNL     1      -3.347  -0.200   9.704  1.00  0.00    -0.165 F 
ENDBRANCH  16  19
ENDBRANCH  11  16
ENDBRANCH   4   9
BRANCH   1  23
HETATM   23  C4  UNL     1      -2.696   8.214  12.321  1.00  0.00     0.169 C 
HETATM   24  S1  UNL     1      -1.895   9.544  12.870  1.00  0.00    -0.041 SA
BRANCH  23  25
HETATM   25  N1  UNL     1      -3.668   8.365  11.332  1.00  0.00    -0.367 N 
ATOM     26  H1  UNL     1      -3.533   9.079  10.616  1.00  0.00     0.161 HD
BRANCH  25  27
HETATM   27  C3  UNL     1      -4.873   7.540  11.284  1.00  0.00     0.121 C 
BRANCH  27  28
HETATM   28  C2  UNL     1      -5.970   8.312  10.621  1.00  0.00     0.015 C 
HETATM   29  C1  UNL     1      -7.265   7.880  11.306  1.00  0.00     0.006 C 
ENDBRANCH  27  28
ENDBRANCH  25  27
ENDBRANCH  23  25
ENDBRANCH   1  23
TORSDOF 8
ENDMDL
