MODEL 1
REMARK VINA RESULT: -7.310613525      0.000      0.000
REMARK  7 active torsions:
REMARK  status: ('A' for Active; 'I' for Inactive)
REMARK    1  A    between atoms: C2_2  and  N1_3 
REMARK    2  A    between atoms: C2_2  and  C12_24 
REMARK       I    between atoms: N1_3  and  C3_5 
REMARK       I    between atoms: C3_5  and  N2_7 
REMARK    3  A    between atoms: C4_9  and  N3_10 
REMARK    4  A    between atoms: C4_9  and  C11_20 
REMARK    5  A    between atoms: N3_10  and  C5_12 
REMARK    6  A    between atoms: C5_12  and  C6_13 
REMARK    7  A    between atoms: C6_13  and  O2_14 
ROOT
HETATM    1  N1  UNL     1      -3.102   3.674  11.409  1.00  0.00    -0.336 N 
ATOM      2  H1  UNL     1      -2.300   3.584  12.033  1.00  0.00     0.164 HD
HETATM    3  C3  UNL     1      -4.283   2.913  11.728  1.00  0.00     0.322 C 
HETATM    4  O1  UNL     1      -5.241   3.079  10.894  1.00  0.00    -0.247 OA
HETATM    5  N2  UNL     1      -4.381   2.084  12.829  1.00  0.00    -0.291 N 
ATOM      6  H2  UNL     1      -4.555   2.584  13.700  1.00  0.00     0.172 HD
HETATM    7  C4  UNL     1      -4.299   0.830  12.976  1.00  0.00     0.190 C 
ENDROOT
BRANCH   7   8
HETATM    8  N3  UNL     1      -4.457   0.288  14.312  1.00  0.00    -0.369 N 
ATOM      9  H3  UNL     1      -4.779  -0.676  14.405  1.00  0.00     0.161 HD
BRANCH   8  10
HETATM   10  C5  UNL     1      -4.187   1.031  15.509  1.00  0.00     0.159 C 
BRANCH  10  11
HETATM   11  C6  UNL     1      -5.464   1.383  16.234  1.00  0.00     0.074 C 
HETATM   12  C7  UNL     1      -5.970   2.755  15.859  1.00  0.00     0.039 C 
HETATM   13  C8  UNL     1      -6.982   3.019  16.959  1.00  0.00     0.003 C 
HETATM   14  C9  UNL     1      -6.517   2.218  18.160  1.00  0.00     0.003 C 
HETATM   15  C10 UNL     1      -5.228   1.542  17.724  1.00  0.00     0.039 C 
BRANCH  11  16
HETATM   16  O2  UNL     1      -6.456   0.456  16.059  1.00  0.00    -0.388 OA
ATOM     17  H2  UNL     1      -6.936   0.267  16.857  1.00  0.00     0.210 HD
ENDBRANCH  11  16
ENDBRANCH  10  11
ENDBRANCH   8  10
ENDBRANCH   7   8
BRANCH   7  18
HETATM   18  C11 UNL     1      -4.051  -0.067  11.839  1.00  0.00     0.449 C 
HETATM   19  F1  UNL     1      -5.127  -0.032  10.966  1.00  0.00    -0.163 F 
HETATM   20  F2  UNL     1      -3.932  -1.391  12.233  1.00  0.00    -0.163 F 
HETATM   21  F3  UNL     1      -2.893   0.241  11.187  1.00  0.00    -0.163 F 
ENDBRANCH   7  18
BRANCH   1  22
HETATM   22  C2  UNL     1      -2.971   4.543  10.287  1.00  0.00     0.120 C 
HETATM   23  C1  UNL     1      -3.082   5.985  10.783  1.00  0.00     0.035 C 
BRANCH  22  24
HETATM   24  C12 UNL     1      -1.630   4.457   9.606  1.00  0.00     0.129 C 
HETATM   25  C13 UNL     1      -0.994   3.090   9.777  1.00  0.00     0.052 C 
HETATM   26 CL1  UNL     1      -1.722   4.806   7.890  1.00  0.00    -0.100 Cl
HETATM   27 CL2  UNL     1      -0.518   5.603  10.424  1.00  0.00    -0.100 Cl
ENDBRANCH  22  24
ENDBRANCH   1  22
TORSDOF 7
ENDMDL
MODEL 2
REMARK VINA RESULT: -7.279526788      1.377      1.600
REMARK  7 active torsions:
REMARK  status: ('A' for Active; 'I' for Inactive)
REMARK    1  A    between atoms: C2_2  and  N1_3 
REMARK    2  A    between atoms: C2_2  and  C12_24 
REMARK       I    between atoms: N1_3  and  C3_5 
REMARK       I    between atoms: C3_5  and  N2_7 
REMARK    3  A    between atoms: C4_9  and  N3_10 
REMARK    4  A    between atoms: C4_9  and  C11_20 
REMARK    5  A    between atoms: N3_10  and  C5_12 
REMARK    6  A    between atoms: C5_12  and  C6_13 
REMARK    7  A    between atoms: C6_13  and  O2_14 
ROOT
HETATM    1  N1  UNL     1      -1.801   3.364  12.333  1.00  0.00    -0.336 N 
ATOM      2  H1  UNL     1      -1.114   2.831  12.866  1.00  0.00     0.164 HD
HETATM    3  C3  UNL     1      -3.194   3.090  12.578  1.00  0.00     0.322 C 
HETATM    4  O1  UNL     1      -3.990   3.797  11.866  1.00  0.00    -0.247 OA
HETATM    5  N2  UNL     1      -3.637   2.156  13.495  1.00  0.00    -0.291 N 
ATOM      6  H2  UNL     1      -3.606   2.487  14.459  1.00  0.00     0.172 HD
HETATM    7  C4  UNL     1      -4.072   0.974  13.382  1.00  0.00     0.190 C 
ENDROOT
BRANCH   7   8
HETATM    8  N3  UNL     1      -4.457   0.270  14.591  1.00  0.00    -0.369 N 
ATOM      9  H3  UNL     1      -4.883  -0.652  14.496  1.00  0.00     0.161 HD
BRANCH   8  10
HETATM   10  C5  UNL     1      -4.272   0.798  15.912  1.00  0.00     0.159 C 
BRANCH  10  11
HETATM   11  C6  UNL     1      -5.579   1.275  16.498  1.00  0.00     0.074 C 
HETATM   12  C7  UNL     1      -5.937   2.666  16.032  1.00  0.00     0.039 C 
HETATM   13  C8  UNL     1      -7.024   3.049  17.021  1.00  0.00     0.003 C 
HETATM   14  C9  UNL     1      -6.739   2.263  18.286  1.00  0.00     0.003 C 
HETATM   15  C10 UNL     1      -5.473   1.474  17.999  1.00  0.00     0.039 C 
BRANCH  11  16
HETATM   16  O2  UNL     1      -6.621   0.420  16.258  1.00  0.00    -0.388 OA
ATOM     17  H2  UNL     1      -6.863  -0.097  17.018  1.00  0.00     0.210 HD
ENDBRANCH  11  16
ENDBRANCH  10  11
ENDBRANCH   8  10
ENDBRANCH   7   8
BRANCH   7  18
HETATM   18  C11 UNL     1      -4.192   0.315  12.075  1.00  0.00     0.449 C 
HETATM   19  F1  UNL     1      -5.183   0.930  11.325  1.00  0.00    -0.163 F 
HETATM   20  F2  UNL     1      -4.579  -1.012  12.190  1.00  0.00    -0.163 F 
HETATM   21  F3  UNL     1      -3.010   0.309  11.395  1.00  0.00    -0.163 F 
ENDBRANCH   7  18
BRANCH   1  22
HETATM   22  C2  UNL     1      -1.313   4.325  11.400  1.00  0.00     0.120 C 
HETATM   23  C1  UNL     1      -0.234   5.158  12.093  1.00  0.00     0.035 C 
BRANCH  22  24
HETATM   24  C12 UNL     1      -0.636   3.716  10.199  1.00  0.00     0.129 C 
HETATM   25  C13 UNL     1      -1.039   4.408   8.910  1.00  0.00     0.052 C 
HETATM   26 CL1  UNL     1       1.113   3.757  10.318  1.00  0.00    -0.100 Cl
HETATM   27 CL2  UNL     1      -1.218   2.027  10.031  1.00  0.00    -0.100 Cl
ENDBRANCH  22  24
ENDBRANCH   1  22
TORSDOF 7
ENDMDL
MODEL 3
REMARK VINA RESULT: -6.957103749      4.236      5.647
REMARK  7 active torsions:
REMARK  status: ('A' for Active; 'I' for Inactive)
REMARK    1  A    between atoms: C2_2  and  N1_3 
REMARK    2  A    between atoms: C2_2  and  C12_24 
REMARK       I    between atoms: N1_3  and  C3_5 
REMARK       I    between atoms: C3_5  and  N2_7 
REMARK    3  A    between atoms: C4_9  and  N3_10 
REMARK    4  A    between atoms: C4_9  and  C11_20 
REMARK    5  A    between atoms: N3_10  and  C5_12 
REMARK    6  A    between atoms: C5_12  and  C6_13 
REMARK    7  A    between atoms: C6_13  and  O2_14 
ROOT
HETATM    1  N1  UNL     1      -5.224   6.492  11.239  1.00  0.00    -0.336 N 
ATOM      2  H1  UNL     1      -5.838   5.814  10.787  1.00  0.00     0.164 HD
HETATM    3  C3  UNL     1      -4.443   6.040  12.361  1.00  0.00     0.322 C 
HETATM    4  O1  UNL     1      -3.703   6.952  12.873  1.00  0.00    -0.247 OA
HETATM    5  N2  UNL     1      -4.480   4.745  12.844  1.00  0.00    -0.291 N 
ATOM      6  H2  UNL     1      -3.932   4.089  12.289  1.00  0.00     0.172 HD
HETATM    7  C4  UNL     1      -5.056   4.209  13.834  1.00  0.00     0.190 C 
ENDROOT
BRANCH   7   8
HETATM    8  N3  UNL     1      -4.869   2.786  14.043  1.00  0.00    -0.369 N 
ATOM      9  H3  UNL     1      -5.623   2.262  14.489  1.00  0.00     0.161 HD
BRANCH   8  10
HETATM   10  C5  UNL     1      -3.684   2.074  13.659  1.00  0.00     0.159 C 
BRANCH  10  11
HETATM   11  C6  UNL     1      -4.003   0.973  12.677  1.00  0.00     0.074 C 
HETATM   12  C7  UNL     1      -2.819   0.632  11.803  1.00  0.00     0.039 C 
HETATM   13  C8  UNL     1      -3.478  -0.173  10.697  1.00  0.00     0.003 C 
HETATM   14  C9  UNL     1      -4.909   0.323  10.609  1.00  0.00     0.003 C 
HETATM   15  C10 UNL     1      -5.021   1.426  11.648  1.00  0.00     0.039 C 
BRANCH  11  16
HETATM   16  O2  UNL     1      -4.483  -0.161  13.275  1.00  0.00    -0.388 OA
ATOM     17  H2  UNL     1      -4.240  -0.957  12.817  1.00  0.00     0.210 HD
ENDBRANCH  11  16
ENDBRANCH  10  11
ENDBRANCH   8  10
ENDBRANCH   7   8
BRANCH   7  18
HETATM   18  C11 UNL     1      -5.894   4.987  14.755  1.00  0.00     0.449 C 
HETATM   19  F1  UNL     1      -6.576   4.134  15.610  1.00  0.00    -0.163 F 
HETATM   20  F2  UNL     1      -6.873   5.711  14.090  1.00  0.00    -0.163 F 
HETATM   21  F3  UNL     1      -5.167   5.897  15.465  1.00  0.00    -0.163 F 
ENDBRANCH   7  18
BRANCH   1  22
HETATM   22  C2  UNL     1      -5.203   7.817  10.713  1.00  0.00     0.120 C 
HETATM   23  C1  UNL     1      -4.532   7.775   9.339  1.00  0.00     0.035 C 
BRANCH  22  24
HETATM   24  C12 UNL     1      -6.573   8.395  10.470  1.00  0.00     0.129 C 
HETATM   25  C13 UNL     1      -7.134   7.978   9.123  1.00  0.00     0.052 C 
HETATM   26 CL1  UNL     1      -7.727   7.938  11.708  1.00  0.00    -0.100 Cl
HETATM   27 CL2  UNL     1      -6.414  10.180  10.383  1.00  0.00    -0.100 Cl
ENDBRANCH  22  24
ENDBRANCH   1  22
TORSDOF 7
ENDMDL
MODEL 4
REMARK VINA RESULT: -6.934300746      0.937      1.234
REMARK  7 active torsions:
REMARK  status: ('A' for Active; 'I' for Inactive)
REMARK    1  A    between atoms: C2_2  and  N1_3 
REMARK    2  A    between atoms: C2_2  and  C12_24 
REMARK       I    between atoms: N1_3  and  C3_5 
REMARK       I    between atoms: C3_5  and  N2_7 
REMARK    3  A    between atoms: C4_9  and  N3_10 
REMARK    4  A    between atoms: C4_9  and  C11_20 
REMARK    5  A    between atoms: N3_10  and  C5_12 
REMARK    6  A    between atoms: C5_12  and  C6_13 
REMARK    7  A    between atoms: C6_13  and  O2_14 
ROOT
HETATM    1  N1  UNL     1      -2.924   4.007  10.875  1.00  0.00    -0.336 N 
ATOM      2  H1  UNL     1      -2.000   3.925  11.298  1.00  0.00     0.164 HD
HETATM    3  C3  UNL     1      -4.014   3.315  11.515  1.00  0.00     0.322 C 
HETATM    4  O1  UNL     1      -5.138   3.466  10.919  1.00  0.00    -0.247 OA
HETATM    5  N2  UNL     1      -3.868   2.561  12.664  1.00  0.00    -0.291 N 
ATOM      6  H2  UNL     1      -3.819   3.122  13.514  1.00  0.00     0.172 HD
HETATM    7  C4  UNL     1      -3.783   1.318  12.875  1.00  0.00     0.190 C 
ENDROOT
BRANCH   7   8
HETATM    8  N3  UNL     1      -3.633   0.867  14.246  1.00  0.00    -0.369 N 
ATOM      9  H3  UNL     1      -2.707   0.922  14.672  1.00  0.00     0.161 HD
BRANCH   8  10
HETATM   10  C5  UNL     1      -4.712   0.350  15.036  1.00  0.00     0.159 C 
BRANCH  10  11
HETATM   11  C6  UNL     1      -5.085   1.305  16.145  1.00  0.00     0.074 C 
HETATM   12  C7  UNL     1      -5.841   0.617  17.257  1.00  0.00     0.039 C 
HETATM   13  C8  UNL     1      -6.417   1.801  18.012  1.00  0.00     0.003 C 
HETATM   14  C9  UNL     1      -6.564   2.918  16.997  1.00  0.00     0.003 C 
HETATM   15  C10 UNL     1      -6.099   2.331  15.675  1.00  0.00     0.039 C 
BRANCH  11  16
HETATM   16  O2  UNL     1      -4.009   1.979  16.660  1.00  0.00    -0.388 OA
ATOM     17  H2  UNL     1      -3.337   1.402  17.004  1.00  0.00     0.210 HD
ENDBRANCH  11  16
ENDBRANCH  10  11
ENDBRANCH   8  10
ENDBRANCH   7   8
BRANCH   7  18
HETATM   18  C11 UNL     1      -3.832   0.341  11.779  1.00  0.00     0.449 C 
HETATM   19  F1  UNL     1      -5.102   0.317  11.224  1.00  0.00    -0.163 F 
HETATM   20  F2  UNL     1      -3.590  -0.952  12.217  1.00  0.00    -0.163 F 
HETATM   21  F3  UNL     1      -2.895   0.599  10.822  1.00  0.00    -0.163 F 
ENDBRANCH   7  18
BRANCH   1  22
HETATM   22  C2  UNL     1      -3.043   4.797   9.694  1.00  0.00     0.120 C 
HETATM   23  C1  UNL     1      -3.318   6.243  10.113  1.00  0.00     0.035 C 
BRANCH  22  24
HETATM   24  C12 UNL     1      -1.782   4.853   8.872  1.00  0.00     0.129 C 
HETATM   25  C13 UNL     1      -0.974   3.573   8.985  1.00  0.00     0.052 C 
HETATM   26 CL1  UNL     1      -2.099   5.150   7.173  1.00  0.00    -0.100 Cl
HETATM   27 CL2  UNL     1      -0.731   6.137   9.552  1.00  0.00    -0.100 Cl
ENDBRANCH  22  24
ENDBRANCH   1  22
TORSDOF 7
ENDMDL
MODEL 5
REMARK VINA RESULT: -6.930960836      1.184      1.624
REMARK  7 active torsions:
REMARK  status: ('A' for Active; 'I' for Inactive)
REMARK    1  A    between atoms: C2_2  and  N1_3 
REMARK    2  A    between atoms: C2_2  and  C12_24 
REMARK       I    between atoms: N1_3  and  C3_5 
REMARK       I    between atoms: C3_5  and  N2_7 
REMARK    3  A    between atoms: C4_9  and  N3_10 
REMARK    4  A    between atoms: C4_9  and  C11_20 
REMARK    5  A    between atoms: N3_10  and  C5_12 
REMARK    6  A    between atoms: C5_12  and  C6_13 
REMARK    7  A    between atoms: C6_13  and  O2_14 
ROOT
HETATM    1  N1  UNL     1      -2.948   4.097  10.859  1.00  0.00    -0.336 N 
ATOM      2  H1  UNL     1      -2.019   4.014  11.271  1.00  0.00     0.164 HD
HETATM    3  C3  UNL     1      -4.029   3.395  11.502  1.00  0.00     0.322 C 
HETATM    4  O1  UNL     1      -5.160   3.548  10.920  1.00  0.00    -0.247 OA
HETATM    5  N2  UNL     1      -3.869   2.629  12.642  1.00  0.00    -0.291 N 
ATOM      6  H2  UNL     1      -3.812   3.181  13.497  1.00  0.00     0.172 HD
HETATM    7  C4  UNL     1      -3.777   1.384  12.839  1.00  0.00     0.190 C 
ENDROOT
BRANCH   7   8
HETATM    8  N3  UNL     1      -3.612   0.919  14.203  1.00  0.00    -0.369 N 
ATOM      9  H3  UNL     1      -2.684   0.983  14.624  1.00  0.00     0.161 HD
BRANCH   8  10
HETATM   10  C5  UNL     1      -4.678   0.375  14.993  1.00  0.00     0.159 C 
BRANCH  10  11
HETATM   11  C6  UNL     1      -5.065   1.314  16.110  1.00  0.00     0.074 C 
HETATM   12  C7  UNL     1      -5.830   0.610  17.205  1.00  0.00     0.039 C 
HETATM   13  C8  UNL     1      -6.418   1.782  17.969  1.00  0.00     0.003 C 
HETATM   14  C9  UNL     1      -6.559   2.911  16.967  1.00  0.00     0.003 C 
HETATM   15  C10 UNL     1      -6.079   2.342  15.643  1.00  0.00     0.039 C 
BRANCH  11  16
HETATM   16  O2  UNL     1      -3.998   1.985  16.644  1.00  0.00    -0.388 OA
ATOM     17  H2  UNL     1      -3.651   1.573  17.427  1.00  0.00     0.210 HD
ENDBRANCH  11  16
ENDBRANCH  10  11
ENDBRANCH   8  10
ENDBRANCH   7   8
BRANCH   7  18
HETATM   18  C11 UNL     1      -3.835   0.419  11.732  1.00  0.00     0.449 C 
HETATM   19  F1  UNL     1      -5.116   0.383  11.203  1.00  0.00    -0.163 F 
HETATM   20  F2  UNL     1      -3.566  -0.875  12.150  1.00  0.00    -0.163 F 
HETATM   21  F3  UNL     1      -2.922   0.702  10.759  1.00  0.00    -0.163 F 
ENDBRANCH   7  18
BRANCH   1  22
HETATM   22  C2  UNL     1      -3.082   4.900   9.689  1.00  0.00     0.120 C 
HETATM   23  C1  UNL     1      -3.267   6.354  10.125  1.00  0.00     0.035 C 
BRANCH  22  24
HETATM   24  C12 UNL     1      -1.858   4.901   8.810  1.00  0.00     0.129 C 
HETATM   25  C13 UNL     1      -0.912   6.036   9.156  1.00  0.00     0.052 C 
HETATM   26 CL1  UNL     1      -0.962   3.396   8.902  1.00  0.00    -0.100 Cl
HETATM   27 CL2  UNL     1      -2.384   5.221   7.125  1.00  0.00    -0.100 Cl
ENDBRANCH  22  24
ENDBRANCH   1  22
TORSDOF 7
ENDMDL
