MODEL 1
REMARK VINA RESULT: -6.687699229      0.000      0.000
REMARK  5 active torsions:
REMARK  status: ('A' for Active; 'I' for Inactive)
REMARK    1  A    between atoms: C2_2  and  C3_3 
REMARK    2  A    between atoms: C2_2  and  C8_18 
REMARK       I    between atoms: C3_3  and  N1_5 
REMARK    3  A    between atoms: N1_5  and  N2_7 
REMARK       I    between atoms: N2_7  and  C4_9 
REMARK    4  A    between atoms: C4_9  and  C5_11 
REMARK    5  A    between atoms: C5_11  and  N3_14 
ROOT
HETATM    1  C3  UNL     1      -3.645   1.512  13.255  1.00  0.00     0.265 C 
HETATM    2  O1  UNL     1      -4.680   0.786  13.009  1.00  0.00    -0.266 OA
HETATM    3  N1  UNL     1      -3.383   1.663  14.628  1.00  0.00    -0.263 N 
ATOM      4  H1  UNL     1      -2.582   2.220  14.926  1.00  0.00     0.190 HD
ENDROOT
BRANCH   1   5
HETATM    5  C2  UNL     1      -2.931   2.043  12.137  1.00  0.00     0.010 C 
HETATM    6  C1  UNL     1      -2.921   1.240  11.043  1.00  0.00     0.025 C 
BRANCH   5   7
HETATM    7  C8  UNL     1      -2.242   3.310  11.965  1.00  0.00     0.071 C 
HETATM    8  C9  UNL     1      -2.790   4.031  10.664  1.00  0.00     0.133 C 
HETATM    9 CL1  UNL     1      -4.561   3.930  10.572  1.00  0.00    -0.121 Cl
HETATM   10  C10 UNL     1      -2.323   5.326  11.307  1.00  0.00     0.152 C 
HETATM   11 CL2  UNL     1      -0.617   5.731  11.052  1.00  0.00    -0.098 Cl
HETATM   12 CL3  UNL     1      -3.349   6.725  11.059  1.00  0.00    -0.098 Cl
HETATM   13  C11 UNL     1      -2.586   4.563  12.643  1.00  0.00     0.079 C 
HETATM   14  C12 UNL     1      -1.492   5.004  13.629  1.00  0.00     0.036 C 
HETATM   15 CL4  UNL     1      -4.164   4.800  13.329  1.00  0.00    -0.115 Cl
ENDBRANCH   5   7
ENDBRANCH   1   5
BRANCH   3  16
HETATM   16  N2  UNL     1      -4.216   1.054  15.612  1.00  0.00    -0.265 N 
HETATM   17  C4  UNL     1      -5.222   1.787  16.271  1.00  0.00     0.271 C 
HETATM   18  O2  UNL     1      -5.374   3.013  15.967  1.00  0.00    -0.269 OA
ATOM     19  H2  UNL     1      -4.080   0.070  15.843  1.00  0.00     0.190 HD
BRANCH  17  20
HETATM   20  C5  UNL     1      -6.118   1.232  17.292  1.00  0.00     0.197 C 
HETATM   21  C6  UNL     1      -7.538   1.274  16.735  1.00  0.00     0.056 C 
HETATM   22  C7  UNL     1      -6.131   2.039  18.567  1.00  0.00     0.056 C 
BRANCH  20  23
HETATM   23  N3  UNL     1      -5.830  -0.136  17.617  1.00  0.00    -0.062 N 
ATOM     24  H33 UNL     1      -5.659  -0.682  16.772  1.00  0.00     0.275 HD
ATOM     25  H32 UNL     1      -4.914  -0.219  18.058  1.00  0.00     0.275 HD
ATOM     26  H31 UNL     1      -6.550  -0.575  18.192  1.00  0.00     0.275 HD
ENDBRANCH  20  23
ENDBRANCH  17  20
ENDBRANCH   3  16
TORSDOF 5
ENDMDL
MODEL 2
REMARK VINA RESULT: -6.573440695      1.051      1.051
REMARK  5 active torsions:
REMARK  status: ('A' for Active; 'I' for Inactive)
REMARK    1  A    between atoms: C2_2  and  C3_3 
REMARK    2  A    between atoms: C2_2  and  C8_18 
REMARK       I    between atoms: C3_3  and  N1_5 
REMARK    3  A    between atoms: N1_5  and  N2_7 
REMARK       I    between atoms: N2_7  and  C4_9 
REMARK    4  A    between atoms: C4_9  and  C5_11 
REMARK    5  A    between atoms: C5_11  and  N3_14 
ROOT
HETATM    1  C3  UNL     1      -3.692   2.352  13.060  1.00  0.00     0.265 C 
HETATM    2  O1  UNL     1      -4.801   1.809  12.693  1.00  0.00    -0.266 OA
HETATM    3  N1  UNL     1      -3.662   2.694  14.423  1.00  0.00    -0.263 N 
ATOM      4  H1  UNL     1      -2.824   3.128  14.811  1.00  0.00     0.190 HD
ENDROOT
BRANCH   1   5
HETATM    5  C2  UNL     1      -2.681   2.522  12.065  1.00  0.00     0.010 C 
HETATM    6  C1  UNL     1      -2.524   1.462  11.232  1.00  0.00     0.025 C 
BRANCH   5   7
HETATM    7  C8  UNL     1      -1.814   3.651  11.775  1.00  0.00     0.071 C 
HETATM    8  C9  UNL     1      -2.103   4.169  10.305  1.00  0.00     0.133 C 
HETATM    9 CL1  UNL     1      -3.848   4.245   9.984  1.00  0.00    -0.121 Cl
HETATM   10  C10 UNL     1      -1.548   5.503  10.775  1.00  0.00     0.152 C 
HETATM   11 CL2  UNL     1       0.215   5.665  10.697  1.00  0.00    -0.098 Cl
HETATM   12 CL3  UNL     1      -2.343   6.934  10.146  1.00  0.00    -0.098 Cl
HETATM   13  C11 UNL     1      -2.067   5.040  12.171  1.00  0.00     0.079 C 
HETATM   14  C12 UNL     1      -1.049   5.537  13.210  1.00  0.00     0.036 C 
HETATM   15 CL4  UNL     1      -3.669   5.572  12.577  1.00  0.00    -0.115 Cl
ENDBRANCH   5   7
ENDBRANCH   1   5
BRANCH   3  16
HETATM   16  N2  UNL     1      -4.779   2.447  15.273  1.00  0.00    -0.265 N 
HETATM   17  C4  UNL     1      -4.718   1.479  16.295  1.00  0.00     0.271 C 
HETATM   18  O2  UNL     1      -3.637   0.825  16.444  1.00  0.00    -0.269 OA
ATOM     19  H2  UNL     1      -5.638   2.981  15.139  1.00  0.00     0.190 HD
BRANCH  17  20
HETATM   20  C5  UNL     1      -5.823   1.169  17.210  1.00  0.00     0.197 C 
HETATM   21  C6  UNL     1      -7.128   1.475  16.481  1.00  0.00     0.056 C 
HETATM   22  C7  UNL     1      -5.814   2.023  18.455  1.00  0.00     0.056 C 
BRANCH  20  23
HETATM   23  N3  UNL     1      -5.868  -0.212  17.600  1.00  0.00    -0.062 N 
ATOM     24  H33 UNL     1      -6.121  -0.804  16.809  1.00  0.00     0.275 HD
ATOM     25  H32 UNL     1      -4.929  -0.567  17.783  1.00  0.00     0.275 HD
ATOM     26  H31 UNL     1      -6.483  -0.387  18.395  1.00  0.00     0.275 HD
ENDBRANCH  20  23
ENDBRANCH  17  20
ENDBRANCH   3  16
TORSDOF 5
ENDMDL
MODEL 3
REMARK VINA RESULT: -6.550439075      1.508      2.296
REMARK  5 active torsions:
REMARK  status: ('A' for Active; 'I' for Inactive)
REMARK    1  A    between atoms: C2_2  and  C3_3 
REMARK    2  A    between atoms: C2_2  and  C8_18 
REMARK       I    between atoms: C3_3  and  N1_5 
REMARK    3  A    between atoms: N1_5  and  N2_7 
REMARK       I    between atoms: N2_7  and  C4_9 
REMARK    4  A    between atoms: C4_9  and  C5_11 
REMARK    5  A    between atoms: C5_11  and  N3_14 
ROOT
HETATM    1  C3  UNL     1      -3.984   2.415  12.689  1.00  0.00     0.265 C 
HETATM    2  O1  UNL     1      -5.227   2.531  12.373  1.00  0.00    -0.266 OA
HETATM    3  N1  UNL     1      -3.778   2.125  14.049  1.00  0.00    -0.263 N 
ATOM      4  H1  UNL     1      -2.826   2.012  14.398  1.00  0.00     0.190 HD
ENDROOT
BRANCH   1   5
HETATM    5  C2  UNL     1      -3.021   2.589  11.648  1.00  0.00     0.010 C 
HETATM    6  C1  UNL     1      -2.348   1.460  11.308  1.00  0.00     0.025 C 
BRANCH   5   7
HETATM    7  C8  UNL     1      -2.663   3.764  10.872  1.00  0.00     0.071 C 
HETATM    8  C9  UNL     1      -2.493   5.003  11.847  1.00  0.00     0.133 C 
HETATM    9 CL1  UNL     1      -1.580   4.552  13.303  1.00  0.00    -0.121 Cl
HETATM   10  C10 UNL     1      -1.599   5.596  10.771  1.00  0.00     0.152 C 
HETATM   11 CL2  UNL     1      -2.438   6.475   9.482  1.00  0.00    -0.098 Cl
HETATM   12 CL3  UNL     1      -0.199   6.488  11.336  1.00  0.00    -0.098 Cl
HETATM   13  C11 UNL     1      -1.311   4.104  10.419  1.00  0.00     0.079 C 
HETATM   14  C12 UNL     1      -1.181   4.026   8.889  1.00  0.00     0.036 C 
HETATM   15 CL4  UNL     1       0.085   3.419  11.191  1.00  0.00    -0.115 Cl
ENDBRANCH   5   7
ENDBRANCH   1   5
BRANCH   3  16
HETATM   16  N2  UNL     1      -4.873   1.987  14.951  1.00  0.00    -0.265 N 
HETATM   17  C4  UNL     1      -4.729   1.302  16.174  1.00  0.00     0.271 C 
HETATM   18  O2  UNL     1      -3.593   0.806  16.457  1.00  0.00    -0.269 OA
ATOM     19  H2  UNL     1      -5.777   2.392  14.707  1.00  0.00     0.190 HD
BRANCH  17  20
HETATM   20  C5  UNL     1      -5.807   1.120  17.154  1.00  0.00     0.197 C 
HETATM   21  C6  UNL     1      -7.127   1.424  16.451  1.00  0.00     0.056 C 
HETATM   22  C7  UNL     1      -5.710   2.072  18.320  1.00  0.00     0.056 C 
BRANCH  20  23
HETATM   23  N3  UNL     1      -5.894  -0.221  17.660  1.00  0.00    -0.062 N 
ATOM     24  H33 UNL     1      -5.062  -0.756  17.412  1.00  0.00     0.275 HD
ATOM     25  H32 UNL     1      -5.803  -0.231  18.676  1.00  0.00     0.275 HD
ATOM     26  H31 UNL     1      -6.740  -0.709  17.366  1.00  0.00     0.275 HD
ENDBRANCH  20  23
ENDBRANCH  17  20
ENDBRANCH   3  16
TORSDOF 5
ENDMDL
MODEL 4
REMARK VINA RESULT: -6.538262379      1.761      2.725
REMARK  5 active torsions:
REMARK  status: ('A' for Active; 'I' for Inactive)
REMARK    1  A    between atoms: C2_2  and  C3_3 
REMARK    2  A    between atoms: C2_2  and  C8_18 
REMARK       I    between atoms: C3_3  and  N1_5 
REMARK    3  A    between atoms: N1_5  and  N2_7 
REMARK       I    between atoms: N2_7  and  C4_9 
REMARK    4  A    between atoms: C4_9  and  C5_11 
REMARK    5  A    between atoms: C5_11  and  N3_14 
ROOT
HETATM    1  C3  UNL     1      -3.382   4.586  14.537  1.00  0.00     0.265 C 
HETATM    2  O1  UNL     1      -4.335   5.380  14.886  1.00  0.00    -0.266 OA
HETATM    3  N1  UNL     1      -3.559   3.268  14.992  1.00  0.00    -0.263 N 
ATOM      4  H1  UNL     1      -2.858   2.562  14.765  1.00  0.00     0.190 HD
ENDROOT
BRANCH   1   5
HETATM    5  C2  UNL     1      -2.316   5.137  13.761  1.00  0.00     0.010 C 
HETATM    6  C1  UNL     1      -1.937   6.386  14.131  1.00  0.00     0.025 C 
BRANCH   5   7
HETATM    7  C8  UNL     1      -1.550   4.572  12.664  1.00  0.00     0.071 C 
HETATM    8  C9  UNL     1      -2.543   3.921  11.613  1.00  0.00     0.133 C 
HETATM    9 CL1  UNL     1      -3.938   4.977  11.310  1.00  0.00    -0.121 Cl
HETATM   10  C10 UNL     1      -1.437   4.126  10.593  1.00  0.00     0.152 C 
HETATM   11 CL2  UNL     1      -0.214   2.845  10.527  1.00  0.00    -0.098 Cl
HETATM   12 CL3  UNL     1      -1.948   4.595   8.983  1.00  0.00    -0.098 Cl
HETATM   13  C11 UNL     1      -1.035   5.320  11.514  1.00  0.00     0.079 C 
HETATM   14  C12 UNL     1       0.501   5.385  11.511  1.00  0.00     0.036 C 
HETATM   15 CL4  UNL     1      -1.716   6.854  11.072  1.00  0.00    -0.115 Cl
ENDBRANCH   5   7
ENDBRANCH   1   5
BRANCH   3  16
HETATM   16  N2  UNL     1      -4.699   2.898  15.765  1.00  0.00    -0.265 N 
HETATM   17  C4  UNL     1      -4.720   1.700  16.506  1.00  0.00     0.271 C 
HETATM   18  O2  UNL     1      -3.693   0.950  16.470  1.00  0.00    -0.269 OA
ATOM     19  H2  UNL     1      -5.513   3.512  15.783  1.00  0.00     0.190 HD
BRANCH  17  20
HETATM   20  C5  UNL     1      -5.852   1.252  17.326  1.00  0.00     0.197 C 
HETATM   21  C6  UNL     1      -7.131   1.536  16.543  1.00  0.00     0.056 C 
HETATM   22  C7  UNL     1      -5.969   2.002  18.630  1.00  0.00     0.056 C 
BRANCH  20  23
HETATM   23  N3  UNL     1      -5.829  -0.156  17.605  1.00  0.00    -0.062 N 
ATOM     24  H33 UNL     1      -4.870  -0.503  17.641  1.00  0.00     0.275 HD
ATOM     25  H32 UNL     1      -6.110  -0.339  18.569  1.00  0.00     0.275 HD
ATOM     26  H31 UNL     1      -6.389  -0.706  16.954  1.00  0.00     0.275 HD
ENDBRANCH  20  23
ENDBRANCH  17  20
ENDBRANCH   3  16
TORSDOF 5
ENDMDL
MODEL 5
REMARK VINA RESULT: -6.468248727      1.590      1.882
REMARK  5 active torsions:
REMARK  status: ('A' for Active; 'I' for Inactive)
REMARK    1  A    between atoms: C2_2  and  C3_3 
REMARK    2  A    between atoms: C2_2  and  C8_18 
REMARK       I    between atoms: C3_3  and  N1_5 
REMARK    3  A    between atoms: N1_5  and  N2_7 
REMARK       I    between atoms: N2_7  and  C4_9 
REMARK    4  A    between atoms: C4_9  and  C5_11 
REMARK    5  A    between atoms: C5_11  and  N3_14 
ROOT
HETATM    1  C3  UNL     1      -3.132   3.151  13.996  1.00  0.00     0.265 C 
HETATM    2  O1  UNL     1      -2.559   3.163  15.150  1.00  0.00    -0.266 OA
HETATM    3  N1  UNL     1      -4.270   2.327  13.948  1.00  0.00    -0.263 N 
ATOM      4  H1  UNL     1      -4.796   2.252  13.077  1.00  0.00     0.190 HD
ENDROOT
BRANCH   1   5
HETATM    5  C2  UNL     1      -2.552   3.950  12.963  1.00  0.00     0.010 C 
HETATM    6  C1  UNL     1      -1.947   3.242  11.976  1.00  0.00     0.025 C 
BRANCH   5   7
HETATM    7  C8  UNL     1      -2.530   5.390  12.776  1.00  0.00     0.071 C 
HETATM    8  C9  UNL     1      -3.061   5.737  11.323  1.00  0.00     0.133 C 
HETATM    9 CL1  UNL     1      -4.504   4.782  10.923  1.00  0.00    -0.121 Cl
HETATM   10  C10 UNL     1      -3.416   7.101  11.890  1.00  0.00     0.152 C 
HETATM   11 CL2  UNL     1      -2.099   8.286  11.905  1.00  0.00    -0.098 Cl
HETATM   12 CL3  UNL     1      -4.904   7.818  11.301  1.00  0.00    -0.098 Cl
HETATM   13  C11 UNL     1      -3.566   6.322  13.233  1.00  0.00     0.079 C 
HETATM   14  C12 UNL     1      -3.053   7.252  14.345  1.00  0.00     0.036 C 
HETATM   15 CL4  UNL     1      -5.171   5.765  13.589  1.00  0.00    -0.115 Cl
ENDBRANCH   5   7
ENDBRANCH   1   5
BRANCH   3  16
HETATM   16  N2  UNL     1      -4.703   1.594  15.091  1.00  0.00    -0.265 N 
HETATM   17  C4  UNL     1      -5.727   2.084  15.927  1.00  0.00     0.271 C 
HETATM   18  O2  UNL     1      -6.259   3.202  15.637  1.00  0.00    -0.269 OA
ATOM     19  H2  UNL     1      -4.265   0.699  15.308  1.00  0.00     0.190 HD
BRANCH  17  20
HETATM   20  C5  UNL     1      -6.227   1.388  17.119  1.00  0.00     0.197 C 
HETATM   21  C6  UNL     1      -7.716   1.128  16.911  1.00  0.00     0.056 C 
HETATM   22  C7  UNL     1      -6.104   2.212  18.377  1.00  0.00     0.056 C 
BRANCH  20  23
HETATM   23  N3  UNL     1      -5.600   0.116  17.339  1.00  0.00    -0.062 N 
ATOM     24  H33 UNL     1      -4.613   0.150  17.087  1.00  0.00     0.275 HD
ATOM     25  H32 UNL     1      -5.512  -0.077  18.337  1.00  0.00     0.275 HD
ATOM     26  H31 UNL     1      -6.070  -0.654  16.861  1.00  0.00     0.275 HD
ENDBRANCH  20  23
ENDBRANCH  17  20
ENDBRANCH   3  16
TORSDOF 5
ENDMDL
