MODEL 1
REMARK VINA RESULT: -6.746486310      0.000      0.000
REMARK  7 active torsions:
REMARK  status: ('A' for Active; 'I' for Inactive)
REMARK    1  A    between atoms: C2_2  and  N1_3 
REMARK    2  A    between atoms: C3_4  and  C4_5 
REMARK    3  A    between atoms: C4_5  and  O1_6 
REMARK    4  A    between atoms: C7_12  and  N3_13 
REMARK    5  A    between atoms: N3_13  and  N4_15 
REMARK    6  A    between atoms: N4_15  and  N5_16 
REMARK       I    between atoms: N6_19  and  C8_20 
REMARK       I    between atoms: C8_20  and  N8_24 
REMARK    7  A    between atoms: N8_24  and  N9_26 
ROOT
HETATM    1  N1  UNL     1      39.551 -24.487  40.233  1.00  0.00    -0.327 N 
HETATM    2  C3  UNL     1      38.970 -25.647  39.801  1.00  0.00     0.130 A 
HETATM    3  N2  UNL     1      37.660 -25.625  40.078  1.00  0.00    -0.339 N 
ATOM      4  H2  UNL     1      36.989 -26.363  39.864  1.00  0.00     0.167 HD
HETATM    5  C5  UNL     1      37.389 -24.476  40.677  1.00  0.00     0.066 A 
HETATM    6  C6  UNL     1      38.579 -23.750  40.779  1.00  0.00     0.110 A 
HETATM    7  C7  UNL     1      38.586 -22.558  41.350  1.00  0.00     0.170 A 
HETATM    8  N6  UNL     1      37.336 -22.040  41.853  1.00  0.00    -0.139 N 
HETATM    9  C8  UNL     1      37.375 -20.762  42.456  1.00  0.00     0.698 C 
HETATM   10  N7  UNL     1      37.075 -19.700  41.815  1.00  0.00    -0.233 N 
ATOM     11  H71 UNL     1      37.104 -18.778  42.250  1.00  0.00     0.174 HD
ATOM     12  H72 UNL     1      36.798 -19.774  40.836  1.00  0.00     0.174 HD
HETATM   13  N8  UNL     1      37.758 -20.659  43.808  1.00  0.00    -0.138 N 
ATOM     14  H8  UNL     1      38.695 -20.949  44.090  1.00  0.00     0.205 HD
HETATM   15  C9  UNL     1      36.118 -22.775  41.751  1.00  0.00     0.119 A 
HETATM   16  C10 UNL     1      36.121 -23.945  41.192  1.00  0.00     0.050 A 
ENDROOT
BRANCH   7  17
HETATM   17  N3  UNL     1      39.738 -21.765  41.501  1.00  0.00    -0.267 N 
ATOM     18  H3  UNL     1      40.367 -21.990  42.272  1.00  0.00     0.186 HD
BRANCH  17  19
HETATM   19  N4  UNL     1      40.087 -20.688  40.671  1.00  0.00    -0.028 NA
BRANCH  19  20
HETATM   20  N5  UNL     1      39.344 -20.643  39.513  1.00  0.00    -0.329 N 
ATOM     21  H52 UNL     1      39.556 -21.220  38.698  1.00  0.00     0.174 HD
ATOM     22  H51 UNL     1      38.572 -19.978  39.563  1.00  0.00     0.174 HD
ENDBRANCH  19  20
ENDBRANCH  17  19
ENDBRANCH   7  17
BRANCH  13  23
HETATM   23  N9  UNL     1      36.869 -20.163  44.768  1.00  0.00    -0.331 N 
ATOM     24  H92 UNL     1      35.987 -19.758  44.454  1.00  0.00     0.177 HD
ATOM     25  H91 UNL     1      37.098 -20.206  45.761  1.00  0.00     0.177 HD
ENDBRANCH  13  23
BRANCH   1  26
HETATM   26  C2  UNL     1      40.945 -24.165  40.111  1.00  0.00     0.126 C 
HETATM   27  C1  UNL     1      41.279 -23.538  38.764  1.00  0.00     0.027 C 
ENDBRANCH   1  26
BRANCH   2  28
HETATM   28  C4  UNL     1      39.579 -26.646  39.196  1.00  0.00     0.179 C 
BRANCH  28  29
HETATM   29  O1  UNL     1      38.888 -27.471  38.335  1.00  0.00    -0.369 OA
ATOM     30  H1  UNL     1      39.210 -27.632  37.456  1.00  0.00     0.216 HD
ENDBRANCH  28  29
ENDBRANCH   2  28
TORSDOF 7
ENDMDL
MODEL 2
REMARK VINA RESULT: -6.523307391      7.424     10.546
REMARK  7 active torsions:
REMARK  status: ('A' for Active; 'I' for Inactive)
REMARK    1  A    between atoms: C2_2  and  N1_3 
REMARK    2  A    between atoms: C3_4  and  C4_5 
REMARK    3  A    between atoms: C4_5  and  O1_6 
REMARK    4  A    between atoms: C7_12  and  N3_13 
REMARK    5  A    between atoms: N3_13  and  N4_15 
REMARK    6  A    between atoms: N4_15  and  N5_16 
REMARK       I    between atoms: N6_19  and  C8_20 
REMARK       I    between atoms: C8_20  and  N8_24 
REMARK    7  A    between atoms: N8_24  and  N9_26 
ROOT
HETATM    1  N1  UNL     1      35.009 -27.093  35.398  1.00  0.00    -0.327 N 
HETATM    2  C3  UNL     1      35.456 -27.159  36.689  1.00  0.00     0.130 A 
HETATM    3  N2  UNL     1      36.660 -27.745  36.720  1.00  0.00    -0.339 N 
ATOM      4  H2  UNL     1      37.221 -27.920  37.554  1.00  0.00     0.167 HD
HETATM    5  C5  UNL     1      36.994 -28.055  35.477  1.00  0.00     0.066 A 
HETATM    6  C6  UNL     1      35.957 -27.647  34.635  1.00  0.00     0.110 A 
HETATM    7  C7  UNL     1      36.037 -27.847  33.331  1.00  0.00     0.170 A 
HETATM    8  N6  UNL     1      37.222 -28.492  32.817  1.00  0.00    -0.139 N 
HETATM    9  C8  UNL     1      37.281 -28.691  31.418  1.00  0.00     0.698 C 
HETATM   10  N7  UNL     1      37.892 -27.882  30.643  1.00  0.00    -0.233 N 
ATOM     11  H71 UNL     1      37.934 -28.026  29.634  1.00  0.00     0.174 HD
ATOM     12  H72 UNL     1      38.354 -27.066  31.044  1.00  0.00     0.174 HD
HETATM   13  N8  UNL     1      36.642 -29.818  30.864  1.00  0.00    -0.138 N 
ATOM     14  H8  UNL     1      35.631 -29.919  30.954  1.00  0.00     0.205 HD
HETATM   15  C9  UNL     1      38.286 -28.910  33.670  1.00  0.00     0.119 A 
HETATM   16  C10 UNL     1      38.197 -28.711  34.949  1.00  0.00     0.050 A 
ENDROOT
BRANCH   7  17
HETATM   17  N3  UNL     1      35.037 -27.476  32.414  1.00  0.00    -0.267 N 
ATOM     18  H3  UNL     1      35.070 -26.527  32.040  1.00  0.00     0.186 HD
BRANCH  17  19
HETATM   19  N4  UNL     1      33.998 -28.311  31.975  1.00  0.00    -0.028 NA
BRANCH  19  20
HETATM   20  N5  UNL     1      33.554 -27.991  30.711  1.00  0.00    -0.329 N 
ATOM     21  H52 UNL     1      32.644 -28.284  30.355  1.00  0.00     0.174 HD
ATOM     22  H51 UNL     1      34.228 -27.438  30.183  1.00  0.00     0.174 HD
ENDBRANCH  19  20
ENDBRANCH  17  19
ENDBRANCH   7  17
BRANCH  13  23
HETATM   23  N9  UNL     1      37.379 -30.799  30.193  1.00  0.00    -0.331 N 
ATOM     24  H92 UNL     1      37.465 -30.737  29.178  1.00  0.00     0.177 HD
ATOM     25  H91 UNL     1      37.822 -31.561  30.706  1.00  0.00     0.177 HD
ENDBRANCH  13  23
BRANCH   1  26
HETATM   26  C2  UNL     1      33.752 -26.535  34.986  1.00  0.00     0.126 C 
HETATM   27  C1  UNL     1      33.846 -25.042  34.700  1.00  0.00     0.027 C 
ENDBRANCH   1  26
BRANCH   2  28
HETATM   28  C4  UNL     1      34.824 -26.716  37.756  1.00  0.00     0.179 C 
BRANCH  28  29
HETATM   29  O1  UNL     1      33.780 -27.433  38.302  1.00  0.00    -0.369 OA
ATOM     30  H1  UNL     1      33.092 -26.992  38.786  1.00  0.00     0.216 HD
ENDBRANCH  28  29
ENDBRANCH   2  28
TORSDOF 7
ENDMDL
MODEL 3
REMARK VINA RESULT: -6.321191913      8.096     10.272
REMARK  7 active torsions:
REMARK  status: ('A' for Active; 'I' for Inactive)
REMARK    1  A    between atoms: C2_2  and  N1_3 
REMARK    2  A    between atoms: C3_4  and  C4_5 
REMARK    3  A    between atoms: C4_5  and  O1_6 
REMARK    4  A    between atoms: C7_12  and  N3_13 
REMARK    5  A    between atoms: N3_13  and  N4_15 
REMARK    6  A    between atoms: N4_15  and  N5_16 
REMARK       I    between atoms: N6_19  and  C8_20 
REMARK       I    between atoms: C8_20  and  N8_24 
REMARK    7  A    between atoms: N8_24  and  N9_26 
ROOT
HETATM    1  N1  UNL     1      35.502 -28.656  32.507  1.00  0.00    -0.327 N 
HETATM    2  C3  UNL     1      35.604 -28.674  31.144  1.00  0.00     0.130 A 
HETATM    3  N2  UNL     1      36.875 -28.904  30.789  1.00  0.00    -0.339 N 
ATOM      4  H2  UNL     1      37.230 -28.968  29.835  1.00  0.00     0.167 HD
HETATM    5  C5  UNL     1      37.589 -29.034  31.896  1.00  0.00     0.066 A 
HETATM    6  C6  UNL     1      36.730 -28.879  32.987  1.00  0.00     0.110 A 
HETATM    7  C7  UNL     1      37.197 -28.958  34.220  1.00  0.00     0.170 A 
HETATM    8  N6  UNL     1      38.607 -29.211  34.396  1.00  0.00    -0.139 N 
HETATM    9  C8  UNL     1      39.077 -29.292  35.728  1.00  0.00     0.698 C 
HETATM   10  N7  UNL     1      39.229 -30.409  36.326  1.00  0.00    -0.233 N 
ATOM     11  H71 UNL     1      39.567 -30.467  37.287  1.00  0.00     0.174 HD
ATOM     12  H72 UNL     1      39.006 -31.271  35.830  1.00  0.00     0.174 HD
HETATM   13  N8  UNL     1      39.385 -28.101  36.414  1.00  0.00    -0.138 N 
ATOM     14  H8  UNL     1      38.649 -27.417  36.591  1.00  0.00     0.205 HD
HETATM   15  C9  UNL     1      39.490 -29.371  33.288  1.00  0.00     0.119 A 
HETATM   16  C10 UNL     1      39.023 -29.290  32.080  1.00  0.00     0.050 A 
ENDROOT
BRANCH   7  17
HETATM   17  N3  UNL     1      36.405 -28.807  35.373  1.00  0.00    -0.267 N 
ATOM     18  H3  UNL     1      35.873 -29.618  35.689  1.00  0.00     0.186 HD
BRANCH  17  19
HETATM   19  N4  UNL     1      36.290 -27.625  36.121  1.00  0.00    -0.028 NA
BRANCH  19  20
HETATM   20  N5  UNL     1      35.167 -27.604  36.918  1.00  0.00    -0.329 N 
ATOM     21  H52 UNL     1      34.740 -28.452  37.292  1.00  0.00     0.174 HD
ATOM     22  H51 UNL     1      34.819 -26.660  37.087  1.00  0.00     0.174 HD
ENDBRANCH  19  20
ENDBRANCH  17  19
ENDBRANCH   7  17
BRANCH  13  23
HETATM   23  N9  UNL     1      40.688 -27.846  36.855  1.00  0.00    -0.331 N 
ATOM     24  H92 UNL     1      41.294 -28.637  37.073  1.00  0.00     0.177 HD
ATOM     25  H91 UNL     1      41.026 -26.889  36.955  1.00  0.00     0.177 HD
ENDBRANCH  13  23
BRANCH   1  26
HETATM   26  C2  UNL     1      34.290 -28.429  33.243  1.00  0.00     0.126 C 
HETATM   27  C1  UNL     1      33.996 -26.947  33.431  1.00  0.00     0.027 C 
ENDBRANCH   1  26
BRANCH   2  28
HETATM   28  C4  UNL     1      34.619 -28.502  30.286  1.00  0.00     0.179 C 
BRANCH  28  29
HETATM   29  O1  UNL     1      33.994 -29.586  29.707  1.00  0.00    -0.369 OA
ATOM     30  H1  UNL     1      33.263 -29.463  29.114  1.00  0.00     0.216 HD
ENDBRANCH  28  29
ENDBRANCH   2  28
TORSDOF 7
ENDMDL
MODEL 4
REMARK VINA RESULT: -6.300361021      7.106     10.095
REMARK  7 active torsions:
REMARK  status: ('A' for Active; 'I' for Inactive)
REMARK    1  A    between atoms: C2_2  and  N1_3 
REMARK    2  A    between atoms: C3_4  and  C4_5 
REMARK    3  A    between atoms: C4_5  and  O1_6 
REMARK    4  A    between atoms: C7_12  and  N3_13 
REMARK    5  A    between atoms: N3_13  and  N4_15 
REMARK    6  A    between atoms: N4_15  and  N5_16 
REMARK       I    between atoms: N6_19  and  C8_20 
REMARK       I    between atoms: C8_20  and  N8_24 
REMARK    7  A    between atoms: N8_24  and  N9_26 
ROOT
HETATM    1  N1  UNL     1      35.351 -26.787  35.272  1.00  0.00    -0.327 N 
HETATM    2  C3  UNL     1      35.619 -26.990  36.597  1.00  0.00     0.130 A 
HETATM    3  N2  UNL     1      36.704 -27.764  36.725  1.00  0.00    -0.339 N 
ATOM      4  H2  UNL     1      37.123 -28.070  37.604  1.00  0.00     0.167 HD
HETATM    5  C5  UNL     1      37.137 -28.062  35.510  1.00  0.00     0.066 A 
HETATM    6  C6  UNL     1      36.289 -27.448  34.585  1.00  0.00     0.110 A 
HETATM    7  C7  UNL     1      36.498 -27.593  33.289  1.00  0.00     0.170 A 
HETATM    8  N6  UNL     1      37.623 -28.395  32.870  1.00  0.00    -0.139 N 
HETATM    9  C8  UNL     1      37.823 -28.530  31.476  1.00  0.00     0.698 C 
HETATM   10  N7  UNL     1      38.644 -27.794  30.835  1.00  0.00    -0.233 N 
ATOM     11  H71 UNL     1      38.788 -27.891  29.829  1.00  0.00     0.174 HD
ATOM     12  H72 UNL     1      39.174 -27.085  31.341  1.00  0.00     0.174 HD
HETATM   13  N8  UNL     1      37.091 -29.509  30.776  1.00  0.00    -0.138 N 
ATOM     14  H8  UNL     1      36.073 -29.449  30.743  1.00  0.00     0.205 HD
HETATM   15  C9  UNL     1      38.495 -29.023  33.808  1.00  0.00     0.119 A 
HETATM   16  C10 UNL     1      38.280 -28.877  35.079  1.00  0.00     0.050 A 
ENDROOT
BRANCH   7  17
HETATM   17  N3  UNL     1      35.690 -27.018  32.292  1.00  0.00    -0.267 N 
ATOM     18  H3  UNL     1      34.791 -27.462  32.099  1.00  0.00     0.186 HD
BRANCH  17  19
HETATM   19  N4  UNL     1      36.025 -25.881  31.541  1.00  0.00    -0.028 NA
BRANCH  19  20
HETATM   20  N5  UNL     1      36.926 -25.062  32.185  1.00  0.00    -0.329 N 
ATOM     21  H52 UNL     1      36.699 -24.110  32.474  1.00  0.00     0.174 HD
ATOM     22  H51 UNL     1      37.830 -25.511  32.337  1.00  0.00     0.174 HD
ENDBRANCH  19  20
ENDBRANCH  17  19
ENDBRANCH   7  17
BRANCH  13  23
HETATM   23  N9  UNL     1      37.744 -30.562  30.126  1.00  0.00    -0.331 N 
ATOM     24  H92 UNL     1      38.687 -30.811  30.425  1.00  0.00     0.177 HD
ATOM     25  H91 UNL     1      37.287 -31.071  29.370  1.00  0.00     0.177 HD
ENDBRANCH  13  23
BRANCH   1  26
HETATM   26  C2  UNL     1      34.257 -26.012  34.759  1.00  0.00     0.126 C 
HETATM   27  C1  UNL     1      34.555 -24.519  34.755  1.00  0.00     0.027 C 
ENDBRANCH   1  26
BRANCH   2  28
HETATM   28  C4  UNL     1      34.936 -26.505  37.614  1.00  0.00     0.179 C 
BRANCH  28  29
HETATM   29  O1  UNL     1      33.946 -27.252  38.216  1.00  0.00    -0.369 OA
ATOM     30  H1  UNL     1      33.039 -26.973  38.180  1.00  0.00     0.216 HD
ENDBRANCH  28  29
ENDBRANCH   2  28
TORSDOF 7
ENDMDL
MODEL 5
REMARK VINA RESULT: -6.260603495      8.305     11.056
REMARK  7 active torsions:
REMARK  status: ('A' for Active; 'I' for Inactive)
REMARK    1  A    between atoms: C2_2  and  N1_3 
REMARK    2  A    between atoms: C3_4  and  C4_5 
REMARK    3  A    between atoms: C4_5  and  O1_6 
REMARK    4  A    between atoms: C7_12  and  N3_13 
REMARK    5  A    between atoms: N3_13  and  N4_15 
REMARK    6  A    between atoms: N4_15  and  N5_16 
REMARK       I    between atoms: N6_19  and  C8_20 
REMARK       I    between atoms: C8_20  and  N8_24 
REMARK    7  A    between atoms: N8_24  and  N9_26 
ROOT
HETATM    1  N1  UNL     1      33.875 -26.061  33.856  1.00  0.00    -0.327 N 
HETATM    2  C3  UNL     1      33.624 -26.130  35.199  1.00  0.00     0.130 A 
HETATM    3  N2  UNL     1      34.454 -27.014  35.768  1.00  0.00    -0.339 N 
ATOM      4  H2  UNL     1      34.482 -27.260  36.758  1.00  0.00     0.167 HD
HETATM    5  C5  UNL     1      35.231 -27.513  34.819  1.00  0.00     0.066 A 
HETATM    6  C6  UNL     1      34.872 -26.916  33.607  1.00  0.00     0.110 A 
HETATM    7  C7  UNL     1      35.496 -27.246  32.491  1.00  0.00     0.170 A 
HETATM    8  N6  UNL     1      36.550 -28.230  32.568  1.00  0.00    -0.139 N 
HETATM    9  C8  UNL     1      37.200 -28.561  31.357  1.00  0.00     0.698 C 
HETATM   10  N7  UNL     1      38.302 -28.020  31.010  1.00  0.00    -0.233 N 
ATOM     11  H71 UNL     1      38.772 -28.259  30.135  1.00  0.00     0.174 HD
ATOM     12  H72 UNL     1      38.730 -27.327  31.624  1.00  0.00     0.174 HD
HETATM   13  N8  UNL     1      36.611 -29.518  30.508  1.00  0.00    -0.138 N 
ATOM     14  H8  UNL     1      35.694 -29.334  30.101  1.00  0.00     0.205 HD
HETATM   15  C9  UNL     1      36.922 -28.842  33.801  1.00  0.00     0.119 A 
HETATM   16  C10 UNL     1      36.302 -28.513  34.892  1.00  0.00     0.050 A 
ENDROOT
BRANCH   7  17
HETATM   17  N3  UNL     1      35.194 -26.701  31.229  1.00  0.00    -0.267 N 
ATOM     18  H3  UNL     1      35.552 -25.768  31.021  1.00  0.00     0.186 HD
BRANCH  17  19
HETATM   19  N4  UNL     1      34.438 -27.343  30.236  1.00  0.00    -0.028 NA
BRANCH  19  20
HETATM   20  N5  UNL     1      33.370 -28.045  30.748  1.00  0.00    -0.329 N 
ATOM     21  H52 UNL     1      33.481 -28.912  31.276  1.00  0.00     0.174 HD
ATOM     22  H51 UNL     1      32.472 -27.607  30.543  1.00  0.00     0.174 HD
ENDBRANCH  19  20
ENDBRANCH  17  19
ENDBRANCH   7  17
BRANCH  13  23
HETATM   23  N9  UNL     1      37.269 -30.718  30.217  1.00  0.00    -0.331 N 
ATOM     24  H92 UNL     1      36.773 -31.596  30.369  1.00  0.00     0.177 HD
ATOM     25  H91 UNL     1      38.224 -30.715  29.859  1.00  0.00     0.177 HD
ENDBRANCH  13  23
BRANCH   1  26
HETATM   26  C2  UNL     1      33.172 -25.223  32.926  1.00  0.00     0.126 C 
HETATM   27  C1  UNL     1      33.802 -23.842  32.799  1.00  0.00     0.027 C 
ENDBRANCH   1  26
BRANCH   2  28
HETATM   28  C4  UNL     1      32.717 -25.440  35.859  1.00  0.00     0.179 C 
BRANCH  28  29
HETATM   29  O1  UNL     1      32.116 -25.965  36.982  1.00  0.00    -0.369 OA
ATOM     30  H1  UNL     1      32.502 -26.702  37.439  1.00  0.00     0.216 HD
ENDBRANCH  28  29
ENDBRANCH   2  28
TORSDOF 7
ENDMDL
