MODEL 1
REMARK VINA RESULT: -7.985652893      0.000      0.000
REMARK  6 active torsions:
REMARK  status: ('A' for Active; 'I' for Inactive)
REMARK    1  A    between atoms: O1_1  and  C1_3 
REMARK    2  A    between atoms: C4_6  and  O2_7 
REMARK    3  A    between atoms: N1_9  and  C5_10 
REMARK    4  A    between atoms: C5_10  and  C6_11 
REMARK    5  A    between atoms: C6_11  and  C7_12 
REMARK    6  A    between atoms: C7_12  and  N2_13 
ROOT
HETATM    1  C1  UNL     1      -4.816   2.415  12.038  1.00  0.00     0.151 A 
HETATM    2  C2  UNL     1      -4.938   2.816  13.348  1.00  0.00     0.008 A 
HETATM    3  C3  UNL     1      -4.718   1.739  14.188  1.00  0.00     0.012 A 
HETATM    4  C4  UNL     1      -4.464   0.690  13.363  1.00  0.00     0.151 A 
HETATM    5  N1  UNL     1      -4.523   1.099  12.061  1.00  0.00    -0.308 N 
HETATM    6  C12 UNL     1      -4.789   1.922  15.632  1.00  0.00     0.053 C 
HETATM    7  C13 UNL     1      -5.325   0.715  16.396  1.00  0.00     0.019 C 
HETATM    8  C14 UNL     1      -6.689   1.182  16.720  1.00  0.00    -0.005 A 
HETATM    9  C15 UNL     1      -7.291   1.833  17.804  1.00  0.00     0.014 A 
HETATM   10  C16 UNL     1      -6.189   2.554  17.338  1.00  0.00     0.019 A 
HETATM   11  C17 UNL     1      -5.741   3.039  16.027  1.00  0.00    -0.070 C 
HETATM   12  C18 UNL     1      -5.933   4.047  15.219  1.00  0.00    -0.018 C 
HETATM   13  C19 UNL     1      -5.249   4.158  13.905  1.00  0.00     0.071 C 
ENDROOT
BRANCH   5  14
HETATM   14  C5  UNL     1      -4.309   0.238  10.918  1.00  0.00     0.135 C 
BRANCH  14  15
HETATM   15  C6  UNL     1      -2.998   0.447  10.243  1.00  0.00     0.050 C 
BRANCH  15  16
HETATM   16  C7  UNL     1      -1.880   0.734  11.192  1.00  0.00     0.274 C 
BRANCH  16  17
HETATM   17  N2  UNL     1      -1.140   1.925  10.864  1.00  0.00     0.092 N 
HETATM   18  C8  UNL     1      -1.134   2.258   9.476  1.00  0.00     0.298 C 
HETATM   19  C9  UNL     1      -1.213   3.785   9.362  1.00  0.00     0.198 C 
HETATM   20  O3  UNL     1      -0.196   4.350  10.123  1.00  0.00    -0.388 OA
HETATM   21  C10 UNL     1      -0.309   4.081  11.466  1.00  0.00     0.198 C 
HETATM   22  C11 UNL     1      -1.358   3.017  11.752  1.00  0.00     0.298 C 
ENDBRANCH  16  17
ENDBRANCH  15  16
ENDBRANCH  14  15
ENDBRANCH   5  14
BRANCH   1  23
HETATM   23  O1  UNL     1      -4.976   3.248  10.929  1.00  0.00    -0.345 OA
ATOM     24  H1  UNL     1      -5.491   3.037  10.159  1.00  0.00     0.219 HD
ENDBRANCH   1  23
BRANCH   4  25
HETATM   25  O2  UNL     1      -4.179  -0.621  13.727  1.00  0.00    -0.345 OA
ATOM     26  H2  UNL     1      -4.658  -1.405  13.483  1.00  0.00     0.219 HD
ENDBRANCH   4  25
TORSDOF 6
ENDMDL
MODEL 2
REMARK VINA RESULT: -7.905170930      1.899      6.423
REMARK  6 active torsions:
REMARK  status: ('A' for Active; 'I' for Inactive)
REMARK    1  A    between atoms: O1_1  and  C1_3 
REMARK    2  A    between atoms: C4_6  and  O2_7 
REMARK    3  A    between atoms: N1_9  and  C5_10 
REMARK    4  A    between atoms: C5_10  and  C6_11 
REMARK    5  A    between atoms: C6_11  and  C7_12 
REMARK    6  A    between atoms: C7_12  and  N2_13 
ROOT
HETATM    1  C1  UNL     1      -2.753   4.096  12.547  1.00  0.00     0.151 A 
HETATM    2  C2  UNL     1      -2.481   2.991  11.774  1.00  0.00     0.008 A 
HETATM    3  C3  UNL     1      -3.647   2.284  11.543  1.00  0.00     0.012 A 
HETATM    4  C4  UNL     1      -4.619   2.979  12.189  1.00  0.00     0.151 A 
HETATM    5  N1  UNL     1      -4.079   4.076  12.797  1.00  0.00    -0.308 N 
HETATM    6  C12 UNL     1      -3.610   1.069  10.738  1.00  0.00     0.053 C 
HETATM    7  C13 UNL     1      -4.607  -0.003  11.166  1.00  0.00     0.019 C 
HETATM    8  C14 UNL     1      -3.705  -0.960  11.843  1.00  0.00    -0.005 A 
HETATM    9  C15 UNL     1      -2.999  -2.108  11.463  1.00  0.00     0.014 A 
HETATM   10  C16 UNL     1      -2.692  -1.033  10.625  1.00  0.00     0.019 A 
HETATM   11  C17 UNL     1      -2.269   0.358  10.828  1.00  0.00    -0.070 C 
HETATM   12  C18 UNL     1      -1.180   1.046  11.045  1.00  0.00    -0.018 C 
HETATM   13  C19 UNL     1      -1.188   2.522  11.210  1.00  0.00     0.071 C 
ENDROOT
BRANCH   5  14
HETATM   14  C5  UNL     1      -4.828   5.036  13.578  1.00  0.00     0.135 C 
BRANCH  14  15
HETATM   15  C6  UNL     1      -4.962   4.671  15.015  1.00  0.00     0.050 C 
BRANCH  15  16
HETATM   16  C7  UNL     1      -6.343   4.240  15.394  1.00  0.00     0.274 C 
BRANCH  16  17
HETATM   17  N2  UNL     1      -6.431   2.852  15.762  1.00  0.00     0.092 N 
HETATM   18  C8  UNL     1      -5.219   2.115  15.600  1.00  0.00     0.298 C 
HETATM   19  C9  UNL     1      -5.116   1.124  16.766  1.00  0.00     0.198 C 
HETATM   20  O3  UNL     1      -6.280   0.366  16.822  1.00  0.00    -0.388 OA
HETATM   21  C10 UNL     1      -7.403   1.115  17.082  1.00  0.00     0.198 C 
HETATM   22  C11 UNL     1      -7.135   2.609  16.977  1.00  0.00     0.298 C 
ENDBRANCH  16  17
ENDBRANCH  15  16
ENDBRANCH  14  15
ENDBRANCH   5  14
BRANCH   1  23
HETATM   23  O1  UNL     1      -1.805   5.030  12.969  1.00  0.00    -0.345 OA
ATOM     24  H1  UNL     1      -1.145   5.424  12.412  1.00  0.00     0.219 HD
ENDBRANCH   1  23
BRANCH   4  25
HETATM   25  O2  UNL     1      -5.974   2.673  12.257  1.00  0.00    -0.345 OA
ATOM     26  H2  UNL     1      -6.677   3.232  12.567  1.00  0.00     0.219 HD
ENDBRANCH   4  25
TORSDOF 6
ENDMDL
MODEL 3
REMARK VINA RESULT: -7.677647950      2.002      7.326
REMARK  6 active torsions:
REMARK  status: ('A' for Active; 'I' for Inactive)
REMARK    1  A    between atoms: O1_1  and  C1_3 
REMARK    2  A    between atoms: C4_6  and  O2_7 
REMARK    3  A    between atoms: N1_9  and  C5_10 
REMARK    4  A    between atoms: C5_10  and  C6_11 
REMARK    5  A    between atoms: C6_11  and  C7_12 
REMARK    6  A    between atoms: C7_12  and  N2_13 
ROOT
HETATM    1  C1  UNL     1      -3.965   3.228  12.035  1.00  0.00     0.151 A 
HETATM    2  C2  UNL     1      -2.736   2.876  11.528  1.00  0.00     0.008 A 
HETATM    3  C3  UNL     1      -1.777   3.772  11.966  1.00  0.00     0.012 A 
HETATM    4  C4  UNL     1      -2.449   4.663  12.740  1.00  0.00     0.151 A 
HETATM    5  N1  UNL     1      -3.774   4.335  12.783  1.00  0.00    -0.308 N 
HETATM    6  C12 UNL     1      -0.387   3.600  11.560  1.00  0.00     0.053 C 
HETATM    7  C13 UNL     1       0.381   4.905  11.371  1.00  0.00     0.019 C 
HETATM    8  C14 UNL     1       0.428   4.983   9.896  1.00  0.00    -0.005 A 
HETATM    9  C15 UNL     1       1.332   4.586   8.902  1.00  0.00     0.014 A 
HETATM   10  C16 UNL     1       0.994   3.511   9.728  1.00  0.00     0.019 A 
HETATM   11  C17 UNL     1      -0.261   2.920  10.206  1.00  0.00    -0.070 C 
HETATM   12  C18 UNL     1      -1.178   2.076   9.814  1.00  0.00    -0.018 C 
HETATM   13  C19 UNL     1      -2.363   1.741  10.645  1.00  0.00     0.071 C 
ENDROOT
BRANCH   5  14
HETATM   14  C5  UNL     1      -4.782   5.073  13.512  1.00  0.00     0.135 C 
BRANCH  14  15
HETATM   15  C6  UNL     1      -4.964   4.618  14.917  1.00  0.00     0.050 C 
BRANCH  15  16
HETATM   16  C7  UNL     1      -6.362   4.191  15.228  1.00  0.00     0.274 C 
BRANCH  16  17
HETATM   17  N2  UNL     1      -6.470   2.804  15.600  1.00  0.00     0.092 N 
HETATM   18  C8  UNL     1      -5.342   2.004  15.245  1.00  0.00     0.298 C 
HETATM   19  C9  UNL     1      -5.114   0.993  16.375  1.00  0.00     0.198 C 
HETATM   20  O3  UNL     1      -6.296   0.300  16.610  1.00  0.00    -0.388 OA
HETATM   21  C10 UNL     1      -7.319   1.106  17.048  1.00  0.00     0.198 C 
HETATM   22  C11 UNL     1      -6.986   2.584  16.909  1.00  0.00     0.298 C 
ENDBRANCH  16  17
ENDBRANCH  15  16
ENDBRANCH  14  15
ENDBRANCH   5  14
BRANCH   1  23
HETATM   23  O1  UNL     1      -5.156   2.540  11.794  1.00  0.00    -0.345 OA
ATOM     24  H1  UNL     1      -6.018   2.938  11.765  1.00  0.00     0.219 HD
ENDBRANCH   1  23
BRANCH   4  25
HETATM   25  O2  UNL     1      -1.925   5.761  13.413  1.00  0.00    -0.345 OA
ATOM     26  H2  UNL     1      -2.407   6.464  13.834  1.00  0.00     0.219 HD
ENDBRANCH   4  25
TORSDOF 6
ENDMDL
MODEL 4
REMARK VINA RESULT: -7.397551359      1.936      3.378
REMARK  6 active torsions:
REMARK  status: ('A' for Active; 'I' for Inactive)
REMARK    1  A    between atoms: O1_1  and  C1_3 
REMARK    2  A    between atoms: C4_6  and  O2_7 
REMARK    3  A    between atoms: N1_9  and  C5_10 
REMARK    4  A    between atoms: C5_10  and  C6_11 
REMARK    5  A    between atoms: C6_11  and  C7_12 
REMARK    6  A    between atoms: C7_12  and  N2_13 
ROOT
HETATM    1  C1  UNL     1      -5.105   5.407  13.136  1.00  0.00     0.151 A 
HETATM    2  C2  UNL     1      -5.408   4.854  14.359  1.00  0.00     0.008 A 
HETATM    3  C3  UNL     1      -4.384   4.013  14.757  1.00  0.00     0.012 A 
HETATM    4  C4  UNL     1      -3.467   4.069  13.756  1.00  0.00     0.151 A 
HETATM    5  N1  UNL     1      -3.903   4.913  12.775  1.00  0.00    -0.308 N 
HETATM    6  C12 UNL     1      -4.478   3.312  16.032  1.00  0.00     0.053 C 
HETATM    7  C13 UNL     1      -3.839   1.927  16.039  1.00  0.00     0.019 C 
HETATM    8  C14 UNL     1      -5.043   1.071  15.991  1.00  0.00    -0.005 A 
HETATM    9  C15 UNL     1      -5.857   0.437  16.938  1.00  0.00     0.014 A 
HETATM   10  C16 UNL     1      -5.744   1.803  17.211  1.00  0.00     0.019 A 
HETATM   11  C17 UNL     1      -5.917   3.037  16.435  1.00  0.00    -0.070 C 
HETATM   12  C18 UNL     1      -6.868   3.846  16.050  1.00  0.00    -0.018 C 
HETATM   13  C19 UNL     1      -6.604   5.049  15.219  1.00  0.00     0.071 C 
ENDROOT
BRANCH   5  14
HETATM   14  C5  UNL     1      -3.176   5.204  11.558  1.00  0.00     0.135 C 
BRANCH  14  15
HETATM   15  C6  UNL     1      -3.495   4.285  10.431  1.00  0.00     0.050 C 
BRANCH  15  16
HETATM   16  C7  UNL     1      -2.570   3.115  10.338  1.00  0.00     0.274 C 
BRANCH  16  17
HETATM   17  N2  UNL     1      -3.122   1.900  10.878  1.00  0.00     0.092 N 
HETATM   18  C8  UNL     1      -4.549   1.872  10.939  1.00  0.00     0.298 C 
HETATM   19  C9  UNL     1      -5.001   0.447  10.598  1.00  0.00     0.198 C 
HETATM   20  O3  UNL     1      -4.344  -0.451  11.432  1.00  0.00    -0.388 OA
HETATM   21  C10 UNL     1      -2.980  -0.453  11.258  1.00  0.00     0.198 C 
HETATM   22  C11 UNL     1      -2.509   0.709  10.397  1.00  0.00     0.298 C 
ENDBRANCH  16  17
ENDBRANCH  15  16
ENDBRANCH  14  15
ENDBRANCH   5  14
BRANCH   1  23
HETATM   23  O1  UNL     1      -5.919   6.303  12.441  1.00  0.00    -0.345 OA
ATOM     24  H1  UNL     1      -5.609   7.074  11.981  1.00  0.00     0.219 HD
ENDBRANCH   1  23
BRANCH   4  25
HETATM   25  O2  UNL     1      -2.253   3.396  13.685  1.00  0.00    -0.345 OA
ATOM     26  H2  UNL     1      -1.463   3.677  13.237  1.00  0.00     0.219 HD
ENDBRANCH   4  25
TORSDOF 6
ENDMDL
MODEL 5
REMARK VINA RESULT: -7.360204298      0.899      1.039
REMARK  6 active torsions:
REMARK  status: ('A' for Active; 'I' for Inactive)
REMARK    1  A    between atoms: O1_1  and  C1_3 
REMARK    2  A    between atoms: C4_6  and  O2_7 
REMARK    3  A    between atoms: N1_9  and  C5_10 
REMARK    4  A    between atoms: C5_10  and  C6_11 
REMARK    5  A    between atoms: C6_11  and  C7_12 
REMARK    6  A    between atoms: C7_12  and  N2_13 
ROOT
HETATM    1  C1  UNL     1      -4.701   2.999  12.222  1.00  0.00     0.151 A 
HETATM    2  C2  UNL     1      -4.995   3.267  13.539  1.00  0.00     0.008 A 
HETATM    3  C3  UNL     1      -4.666   2.175  14.322  1.00  0.00     0.012 A 
HETATM    4  C4  UNL     1      -4.172   1.252  13.457  1.00  0.00     0.151 A 
HETATM    5  N1  UNL     1      -4.193   1.750  12.185  1.00  0.00    -0.308 N 
HETATM    6  C12 UNL     1      -4.884   2.226  15.763  1.00  0.00     0.053 C 
HETATM    7  C13 UNL     1      -5.270   0.890  16.390  1.00  0.00     0.019 C 
HETATM    8  C14 UNL     1      -6.715   1.102  16.616  1.00  0.00    -0.005 A 
HETATM    9  C15 UNL     1      -7.505   1.556  17.679  1.00  0.00     0.014 A 
HETATM   10  C16 UNL     1      -6.506   2.482  17.368  1.00  0.00     0.019 A 
HETATM   11  C17 UNL     1      -6.040   3.138  16.140  1.00  0.00    -0.070 C 
HETATM   12  C18 UNL     1      -6.332   4.164  15.387  1.00  0.00    -0.018 C 
HETATM   13  C19 UNL     1      -5.572   4.491  14.153  1.00  0.00     0.071 C 
ENDROOT
BRANCH   5  14
HETATM   14  C5  UNL     1      -3.744   1.031  11.013  1.00  0.00     0.135 C 
BRANCH  14  15
HETATM   15  C6  UNL     1      -2.266   1.030  10.835  1.00  0.00     0.050 C 
BRANCH  15  16
HETATM   16  C7  UNL     1      -1.769   2.148   9.977  1.00  0.00     0.274 C 
BRANCH  16  17
HETATM   17  N2  UNL     1      -0.851   3.028  10.653  1.00  0.00     0.092 N 
HETATM   18  C8  UNL     1       0.373   3.258   9.955  1.00  0.00     0.298 C 
HETATM   19  C9  UNL     1       0.765   4.725  10.173  1.00  0.00     0.198 C 
HETATM   20  O3  UNL     1       0.788   4.991  11.538  1.00  0.00    -0.388 OA
HETATM   21  C10 UNL     1      -0.441   4.852  12.137  1.00  0.00     0.198 C 
HETATM   22  C11 UNL     1      -1.456   4.185  11.221  1.00  0.00     0.298 C 
ENDBRANCH  16  17
ENDBRANCH  15  16
ENDBRANCH  14  15
ENDBRANCH   5  14
BRANCH   1  23
HETATM   23  O1  UNL     1      -4.907   3.883  11.161  1.00  0.00    -0.345 OA
ATOM     24  H1  UNL     1      -4.333   3.975  10.411  1.00  0.00     0.219 HD
ENDBRANCH   1  23
BRANCH   4  25
HETATM   25  O2  UNL     1      -3.701  -0.021  13.758  1.00  0.00    -0.345 OA
ATOM     26  H2  UNL     1      -4.128  -0.684  14.288  1.00  0.00     0.219 HD
ENDBRANCH   4  25
TORSDOF 6
ENDMDL
