MODEL 1
REMARK VINA RESULT: -5.531033917      0.000      0.000
REMARK  2 active torsions:
REMARK  status: ('A' for Active; 'I' for Inactive)
REMARK    1  A    between atoms: N3_4  and  N4_6 
REMARK    2  A    between atoms: C2_8  and  C3_9 
ROOT
HETATM    1  C3  UNL     1     -39.755 -29.852  -5.364  1.00  0.00     0.090 A 
HETATM    2  C4  UNL     1     -38.924 -30.766  -5.978  1.00  0.00     0.137 A 
HETATM    3  N5  UNL     1     -39.493 -31.967  -6.468  1.00  0.00    -0.081 NA
HETATM    4  N6  UNL     1     -37.626 -30.467  -6.076  1.00  0.00    -0.296 N 
ATOM      5  H6  UNL     1     -36.988 -31.124  -6.525  1.00  0.00     0.171 HD
HETATM    6  C5  UNL     1     -37.151 -29.306  -5.588  1.00  0.00     0.328 A 
HETATM    7  O1  UNL     1     -35.904 -29.051  -5.698  1.00  0.00    -0.247 OA
HETATM    8  N7  UNL     1     -37.930 -28.390  -4.982  1.00  0.00    -0.275 N 
ATOM      9  H7  UNL     1     -37.542 -27.518  -4.620  1.00  0.00     0.173 HD
HETATM   10  C6  UNL     1     -39.241 -28.674  -4.874  1.00  0.00     0.264 A 
HETATM   11  O2  UNL     1     -39.994 -27.835  -4.313  1.00  0.00    -0.267 OA
ENDROOT
BRANCH   1  12
HETATM   12  C2  UNL     1     -41.178 -30.136  -5.236  1.00  0.00     0.127 C 
HETATM   13  N4  UNL     1     -41.769 -30.191  -4.110  1.00  0.00    -0.309 N 
ATOM     14  H4  UNL     1     -41.228 -30.031  -3.260  1.00  0.00     0.186 HD
BRANCH  13  15
HETATM   15  N3  UNL     1     -43.133 -30.464  -3.999  1.00  0.00    -0.276 N 
HETATM   16  C1  UNL     1     -43.984 -29.637  -3.510  1.00  0.00     0.215 C 
HETATM   17  N1  UNL     1     -43.617 -28.351  -3.030  1.00  0.00    -0.065 NA
HETATM   18  N2  UNL     1     -45.350 -30.056  -3.461  1.00  0.00    -0.065 NA
ATOM     19  H3  UNL     1     -43.472 -31.369  -4.324  1.00  0.00     0.189 HD
ENDBRANCH  13  15
ENDBRANCH   1  12
TORSDOF 2
ENDMDL
MODEL 2
REMARK VINA RESULT: -5.442037367      2.263      2.908
REMARK  2 active torsions:
REMARK  status: ('A' for Active; 'I' for Inactive)
REMARK    1  A    between atoms: N3_4  and  N4_6 
REMARK    2  A    between atoms: C2_8  and  C3_9 
ROOT
HETATM    1  C3  UNL     1     -39.684 -29.965  -5.405  1.00  0.00     0.090 A 
HETATM    2  C4  UNL     1     -39.276 -28.774  -4.841  1.00  0.00     0.137 A 
HETATM    3  N5  UNL     1     -40.248 -27.968  -4.199  1.00  0.00    -0.081 NA
HETATM    4  N6  UNL     1     -37.985 -28.446  -4.935  1.00  0.00    -0.296 N 
ATOM      5  H6  UNL     1     -37.655 -27.570  -4.528  1.00  0.00     0.171 HD
HETATM    6  C5  UNL     1     -37.114 -29.259  -5.560  1.00  0.00     0.328 A 
HETATM    7  O1  UNL     1     -35.885 -28.915  -5.631  1.00  0.00    -0.247 OA
HETATM    8  N7  UNL     1     -37.474 -30.429  -6.121  1.00  0.00    -0.275 N 
ATOM      9  H7  UNL     1     -36.792 -31.025  -6.591  1.00  0.00     0.173 HD
HETATM   10  C6  UNL     1     -38.772 -30.776  -6.038  1.00  0.00     0.264 A 
HETATM   11  O2  UNL     1     -39.136 -31.865  -6.553  1.00  0.00    -0.267 OA
ENDROOT
BRANCH   1  12
HETATM   12  C2  UNL     1     -41.083 -30.364  -5.326  1.00  0.00     0.127 C 
HETATM   13  N4  UNL     1     -41.819 -30.496  -6.357  1.00  0.00    -0.309 N 
ATOM     14  H4  UNL     1     -41.417 -30.316  -7.277  1.00  0.00     0.186 HD
BRANCH  13  15
HETATM   15  N3  UNL     1     -43.158 -30.879  -6.270  1.00  0.00    -0.276 N 
HETATM   16  C1  UNL     1     -44.088 -30.375  -6.997  1.00  0.00     0.215 C 
HETATM   17  N1  UNL     1     -43.843 -29.371  -7.971  1.00  0.00    -0.065 NA
HETATM   18  N2  UNL     1     -45.415 -30.868  -6.795  1.00  0.00    -0.065 NA
ATOM     19  H3  UNL     1     -43.412 -31.597  -5.592  1.00  0.00     0.189 HD
ENDBRANCH  13  15
ENDBRANCH   1  12
TORSDOF 2
ENDMDL
MODEL 3
REMARK VINA RESULT: -5.431647786      1.708      1.832
REMARK  2 active torsions:
REMARK  status: ('A' for Active; 'I' for Inactive)
REMARK    1  A    between atoms: N3_4  and  N4_6 
REMARK    2  A    between atoms: C2_8  and  C3_9 
ROOT
HETATM    1  C3  UNL     1     -39.987 -29.931  -5.252  1.00  0.00     0.090 A 
HETATM    2  C4  UNL     1     -39.146 -30.799  -5.919  1.00  0.00     0.137 A 
HETATM    3  N5  UNL     1     -39.691 -32.005  -6.422  1.00  0.00    -0.081 NA
HETATM    4  N6  UNL     1     -37.863 -30.452  -6.049  1.00  0.00    -0.296 N 
ATOM      5  H6  UNL     1     -37.219 -31.075  -6.537  1.00  0.00     0.171 HD
HETATM    6  C5  UNL     1     -37.412 -29.289  -5.546  1.00  0.00     0.328 A 
HETATM    7  O1  UNL     1     -36.178 -28.988  -5.689  1.00  0.00    -0.247 OA
HETATM    8  N7  UNL     1     -38.200 -28.416  -4.890  1.00  0.00    -0.275 N 
ATOM      9  H7  UNL     1     -37.831 -27.542  -4.517  1.00  0.00     0.173 HD
HETATM   10  C6  UNL     1     -39.497 -28.749  -4.748  1.00  0.00     0.264 A 
HETATM   11  O2  UNL     1     -40.258 -27.951  -4.140  1.00  0.00    -0.267 OA
ENDROOT
BRANCH   1  12
HETATM   12  C2  UNL     1     -41.394 -30.267  -5.086  1.00  0.00     0.127 C 
HETATM   13  N4  UNL     1     -42.202 -30.348  -6.067  1.00  0.00    -0.309 N 
ATOM     14  H4  UNL     1     -41.854 -30.169  -7.009  1.00  0.00     0.186 HD
BRANCH  13  15
HETATM   15  N3  UNL     1     -43.549 -30.671  -5.896  1.00  0.00    -0.276 N 
HETATM   16  C1  UNL     1     -44.492 -30.186  -6.618  1.00  0.00     0.215 C 
HETATM   17  N1  UNL     1     -44.255 -29.263  -7.672  1.00  0.00    -0.065 NA
HETATM   18  N2  UNL     1     -45.825 -30.611  -6.325  1.00  0.00    -0.065 NA
ATOM     19  H3  UNL     1     -43.797 -31.330  -5.158  1.00  0.00     0.189 HD
ENDBRANCH  13  15
ENDBRANCH   1  12
TORSDOF 2
ENDMDL
MODEL 4
REMARK VINA RESULT: -5.415854830      1.745      1.745
REMARK  2 active torsions:
REMARK  status: ('A' for Active; 'I' for Inactive)
REMARK    1  A    between atoms: N3_4  and  N4_6 
REMARK    2  A    between atoms: C2_8  and  C3_9 
ROOT
HETATM    1  C3  UNL     1     -39.286 -30.124  -4.264  1.00  0.00     0.090 A 
HETATM    2  C4  UNL     1     -38.324 -31.062  -4.580  1.00  0.00     0.137 A 
HETATM    3  N5  UNL     1     -38.597 -32.423  -4.298  1.00  0.00    -0.081 NA
HETATM    4  N6  UNL     1     -37.188 -30.633  -5.134  1.00  0.00    -0.296 N 
ATOM      5  H6  UNL     1     -36.459 -31.305  -5.378  1.00  0.00     0.171 HD
HETATM    6  C5  UNL     1     -36.994 -29.324  -5.376  1.00  0.00     0.328 A 
HETATM    7  O1  UNL     1     -35.895 -28.947  -5.907  1.00  0.00    -0.247 OA
HETATM    8  N7  UNL     1     -37.907 -28.379  -5.082  1.00  0.00    -0.275 N 
ATOM      9  H7  UNL     1     -37.732 -27.392  -5.275  1.00  0.00     0.173 HD
HETATM   10  C6  UNL     1     -39.059 -28.792  -4.522  1.00  0.00     0.264 A 
HETATM   11  O2  UNL     1     -39.932 -27.931  -4.238  1.00  0.00    -0.267 OA
ENDROOT
BRANCH   1  12
HETATM   12  C2  UNL     1     -40.541 -30.547  -3.659  1.00  0.00     0.127 C 
HETATM   13  N4  UNL     1     -40.750 -30.499  -2.404  1.00  0.00    -0.309 N 
ATOM     14  H4  UNL     1     -40.010 -30.152  -1.794  1.00  0.00     0.186 HD
BRANCH  13  15
HETATM   15  N3  UNL     1     -41.957 -30.906  -1.835  1.00  0.00    -0.276 N 
HETATM   16  C1  UNL     1     -42.778 -30.103  -1.263  1.00  0.00     0.215 C 
HETATM   17  N1  UNL     1     -42.536 -28.707  -1.153  1.00  0.00    -0.065 NA
HETATM   18  N2  UNL     1     -43.977 -30.666  -0.725  1.00  0.00    -0.065 NA
ATOM     19  H3  UNL     1     -42.200 -31.896  -1.876  1.00  0.00     0.189 HD
ENDBRANCH  13  15
ENDBRANCH   1  12
TORSDOF 2
ENDMDL
MODEL 5
REMARK VINA RESULT: -5.378505196      1.345      2.109
REMARK  2 active torsions:
REMARK  status: ('A' for Active; 'I' for Inactive)
REMARK    1  A    between atoms: N3_4  and  N4_6 
REMARK    2  A    between atoms: C2_8  and  C3_9 
ROOT
HETATM    1  C3  UNL     1     -39.711 -29.927  -5.419  1.00  0.00     0.090 A 
HETATM    2  C4  UNL     1     -39.196 -28.731  -4.961  1.00  0.00     0.137 A 
HETATM    3  N5  UNL     1     -40.083 -27.807  -4.356  1.00  0.00    -0.081 NA
HETATM    4  N6  UNL     1     -37.888 -28.511  -5.117  1.00  0.00    -0.296 N 
ATOM      5  H6  UNL     1     -37.480 -27.636  -4.789  1.00  0.00     0.171 HD
HETATM    6  C5  UNL     1     -37.102 -29.434  -5.702  1.00  0.00     0.328 A 
HETATM    7  O1  UNL     1     -35.855 -29.192  -5.834  1.00  0.00    -0.247 OA
HETATM    8  N7  UNL     1     -37.567 -30.611  -6.160  1.00  0.00    -0.275 N 
ATOM      9  H7  UNL     1     -36.948 -31.292  -6.601  1.00  0.00     0.173 HD
HETATM   10  C6  UNL     1     -38.884 -30.851  -6.013  1.00  0.00     0.264 A 
HETATM   11  O2  UNL     1     -39.346 -31.944  -6.432  1.00  0.00    -0.267 OA
ENDROOT
BRANCH   1  12
HETATM   12  C2  UNL     1     -41.132 -30.209  -5.270  1.00  0.00     0.127 C 
HETATM   13  N4  UNL     1     -41.714 -30.228  -4.138  1.00  0.00    -0.309 N 
ATOM     14  H4  UNL     1     -41.167 -30.038  -3.298  1.00  0.00     0.186 HD
BRANCH  13  15
HETATM   15  N3  UNL     1     -43.077 -30.499  -4.007  1.00  0.00    -0.276 N 
HETATM   16  C1  UNL     1     -43.920 -29.670  -3.510  1.00  0.00     0.215 C 
HETATM   17  N1  UNL     1     -43.547 -28.382  -3.042  1.00  0.00    -0.065 NA
HETATM   18  N2  UNL     1     -45.286 -30.088  -3.440  1.00  0.00    -0.065 NA
ATOM     19  H3  UNL     1     -43.421 -31.406  -4.323  1.00  0.00     0.189 HD
ENDBRANCH  13  15
ENDBRANCH   1  12
TORSDOF 2
ENDMDL
