MODEL 1
REMARK VINA RESULT: -5.204605150      0.000      0.000
REMARK  4 active torsions:
REMARK  status: ('A' for Active; 'I' for Inactive)
REMARK    1  A    between atoms: N1_1  and  C1_4 
REMARK    2  A    between atoms: C2_7  and  N3_8 
REMARK    3  A    between atoms: N4_11  and  N5_12 
REMARK    4  A    between atoms: N5_12  and  N6_14 
ROOT
HETATM    1  C1  UNL     1     -38.497 -28.791  -4.870  1.00  0.00     0.694 A 
HETATM    2  N2  UNL     1     -38.884 -29.733  -5.730  1.00  0.00    -0.021 N 
ATOM      3  H2  UNL     1     -38.260 -30.010  -6.488  1.00  0.00     0.203 HD
HETATM    4  C2  UNL     1     -40.079 -30.318  -5.613  1.00  0.00     0.717 A 
HETATM    5  N4  UNL     1     -40.890 -29.954  -4.624  1.00  0.00    -0.020 N 
HETATM    6  C7  UNL     1     -40.491 -29.009  -3.766  1.00  0.00     0.375 A 
HETATM    7  O2  UNL     1     -41.242 -28.654  -2.827  1.00  0.00    -0.243 OA
HETATM    8  N7  UNL     1     -39.299 -28.398  -3.852  1.00  0.00    -0.139 N 
ATOM      9  H7  UNL     1     -39.014 -27.678  -3.188  1.00  0.00     0.189 HD
ENDROOT
BRANCH   5  10
HETATM   10  N5  UNL     1     -42.148 -30.509  -4.433  1.00  0.00    -0.237 N 
ATOM     11  H5  UNL     1     -42.271 -31.307  -3.810  1.00  0.00     0.203 HD
BRANCH  10  12
HETATM   12  N6  UNL     1     -43.241 -29.963  -5.102  1.00  0.00    -0.208 NA
HETATM   13  C3  UNL     1     -43.740 -30.738  -6.187  1.00  0.00     0.123 C 
HETATM   14  C4  UNL     1     -45.204 -31.009  -5.976  1.00  0.00     0.096 C 
HETATM   15  C5  UNL     1     -45.579 -30.201  -4.813  1.00  0.00     0.142 C 
HETATM   16  O1  UNL     1     -46.700 -29.976  -4.396  1.00  0.00    -0.297 OA
HETATM   17  C6  UNL     1     -44.341 -29.686  -4.207  1.00  0.00     0.193 C 
ENDBRANCH  10  12
ENDBRANCH   5  10
BRANCH   4  18
HETATM   18  N3  UNL     1     -40.420 -31.214  -6.458  1.00  0.00    -0.232 N 
ATOM     19  H32 UNL     1     -40.361 -31.046  -7.463  1.00  0.00     0.174 HD
ATOM     20  H31 UNL     1     -40.755 -32.116  -6.119  1.00  0.00     0.174 HD
ENDBRANCH   4  18
BRANCH   1  21
HETATM   21  N1  UNL     1     -37.327 -28.219  -4.997  1.00  0.00    -0.234 N 
ATOM     22  H12 UNL     1     -36.969 -28.050  -5.937  1.00  0.00     0.174 HD
ATOM     23  H11 UNL     1     -36.788 -27.956  -4.171  1.00  0.00     0.174 HD
ENDBRANCH   1  21
TORSDOF 4
ENDMDL
MODEL 2
REMARK VINA RESULT: -5.162233935      2.649      3.171
REMARK  4 active torsions:
REMARK  status: ('A' for Active; 'I' for Inactive)
REMARK    1  A    between atoms: N1_1  and  C1_4 
REMARK    2  A    between atoms: C2_7  and  N3_8 
REMARK    3  A    between atoms: N4_11  and  N5_12 
REMARK    4  A    between atoms: N5_12  and  N6_14 
ROOT
HETATM    1  C1  UNL     1     -37.327 -29.400  -5.169  1.00  0.00     0.694 A 
HETATM    2  N2  UNL     1     -37.701 -30.656  -4.922  1.00  0.00    -0.021 N 
ATOM      3  H2  UNL     1     -37.037 -31.417  -5.069  1.00  0.00     0.203 HD
HETATM    4  C2  UNL     1     -38.932 -30.932  -4.485  1.00  0.00     0.717 A 
HETATM    5  N4  UNL     1     -39.795 -29.938  -4.294  1.00  0.00    -0.020 N 
HETATM    6  C7  UNL     1     -39.409 -28.682  -4.544  1.00  0.00     0.375 A 
HETATM    7  O2  UNL     1     -40.210 -27.731  -4.368  1.00  0.00    -0.243 OA
HETATM    8  N7  UNL     1     -38.182 -28.366  -4.984  1.00  0.00    -0.139 N 
ATOM      9  H7  UNL     1     -37.908 -27.401  -5.170  1.00  0.00     0.189 HD
ENDROOT
BRANCH   5  10
HETATM   10  N5  UNL     1     -41.094 -30.137  -3.846  1.00  0.00    -0.237 N 
ATOM     11  H5  UNL     1     -41.887 -29.924  -4.451  1.00  0.00     0.203 HD
BRANCH  10  12
HETATM   12  N6  UNL     1     -41.301 -30.631  -2.560  1.00  0.00    -0.208 NA
HETATM   13  C3  UNL     1     -40.955 -29.742  -1.503  1.00  0.00     0.123 C 
HETATM   14  C4  UNL     1     -42.143 -29.550  -0.601  1.00  0.00     0.096 C 
HETATM   15  C5  UNL     1     -43.142 -30.512  -1.075  1.00  0.00     0.142 C 
HETATM   16  O1  UNL     1     -44.185 -30.826  -0.533  1.00  0.00    -0.297 OA
HETATM   17  C6  UNL     1     -42.666 -31.057  -2.357  1.00  0.00     0.193 C 
ENDBRANCH  10  12
ENDBRANCH   5  10
BRANCH   4  18
HETATM   18  N3  UNL     1     -39.258 -32.147  -4.263  1.00  0.00    -0.232 N 
ATOM     19  H32 UNL     1     -38.639 -32.778  -3.753  1.00  0.00     0.174 HD
ATOM     20  H31 UNL     1     -40.157 -32.491  -4.602  1.00  0.00     0.174 HD
ENDBRANCH   4  18
BRANCH   1  21
HETATM   21  N1  UNL     1     -36.121 -29.141  -5.602  1.00  0.00    -0.234 N 
ATOM     22  H12 UNL     1     -35.374 -29.801  -5.383  1.00  0.00     0.174 HD
ATOM     23  H11 UNL     1     -35.936 -28.296  -6.142  1.00  0.00     0.174 HD
ENDBRANCH   1  21
TORSDOF 4
ENDMDL
MODEL 3
REMARK VINA RESULT: -5.064838595      2.167      5.605
REMARK  4 active torsions:
REMARK  status: ('A' for Active; 'I' for Inactive)
REMARK    1  A    between atoms: N1_1  and  C1_4 
REMARK    2  A    between atoms: C2_7  and  N3_8 
REMARK    3  A    between atoms: N4_11  and  N5_12 
REMARK    4  A    between atoms: N5_12  and  N6_14 
ROOT
HETATM    1  C1  UNL     1     -44.100 -29.857  -3.968  1.00  0.00     0.694 A 
HETATM    2  N2  UNL     1     -43.615 -30.640  -4.932  1.00  0.00    -0.021 N 
ATOM      3  H2  UNL     1     -44.255 -31.081  -5.593  1.00  0.00     0.203 HD
HETATM    4  C2  UNL     1     -42.301 -30.854  -5.045  1.00  0.00     0.717 A 
HETATM    5  N4  UNL     1     -41.469 -30.276  -4.182  1.00  0.00    -0.020 N 
HETATM    6  C7  UNL     1     -41.967 -29.492  -3.220  1.00  0.00     0.375 A 
HETATM    7  O2  UNL     1     -41.198 -28.939  -2.398  1.00  0.00    -0.243 OA
HETATM    8  N7  UNL     1     -43.280 -29.254  -3.074  1.00  0.00    -0.139 N 
ATOM      9  H7  UNL     1     -43.640 -28.654  -2.332  1.00  0.00     0.189 HD
ENDROOT
BRANCH   5  10
HETATM   10  N5  UNL     1     -40.092 -30.448  -4.226  1.00  0.00    -0.237 N 
ATOM     11  H5  UNL     1     -39.615 -30.976  -3.496  1.00  0.00     0.203 HD
BRANCH  10  12
HETATM   12  N6  UNL     1     -39.370 -29.891  -5.279  1.00  0.00    -0.208 NA
HETATM   13  C3  UNL     1     -38.762 -28.634  -5.002  1.00  0.00     0.123 C 
HETATM   14  C4  UNL     1     -37.287 -28.720  -5.282  1.00  0.00     0.096 C 
HETATM   15  C5  UNL     1     -37.093 -30.029  -5.910  1.00  0.00     0.142 C 
HETATM   16  O1  UNL     1     -36.090 -30.447  -6.459  1.00  0.00    -0.297 OA
HETATM   17  C6  UNL     1     -38.347 -30.786  -5.767  1.00  0.00     0.193 C 
ENDBRANCH  10  12
ENDBRANCH   5  10
BRANCH   4  18
HETATM   18  N3  UNL     1     -41.870 -31.613  -5.977  1.00  0.00    -0.232 N 
ATOM     19  H32 UNL     1     -40.902 -31.934  -5.997  1.00  0.00     0.174 HD
ATOM     20  H31 UNL     1     -42.511 -31.906  -6.716  1.00  0.00     0.174 HD
ENDBRANCH   4  18
BRANCH   1  21
HETATM   21  N1  UNL     1     -45.389 -29.659  -3.863  1.00  0.00    -0.234 N 
ATOM     22  H12 UNL     1     -45.721 -28.711  -3.682  1.00  0.00     0.174 HD
ATOM     23  H11 UNL     1     -46.040 -30.438  -3.956  1.00  0.00     0.174 HD
ENDBRANCH   1  21
TORSDOF 4
ENDMDL
MODEL 4
REMARK VINA RESULT: -5.061906675      1.754      2.419
REMARK  4 active torsions:
REMARK  status: ('A' for Active; 'I' for Inactive)
REMARK    1  A    between atoms: N1_1  and  C1_4 
REMARK    2  A    between atoms: C2_7  and  N3_8 
REMARK    3  A    between atoms: N4_11  and  N5_12 
REMARK    4  A    between atoms: N5_12  and  N6_14 
ROOT
HETATM    1  C1  UNL     1     -36.960 -29.487  -5.374  1.00  0.00     0.694 A 
HETATM    2  N2  UNL     1     -37.776 -28.478  -5.066  1.00  0.00    -0.021 N 
ATOM      3  H2  UNL     1     -37.460 -27.517  -5.197  1.00  0.00     0.203 HD
HETATM    4  C2  UNL     1     -39.000 -28.709  -4.586  1.00  0.00     0.717 A 
HETATM    5  N4  UNL     1     -39.410 -29.964  -4.416  1.00  0.00    -0.020 N 
HETATM    6  C7  UNL     1     -38.584 -30.968  -4.730  1.00  0.00     0.375 A 
HETATM    7  O2  UNL     1     -38.953 -32.157  -4.577  1.00  0.00    -0.243 OA
HETATM    8  N7  UNL     1     -37.346 -30.775  -5.213  1.00  0.00    -0.139 N 
ATOM      9  H7  UNL     1     -36.731 -31.555  -5.445  1.00  0.00     0.189 HD
ENDROOT
BRANCH   5  10
HETATM   10  N5  UNL     1     -40.664 -30.291  -3.921  1.00  0.00    -0.237 N 
ATOM     11  H5  UNL     1     -40.755 -30.905  -3.111  1.00  0.00     0.203 HD
BRANCH  10  12
HETATM   12  N6  UNL     1     -41.798 -29.772  -4.542  1.00  0.00    -0.208 NA
HETATM   13  C3  UNL     1     -42.395 -30.616  -5.521  1.00  0.00     0.123 C 
HETATM   14  C4  UNL     1     -43.842 -30.836  -5.175  1.00  0.00     0.096 C 
HETATM   15  C5  UNL     1     -44.109 -29.933  -4.053  1.00  0.00     0.142 C 
HETATM   16  O1  UNL     1     -45.189 -29.651  -3.568  1.00  0.00    -0.297 OA
HETATM   17  C6  UNL     1     -42.817 -29.402  -3.588  1.00  0.00     0.193 C 
ENDBRANCH  10  12
ENDBRANCH   5  10
BRANCH   4  18
HETATM   18  N3  UNL     1     -39.754 -27.719  -4.296  1.00  0.00    -0.232 N 
ATOM     19  H32 UNL     1     -39.941 -26.978  -4.973  1.00  0.00     0.174 HD
ATOM     20  H31 UNL     1     -40.179 -27.671  -3.370  1.00  0.00     0.174 HD
ENDBRANCH   4  18
BRANCH   1  21
HETATM   21  N1  UNL     1     -35.760 -29.250  -5.837  1.00  0.00    -0.234 N 
ATOM     22  H12 UNL     1     -34.997 -29.860  -5.543  1.00  0.00     0.174 HD
ATOM     23  H11 UNL     1     -35.597 -28.470  -6.474  1.00  0.00     0.174 HD
ENDBRANCH   1  21
TORSDOF 4
ENDMDL
MODEL 5
REMARK VINA RESULT: -5.023474089      1.375      1.490
REMARK  4 active torsions:
REMARK  status: ('A' for Active; 'I' for Inactive)
REMARK    1  A    between atoms: N1_1  and  C1_4 
REMARK    2  A    between atoms: C2_7  and  N3_8 
REMARK    3  A    between atoms: N4_11  and  N5_12 
REMARK    4  A    between atoms: N5_12  and  N6_14 
ROOT
HETATM    1  C1  UNL     1     -37.417 -29.400  -5.230  1.00  0.00     0.694 A 
HETATM    2  N2  UNL     1     -37.807 -30.659  -5.028  1.00  0.00    -0.021 N 
ATOM      3  H2  UNL     1     -37.171 -31.425  -5.249  1.00  0.00     0.203 HD
HETATM    4  C2  UNL     1     -39.021 -30.930  -4.542  1.00  0.00     0.717 A 
HETATM    5  N4  UNL     1     -39.849 -29.929  -4.255  1.00  0.00    -0.020 N 
HETATM    6  C7  UNL     1     -39.446 -28.670  -4.461  1.00  0.00     0.375 A 
HETATM    7  O2  UNL     1     -40.212 -27.713  -4.195  1.00  0.00    -0.243 OA
HETATM    8  N7  UNL     1     -38.235 -28.358  -4.949  1.00  0.00    -0.139 N 
ATOM      9  H7  UNL     1     -37.948 -27.391  -5.099  1.00  0.00     0.189 HD
ENDROOT
BRANCH   5  10
HETATM   10  N5  UNL     1     -41.127 -30.122  -3.750  1.00  0.00    -0.237 N 
ATOM     11  H5  UNL     1     -41.259 -30.490  -2.807  1.00  0.00     0.203 HD
BRANCH  10  12
HETATM   12  N6  UNL     1     -42.227 -29.810  -4.544  1.00  0.00    -0.208 NA
HETATM   13  C3  UNL     1     -42.685 -30.859  -5.391  1.00  0.00     0.123 C 
HETATM   14  C4  UNL     1     -44.142 -31.117  -5.124  1.00  0.00     0.096 C 
HETATM   15  C5  UNL     1     -44.560 -30.046  -4.216  1.00  0.00     0.142 C 
HETATM   16  O1  UNL     1     -45.694 -29.760  -3.879  1.00  0.00    -0.297 OA
HETATM   17  C6  UNL     1     -43.348 -29.347  -3.760  1.00  0.00     0.193 C 
ENDBRANCH  10  12
ENDBRANCH   5  10
BRANCH   4  18
HETATM   18  N3  UNL     1     -39.365 -32.148  -4.365  1.00  0.00    -0.232 N 
ATOM     19  H32 UNL     1     -38.928 -32.904  -4.893  1.00  0.00     0.174 HD
ATOM     20  H31 UNL     1     -40.088 -32.366  -3.680  1.00  0.00     0.174 HD
ENDBRANCH   4  18
BRANCH   1  21
HETATM   21  N1  UNL     1     -36.228 -29.145  -5.713  1.00  0.00    -0.234 N 
ATOM     22  H12 UNL     1     -35.636 -28.479  -5.217  1.00  0.00     0.174 HD
ATOM     23  H11 UNL     1     -35.909 -29.601  -6.568  1.00  0.00     0.174 HD
ENDBRANCH   1  21
TORSDOF 4
ENDMDL
