MODEL 1
REMARK VINA RESULT: -7.683985315      0.000      0.000
REMARK  5 active torsions:
REMARK  status: ('A' for Active; 'I' for Inactive)
REMARK    1  A    between atoms: C3_3  and  N1_5 
REMARK    2  A    between atoms: N1_5  and  C5_7 
REMARK    3  A    between atoms: C10_12  and  C11_13 
REMARK    4  A    between atoms: C12_14  and  C14_16 
REMARK    5  A    between atoms: C20_24  and  O3_25 
ROOT
HETATM    1  C5  UNL     1      -2.176   3.849  11.209  1.00  0.00     0.110 C 
HETATM    2  C6  UNL     1      -3.246   2.876  11.630  1.00  0.00     0.028 C 
HETATM    3  C7  UNL     1      -3.351   2.715  13.132  1.00  0.00     0.012 C 
HETATM    4  C8  UNL     1      -3.730   4.006  13.840  1.00  0.00    -0.033 C 
HETATM    5  C9  UNL     1      -2.567   4.631  14.538  1.00  0.00     0.016 C 
HETATM    6  C10 UNL     1      -4.794   3.756  14.930  1.00  0.00     0.017 C 
HETATM    7  C15 UNL     1      -5.996   4.523  14.544  1.00  0.00     0.010 C 
HETATM    8  C16 UNL     1      -5.308   5.709  13.805  1.00  0.00     0.006 C 
HETATM    9  C17 UNL     1      -4.474   4.814  12.872  1.00  0.00     0.001 C 
HETATM   10  C18 UNL     1      -3.889   5.623  11.846  1.00  0.00     0.017 C 
HETATM   11  C19 UNL     1      -3.839   7.136  12.127  1.00  0.00     0.013 C 
HETATM   12  C20 UNL     1      -2.561   5.277  11.258  1.00  0.00     0.144 C 
ENDROOT
BRANCH   1  13
HETATM   13  N1  UNL     1      -1.649   3.419   9.932  1.00  0.00    -0.387 N 
ATOM     14  H1  UNL     1      -2.203   2.739   9.410  1.00  0.00     0.159 HD
BRANCH  13  15
HETATM   15  C3  UNL     1      -0.445   3.849   9.340  1.00  0.00    -0.003 C 
HETATM   16  C2  UNL     1      -0.514   4.550   8.228  1.00  0.00    -0.007 C 
HETATM   17  C1  UNL     1      -1.817   4.877   7.620  1.00  0.00     0.038 C 
HETATM   18  C4  UNL     1       0.896   3.553   9.900  1.00  0.00     0.067 C 
ENDBRANCH  13  15
ENDBRANCH   1  13
BRANCH  12  19
HETATM   19  O3  UNL     1      -1.510   5.991  11.892  1.00  0.00    -0.393 OA
ATOM     20  H3  UNL     1      -1.227   6.680  11.301  1.00  0.00     0.210 HD
ENDBRANCH  12  19
BRANCH   6  21
HETATM   21  C11 UNL     1      -4.912   2.370  15.305  1.00  0.00    -0.008 C 
HETATM   22  C12 UNL     1      -5.656   1.778  16.212  1.00  0.00     0.011 C 
HETATM   23  C13 UNL     1      -6.612   2.425  17.128  1.00  0.00     0.055 C 
BRANCH  22  24
HETATM   24  C14 UNL     1      -5.530   0.329  16.330  1.00  0.00     0.204 C 
HETATM   25  O1  UNL     1      -5.992  -0.256  17.322  1.00  0.00    -0.644 OA
HETATM   26  O2  UNL     1      -4.900  -0.388  15.341  1.00  0.00    -0.644 OA
ENDBRANCH  22  24
ENDBRANCH   6  21
TORSDOF 5
ENDMDL
MODEL 2
REMARK VINA RESULT: -7.138677840      3.215      5.827
REMARK  5 active torsions:
REMARK  status: ('A' for Active; 'I' for Inactive)
REMARK    1  A    between atoms: C3_3  and  N1_5 
REMARK    2  A    between atoms: N1_5  and  C5_7 
REMARK    3  A    between atoms: C10_12  and  C11_13 
REMARK    4  A    between atoms: C12_14  and  C14_16 
REMARK    5  A    between atoms: C20_24  and  O3_25 
ROOT
HETATM    1  C5  UNL     1      -3.436   3.040  12.633  1.00  0.00     0.110 C 
HETATM    2  C6  UNL     1      -3.652   3.597  11.250  1.00  0.00     0.028 C 
HETATM    3  C7  UNL     1      -4.722   4.667  11.196  1.00  0.00     0.012 C 
HETATM    4  C8  UNL     1      -4.379   5.888  12.033  1.00  0.00    -0.033 C 
HETATM    5  C9  UNL     1      -5.161   5.942  13.304  1.00  0.00     0.016 C 
HETATM    6  C10 UNL     1      -4.706   7.195  11.279  1.00  0.00     0.017 C 
HETATM    7  C15 UNL     1      -3.432   7.920  11.099  1.00  0.00     0.010 C 
HETATM    8  C16 UNL     1      -2.690   7.443  12.383  1.00  0.00     0.006 C 
HETATM    9  C17 UNL     1      -2.918   5.945  12.116  1.00  0.00     0.001 C 
HETATM   10  C18 UNL     1      -2.109   5.180  13.014  1.00  0.00     0.017 C 
HETATM   11  C19 UNL     1      -1.582   5.931  14.252  1.00  0.00     0.013 C 
HETATM   12  C20 UNL     1      -2.563   3.848  13.513  1.00  0.00     0.144 C 
ENDROOT
BRANCH   1  13
HETATM   13  N1  UNL     1      -3.035   1.656  12.507  1.00  0.00    -0.387 N 
ATOM     14  H1  UNL     1      -3.191   1.055  13.316  1.00  0.00     0.159 HD
BRANCH  13  15
HETATM   15  C3  UNL     1      -2.450   1.058  11.372  1.00  0.00    -0.003 C 
HETATM   16  C2  UNL     1      -3.141   0.142  10.726  1.00  0.00    -0.007 C 
HETATM   17  C1  UNL     1      -4.490  -0.246  11.178  1.00  0.00     0.038 C 
HETATM   18  C4  UNL     1      -1.099   1.403  10.867  1.00  0.00     0.067 C 
ENDBRANCH  13  15
ENDBRANCH   1  13
BRANCH  12  19
HETATM   19  O3  UNL     1      -3.200   3.955  14.778  1.00  0.00    -0.393 OA
ATOM     20  H3  UNL     1      -4.117   3.734  14.662  1.00  0.00     0.210 HD
ENDBRANCH  12  19
BRANCH   6  21
HETATM   21  C11 UNL     1      -5.591   7.001  10.158  1.00  0.00    -0.008 C 
HETATM   22  C12 UNL     1      -6.829   7.389   9.956  1.00  0.00     0.011 C 
HETATM   23  C13 UNL     1      -7.674   8.165  10.881  1.00  0.00     0.055 C 
BRANCH  22  24
HETATM   24  C14 UNL     1      -7.439   7.018   8.683  1.00  0.00     0.204 C 
HETATM   25  O1  UNL     1      -6.815   6.308   7.879  1.00  0.00    -0.644 OA
HETATM   26  O2  UNL     1      -8.706   7.455   8.375  1.00  0.00    -0.644 OA
ENDBRANCH  22  24
ENDBRANCH   6  21
TORSDOF 5
ENDMDL
MODEL 3
REMARK VINA RESULT: -7.122334916      3.055      6.395
REMARK  5 active torsions:
REMARK  status: ('A' for Active; 'I' for Inactive)
REMARK    1  A    between atoms: C3_3  and  N1_5 
REMARK    2  A    between atoms: N1_5  and  C5_7 
REMARK    3  A    between atoms: C10_12  and  C11_13 
REMARK    4  A    between atoms: C12_14  and  C14_16 
REMARK    5  A    between atoms: C20_24  and  O3_25 
ROOT
HETATM    1  C5  UNL     1      -4.903   2.784  15.032  1.00  0.00     0.110 C 
HETATM    2  C6  UNL     1      -3.807   1.775  14.809  1.00  0.00     0.028 C 
HETATM    3  C7  UNL     1      -3.865   1.119  13.445  1.00  0.00     0.012 C 
HETATM    4  C8  UNL     1      -3.690   2.108  12.305  1.00  0.00    -0.033 C 
HETATM    5  C9  UNL     1      -4.978   2.408  11.611  1.00  0.00     0.016 C 
HETATM    6  C10 UNL     1      -2.743   1.552  11.220  1.00  0.00     0.017 C 
HETATM    7  C15 UNL     1      -1.577   2.457  11.158  1.00  0.00     0.010 C 
HETATM    8  C16 UNL     1      -2.277   3.791  11.553  1.00  0.00     0.006 C 
HETATM    9  C17 UNL     1      -2.913   3.230  12.837  1.00  0.00     0.001 C 
HETATM   10  C18 UNL     1      -3.442   4.311  13.610  1.00  0.00     0.017 C 
HETATM   11  C19 UNL     1      -3.660   5.636  12.855  1.00  0.00     0.013 C 
HETATM   12  C20 UNL     1      -4.655   4.126  14.460  1.00  0.00     0.144 C 
ENDROOT
BRANCH   1  13
HETATM   13  N1  UNL     1      -5.235   2.789  16.439  1.00  0.00    -0.387 N 
ATOM     14  H1  UNL     1      -4.456   2.829  17.097  1.00  0.00     0.159 HD
BRANCH  13  15
HETATM   15  C3  UNL     1      -6.532   2.744  16.990  1.00  0.00    -0.003 C 
HETATM   16  C2  UNL     1      -6.989   1.584  17.412  1.00  0.00    -0.007 C 
HETATM   17  C1  UNL     1      -6.165   0.365  17.312  1.00  0.00     0.038 C 
HETATM   18  C4  UNL     1      -7.410   3.932  17.119  1.00  0.00     0.067 C 
ENDBRANCH  13  15
ENDBRANCH   1  13
BRANCH  12  19
HETATM   19  O3  UNL     1      -5.834   4.535  13.781  1.00  0.00    -0.393 OA
ATOM     20  H3  UNL     1      -5.877   5.483  13.817  1.00  0.00     0.210 HD
ENDBRANCH  12  19
BRANCH   6  21
HETATM   21  C11 UNL     1      -2.546   0.127  11.311  1.00  0.00    -0.008 C 
HETATM   22  C12 UNL     1      -3.355  -0.876  11.057  1.00  0.00     0.011 C 
HETATM   23  C13 UNL     1      -4.750  -0.790  10.589  1.00  0.00     0.055 C 
BRANCH  22  24
HETATM   24  C14 UNL     1      -2.824  -2.221  11.254  1.00  0.00     0.204 C 
HETATM   25  O1  UNL     1      -1.597  -2.403  11.308  1.00  0.00    -0.644 OA
HETATM   26  O2  UNL     1      -3.682  -3.287  11.382  1.00  0.00    -0.644 OA
ENDBRANCH  22  24
ENDBRANCH   6  21
TORSDOF 5
ENDMDL
MODEL 4
REMARK VINA RESULT: -7.091261886      2.597      3.944
REMARK  5 active torsions:
REMARK  status: ('A' for Active; 'I' for Inactive)
REMARK    1  A    between atoms: C3_3  and  N1_5 
REMARK    2  A    between atoms: N1_5  and  C5_7 
REMARK    3  A    between atoms: C10_12  and  C11_13 
REMARK    4  A    between atoms: C12_14  and  C14_16 
REMARK    5  A    between atoms: C20_24  and  O3_25 
ROOT
HETATM    1  C5  UNL     1      -2.013   6.670  13.276  1.00  0.00     0.110 C 
HETATM    2  C6  UNL     1      -1.736   5.241  13.662  1.00  0.00     0.028 C 
HETATM    3  C7  UNL     1      -2.966   4.504  14.150  1.00  0.00     0.012 C 
HETATM    4  C8  UNL     1      -4.049   4.393  13.090  1.00  0.00    -0.033 C 
HETATM    5  C9  UNL     1      -5.184   5.331  13.339  1.00  0.00     0.016 C 
HETATM    6  C10 UNL     1      -4.667   2.979  13.063  1.00  0.00     0.017 C 
HETATM    7  C15 UNL     1      -4.385   2.408  11.730  1.00  0.00     0.010 C 
HETATM    8  C16 UNL     1      -4.387   3.721  10.893  1.00  0.00     0.006 C 
HETATM    9  C17 UNL     1      -3.374   4.452  11.791  1.00  0.00     0.001 C 
HETATM   10  C18 UNL     1      -2.942   5.648  11.136  1.00  0.00     0.017 C 
HETATM   11  C19 UNL     1      -3.839   6.149   9.988  1.00  0.00     0.013 C 
HETATM   12  C20 UNL     1      -2.573   6.864  11.920  1.00  0.00     0.144 C 
ENDROOT
BRANCH   1  13
HETATM   13  N1  UNL     1      -0.826   7.450  13.546  1.00  0.00    -0.387 N 
ATOM     14  H1  UNL     1       0.054   7.096  13.171  1.00  0.00     0.159 HD
BRANCH  13  15
HETATM   15  C3  UNL     1      -0.768   8.654  14.277  1.00  0.00    -0.003 C 
HETATM   16  C2  UNL     1       0.257   9.455  14.076  1.00  0.00    -0.007 C 
HETATM   17  C1  UNL     1       1.315   9.102  13.112  1.00  0.00     0.038 C 
HETATM   18  C4  UNL     1      -1.798   9.067  15.261  1.00  0.00     0.067 C 
ENDBRANCH  13  15
ENDBRANCH   1  13
BRANCH  12  19
HETATM   19  O3  UNL     1      -3.665   7.767  12.024  1.00  0.00    -0.393 OA
ATOM     20  H3  UNL     1      -4.408   7.378  11.577  1.00  0.00     0.210 HD
ENDBRANCH  12  19
BRANCH   6  21
HETATM   21  C11 UNL     1      -4.386   2.211  14.251  1.00  0.00    -0.008 C 
HETATM   22  C12 UNL     1      -5.061   2.066  15.368  1.00  0.00     0.011 C 
HETATM   23  C13 UNL     1      -6.353   2.691  15.706  1.00  0.00     0.055 C 
BRANCH  22  24
HETATM   24  C14 UNL     1      -4.481   1.196  16.385  1.00  0.00     0.204 C 
HETATM   25  O1  UNL     1      -3.285   0.869  16.313  1.00  0.00    -0.644 OA
HETATM   26  O2  UNL     1      -5.257   0.738  17.422  1.00  0.00    -0.644 OA
ENDBRANCH  22  24
ENDBRANCH   6  21
TORSDOF 5
ENDMDL
MODEL 5
REMARK VINA RESULT: -7.087705539      3.242      6.090
REMARK  5 active torsions:
REMARK  status: ('A' for Active; 'I' for Inactive)
REMARK    1  A    between atoms: C3_3  and  N1_5 
REMARK    2  A    between atoms: N1_5  and  C5_7 
REMARK    3  A    between atoms: C10_12  and  C11_13 
REMARK    4  A    between atoms: C12_14  and  C14_16 
REMARK    5  A    between atoms: C20_24  and  O3_25 
ROOT
HETATM    1  C5  UNL     1      -3.424   3.104  12.501  1.00  0.00     0.110 C 
HETATM    2  C6  UNL     1      -3.666   3.680  11.130  1.00  0.00     0.028 C 
HETATM    3  C7  UNL     1      -4.733   4.753  11.111  1.00  0.00     0.012 C 
HETATM    4  C8  UNL     1      -4.371   5.962  11.958  1.00  0.00    -0.033 C 
HETATM    5  C9  UNL     1      -5.127   6.002  13.245  1.00  0.00     0.016 C 
HETATM    6  C10 UNL     1      -4.708   7.280  11.228  1.00  0.00     0.017 C 
HETATM    7  C15 UNL     1      -3.436   8.004  11.031  1.00  0.00     0.010 C 
HETATM    8  C16 UNL     1      -2.670   7.508  12.294  1.00  0.00     0.006 C 
HETATM    9  C17 UNL     1      -2.908   6.014  12.012  1.00  0.00     0.001 C 
HETATM   10  C18 UNL     1      -2.084   5.235  12.884  1.00  0.00     0.017 C 
HETATM   11  C19 UNL     1      -1.530   5.968  14.121  1.00  0.00     0.013 C 
HETATM   12  C20 UNL     1      -2.531   3.898  13.374  1.00  0.00     0.144 C 
ENDROOT
BRANCH   1  13
HETATM   13  N1  UNL     1      -3.030   1.721  12.348  1.00  0.00    -0.387 N 
ATOM     14  H1  UNL     1      -2.121   1.545  11.919  1.00  0.00     0.159 HD
BRANCH  13  15
HETATM   15  C3  UNL     1      -3.781   0.593  12.736  1.00  0.00    -0.003 C 
HETATM   16  C2  UNL     1      -3.993  -0.350  11.842  1.00  0.00    -0.007 C 
HETATM   17  C1  UNL     1      -3.459  -0.228  10.473  1.00  0.00     0.038 C 
HETATM   18  C4  UNL     1      -4.345   0.410  14.095  1.00  0.00     0.067 C 
ENDBRANCH  13  15
ENDBRANCH   1  13
BRANCH  12  19
HETATM   19  O3  UNL     1      -3.142   3.990  14.653  1.00  0.00    -0.393 OA
ATOM     20  H3  UNL     1      -2.551   3.601  15.287  1.00  0.00     0.210 HD
ENDBRANCH  12  19
BRANCH   6  21
HETATM   21  C11 UNL     1      -5.616   7.104  10.122  1.00  0.00    -0.008 C 
HETATM   22  C12 UNL     1      -6.879   7.434   9.978  1.00  0.00     0.011 C 
HETATM   23  C13 UNL     1      -7.735   8.107  10.972  1.00  0.00     0.055 C 
BRANCH  22  24
HETATM   24  C14 UNL     1      -7.508   7.105   8.703  1.00  0.00     0.204 C 
HETATM   25  O1  UNL     1      -6.925   6.364   7.895  1.00  0.00    -0.644 OA
HETATM   26  O2  UNL     1      -8.747   7.615   8.396  1.00  0.00    -0.644 OA
ENDBRANCH  22  24
ENDBRANCH   6  21
TORSDOF 5
ENDMDL
