MODEL 1
REMARK VINA RESULT: -7.959574660      0.000      0.000
REMARK  6 active torsions:
REMARK  status: ('A' for Active; 'I' for Inactive)
REMARK    1  A    between atoms: C6_6  and  O1_7 
REMARK    2  A    between atoms: C6_6  and  C7_9 
REMARK    3  A    between atoms: C7_9  and  N1_10 
REMARK    4  A    between atoms: C7_9  and  C8_14 
REMARK    5  A    between atoms: C8_14  and  C9_15 
REMARK    6  A    between atoms: C9_15  and  C10_16 
ROOT
HETATM    1  C1  UNL     1      -3.169  -0.161   9.985  1.00  0.00     0.011 C 
HETATM    2  C2  UNL     1      -3.799   1.072  10.666  1.00  0.00    -0.009 C 
HETATM    3  C3  UNL     1      -4.972   0.456  11.447  1.00  0.00     0.005 C 
HETATM    4  C4  UNL     1      -4.328   0.183  12.767  1.00  0.00     0.009 C 
HETATM    5  C5  UNL     1      -3.372   1.282  13.038  1.00  0.00     0.031 C 
HETATM    6  C6  UNL     1      -3.912   2.499  13.690  1.00  0.00     0.090 C 
HETATM    7  C11 UNL     1      -4.115   3.462  12.534  1.00  0.00     0.046 C 
HETATM    8  C12 UNL     1      -2.842   3.170  11.798  1.00  0.00     0.002 C 
HETATM    9  C13 UNL     1      -2.403   3.992  10.733  1.00  0.00    -0.005 C 
HETATM   10  C14 UNL     1      -3.269   4.647   9.735  1.00  0.00     0.005 C 
HETATM   11  C15 UNL     1      -2.191   5.156   8.757  1.00  0.00     0.001 C 
HETATM   12  C16 UNL     1      -0.962   4.258   8.987  1.00  0.00     0.005 C 
HETATM   13  C17 UNL     1      -1.576   3.140   9.745  1.00  0.00    -0.010 C 
HETATM   14  C18 UNL     1      -0.708   2.220  10.472  1.00  0.00     0.006 C 
HETATM   15  C19 UNL     1      -1.423   1.294  11.412  1.00  0.00     0.011 C 
HETATM   16  C20 UNL     1      -2.887   1.686  11.631  1.00  0.00    -0.026 C 
ENDROOT
BRANCH   6  17
HETATM   17  O1  UNL     1      -2.810   3.019  14.449  1.00  0.00    -0.387 OA
ATOM     18  H1  UNL     1      -3.121   3.026  15.346  1.00  0.00     0.210 HD
ENDBRANCH   6  17
BRANCH   6  19
HETATM   19  C7  UNL     1      -4.993   2.412  14.654  1.00  0.00     0.218 C 
BRANCH  19  20
HETATM   20  N1  UNL     1      -5.831   3.507  14.925  1.00  0.00    -0.072 N 
ATOM     21  H13 UNL     1      -6.477   3.231  15.666  1.00  0.00     0.274 HD
ATOM     22  H12 UNL     1      -5.271   4.222  15.388  1.00  0.00     0.274 HD
ATOM     23  H11 UNL     1      -6.374   3.962  14.191  1.00  0.00     0.274 HD
ENDBRANCH  19  20
BRANCH  19  24
HETATM   24  C8  UNL     1      -4.447   1.895  15.995  1.00  0.00     0.046 C 
BRANCH  24  25
HETATM   25  C9  UNL     1      -5.545   1.971  17.058  1.00  0.00     0.115 C 
BRANCH  25  26
HETATM   26  C10 UNL     1      -6.281   0.680  16.988  1.00  0.00     0.172 C 
HETATM   27  O2  UNL     1      -5.746  -0.437  17.014  1.00  0.00    -0.648 OA
HETATM   28  O3  UNL     1      -7.667   0.742  16.885  1.00  0.00    -0.648 OA
ENDBRANCH  25  26
ENDBRANCH  24  25
ENDBRANCH  19  24
ENDBRANCH   6  19
TORSDOF 6
ENDMDL
MODEL 2
REMARK VINA RESULT: -7.745028202      2.404      3.090
REMARK  6 active torsions:
REMARK  status: ('A' for Active; 'I' for Inactive)
REMARK    1  A    between atoms: C6_6  and  O1_7 
REMARK    2  A    between atoms: C6_6  and  C7_9 
REMARK    3  A    between atoms: C7_9  and  N1_10 
REMARK    4  A    between atoms: C7_9  and  C8_14 
REMARK    5  A    between atoms: C8_14  and  C9_15 
REMARK    6  A    between atoms: C9_15  and  C10_16 
ROOT
HETATM    1  C1  UNL     1      -2.666   4.467  10.077  1.00  0.00     0.011 C 
HETATM    2  C2  UNL     1      -3.341   4.702  11.445  1.00  0.00    -0.009 C 
HETATM    3  C3  UNL     1      -4.549   3.752  11.386  1.00  0.00     0.005 C 
HETATM    4  C4  UNL     1      -3.974   2.517  11.998  1.00  0.00     0.009 C 
HETATM    5  C5  UNL     1      -3.042   2.936  13.071  1.00  0.00     0.031 C 
HETATM    6  C6  UNL     1      -3.626   3.182  14.412  1.00  0.00     0.090 C 
HETATM    7  C11 UNL     1      -3.776   4.692  14.463  1.00  0.00     0.046 C 
HETATM    8  C12 UNL     1      -2.463   5.049  13.834  1.00  0.00     0.002 C 
HETATM    9  C13 UNL     1      -1.975   6.378  13.855  1.00  0.00    -0.005 C 
HETATM   10  C14 UNL     1      -2.792   7.599  13.733  1.00  0.00     0.005 C 
HETATM   11  C15 UNL     1      -1.669   8.644  13.583  1.00  0.00     0.001 C 
HETATM   12  C16 UNL     1      -0.446   7.869  13.059  1.00  0.00     0.005 C 
HETATM   13  C17 UNL     1      -1.090   6.610  12.610  1.00  0.00    -0.010 C 
HETATM   14  C18 UNL     1      -0.254   5.442  12.357  1.00  0.00     0.006 C 
HETATM   15  C19 UNL     1      -1.011   4.159  12.167  1.00  0.00     0.011 C 
HETATM   16  C20 UNL     1      -2.487   4.279  12.554  1.00  0.00    -0.026 C 
ENDROOT
BRANCH   6  17
HETATM   17  O1  UNL     1      -2.570   2.857  15.328  1.00  0.00    -0.387 OA
ATOM     18  H1  UNL     1      -2.133   3.685  15.489  1.00  0.00     0.210 HD
ENDBRANCH   6  17
BRANCH   6  19
HETATM   19  C7  UNL     1      -4.757   2.405  14.887  1.00  0.00     0.218 C 
BRANCH  19  20
HETATM   20  N1  UNL     1      -6.017   2.990  15.099  1.00  0.00    -0.072 N 
ATOM     21  H13 UNL     1      -5.874   3.982  15.287  1.00  0.00     0.274 HD
ATOM     22  H12 UNL     1      -6.507   3.012  14.205  1.00  0.00     0.274 HD
ATOM     23  H11 UNL     1      -6.664   2.629  15.800  1.00  0.00     0.274 HD
ENDBRANCH  19  20
BRANCH  19  24
HETATM   24  C8  UNL     1      -4.364   1.658  16.172  1.00  0.00     0.046 C 
BRANCH  24  25
HETATM   25  C9  UNL     1      -5.487   1.787  17.202  1.00  0.00     0.115 C 
BRANCH  25  26
HETATM   26  C10 UNL     1      -6.295   0.542  17.096  1.00  0.00     0.172 C 
HETATM   27  O2  UNL     1      -5.883  -0.590  17.381  1.00  0.00    -0.648 OA
HETATM   28  O3  UNL     1      -7.603   0.669  16.641  1.00  0.00    -0.648 OA
ENDBRANCH  25  26
ENDBRANCH  24  25
ENDBRANCH  19  24
ENDBRANCH   6  19
TORSDOF 6
ENDMDL
MODEL 3
REMARK VINA RESULT: -7.667310383      3.333      4.441
REMARK  6 active torsions:
REMARK  status: ('A' for Active; 'I' for Inactive)
REMARK    1  A    between atoms: C6_6  and  O1_7 
REMARK    2  A    between atoms: C6_6  and  C7_9 
REMARK    3  A    between atoms: C7_9  and  N1_10 
REMARK    4  A    between atoms: C7_9  and  C8_14 
REMARK    5  A    between atoms: C8_14  and  C9_15 
REMARK    6  A    between atoms: C9_15  and  C10_16 
ROOT
HETATM    1  C1  UNL     1      -3.128   7.074  10.442  1.00  0.00     0.011 C 
HETATM    2  C2  UNL     1      -3.555   6.727  11.884  1.00  0.00    -0.009 C 
HETATM    3  C3  UNL     1      -4.798   5.850  11.660  1.00  0.00     0.005 C 
HETATM    4  C4  UNL     1      -4.187   4.488  11.623  1.00  0.00     0.009 C 
HETATM    5  C5  UNL     1      -3.071   4.467  12.597  1.00  0.00     0.031 C 
HETATM    6  C6  UNL     1      -3.411   4.143  14.004  1.00  0.00     0.090 C 
HETATM    7  C11 UNL     1      -3.481   5.503  14.676  1.00  0.00     0.046 C 
HETATM    8  C12 UNL     1      -2.276   6.113  14.025  1.00  0.00     0.002 C 
HETATM    9  C13 UNL     1      -1.730   7.335  14.489  1.00  0.00    -0.005 C 
HETATM   10  C14 UNL     1      -2.499   8.483  15.004  1.00  0.00     0.005 C 
HETATM   11  C15 UNL     1      -1.369   9.528  15.092  1.00  0.00     0.001 C 
HETATM   12  C16 UNL     1      -0.288   9.057  14.102  1.00  0.00     0.005 C 
HETATM   13  C17 UNL     1      -1.055   8.066  13.307  1.00  0.00    -0.010 C 
HETATM   14  C18 UNL     1      -0.328   7.116  12.472  1.00  0.00     0.006 C 
HETATM   15  C19 UNL     1      -1.164   5.998  11.921  1.00  0.00     0.011 C 
HETATM   16  C20 UNL     1      -2.548   5.917  12.569  1.00  0.00    -0.026 C 
ENDROOT
BRANCH   6  17
HETATM   17  O1  UNL     1      -2.234   3.505  14.520  1.00  0.00    -0.387 OA
ATOM     18  H1  UNL     1      -2.523   3.085  15.322  1.00  0.00     0.210 HD
ENDBRANCH   6  17
BRANCH   6  19
HETATM   19  C7  UNL     1      -4.482   3.214  14.317  1.00  0.00     0.218 C 
BRANCH  19  20
HETATM   20  N1  UNL     1      -5.739   3.658  14.763  1.00  0.00    -0.072 N 
ATOM     21  H13 UNL     1      -5.692   3.762  15.777  1.00  0.00     0.274 HD
ATOM     22  H12 UNL     1      -5.856   4.623  14.456  1.00  0.00     0.274 HD
ATOM     23  H11 UNL     1      -6.596   3.152  14.540  1.00  0.00     0.274 HD
ENDBRANCH  19  20
BRANCH  19  24
HETATM   24  C8  UNL     1      -3.974   2.162  15.317  1.00  0.00     0.046 C 
BRANCH  24  25
HETATM   25  C9  UNL     1      -5.059   1.882  16.359  1.00  0.00     0.115 C 
BRANCH  25  26
HETATM   26  C10 UNL     1      -5.335   0.421  16.289  1.00  0.00     0.172 C 
HETATM   27  O2  UNL     1      -5.957  -0.219  17.147  1.00  0.00    -0.648 OA
HETATM   28  O3  UNL     1      -4.854  -0.265  15.178  1.00  0.00    -0.648 OA
ENDBRANCH  25  26
ENDBRANCH  24  25
ENDBRANCH  19  24
ENDBRANCH   6  19
TORSDOF 6
ENDMDL
MODEL 4
REMARK VINA RESULT: -7.654460012      3.659      6.218
REMARK  6 active torsions:
REMARK  status: ('A' for Active; 'I' for Inactive)
REMARK    1  A    between atoms: C6_6  and  O1_7 
REMARK    2  A    between atoms: C6_6  and  C7_9 
REMARK    3  A    between atoms: C7_9  and  N1_10 
REMARK    4  A    between atoms: C7_9  and  C8_14 
REMARK    5  A    between atoms: C8_14  and  C9_15 
REMARK    6  A    between atoms: C9_15  and  C10_16 
ROOT
HETATM    1  C1  UNL     1      -6.542   3.100  15.667  1.00  0.00     0.011 C 
HETATM    2  C2  UNL     1      -5.933   3.705  14.385  1.00  0.00    -0.009 C 
HETATM    3  C3  UNL     1      -6.291   5.195  14.519  1.00  0.00     0.005 C 
HETATM    4  C4  UNL     1      -5.080   5.720  15.218  1.00  0.00     0.009 C 
HETATM    5  C5  UNL     1      -3.904   4.984  14.698  1.00  0.00     0.031 C 
HETATM    6  C6  UNL     1      -3.271   5.511  13.465  1.00  0.00     0.090 C 
HETATM    7  C11 UNL     1      -3.841   4.629  12.367  1.00  0.00     0.046 C 
HETATM    8  C12 UNL     1      -3.749   3.319  13.090  1.00  0.00     0.002 C 
HETATM    9  C13 UNL     1      -3.937   2.091  12.412  1.00  0.00    -0.005 C 
HETATM   10  C14 UNL     1      -4.896   1.847  11.318  1.00  0.00     0.005 C 
HETATM   11  C15 UNL     1      -4.777   0.314  11.210  1.00  0.00     0.001 C 
HETATM   12  C16 UNL     1      -4.255  -0.160  12.579  1.00  0.00     0.005 C 
HETATM   13  C17 UNL     1      -4.502   1.049  13.402  1.00  0.00    -0.010 C 
HETATM   14  C18 UNL     1      -3.840   1.169  14.697  1.00  0.00     0.006 C 
HETATM   15  C19 UNL     1      -3.942   2.527  15.329  1.00  0.00     0.011 C 
HETATM   16  C20 UNL     1      -4.476   3.591  14.367  1.00  0.00    -0.026 C 
ENDROOT
BRANCH   6  17
HETATM   17  O1  UNL     1      -1.889   5.147  13.587  1.00  0.00    -0.387 OA
ATOM     18  H1  UNL     1      -1.438   5.712  12.970  1.00  0.00     0.210 HD
ENDBRANCH   6  17
BRANCH   6  19
HETATM   19  C7  UNL     1      -3.238   6.937  13.194  1.00  0.00     0.218 C 
BRANCH  19  20
HETATM   20  N1  UNL     1      -3.377   7.444  11.890  1.00  0.00    -0.072 N 
ATOM     21  H13 UNL     1      -2.714   6.953  11.291  1.00  0.00     0.274 HD
ATOM     22  H12 UNL     1      -4.273   7.123  11.524  1.00  0.00     0.274 HD
ATOM     23  H11 UNL     1      -3.298   8.442  11.692  1.00  0.00     0.274 HD
ENDBRANCH  19  20
BRANCH  19  24
HETATM   24  C8  UNL     1      -1.964   7.546  13.802  1.00  0.00     0.046 C 
BRANCH  24  25
HETATM   25  C9  UNL     1      -2.338   8.431  14.993  1.00  0.00     0.115 C 
BRANCH  25  26
HETATM   26  C10 UNL     1      -1.648   9.731  14.778  1.00  0.00     0.172 C 
HETATM   27  O2  UNL     1      -2.144  10.702  14.192  1.00  0.00    -0.648 OA
HETATM   28  O3  UNL     1      -0.354   9.854  15.274  1.00  0.00    -0.648 OA
ENDBRANCH  25  26
ENDBRANCH  24  25
ENDBRANCH  19  24
ENDBRANCH   6  19
TORSDOF 6
ENDMDL
MODEL 5
REMARK VINA RESULT: -7.465545425      2.136      3.809
REMARK  6 active torsions:
REMARK  status: ('A' for Active; 'I' for Inactive)
REMARK    1  A    between atoms: C6_6  and  O1_7 
REMARK    2  A    between atoms: C6_6  and  C7_9 
REMARK    3  A    between atoms: C7_9  and  N1_10 
REMARK    4  A    between atoms: C7_9  and  C8_14 
REMARK    5  A    between atoms: C8_14  and  C9_15 
REMARK    6  A    between atoms: C9_15  and  C10_16 
ROOT
HETATM    1  C1  UNL     1      -2.689   7.986  12.288  1.00  0.00     0.011 C 
HETATM    2  C2  UNL     1      -2.442   6.480  12.518  1.00  0.00    -0.009 C 
HETATM    3  C3  UNL     1      -2.296   6.397  14.047  1.00  0.00     0.005 C 
HETATM    4  C4  UNL     1      -3.706   6.124  14.456  1.00  0.00     0.009 C 
HETATM    5  C5  UNL     1      -4.312   5.246  13.428  1.00  0.00     0.031 C 
HETATM    6  C6  UNL     1      -4.112   3.785  13.586  1.00  0.00     0.090 C 
HETATM    7  C11 UNL     1      -2.966   3.478  12.638  1.00  0.00     0.046 C 
HETATM    8  C12 UNL     1      -3.414   4.335  11.493  1.00  0.00     0.002 C 
HETATM    9  C13 UNL     1      -2.809   4.232  10.217  1.00  0.00    -0.005 C 
HETATM   10  C14 UNL     1      -1.379   3.980   9.958  1.00  0.00     0.005 C 
HETATM   11  C15 UNL     1      -1.347   4.230   8.437  1.00  0.00     0.001 C 
HETATM   12  C16 UNL     1      -2.559   5.131   8.138  1.00  0.00     0.005 C 
HETATM   13  C17 UNL     1      -2.899   5.599   9.504  1.00  0.00    -0.010 C 
HETATM   14  C18 UNL     1      -4.204   6.208   9.737  1.00  0.00     0.006 C 
HETATM   15  C19 UNL     1      -4.554   6.405  11.184  1.00  0.00     0.011 C 
HETATM   16  C20 UNL     1      -3.598   5.674  12.130  1.00  0.00    -0.026 C 
ENDROOT
BRANCH   6  17
HETATM   17  O1  UNL     1      -5.281   3.196  12.998  1.00  0.00    -0.387 OA
ATOM     18  H1  UNL     1      -5.033   2.295  12.829  1.00  0.00     0.210 HD
ENDBRANCH   6  17
BRANCH   6  19
HETATM   19  C7  UNL     1      -4.037   3.181  14.904  1.00  0.00     0.218 C 
BRANCH  19  20
HETATM   20  N1  UNL     1      -2.954   2.369  15.284  1.00  0.00    -0.072 N 
ATOM     21  H13 UNL     1      -2.423   2.142  14.444  1.00  0.00     0.274 HD
ATOM     22  H12 UNL     1      -2.295   2.950  15.802  1.00  0.00     0.274 HD
ATOM     23  H11 UNL     1      -3.091   1.506  15.811  1.00  0.00     0.274 HD
ENDBRANCH  19  20
BRANCH  19  24
HETATM   24  C8  UNL     1      -5.331   2.399  15.186  1.00  0.00     0.046 C 
BRANCH  24  25
HETATM   25  C9  UNL     1      -5.305   1.867  16.620  1.00  0.00     0.115 C 
BRANCH  25  26
HETATM   26  C10 UNL     1      -5.490   0.394  16.520  1.00  0.00     0.172 C 
HETATM   27  O2  UNL     1      -6.055  -0.303  17.373  1.00  0.00    -0.648 OA
HETATM   28  O3  UNL     1      -4.989  -0.235  15.384  1.00  0.00    -0.648 OA
ENDBRANCH  25  26
ENDBRANCH  24  25
ENDBRANCH  19  24
ENDBRANCH   6  19
TORSDOF 6
ENDMDL
