MODEL 1
REMARK VINA RESULT: -6.649731319      0.000      0.000
REMARK  4 active torsions:
REMARK  status: ('A' for Active; 'I' for Inactive)
REMARK    1  A    between atoms: C3_3  and  C4_5 
REMARK       I    between atoms: N1_6  and  C5_8 
REMARK    2  A    between atoms: C5_8  and  C6_10 
REMARK    3  A    between atoms: C9_17  and  N4_18 
REMARK    4  A    between atoms: C11_23  and  C12_24 
ROOT
HETATM    1  C6  UNL     1      -3.961   2.253  15.750  1.00  0.00     0.122 C 
HETATM    2  C7  UNL     1      -3.471   3.543  15.169  1.00  0.00     0.035 A 
HETATM    3  C8  UNL     1      -4.339   4.333  14.429  1.00  0.00     0.095 A 
HETATM    4  N2  UNL     1      -3.694   5.435  14.006  1.00  0.00    -0.292 N 
ATOM      5  H2  UNL     1      -4.095   6.186  13.443  1.00  0.00     0.187 HD
HETATM    6  N3  UNL     1      -2.448   5.374  14.450  1.00  0.00    -0.284 N 
ATOM      7  H3  UNL     1      -1.729   6.077  14.280  1.00  0.00     0.188 HD
HETATM    8  C9  UNL     1      -2.271   4.225  15.170  1.00  0.00     0.123 A 
HETATM    9  S1  UNL     1      -6.036   3.803  14.178  1.00  0.00    -0.110 SA
HETATM   10  C10 UNL     1      -6.417   2.606  15.494  1.00  0.00     0.086 C 
HETATM   11  C11 UNL     1      -5.244   2.563  16.454  1.00  0.00     0.013 C 
ENDROOT
BRANCH   1  12
HETATM   12  C5  UNL     1      -4.103   1.220  14.687  1.00  0.00     0.230 C 
HETATM   13  N1  UNL     1      -3.335   1.269  13.501  1.00  0.00    -0.335 N 
HETATM   14  C4  UNL     1      -3.830   0.955  12.354  1.00  0.00     0.114 C 
ATOM     15  H1  UNL     1      -2.360   1.562  13.555  1.00  0.00     0.168 HD
HETATM   16  O1  UNL     1      -4.933   0.292  14.871  1.00  0.00    -0.272 OA
BRANCH  14  17
HETATM   17  C3  UNL     1      -3.056   1.003  11.143  1.00  0.00     0.045 C 
HETATM   18  C2  UNL     1      -2.150   1.945  10.936  1.00  0.00    -0.006 C 
HETATM   19  C1  UNL     1      -1.368   1.961   9.668  1.00  0.00     0.038 C 
HETATM   20 CL1  UNL     1      -3.333  -0.223   9.924  1.00  0.00    -0.083 Cl
ENDBRANCH  14  17
ENDBRANCH   1  12
BRANCH  11  21
HETATM   21  C12 UNL     1      -5.537   1.619  17.573  1.00  0.00     0.002 C 
HETATM   22  C13 UNL     1      -6.975   1.149  17.444  1.00  0.00     0.005 C 
ENDBRANCH  11  21
BRANCH   8  23
HETATM   23  N4  UNL     1      -1.193   3.834  15.748  1.00  0.00    -0.384 N 
ATOM     24  H42 UNL     1      -0.289   4.305  15.747  1.00  0.00     0.157 HD
ATOM     25  H41 UNL     1      -1.095   2.980  16.298  1.00  0.00     0.157 HD
ENDBRANCH   8  23
TORSDOF 4
ENDMDL
MODEL 2
REMARK VINA RESULT: -6.577029159      3.276      5.394
REMARK  4 active torsions:
REMARK  status: ('A' for Active; 'I' for Inactive)
REMARK    1  A    between atoms: C3_3  and  C4_5 
REMARK       I    between atoms: N1_6  and  C5_8 
REMARK    2  A    between atoms: C5_8  and  C6_10 
REMARK    3  A    between atoms: C9_17  and  N4_18 
REMARK    4  A    between atoms: C11_23  and  C12_24 
ROOT
HETATM    1  C6  UNL     1      -4.341   3.292  12.970  1.00  0.00     0.122 C 
HETATM    2  C7  UNL     1      -4.371   1.808  12.775  1.00  0.00     0.035 A 
HETATM    3  C8  UNL     1      -4.112   0.972  13.852  1.00  0.00     0.095 A 
HETATM    4  N2  UNL     1      -4.191  -0.311  13.454  1.00  0.00    -0.292 N 
ATOM      5  H2  UNL     1      -4.046  -1.131  14.043  1.00  0.00     0.187 HD
HETATM    6  N3  UNL     1      -4.491  -0.320  12.164  1.00  0.00    -0.284 N 
ATOM      7  H3  UNL     1      -4.614  -1.158  11.596  1.00  0.00     0.188 HD
HETATM    8  C9  UNL     1      -4.610   0.964  11.709  1.00  0.00     0.123 A 
HETATM    9  S1  UNL     1      -3.745   1.676  15.463  1.00  0.00    -0.110 SA
HETATM   10  C10 UNL     1      -4.406   3.371  15.462  1.00  0.00     0.086 C 
HETATM   11  C11 UNL     1      -5.179   3.581  14.175  1.00  0.00     0.013 C 
ENDROOT
BRANCH   1  12
HETATM   12  C5  UNL     1      -2.937   3.776  13.095  1.00  0.00     0.230 C 
HETATM   13  N1  UNL     1      -2.639   5.046  13.642  1.00  0.00    -0.335 N 
HETATM   14  C4  UNL     1      -1.704   5.791  13.167  1.00  0.00     0.114 C 
ATOM     15  H1  UNL     1      -3.182   5.380  14.438  1.00  0.00     0.168 HD
HETATM   16  O1  UNL     1      -2.014   3.021  12.697  1.00  0.00    -0.272 OA
BRANCH  14  17
HETATM   17  C3  UNL     1      -1.395   7.083  13.717  1.00  0.00     0.045 C 
HETATM   18  C2  UNL     1      -2.139   7.629  14.666  1.00  0.00    -0.006 C 
HETATM   19  C1  UNL     1      -1.787   8.970  15.211  1.00  0.00     0.038 C 
HETATM   20 CL1  UNL     1       0.002   7.941  13.104  1.00  0.00    -0.083 Cl
ENDBRANCH  14  17
ENDBRANCH   1  12
BRANCH  11  21
HETATM   21  C12 UNL     1      -5.772   4.951  14.156  1.00  0.00     0.002 C 
HETATM   22  C13 UNL     1      -6.323   5.259  15.538  1.00  0.00     0.005 C 
ENDBRANCH  11  21
BRANCH   8  23
HETATM   23  N4  UNL     1      -4.892   1.338  10.514  1.00  0.00    -0.384 N 
ATOM     24  H42 UNL     1      -5.536   0.886   9.864  1.00  0.00     0.157 HD
ATOM     25  H41 UNL     1      -4.501   2.154  10.042  1.00  0.00     0.157 HD
ENDBRANCH   8  23
TORSDOF 4
ENDMDL
MODEL 3
REMARK VINA RESULT: -6.522963035      3.420      5.702
REMARK  4 active torsions:
REMARK  status: ('A' for Active; 'I' for Inactive)
REMARK    1  A    between atoms: C3_3  and  C4_5 
REMARK       I    between atoms: N1_6  and  C5_8 
REMARK    2  A    between atoms: C5_8  and  C6_10 
REMARK    3  A    between atoms: C9_17  and  N4_18 
REMARK    4  A    between atoms: C11_23  and  C12_24 
ROOT
HETATM    1  C6  UNL     1      -3.869   2.856  11.433  1.00  0.00     0.122 C 
HETATM    2  C7  UNL     1      -3.026   3.798  10.630  1.00  0.00     0.035 A 
HETATM    3  C8  UNL     1      -1.692   3.496  10.401  1.00  0.00     0.095 A 
HETATM    4  N2  UNL     1      -1.130   4.471   9.664  1.00  0.00    -0.292 N 
ATOM      5  H2  UNL     1      -0.160   4.504   9.350  1.00  0.00     0.187 HD
HETATM    6  N3  UNL     1      -2.059   5.383   9.418  1.00  0.00    -0.284 N 
ATOM      7  H3  UNL     1      -1.916   6.237   8.879  1.00  0.00     0.188 HD
HETATM    8  C9  UNL     1      -3.240   5.005   9.995  1.00  0.00     0.123 A 
HETATM    9  S1  UNL     1      -0.990   1.982  11.065  1.00  0.00    -0.110 SA
HETATM   10  C10 UNL     1      -2.380   0.854  11.392  1.00  0.00     0.086 C 
HETATM   11  C11 UNL     1      -3.648   1.492  10.859  1.00  0.00     0.013 C 
ENDROOT
BRANCH   1  12
HETATM   12  C5  UNL     1      -3.527   2.951  12.880  1.00  0.00     0.230 C 
HETATM   13  N1  UNL     1      -4.321   2.326  13.869  1.00  0.00    -0.335 N 
HETATM   14  C4  UNL     1      -4.562   2.884  15.005  1.00  0.00     0.114 C 
ATOM     15  H1  UNL     1      -4.716   1.406  13.677  1.00  0.00     0.168 HD
HETATM   16  O1  UNL     1      -2.505   3.609  13.205  1.00  0.00    -0.272 OA
BRANCH  14  17
HETATM   17  C3  UNL     1      -5.368   2.255  16.015  1.00  0.00     0.045 C 
HETATM   18  C2  UNL     1      -5.106   1.033  16.451  1.00  0.00    -0.006 C 
HETATM   19  C1  UNL     1      -5.966   0.415  17.499  1.00  0.00     0.038 C 
HETATM   20 CL1  UNL     1      -6.727   3.142  16.672  1.00  0.00    -0.083 Cl
ENDBRANCH  14  17
ENDBRANCH   1  12
BRANCH  11  21
HETATM   21  C12 UNL     1      -4.807   0.577  11.073  1.00  0.00     0.002 C 
HETATM   22  C13 UNL     1      -4.312  -0.673  11.782  1.00  0.00     0.005 C 
ENDBRANCH  11  21
BRANCH   8  23
HETATM   23  N4  UNL     1      -4.354   5.642   9.964  1.00  0.00    -0.384 N 
ATOM     24  H42 UNL     1      -5.256   5.288   9.646  1.00  0.00     0.157 HD
ATOM     25  H41 UNL     1      -4.490   6.609  10.260  1.00  0.00     0.157 HD
ENDBRANCH   8  23
TORSDOF 4
ENDMDL
MODEL 4
REMARK VINA RESULT: -6.494235204      4.226      5.916
REMARK  4 active torsions:
REMARK  status: ('A' for Active; 'I' for Inactive)
REMARK    1  A    between atoms: C3_3  and  C4_5 
REMARK       I    between atoms: N1_6  and  C5_8 
REMARK    2  A    between atoms: C5_8  and  C6_10 
REMARK    3  A    between atoms: C9_17  and  N4_18 
REMARK    4  A    between atoms: C11_23  and  C12_24 
ROOT
HETATM    1  C6  UNL     1      -3.994   3.547  12.237  1.00  0.00     0.122 C 
HETATM    2  C7  UNL     1      -3.171   2.362  11.839  1.00  0.00     0.035 A 
HETATM    3  C8  UNL     1      -1.803   2.509  11.661  1.00  0.00     0.095 A 
HETATM    4  N2  UNL     1      -1.266   1.327  11.308  1.00  0.00    -0.292 N 
ATOM      5  H2  UNL     1      -0.280   1.150  11.115  1.00  0.00     0.187 HD
HETATM    6  N3  UNL     1      -2.243   0.435  11.254  1.00  0.00    -0.284 N 
ATOM      7  H3  UNL     1      -2.127  -0.548  11.011  1.00  0.00     0.188 HD
HETATM    8  C9  UNL     1      -3.430   1.032  11.574  1.00  0.00     0.123 A 
HETATM    9  S1  UNL     1      -1.035   4.113  11.910  1.00  0.00    -0.110 SA
HETATM   10  C10 UNL     1      -2.165   5.083  12.957  1.00  0.00     0.086 C 
HETATM   11  C11 UNL     1      -3.298   4.179  13.401  1.00  0.00     0.013 C 
ENDROOT
BRANCH   1  12
HETATM   12  C5  UNL     1      -4.175   4.472  11.083  1.00  0.00     0.230 C 
HETATM   13  N1  UNL     1      -4.671   5.785  11.258  1.00  0.00    -0.335 N 
HETATM   14  C4  UNL     1      -5.485   6.324  10.420  1.00  0.00     0.114 C 
ATOM     15  H1  UNL     1      -4.375   6.320  12.074  1.00  0.00     0.168 HD
HETATM   16  O1  UNL     1      -3.874   4.052   9.936  1.00  0.00    -0.272 OA
BRANCH  14  17
HETATM   17  C3  UNL     1      -5.995   7.658  10.591  1.00  0.00     0.045 C 
HETATM   18  C2  UNL     1      -5.420   8.699  10.011  1.00  0.00    -0.006 C 
HETATM   19  C1  UNL     1      -5.977  10.066  10.213  1.00  0.00     0.038 C 
HETATM   20 CL1  UNL     1      -7.409   7.890  11.597  1.00  0.00    -0.083 Cl
ENDBRANCH  14  17
ENDBRANCH   1  12
BRANCH  11  21
HETATM   21  C12 UNL     1      -4.226   4.929  14.297  1.00  0.00     0.002 C 
HETATM   22  C13 UNL     1      -5.372   4.011  14.685  1.00  0.00     0.005 C 
ENDBRANCH  11  21
BRANCH   8  23
HETATM   23  N4  UNL     1      -4.587   0.476  11.626  1.00  0.00    -0.384 N 
ATOM     24  H42 UNL     1      -5.479   0.888  11.351  1.00  0.00     0.157 HD
ATOM     25  H41 UNL     1      -4.773  -0.471  11.955  1.00  0.00     0.157 HD
ENDBRANCH   8  23
TORSDOF 4
ENDMDL
MODEL 5
REMARK VINA RESULT: -6.433228217      3.627      5.087
REMARK  4 active torsions:
REMARK  status: ('A' for Active; 'I' for Inactive)
REMARK    1  A    between atoms: C3_3  and  C4_5 
REMARK       I    between atoms: N1_6  and  C5_8 
REMARK    2  A    between atoms: C5_8  and  C6_10 
REMARK    3  A    between atoms: C9_17  and  N4_18 
REMARK    4  A    between atoms: C11_23  and  C12_24 
ROOT
HETATM    1  C6  UNL     1      -3.176   2.491  11.656  1.00  0.00     0.122 C 
HETATM    2  C7  UNL     1      -2.035   3.315  12.166  1.00  0.00     0.035 A 
HETATM    3  C8  UNL     1      -2.132   3.922  13.409  1.00  0.00     0.095 A 
HETATM    4  N2  UNL     1      -1.003   4.608  13.665  1.00  0.00    -0.292 N 
ATOM      5  H2  UNL     1      -0.805   5.147  14.508  1.00  0.00     0.187 HD
HETATM    6  N3  UNL     1      -0.192   4.458  12.628  1.00  0.00    -0.284 N 
ATOM      7  H3  UNL     1       0.737   4.870  12.545  1.00  0.00     0.188 HD
HETATM    8  C9  UNL     1      -0.790   3.670  11.685  1.00  0.00     0.123 A 
HETATM    9  S1  UNL     1      -3.619   3.713  14.394  1.00  0.00    -0.110 SA
HETATM   10  C10 UNL     1      -4.450   2.214  13.783  1.00  0.00     0.086 C 
HETATM   11  C11 UNL     1      -3.549   1.551  12.760  1.00  0.00     0.013 C 
ENDROOT
BRANCH   1  12
HETATM   12  C5  UNL     1      -4.300   3.365  11.218  1.00  0.00     0.230 C 
HETATM   13  N1  UNL     1      -4.122   4.754  11.020  1.00  0.00    -0.335 N 
HETATM   14  C4  UNL     1      -5.022   5.611  11.355  1.00  0.00     0.114 C 
ATOM     15  H1  UNL     1      -3.255   5.085  10.599  1.00  0.00     0.168 HD
HETATM   16  O1  UNL     1      -5.423   2.832  11.026  1.00  0.00    -0.272 OA
BRANCH  14  17
HETATM   17  C3  UNL     1      -4.848   7.025  11.157  1.00  0.00     0.045 C 
HETATM   18  C2  UNL     1      -5.809   7.776  10.642  1.00  0.00    -0.006 C 
HETATM   19  C1  UNL     1      -5.591   9.238  10.453  1.00  0.00     0.038 C 
HETATM   20 CL1  UNL     1      -3.323   7.752  11.614  1.00  0.00    -0.083 Cl
ENDBRANCH  14  17
ENDBRANCH   1  12
BRANCH  11  21
HETATM   21  C12 UNL     1      -4.181   0.293  12.264  1.00  0.00     0.002 C 
HETATM   22  C13 UNL     1      -3.280  -0.314  11.202  1.00  0.00     0.005 C 
ENDBRANCH  11  21
BRANCH   8  23
HETATM   23  N4  UNL     1      -0.302   3.313  10.552  1.00  0.00    -0.384 N 
ATOM     24  H42 UNL     1      -0.528   2.471  10.023  1.00  0.00     0.157 HD
ATOM     25  H41 UNL     1       0.393   3.835  10.018  1.00  0.00     0.157 HD
ENDBRANCH   8  23
TORSDOF 4
ENDMDL
