MODEL 1
REMARK VINA RESULT: -7.458046757      0.000      0.000
REMARK  11 active torsions:
REMARK  status: ('A' for Active; 'I' for Inactive)
REMARK    1  A    between atoms: C2_2  and  C3_3 
REMARK    2  A    between atoms: C3_3  and  C4_4 
REMARK    3  A    between atoms: C4_4  and  C5_5 
REMARK    4  A    between atoms: C5_5  and  N1_6 
REMARK    5  A    between atoms: C6_7  and  N2_8 
REMARK    6  A    between atoms: C7_13  and  N4_14 
REMARK    7  A    between atoms: N4_14  and  C8_16 
REMARK    8  A    between atoms: C8_16  and  C9_17 
REMARK    9  A    between atoms: C9_17  and  O1_18 
REMARK   10  A    between atoms: C11_23  and  C12_24 
REMARK   11  A    between atoms: C12_24  and  C13_25 
ROOT
HETATM    1  N1  UNL     1     -39.175 -59.496 -47.171  1.00  0.00    -0.155 N 
HETATM    2  C6  UNL     1     -40.496 -59.658 -46.983  1.00  0.00     0.682 A 
HETATM    3  N3  UNL     1     -40.967 -60.336 -45.902  1.00  0.00    -0.175 N 
ATOM      4  H3  UNL     1     -41.976 -60.440 -45.791  1.00  0.00     0.186 HD
HETATM    5  C7  UNL     1     -40.156 -60.874 -44.976  1.00  0.00     0.147 A 
HETATM    6  C10 UNL     1     -38.794 -60.724 -45.143  1.00  0.00     0.123 A 
HETATM    7  N5  UNL     1     -37.718 -61.129 -44.417  1.00  0.00    -0.340 N 
ATOM      8  H5  UNL     1     -37.742 -61.660 -43.547  1.00  0.00     0.167 HD
HETATM    9  C11 UNL     1     -36.606 -60.695 -45.061  1.00  0.00     0.083 A 
HETATM   10  N6  UNL     1     -37.015 -60.033 -46.167  1.00  0.00    -0.329 N 
ATOM     11  H6  UNL     1     -36.391 -59.595 -46.845  1.00  0.00     0.168 HD
HETATM   12  C15 UNL     1     -38.352 -60.030 -46.250  1.00  0.00     0.156 A 
ENDROOT
BRANCH   5  13
HETATM   13  N4  UNL     1     -40.560 -61.521 -43.943  1.00  0.00    -0.372 N 
ATOM     14  H4  UNL     1     -41.446 -62.023 -43.998  1.00  0.00     0.161 HD
BRANCH  13  15
HETATM   15  C8  UNL     1     -39.814 -61.572 -42.701  1.00  0.00     0.147 C 
BRANCH  15  16
HETATM   16  C9  UNL     1     -39.984 -60.315 -41.875  1.00  0.00     0.183 C 
BRANCH  16  17
HETATM   17  O1  UNL     1     -38.715 -59.853 -41.524  1.00  0.00    -0.399 OA
ATOM     18  H1  UNL     1     -38.248 -59.645 -42.324  1.00  0.00     0.209 HD
ENDBRANCH  16  17
ENDBRANCH  15  16
ENDBRANCH  13  15
ENDBRANCH   5  13
BRANCH   2  19
HETATM   19  N2  UNL     1     -41.301 -59.155 -47.852  1.00  0.00    -0.234 N 
ATOM     20  H22 UNL     1     -40.991 -58.962 -48.804  1.00  0.00     0.174 HD
ATOM     21  H21 UNL     1     -42.260 -58.955 -47.564  1.00  0.00     0.174 HD
ENDBRANCH   2  19
BRANCH   1  22
HETATM   22  C5  UNL     1     -38.645 -58.774 -48.321  1.00  0.00     0.243 C 
BRANCH  22  23
HETATM   23  C4  UNL     1     -38.183 -59.723 -49.340  1.00  0.00    -0.086 C 
BRANCH  23  24
HETATM   24  C3  UNL     1     -37.795 -60.491 -50.185  1.00  0.00    -0.105 C 
BRANCH  24  25
HETATM   25  C2  UNL     1     -37.313 -61.409 -51.232  1.00  0.00     0.089 C 
HETATM   26  C1  UNL     1     -38.500 -61.757 -52.089  1.00  0.00     0.018 C 
ENDBRANCH  24  25
ENDBRANCH  23  24
ENDBRANCH  22  23
ENDBRANCH   1  22
BRANCH   9  27
HETATM   27  C12 UNL     1     -35.190 -60.898 -44.648  1.00  0.00     0.076 C 
BRANCH  27  28
HETATM   28  C13 UNL     1     -35.082 -62.251 -43.964  1.00  0.00     0.003 C 
HETATM   29  C14 UNL     1     -35.878 -62.148 -42.673  1.00  0.00     0.005 C 
ENDBRANCH  27  28
ENDBRANCH   9  27
TORSDOF 11
ENDMDL
MODEL 2
REMARK VINA RESULT: -7.256673930      1.850      1.992
REMARK  11 active torsions:
REMARK  status: ('A' for Active; 'I' for Inactive)
REMARK    1  A    between atoms: C2_2  and  C3_3 
REMARK    2  A    between atoms: C3_3  and  C4_4 
REMARK    3  A    between atoms: C4_4  and  C5_5 
REMARK    4  A    between atoms: C5_5  and  N1_6 
REMARK    5  A    between atoms: C6_7  and  N2_8 
REMARK    6  A    between atoms: C7_13  and  N4_14 
REMARK    7  A    between atoms: N4_14  and  C8_16 
REMARK    8  A    between atoms: C8_16  and  C9_17 
REMARK    9  A    between atoms: C9_17  and  O1_18 
REMARK   10  A    between atoms: C11_23  and  C12_24 
REMARK   11  A    between atoms: C12_24  and  C13_25 
ROOT
HETATM    1  N1  UNL     1     -39.153 -59.673 -47.535  1.00  0.00    -0.155 N 
HETATM    2  C6  UNL     1     -40.472 -59.931 -47.554  1.00  0.00     0.682 A 
HETATM    3  N3  UNL     1     -41.067 -60.601 -46.530  1.00  0.00    -0.175 N 
ATOM      4  H3  UNL     1     -42.070 -60.778 -46.578  1.00  0.00     0.186 HD
HETATM    5  C7  UNL     1     -40.383 -61.037 -45.459  1.00  0.00     0.147 A 
HETATM    6  C10 UNL     1     -39.026 -60.788 -45.412  1.00  0.00     0.123 A 
HETATM    7  N5  UNL     1     -38.058 -61.079 -44.502  1.00  0.00    -0.340 N 
ATOM      8  H5  UNL     1     -38.188 -61.576 -43.621  1.00  0.00     0.167 HD
HETATM    9  C11 UNL     1     -36.888 -60.585 -44.980  1.00  0.00     0.083 A 
HETATM   10  N6  UNL     1     -37.156 -60.001 -46.170  1.00  0.00    -0.329 N 
ATOM     11  H6  UNL     1     -36.462 -59.542 -46.760  1.00  0.00     0.168 HD
HETATM   12  C15 UNL     1     -38.458 -60.105 -46.468  1.00  0.00     0.156 A 
ENDROOT
BRANCH   5  13
HETATM   13  N4  UNL     1     -40.904 -61.673 -44.473  1.00  0.00    -0.372 N 
ATOM     14  H4  UNL     1     -41.255 -61.137 -43.679  1.00  0.00     0.161 HD
BRANCH  13  15
HETATM   15  C8  UNL     1     -41.017 -63.117 -44.435  1.00  0.00     0.147 C 
BRANCH  15  16
HETATM   16  C9  UNL     1     -42.385 -63.600 -44.866  1.00  0.00     0.183 C 
BRANCH  16  17
HETATM   17  O1  UNL     1     -42.379 -63.731 -46.255  1.00  0.00    -0.399 OA
ATOM     18  H1  UNL     1     -43.256 -63.965 -46.532  1.00  0.00     0.209 HD
ENDBRANCH  16  17
ENDBRANCH  15  16
ENDBRANCH  13  15
ENDBRANCH   5  13
BRANCH   2  19
HETATM   19  N2  UNL     1     -41.158 -59.526 -48.567  1.00  0.00    -0.234 N 
ATOM     20  H22 UNL     1     -42.166 -59.387 -48.496  1.00  0.00     0.174 HD
ATOM     21  H21 UNL     1     -40.666 -59.348 -49.443  1.00  0.00     0.174 HD
ENDBRANCH   2  19
BRANCH   1  22
HETATM   22  C5  UNL     1     -38.494 -58.957 -48.620  1.00  0.00     0.243 C 
BRANCH  22  23
HETATM   23  C4  UNL     1     -38.047 -59.905 -49.647  1.00  0.00    -0.086 C 
BRANCH  23  24
HETATM   24  C3  UNL     1     -37.684 -60.673 -50.503  1.00  0.00    -0.105 C 
BRANCH  24  25
HETATM   25  C2  UNL     1     -37.253 -61.597 -51.567  1.00  0.00     0.089 C 
HETATM   26  C1  UNL     1     -38.490 -62.009 -52.316  1.00  0.00     0.018 C 
ENDBRANCH  24  25
ENDBRANCH  23  24
ENDBRANCH  22  23
ENDBRANCH   1  22
BRANCH   9  27
HETATM   27  C12 UNL     1     -35.550 -60.661 -44.334  1.00  0.00     0.076 C 
BRANCH  27  28
HETATM   28  C13 UNL     1     -35.355 -62.071 -43.803  1.00  0.00     0.003 C 
HETATM   29  C14 UNL     1     -36.094 -62.139 -42.476  1.00  0.00     0.005 C 
ENDBRANCH  27  28
ENDBRANCH   9  27
TORSDOF 11
ENDMDL
MODEL 3
REMARK VINA RESULT: -7.157773497      1.633      1.840
REMARK  11 active torsions:
REMARK  status: ('A' for Active; 'I' for Inactive)
REMARK    1  A    between atoms: C2_2  and  C3_3 
REMARK    2  A    between atoms: C3_3  and  C4_4 
REMARK    3  A    between atoms: C4_4  and  C5_5 
REMARK    4  A    between atoms: C5_5  and  N1_6 
REMARK    5  A    between atoms: C6_7  and  N2_8 
REMARK    6  A    between atoms: C7_13  and  N4_14 
REMARK    7  A    between atoms: N4_14  and  C8_16 
REMARK    8  A    between atoms: C8_16  and  C9_17 
REMARK    9  A    between atoms: C9_17  and  O1_18 
REMARK   10  A    between atoms: C11_23  and  C12_24 
REMARK   11  A    between atoms: C12_24  and  C13_25 
ROOT
HETATM    1  N1  UNL     1     -39.002 -59.728 -47.693  1.00  0.00    -0.155 N 
HETATM    2  C6  UNL     1     -40.336 -59.723 -47.529  1.00  0.00     0.682 A 
HETATM    3  N3  UNL     1     -40.895 -60.092 -46.345  1.00  0.00    -0.175 N 
ATOM      4  H3  UNL     1     -41.910 -60.076 -46.257  1.00  0.00     0.186 HD
HETATM    5  C7  UNL     1     -40.160 -60.476 -45.289  1.00  0.00     0.147 A 
HETATM    6  C10 UNL     1     -38.786 -60.493 -45.427  1.00  0.00     0.123 A 
HETATM    7  N5  UNL     1     -37.770 -60.818 -44.583  1.00  0.00    -0.340 N 
ATOM      8  H5  UNL     1     -37.865 -61.134 -43.618  1.00  0.00     0.167 HD
HETATM    9  C11 UNL     1     -36.607 -60.644 -45.260  1.00  0.00     0.083 A 
HETATM   10  N6  UNL     1     -36.927 -60.216 -46.503  1.00  0.00    -0.329 N 
ATOM     11  H6  UNL     1     -36.249 -60.002 -47.235  1.00  0.00     0.168 HD
HETATM   12  C15 UNL     1     -38.255 -60.111 -46.642  1.00  0.00     0.156 A 
ENDROOT
BRANCH   5  13
HETATM   13  N4  UNL     1     -40.646 -60.833 -44.155  1.00  0.00    -0.372 N 
ATOM     14  H4  UNL     1     -41.031 -60.114 -43.543  1.00  0.00     0.161 HD
BRANCH  13  15
HETATM   15  C8  UNL     1     -40.673 -62.210 -43.704  1.00  0.00     0.147 C 
BRANCH  15  16
HETATM   16  C9  UNL     1     -41.574 -63.078 -44.557  1.00  0.00     0.183 C 
BRANCH  16  17
HETATM   17  O1  UNL     1     -42.365 -63.848 -43.703  1.00  0.00    -0.399 OA
ATOM     18  H1  UNL     1     -42.351 -63.443 -42.845  1.00  0.00     0.209 HD
ENDBRANCH  16  17
ENDBRANCH  15  16
ENDBRANCH  13  15
ENDBRANCH   5  13
BRANCH   2  19
HETATM   19  N2  UNL     1     -41.070 -59.359 -48.523  1.00  0.00    -0.234 N 
ATOM     20  H22 UNL     1     -42.060 -59.151 -48.394  1.00  0.00     0.174 HD
ATOM     21  H21 UNL     1     -40.635 -59.285 -49.443  1.00  0.00     0.174 HD
ENDBRANCH   2  19
BRANCH   1  22
HETATM   22  C5  UNL     1     -38.380 -59.336 -48.951  1.00  0.00     0.243 C 
BRANCH  22  23
HETATM   23  C4  UNL     1     -38.818 -60.234 -50.027  1.00  0.00    -0.086 C 
BRANCH  23  24
HETATM   24  C3  UNL     1     -39.186 -60.980 -50.900  1.00  0.00    -0.105 C 
BRANCH  24  25
HETATM   25  C2  UNL     1     -39.655 -61.900 -51.951  1.00  0.00     0.089 C 
HETATM   26  C1  UNL     1     -41.134 -62.080 -51.746  1.00  0.00     0.018 C 
ENDBRANCH  24  25
ENDBRANCH  23  24
ENDBRANCH  22  23
ENDBRANCH   1  22
BRANCH   9  27
HETATM   27  C12 UNL     1     -35.228 -60.876 -44.752  1.00  0.00     0.076 C 
BRANCH  27  28
HETATM   28  C13 UNL     1     -35.192 -62.233 -44.070  1.00  0.00     0.003 C 
HETATM   29  C14 UNL     1     -35.902 -62.066 -42.737  1.00  0.00     0.005 C 
ENDBRANCH  27  28
ENDBRANCH   9  27
TORSDOF 11
ENDMDL
MODEL 4
REMARK VINA RESULT: -7.139858243      2.413      2.674
REMARK  11 active torsions:
REMARK  status: ('A' for Active; 'I' for Inactive)
REMARK    1  A    between atoms: C2_2  and  C3_3 
REMARK    2  A    between atoms: C3_3  and  C4_4 
REMARK    3  A    between atoms: C4_4  and  C5_5 
REMARK    4  A    between atoms: C5_5  and  N1_6 
REMARK    5  A    between atoms: C6_7  and  N2_8 
REMARK    6  A    between atoms: C7_13  and  N4_14 
REMARK    7  A    between atoms: N4_14  and  C8_16 
REMARK    8  A    between atoms: C8_16  and  C9_17 
REMARK    9  A    between atoms: C9_17  and  O1_18 
REMARK   10  A    between atoms: C11_23  and  C12_24 
REMARK   11  A    between atoms: C12_24  and  C13_25 
ROOT
HETATM    1  N1  UNL     1     -39.366 -60.203 -46.471  1.00  0.00    -0.155 N 
HETATM    2  C6  UNL     1     -40.567 -60.643 -46.883  1.00  0.00     0.682 A 
HETATM    3  N3  UNL     1     -41.267 -61.549 -46.149  1.00  0.00    -0.175 N 
ATOM      4  H3  UNL     1     -42.176 -61.860 -46.493  1.00  0.00     0.186 HD
HETATM    5  C7  UNL     1     -40.809 -62.048 -44.990  1.00  0.00     0.147 A 
HETATM    6  C10 UNL     1     -39.577 -61.616 -44.540  1.00  0.00     0.123 A 
HETATM    7  N5  UNL     1     -38.835 -61.906 -43.439  1.00  0.00    -0.340 N 
ATOM      8  H5  UNL     1     -39.090 -62.553 -42.693  1.00  0.00     0.167 HD
HETATM    9  C11 UNL     1     -37.693 -61.177 -43.514  1.00  0.00     0.083 A 
HETATM   10  N6  UNL     1     -37.754 -60.453 -44.654  1.00  0.00    -0.329 N 
ATOM     11  H6  UNL     1     -37.029 -59.809 -44.972  1.00  0.00     0.168 HD
HETATM   12  C15 UNL     1     -38.896 -60.696 -45.311  1.00  0.00     0.156 A 
ENDROOT
BRANCH   5  13
HETATM   13  N4  UNL     1     -41.437 -62.904 -44.267  1.00  0.00    -0.372 N 
ATOM     14  H4  UNL     1     -41.595 -62.687 -43.283  1.00  0.00     0.161 HD
BRANCH  13  15
HETATM   15  C8  UNL     1     -41.931 -64.164 -44.784  1.00  0.00     0.147 C 
BRANCH  15  16
HETATM   16  C9  UNL     1     -43.443 -64.247 -44.751  1.00  0.00     0.183 C 
BRANCH  16  17
HETATM   17  O1  UNL     1     -43.887 -64.544 -46.040  1.00  0.00    -0.399 OA
ATOM     18  H1  UNL     1     -43.706 -65.461 -46.209  1.00  0.00     0.209 HD
ENDBRANCH  16  17
ENDBRANCH  15  16
ENDBRANCH  13  15
ENDBRANCH   5  13
BRANCH   2  19
HETATM   19  N2  UNL     1     -41.036 -60.184 -47.991  1.00  0.00    -0.234 N 
ATOM     20  H22 UNL     1     -40.420 -59.995 -48.782  1.00  0.00     0.174 HD
ATOM     21  H21 UNL     1     -42.040 -60.014 -48.058  1.00  0.00     0.174 HD
ENDBRANCH   2  19
BRANCH   1  22
HETATM   22  C5  UNL     1     -38.596 -59.233 -47.239  1.00  0.00     0.243 C 
BRANCH  22  23
HETATM   23  C4  UNL     1     -38.186 -59.820 -48.520  1.00  0.00    -0.086 C 
BRANCH  23  24
HETATM   24  C3  UNL     1     -37.834 -60.295 -49.571  1.00  0.00    -0.105 C 
BRANCH  24  25
HETATM   25  C2  UNL     1     -37.397 -60.896 -50.844  1.00  0.00     0.089 C 
HETATM   26  C1  UNL     1     -38.642 -61.241 -51.615  1.00  0.00     0.018 C 
ENDBRANCH  24  25
ENDBRANCH  23  24
ENDBRANCH  22  23
ENDBRANCH   1  22
BRANCH   9  27
HETATM   27  C12 UNL     1     -36.571 -61.161 -42.536  1.00  0.00     0.076 C 
BRANCH  27  28
HETATM   28  C13 UNL     1     -35.695 -62.376 -42.795  1.00  0.00     0.003 C 
HETATM   29  C14 UNL     1     -35.019 -62.144 -44.137  1.00  0.00     0.005 C 
ENDBRANCH  27  28
ENDBRANCH   9  27
TORSDOF 11
ENDMDL
MODEL 5
REMARK VINA RESULT: -6.853177219      2.684      5.638
REMARK  11 active torsions:
REMARK  status: ('A' for Active; 'I' for Inactive)
REMARK    1  A    between atoms: C2_2  and  C3_3 
REMARK    2  A    between atoms: C3_3  and  C4_4 
REMARK    3  A    between atoms: C4_4  and  C5_5 
REMARK    4  A    between atoms: C5_5  and  N1_6 
REMARK    5  A    between atoms: C6_7  and  N2_8 
REMARK    6  A    between atoms: C7_13  and  N4_14 
REMARK    7  A    between atoms: N4_14  and  C8_16 
REMARK    8  A    between atoms: C8_16  and  C9_17 
REMARK    9  A    between atoms: C9_17  and  O1_18 
REMARK   10  A    between atoms: C11_23  and  C12_24 
REMARK   11  A    between atoms: C12_24  and  C13_25 
ROOT
HETATM    1  N1  UNL     1     -39.879 -59.867 -47.452  1.00  0.00    -0.155 N 
HETATM    2  C6  UNL     1     -40.310 -59.890 -48.725  1.00  0.00     0.682 A 
HETATM    3  N3  UNL     1     -39.462 -60.201 -49.742  1.00  0.00    -0.175 N 
ATOM      4  H3  UNL     1     -39.823 -60.208 -50.696  1.00  0.00     0.186 HD
HETATM    5  C7  UNL     1     -38.168 -60.499 -49.538  1.00  0.00     0.147 A 
HETATM    6  C10 UNL     1     -37.696 -60.483 -48.240  1.00  0.00     0.123 A 
HETATM    7  N5  UNL     1     -36.477 -60.728 -47.691  1.00  0.00    -0.340 N 
ATOM      8  H5  UNL     1     -35.630 -60.989 -48.195  1.00  0.00     0.167 HD
HETATM    9  C11 UNL     1     -36.595 -60.564 -46.349  1.00  0.00     0.083 A 
HETATM   10  N6  UNL     1     -37.879 -60.223 -46.098  1.00  0.00    -0.329 N 
ATOM     11  H6  UNL     1     -38.259 -60.036 -45.170  1.00  0.00     0.168 HD
HETATM   12  C15 UNL     1     -38.585 -60.163 -47.235  1.00  0.00     0.156 A 
ENDROOT
BRANCH   5  13
HETATM   13  N4  UNL     1     -37.334 -60.797 -50.468  1.00  0.00    -0.372 N 
ATOM     14  H4  UNL     1     -36.362 -60.972 -50.213  1.00  0.00     0.161 HD
BRANCH  13  15
HETATM   15  C8  UNL     1     -37.710 -60.896 -51.864  1.00  0.00     0.147 C 
BRANCH  15  16
HETATM   16  C9  UNL     1     -38.215 -62.276 -52.229  1.00  0.00     0.183 C 
BRANCH  16  17
HETATM   17  O1  UNL     1     -39.572 -62.337 -51.910  1.00  0.00    -0.399 OA
ATOM     18  H1  UNL     1     -39.665 -62.851 -51.117  1.00  0.00     0.209 HD
ENDBRANCH  16  17
ENDBRANCH  15  16
ENDBRANCH  13  15
ENDBRANCH   5  13
BRANCH   2  19
HETATM   19  N2  UNL     1     -41.545 -59.609 -48.956  1.00  0.00    -0.234 N 
ATOM     20  H22 UNL     1     -41.805 -58.762 -49.462  1.00  0.00     0.174 HD
ATOM     21  H21 UNL     1     -42.259 -60.255 -48.618  1.00  0.00     0.174 HD
ENDBRANCH   2  19
BRANCH   1  22
HETATM   22  C5  UNL     1     -40.769 -59.537 -46.346  1.00  0.00     0.243 C 
BRANCH  22  23
HETATM   23  C4  UNL     1     -40.443 -60.363 -45.178  1.00  0.00    -0.086 C 
BRANCH  23  24
HETATM   24  C3  UNL     1     -40.160 -61.038 -44.219  1.00  0.00    -0.105 C 
BRANCH  24  25
HETATM   25  C2  UNL     1     -39.816 -61.841 -43.032  1.00  0.00     0.089 C 
HETATM   26  C1  UNL     1     -39.270 -60.890 -42.003  1.00  0.00     0.018 C 
ENDBRANCH  24  25
ENDBRANCH  23  24
ENDBRANCH  22  23
ENDBRANCH   1  22
BRANCH   9  27
HETATM   27  C12 UNL     1     -35.525 -60.723 -45.327  1.00  0.00     0.076 C 
BRANCH  27  28
HETATM   28  C13 UNL     1     -36.177 -61.122 -44.013  1.00  0.00     0.003 C 
HETATM   29  C14 UNL     1     -35.400 -62.319 -43.490  1.00  0.00     0.005 C 
ENDBRANCH  27  28
ENDBRANCH   9  27
TORSDOF 11
ENDMDL
