MODEL 1
REMARK VINA RESULT: -7.406537490      0.000      0.000
REMARK  7 active torsions:
REMARK  status: ('A' for Active; 'I' for Inactive)
REMARK    1  A    between atoms: C3_3  and  N1_4 
REMARK    2  A    between atoms: N1_4  and  C5_6 
REMARK    3  A    between atoms: C5_6  and  C6_7 
REMARK    4  A    between atoms: C9_14  and  N4_15 
REMARK    5  A    between atoms: N4_15  and  C10_17 
REMARK    6  A    between atoms: C10_17  and  C11_18 
REMARK    7  A    between atoms: C14_26  and  N7_27 
ROOT
HETATM    1  C1  UNL     1     -37.179 -61.810 -41.603  1.00  0.00     0.098 C 
HETATM    2  C2  UNL     1     -38.324 -61.621 -42.001  1.00  0.00    -0.158 C 
HETATM    3  C3  UNL     1     -39.688 -61.373 -42.457  1.00  0.00     0.351 C 
ENDROOT
BRANCH   3   4
HETATM    4  N1  UNL     1     -39.742 -61.725 -43.883  1.00  0.00     0.098 N 
HETATM    5  C4  UNL     1     -40.992 -62.429 -44.044  1.00  0.00     0.311 C 
BRANCH   4   6
HETATM    6  C5  UNL     1     -39.651 -60.509 -44.656  1.00  0.00     0.314 C 
BRANCH   6   7
HETATM    7  C6  UNL     1     -38.578 -60.508 -45.652  1.00  0.00     0.003 A 
HETATM    8  C7  UNL     1     -37.236 -60.640 -45.352  1.00  0.00     0.099 A 
HETATM    9  N2  UNL     1     -36.525 -60.573 -46.505  1.00  0.00    -0.350 N 
HETATM   10  C8  UNL     1     -37.352 -60.402 -47.551  1.00  0.00     0.135 A 
ATOM     11  H2  UNL     1     -35.510 -60.642 -46.570  1.00  0.00     0.166 HD
HETATM   12  N3  UNL     1     -37.147 -60.277 -48.896  1.00  0.00    -0.176 N 
HETATM   13  C15 UNL     1     -38.624 -60.362 -47.017  1.00  0.00     0.062 A 
HETATM   14  C9  UNL     1     -38.203 -60.115 -49.701  1.00  0.00     0.681 A 
ATOM     15  H3  UNL     1     -36.203 -60.308 -49.280  1.00  0.00     0.186 HD
HETATM   16  N6  UNL     1     -39.438 -60.077 -49.184  1.00  0.00    -0.176 N 
HETATM   17  C14 UNL     1     -39.674 -60.196 -47.863  1.00  0.00     0.129 A 
ATOM     18  H6  UNL     1     -40.231 -59.953 -49.815  1.00  0.00     0.186 HD
BRANCH  14  19
HETATM   19  N4  UNL     1     -37.991 -59.995 -50.983  1.00  0.00    -0.218 N 
ATOM     20  H4  UNL     1     -37.629 -59.113 -51.348  1.00  0.00     0.178 HD
BRANCH  19  21
HETATM   21  C10 UNL     1     -38.258 -61.081 -51.901  1.00  0.00     0.222 C 
BRANCH  21  22
HETATM   22  C11 UNL     1     -39.706 -61.398 -51.867  1.00  0.00     0.141 A 
HETATM   23  N5  UNL     1     -40.717 -60.704 -52.411  1.00  0.00    -0.347 N 
HETATM   24  C12 UNL     1     -41.851 -61.385 -52.117  1.00  0.00     0.114 A 
ATOM     25  H5  UNL     1     -40.646 -59.836 -52.942  1.00  0.00     0.167 HD
HETATM   26  C13 UNL     1     -41.495 -62.490 -51.390  1.00  0.00     0.161 A 
HETATM   27  O1  UNL     1     -40.191 -62.466 -51.258  1.00  0.00    -0.307 OA
ENDBRANCH  21  22
ENDBRANCH  19  21
ENDBRANCH  14  19
BRANCH  17  28
HETATM   28  N7  UNL     1     -40.859 -60.156 -47.394  1.00  0.00    -0.384 N 
ATOM     29  H72 UNL     1     -41.628 -59.853 -47.993  1.00  0.00     0.157 HD
ATOM     30  H71 UNL     1     -41.057 -60.420 -46.428  1.00  0.00     0.157 HD
ENDBRANCH  17  28
ENDBRANCH   6   7
ENDBRANCH   4   6
ENDBRANCH   3   4
TORSDOF 7
ENDMDL
MODEL 2
REMARK VINA RESULT: -7.373239010      1.622      3.208
REMARK  7 active torsions:
REMARK  status: ('A' for Active; 'I' for Inactive)
REMARK    1  A    between atoms: C3_3  and  N1_4 
REMARK    2  A    between atoms: N1_4  and  C5_6 
REMARK    3  A    between atoms: C5_6  and  C6_7 
REMARK    4  A    between atoms: C9_14  and  N4_15 
REMARK    5  A    between atoms: N4_15  and  C10_17 
REMARK    6  A    between atoms: C10_17  and  C11_18 
REMARK    7  A    between atoms: C14_26  and  N7_27 
ROOT
HETATM    1  C1  UNL     1     -35.230 -61.187 -45.421  1.00  0.00     0.098 C 
HETATM    2  C2  UNL     1     -35.530 -61.527 -44.281  1.00  0.00    -0.158 C 
HETATM    3  C3  UNL     1     -35.864 -61.917 -42.916  1.00  0.00     0.351 C 
ENDROOT
BRANCH   3   4
HETATM    4  N1  UNL     1     -37.330 -61.903 -42.804  1.00  0.00     0.098 N 
HETATM    5  C4  UNL     1     -37.593 -61.901 -41.385  1.00  0.00     0.311 C 
BRANCH   4   6
HETATM    6  C5  UNL     1     -37.827 -60.736 -43.494  1.00  0.00     0.314 C 
BRANCH   6   7
HETATM    7  C6  UNL     1     -38.997 -60.989 -44.337  1.00  0.00     0.003 A 
HETATM    8  C7  UNL     1     -40.073 -61.770 -43.964  1.00  0.00     0.099 A 
HETATM    9  N2  UNL     1     -40.959 -61.807 -44.989  1.00  0.00    -0.350 N 
HETATM   10  C8  UNL     1     -40.504 -61.077 -46.022  1.00  0.00     0.135 A 
ATOM     11  H2  UNL     1     -41.844 -62.315 -44.979  1.00  0.00     0.166 HD
HETATM   12  N3  UNL     1     -41.005 -60.795 -47.262  1.00  0.00    -0.176 N 
HETATM   13  C15 UNL     1     -39.287 -60.571 -45.613  1.00  0.00     0.062 A 
HETATM   14  C9  UNL     1     -40.296 -60.016 -48.086  1.00  0.00     0.681 A 
ATOM     15  H3  UNL     1     -41.906 -61.174 -47.554  1.00  0.00     0.186 HD
HETATM   16  N6  UNL     1     -39.115 -59.524 -47.690  1.00  0.00    -0.176 N 
HETATM   17  C14 UNL     1     -38.593 -59.783 -46.475  1.00  0.00     0.129 A 
ATOM     18  H6  UNL     1     -38.589 -58.930 -48.333  1.00  0.00     0.186 HD
BRANCH  14  19
HETATM   19  N4  UNL     1     -40.786 -59.758 -49.268  1.00  0.00    -0.218 N 
ATOM     20  H4  UNL     1     -40.990 -58.791 -49.522  1.00  0.00     0.178 HD
BRANCH  19  21
HETATM   21  C10 UNL     1     -41.047 -60.810 -50.227  1.00  0.00     0.222 C 
BRANCH  21  22
HETATM   22  C11 UNL     1     -39.781 -61.159 -50.916  1.00  0.00     0.141 A 
HETATM   23  N5  UNL     1     -39.573 -62.132 -51.817  1.00  0.00    -0.347 N 
HETATM   24  C12 UNL     1     -38.263 -62.062 -52.161  1.00  0.00     0.114 A 
ATOM     25  H5  UNL     1     -40.263 -62.793 -52.174  1.00  0.00     0.167 HD
HETATM   26  C13 UNL     1     -37.702 -61.035 -51.448  1.00  0.00     0.161 A 
HETATM   27  O1  UNL     1     -38.649 -60.512 -50.707  1.00  0.00    -0.307 OA
ENDBRANCH  21  22
ENDBRANCH  19  21
ENDBRANCH  14  19
BRANCH  17  28
HETATM   28  N7  UNL     1     -37.466 -59.304 -46.120  1.00  0.00    -0.384 N 
ATOM     29  H72 UNL     1     -37.324 -58.293 -46.129  1.00  0.00     0.157 HD
ATOM     30  H71 UNL     1     -36.700 -59.910 -45.827  1.00  0.00     0.157 HD
ENDBRANCH  17  28
ENDBRANCH   6   7
ENDBRANCH   4   6
ENDBRANCH   3   4
TORSDOF 7
ENDMDL
MODEL 3
REMARK VINA RESULT: -7.363058545      1.038      2.079
REMARK  7 active torsions:
REMARK  status: ('A' for Active; 'I' for Inactive)
REMARK    1  A    between atoms: C3_3  and  N1_4 
REMARK    2  A    between atoms: N1_4  and  C5_6 
REMARK    3  A    between atoms: C5_6  and  C6_7 
REMARK    4  A    between atoms: C9_14  and  N4_15 
REMARK    5  A    between atoms: N4_15  and  C10_17 
REMARK    6  A    between atoms: C10_17  and  C11_18 
REMARK    7  A    between atoms: C14_26  and  N7_27 
ROOT
HETATM    1  C1  UNL     1     -35.976 -61.970 -42.954  1.00  0.00     0.098 C 
HETATM    2  C2  UNL     1     -37.193 -61.836 -42.881  1.00  0.00    -0.158 C 
HETATM    3  C3  UNL     1     -38.638 -61.661 -42.770  1.00  0.00     0.351 C 
ENDROOT
BRANCH   3   4
HETATM    4  N1  UNL     1     -39.174 -61.586 -44.137  1.00  0.00     0.098 N 
HETATM    5  C4  UNL     1     -40.534 -62.057 -44.028  1.00  0.00     0.311 C 
BRANCH   4   6
HETATM    6  C5  UNL     1     -39.061 -60.221 -44.595  1.00  0.00     0.314 C 
BRANCH   6   7
HETATM    7  C6  UNL     1     -39.493 -60.014 -45.978  1.00  0.00     0.003 A 
HETATM    8  C7  UNL     1     -40.769 -59.639 -46.349  1.00  0.00     0.099 A 
HETATM    9  N2  UNL     1     -40.823 -59.563 -47.702  1.00  0.00    -0.350 N 
HETATM   10  C8  UNL     1     -39.629 -59.873 -48.233  1.00  0.00     0.135 A 
ATOM     11  H2  UNL     1     -41.652 -59.307 -48.240  1.00  0.00     0.166 HD
HETATM   12  N3  UNL     1     -39.164 -59.944 -49.515  1.00  0.00    -0.176 N 
HETATM   13  C15 UNL     1     -38.806 -60.152 -47.160  1.00  0.00     0.062 A 
HETATM   14  C9  UNL     1     -37.888 -60.290 -49.725  1.00  0.00     0.681 A 
ATOM     15  H3  UNL     1     -39.780 -59.735 -50.301  1.00  0.00     0.186 HD
HETATM   16  N6  UNL     1     -37.089 -60.561 -48.685  1.00  0.00    -0.176 N 
HETATM   17  C14 UNL     1     -37.517 -60.500 -47.409  1.00  0.00     0.129 A 
ATOM     18  H6  UNL     1     -36.120 -60.822 -48.866  1.00  0.00     0.186 HD
BRANCH  14  19
HETATM   19  N4  UNL     1     -37.460 -60.356 -50.956  1.00  0.00    -0.218 N 
ATOM     20  H4  UNL     1     -36.819 -59.641 -51.299  1.00  0.00     0.178 HD
BRANCH  19  21
HETATM   21  C10 UNL     1     -37.872 -61.420 -51.847  1.00  0.00     0.222 C 
BRANCH  21  22
HETATM   22  C11 UNL     1     -39.353 -61.428 -51.936  1.00  0.00     0.141 A 
HETATM   23  N5  UNL     1     -40.197 -62.408 -51.577  1.00  0.00    -0.347 N 
HETATM   24  C12 UNL     1     -41.446 -61.955 -51.844  1.00  0.00     0.114 A 
ATOM     25  H5  UNL     1     -39.947 -63.314 -51.180  1.00  0.00     0.167 HD
HETATM   26  C13 UNL     1     -41.327 -60.695 -52.368  1.00  0.00     0.161 A 
HETATM   27  O1  UNL     1     -40.048 -60.409 -52.408  1.00  0.00    -0.307 OA
ENDBRANCH  21  22
ENDBRANCH  19  21
ENDBRANCH  14  19
BRANCH  17  28
HETATM   28  N7  UNL     1     -36.737 -60.763 -46.434  1.00  0.00    -0.384 N 
ATOM     29  H72 UNL     1     -36.006 -61.465 -46.550  1.00  0.00     0.157 HD
ATOM     30  H71 UNL     1     -36.829 -60.285 -45.538  1.00  0.00     0.157 HD
ENDBRANCH  17  28
ENDBRANCH   6   7
ENDBRANCH   4   6
ENDBRANCH   3   4
TORSDOF 7
ENDMDL
MODEL 4
REMARK VINA RESULT: -7.341656126      1.490      2.366
REMARK  7 active torsions:
REMARK  status: ('A' for Active; 'I' for Inactive)
REMARK    1  A    between atoms: C3_3  and  N1_4 
REMARK    2  A    between atoms: N1_4  and  C5_6 
REMARK    3  A    between atoms: C5_6  and  C6_7 
REMARK    4  A    between atoms: C9_14  and  N4_15 
REMARK    5  A    between atoms: N4_15  and  C10_17 
REMARK    6  A    between atoms: C10_17  and  C11_18 
REMARK    7  A    between atoms: C14_26  and  N7_27 
ROOT
HETATM    1  C1  UNL     1     -34.908 -62.565 -43.699  1.00  0.00     0.098 C 
HETATM    2  C2  UNL     1     -35.920 -62.331 -43.047  1.00  0.00    -0.158 C 
HETATM    3  C3  UNL     1     -37.108 -62.040 -42.251  1.00  0.00     0.351 C 
ENDROOT
BRANCH   3   4
HETATM    4  N1  UNL     1     -38.208 -61.775 -43.190  1.00  0.00     0.098 N 
HETATM    5  C4  UNL     1     -39.409 -61.913 -42.402  1.00  0.00     0.311 C 
BRANCH   4   6
HETATM    6  C5  UNL     1     -38.022 -60.456 -43.747  1.00  0.00     0.314 C 
BRANCH   6   7
HETATM    7  C6  UNL     1     -37.900 -60.431 -45.206  1.00  0.00     0.003 A 
HETATM    8  C7  UNL     1     -36.703 -60.513 -45.890  1.00  0.00     0.099 A 
HETATM    9  N2  UNL     1     -36.958 -60.436 -47.220  1.00  0.00    -0.350 N 
HETATM   10  C8  UNL     1     -38.278 -60.308 -47.433  1.00  0.00     0.135 A 
ATOM     11  H2  UNL     1     -36.249 -60.471 -47.953  1.00  0.00     0.166 HD
HETATM   12  N3  UNL     1     -39.037 -60.195 -48.563  1.00  0.00    -0.176 N 
HETATM   13  C15 UNL     1     -38.859 -60.305 -46.181  1.00  0.00     0.062 A 
HETATM   14  C9  UNL     1     -40.365 -60.079 -48.445  1.00  0.00     0.681 A 
ATOM     15  H3  UNL     1     -38.598 -60.198 -49.484  1.00  0.00     0.186 HD
HETATM   16  N6  UNL     1     -40.930 -60.077 -47.231  1.00  0.00    -0.176 N 
HETATM   17  C14 UNL     1     -40.210 -60.187 -46.097  1.00  0.00     0.129 A 
ATOM     18  H6  UNL     1     -41.944 -59.990 -47.161  1.00  0.00     0.186 HD
BRANCH  14  19
HETATM   19  N4  UNL     1     -41.076 -59.969 -49.534  1.00  0.00    -0.218 N 
ATOM     20  H4  UNL     1     -41.541 -59.084 -49.737  1.00  0.00     0.178 HD
BRANCH  19  21
HETATM   21  C10 UNL     1     -41.221 -61.072 -50.460  1.00  0.00     0.222 C 
BRANCH  21  22
HETATM   22  C11 UNL     1     -39.941 -61.266 -51.183  1.00  0.00     0.141 A 
HETATM   23  N5  UNL     1     -39.375 -62.422 -51.566  1.00  0.00    -0.347 N 
HETATM   24  C12 UNL     1     -38.219 -62.093 -52.191  1.00  0.00     0.114 A 
ATOM     25  H5  UNL     1     -39.743 -63.361 -51.415  1.00  0.00     0.167 HD
HETATM   26  C13 UNL     1     -38.110 -60.727 -52.172  1.00  0.00     0.161 A 
HETATM   27  O1  UNL     1     -39.169 -60.261 -51.555  1.00  0.00    -0.307 OA
ENDBRANCH  21  22
ENDBRANCH  19  21
ENDBRANCH  14  19
BRANCH  17  28
HETATM   28  N7  UNL     1     -40.770 -60.182 -44.951  1.00  0.00    -0.384 N 
ATOM     29  H72 UNL     1     -40.680 -60.996 -44.343  1.00  0.00     0.157 HD
ATOM     30  H71 UNL     1     -41.310 -59.378 -44.628  1.00  0.00     0.157 HD
ENDBRANCH  17  28
ENDBRANCH   6   7
ENDBRANCH   4   6
ENDBRANCH   3   4
TORSDOF 7
ENDMDL
MODEL 5
REMARK VINA RESULT: -6.882940999      1.607      2.581
REMARK  7 active torsions:
REMARK  status: ('A' for Active; 'I' for Inactive)
REMARK    1  A    between atoms: C3_3  and  N1_4 
REMARK    2  A    between atoms: N1_4  and  C5_6 
REMARK    3  A    between atoms: C5_6  and  C6_7 
REMARK    4  A    between atoms: C9_14  and  N4_15 
REMARK    5  A    between atoms: N4_15  and  C10_17 
REMARK    6  A    between atoms: C10_17  and  C11_18 
REMARK    7  A    between atoms: C14_26  and  N7_27 
ROOT
HETATM    1  C1  UNL     1     -39.806 -59.708 -41.443  1.00  0.00     0.098 C 
HETATM    2  C2  UNL     1     -38.755 -60.340 -41.426  1.00  0.00    -0.158 C 
HETATM    3  C3  UNL     1     -37.516 -61.109 -41.385  1.00  0.00     0.351 C 
ENDROOT
BRANCH   3   4
HETATM    4  N1  UNL     1     -37.011 -61.196 -42.763  1.00  0.00     0.098 N 
HETATM    5  C4  UNL     1     -36.054 -62.276 -42.740  1.00  0.00     0.311 C 
BRANCH   4   6
HETATM    6  C5  UNL     1     -38.132 -61.425 -43.645  1.00  0.00     0.314 C 
BRANCH   6   7
HETATM    7  C6  UNL     1     -37.969 -60.857 -44.984  1.00  0.00     0.003 A 
HETATM    8  C7  UNL     1     -36.770 -60.405 -45.499  1.00  0.00     0.099 A 
HETATM    9  N2  UNL     1     -36.987 -59.924 -46.748  1.00  0.00    -0.350 N 
HETATM   10  C8  UNL     1     -38.286 -60.046 -47.073  1.00  0.00     0.135 A 
ATOM     11  H2  UNL     1     -36.269 -59.528 -47.354  1.00  0.00     0.166 HD
HETATM   12  N3  UNL     1     -39.006 -59.722 -48.187  1.00  0.00    -0.176 N 
HETATM   13  C15 UNL     1     -38.891 -60.625 -45.976  1.00  0.00     0.062 A 
HETATM   14  C9  UNL     1     -40.320 -59.975 -48.207  1.00  0.00     0.681 A 
ATOM     15  H3  UNL     1     -38.549 -59.295 -48.993  1.00  0.00     0.186 HD
HETATM   16  N6  UNL     1     -40.909 -60.538 -47.143  1.00  0.00    -0.176 N 
HETATM   17  C14 UNL     1     -40.226 -60.867 -46.029  1.00  0.00     0.129 A 
ATOM     18  H6  UNL     1     -41.911 -60.724 -47.177  1.00  0.00     0.186 HD
BRANCH  14  19
HETATM   19  N4  UNL     1     -40.995 -59.658 -49.278  1.00  0.00    -0.218 N 
ATOM     20  H4  UNL     1     -41.300 -58.693 -49.406  1.00  0.00     0.178 HD
BRANCH  19  21
HETATM   21  C10 UNL     1     -41.322 -60.642 -50.287  1.00  0.00     0.222 C 
BRANCH  21  22
HETATM   22  C11 UNL     1     -40.091 -60.994 -51.035  1.00  0.00     0.141 A 
HETATM   23  N5  UNL     1     -39.777 -62.168 -51.604  1.00  0.00    -0.347 N 
HETATM   24  C12 UNL     1     -38.556 -62.006 -52.168  1.00  0.00     0.114 A 
ATOM     25  H5  UNL     1     -40.345 -63.016 -51.610  1.00  0.00     0.167 HD
HETATM   26  C13 UNL     1     -38.153 -60.720 -51.923  1.00  0.00     0.161 A 
HETATM   27  O1  UNL     1     -39.105 -60.138 -51.237  1.00  0.00    -0.307 OA
ENDBRANCH  21  22
ENDBRANCH  19  21
ENDBRANCH  14  19
BRANCH  17  28
HETATM   28  N7  UNL     1     -40.808 -61.402 -45.028  1.00  0.00    -0.384 N 
ATOM     29  H72 UNL     1     -41.541 -60.888 -44.539  1.00  0.00     0.157 HD
ATOM     30  H71 UNL     1     -40.557 -62.336 -44.704  1.00  0.00     0.157 HD
ENDBRANCH  17  28
ENDBRANCH   6   7
ENDBRANCH   4   6
ENDBRANCH   3   4
TORSDOF 7
ENDMDL
