MODEL 1
REMARK VINA RESULT: -7.670976315      0.000      0.000
REMARK  6 active torsions:
REMARK  status: ('A' for Active; 'I' for Inactive)
REMARK    1  A    between atoms: C2_3  and  C3_4 
REMARK    2  A    between atoms: C5_10  and  C6_11 
REMARK    3  A    between atoms: C6_11  and  C7_12 
REMARK       I    between atoms: C7_12  and  N2_14 
REMARK    4  A    between atoms: N2_14  and  C8_16 
REMARK    5  A    between atoms: C8_16  and  C9_17 
REMARK       I    between atoms: C9_17  and  N3_19 
REMARK    6  A    between atoms: N3_19  and  C10_21 
ROOT
HETATM    1  C8  UNL     1     -14.858 -44.242 -57.524  1.00  0.00     0.113 C 
HETATM    2  C16 UNL     1     -15.450 -45.282 -58.440  1.00  0.00     0.041 C 
HETATM    3  C17 UNL     1     -14.593 -46.514 -58.445  1.00  0.00     0.003 C 
HETATM    4  C18 UNL     1     -15.151 -47.562 -57.468  1.00  0.00     0.000 C 
HETATM    5  C19 UNL     1     -14.798 -47.034 -56.089  1.00  0.00     0.000 C 
HETATM    6  C20 UNL     1     -15.734 -45.880 -55.806  1.00  0.00     0.003 C 
HETATM    7  C21 UNL     1     -15.148 -44.540 -56.068  1.00  0.00     0.041 C 
ENDROOT
BRANCH   1   8
HETATM    8  N2  UNL     1     -13.430 -44.222 -57.728  1.00  0.00    -0.343 N 
HETATM    9  C7  UNL     1     -12.775 -43.811 -58.907  1.00  0.00     0.223 C 
HETATM   10  O1  UNL     1     -13.396 -43.414 -59.921  1.00  0.00    -0.273 OA
ATOM     11  H2  UNL     1     -12.844 -44.532 -56.952  1.00  0.00     0.163 HD
BRANCH   9  12
HETATM   12  C6  UNL     1     -11.278 -43.823 -59.019  1.00  0.00     0.151 C 
BRANCH  12  13
HETATM   13  C5  UNL     1     -10.770 -45.243 -59.009  1.00  0.00     0.016 A 
HETATM   14  C1  UNL     1     -10.516 -46.034 -57.924  1.00  0.00     0.075 A 
HETATM   15  N1  UNL     1     -10.748 -45.499 -56.587  1.00  0.00    -0.100 NA
HETATM   16  C2  UNL     1     -10.060 -47.281 -58.171  1.00  0.00     0.079 A 
HETATM   17  C4  UNL     1      -9.893 -47.640 -59.475  1.00  0.00     0.068 A 
HETATM   18  S1  UNL     1     -10.370 -46.246 -60.328  1.00  0.00    -0.103 SA
BRANCH  16  19
HETATM   19  C3  UNL     1      -9.738 -48.264 -57.060  1.00  0.00     0.419 C 
HETATM   20  F1  UNL     1     -10.962 -48.731 -56.620  1.00  0.00    -0.166 F 
HETATM   21  F2  UNL     1      -9.075 -49.355 -57.624  1.00  0.00    -0.166 F 
HETATM   22  F3  UNL     1      -9.011 -47.675 -56.081  1.00  0.00    -0.166 F 
ENDBRANCH  16  19
ENDBRANCH  12  13
ENDBRANCH   9  12
ENDBRANCH   1   8
BRANCH   1  23
HETATM   23  C9  UNL     1     -15.399 -42.892 -57.809  1.00  0.00     0.246 C 
HETATM   24  O2  UNL     1     -15.142 -41.935 -57.038  1.00  0.00    -0.271 OA
HETATM   25  N3  UNL     1     -16.213 -42.660 -58.953  1.00  0.00    -0.354 N 
ATOM     26  H3  UNL     1     -16.409 -43.452 -59.564  1.00  0.00     0.162 HD
BRANCH  25  27
HETATM   27  C10 UNL     1     -16.774 -41.396 -59.304  1.00  0.00     0.084 C 
HETATM   28  C11 UNL     1     -16.079 -40.730 -60.468  1.00  0.00     0.025 C 
HETATM   29  C12 UNL     1     -16.953 -39.569 -60.906  1.00  0.00     0.002 C 
HETATM   30  C13 UNL     1     -17.821 -39.088 -59.740  1.00  0.00     0.000 C 
HETATM   31  C14 UNL     1     -18.858 -40.128 -59.382  1.00  0.00     0.002 C 
HETATM   32  C15 UNL     1     -18.245 -41.482 -59.659  1.00  0.00     0.025 C 
ENDBRANCH  25  27
ENDBRANCH   1  23
TORSDOF 6
ENDMDL
MODEL 2
REMARK VINA RESULT: -7.602821280      4.368      7.802
REMARK  6 active torsions:
REMARK  status: ('A' for Active; 'I' for Inactive)
REMARK    1  A    between atoms: C2_3  and  C3_4 
REMARK    2  A    between atoms: C5_10  and  C6_11 
REMARK    3  A    between atoms: C6_11  and  C7_12 
REMARK       I    between atoms: C7_12  and  N2_14 
REMARK    4  A    between atoms: N2_14  and  C8_16 
REMARK    5  A    between atoms: C8_16  and  C9_17 
REMARK       I    between atoms: C9_17  and  N3_19 
REMARK    6  A    between atoms: N3_19  and  C10_21 
ROOT
HETATM    1  C8  UNL     1     -12.094 -46.433 -57.439  1.00  0.00     0.113 C 
HETATM    2  C16 UNL     1     -12.033 -47.891 -57.064  1.00  0.00     0.041 C 
HETATM    3  C17 UNL     1     -13.419 -48.458 -56.963  1.00  0.00     0.003 C 
HETATM    4  C18 UNL     1     -13.806 -49.170 -58.270  1.00  0.00     0.000 C 
HETATM    5  C19 UNL     1     -14.080 -48.049 -59.256  1.00  0.00     0.000 C 
HETATM    6  C20 UNL     1     -12.738 -47.475 -59.653  1.00  0.00     0.003 C 
HETATM    7  C21 UNL     1     -12.360 -46.240 -58.917  1.00  0.00     0.041 C 
ENDROOT
BRANCH   1   8
HETATM    8  N2  UNL     1     -13.156 -45.817 -56.682  1.00  0.00    -0.343 N 
HETATM    9  C7  UNL     1     -14.108 -44.910 -57.191  1.00  0.00     0.223 C 
HETATM   10  O1  UNL     1     -14.115 -44.541 -58.389  1.00  0.00    -0.273 OA
ATOM     11  H2  UNL     1     -13.224 -46.059 -55.693  1.00  0.00     0.163 HD
BRANCH   9  12
HETATM   12  C6  UNL     1     -15.181 -44.325 -56.318  1.00  0.00     0.151 C 
BRANCH  12  13
HETATM   13  C5  UNL     1     -15.779 -45.398 -55.443  1.00  0.00     0.016 A 
HETATM   14  C1  UNL     1     -15.941 -45.378 -54.087  1.00  0.00     0.075 A 
HETATM   15  N1  UNL     1     -15.506 -44.205 -53.338  1.00  0.00    -0.100 NA
HETATM   16  C2  UNL     1     -16.505 -46.469 -53.524  1.00  0.00     0.079 A 
HETATM   17  C4  UNL     1     -16.861 -47.489 -54.354  1.00  0.00     0.068 A 
HETATM   18  S1  UNL     1     -16.409 -46.917 -55.891  1.00  0.00    -0.103 SA
BRANCH  16  19
HETATM   19  C3  UNL     1     -16.744 -46.579 -52.029  1.00  0.00     0.419 C 
HETATM   20  F1  UNL     1     -15.487 -46.558 -51.455  1.00  0.00    -0.166 F 
HETATM   21  F2  UNL     1     -17.394 -45.418 -51.606  1.00  0.00    -0.166 F 
HETATM   22  F3  UNL     1     -17.448 -47.696 -51.726  1.00  0.00    -0.166 F 
ENDBRANCH  16  19
ENDBRANCH  12  13
ENDBRANCH   9  12
ENDBRANCH   1   8
BRANCH   1  23
HETATM   23  C9  UNL     1     -10.823 -45.736 -57.130  1.00  0.00     0.246 C 
HETATM   24  O2  UNL     1     -10.598 -44.597 -57.607  1.00  0.00    -0.271 OA
HETATM   25  N3  UNL     1      -9.843 -46.343 -56.296  1.00  0.00    -0.354 N 
ATOM     26  H3  UNL     1     -10.047 -47.269 -55.921  1.00  0.00     0.162 HD
BRANCH  25  27
HETATM   27  C10 UNL     1      -8.595 -45.747 -55.947  1.00  0.00     0.084 C 
HETATM   28  C11 UNL     1      -8.133 -46.087 -54.550  1.00  0.00     0.025 C 
HETATM   29  C12 UNL     1      -6.689 -45.640 -54.434  1.00  0.00     0.002 C 
HETATM   30  C13 UNL     1      -6.401 -44.509 -55.426  1.00  0.00     0.000 C 
HETATM   31  C14 UNL     1      -6.445 -45.024 -56.848  1.00  0.00     0.002 C 
HETATM   32  C15 UNL     1      -7.473 -46.133 -56.889  1.00  0.00     0.025 C 
ENDBRANCH  25  27
ENDBRANCH   1  23
TORSDOF 6
ENDMDL
MODEL 3
REMARK VINA RESULT: -7.339817634      4.418      7.796
REMARK  6 active torsions:
REMARK  status: ('A' for Active; 'I' for Inactive)
REMARK    1  A    between atoms: C2_3  and  C3_4 
REMARK    2  A    between atoms: C5_10  and  C6_11 
REMARK    3  A    between atoms: C6_11  and  C7_12 
REMARK       I    between atoms: C7_12  and  N2_14 
REMARK    4  A    between atoms: N2_14  and  C8_16 
REMARK    5  A    between atoms: C8_16  and  C9_17 
REMARK       I    between atoms: C9_17  and  N3_19 
REMARK    6  A    between atoms: N3_19  and  C10_21 
ROOT
HETATM    1  C8  UNL     1     -14.655 -46.148 -56.565  1.00  0.00     0.113 C 
HETATM    2  C16 UNL     1     -14.503 -46.087 -55.067  1.00  0.00     0.041 C 
HETATM    3  C17 UNL     1     -15.745 -45.521 -54.443  1.00  0.00     0.003 C 
HETATM    4  C18 UNL     1     -16.665 -46.651 -53.953  1.00  0.00     0.000 C 
HETATM    5  C19 UNL     1     -17.276 -47.230 -55.217  1.00  0.00     0.000 C 
HETATM    6  C20 UNL     1     -16.197 -48.040 -55.897  1.00  0.00     0.003 C 
HETATM    7  C21 UNL     1     -15.500 -47.328 -56.999  1.00  0.00     0.041 C 
ENDROOT
BRANCH   1   8
HETATM    8  N2  UNL     1     -15.285 -44.927 -57.004  1.00  0.00    -0.343 N 
HETATM    9  C7  UNL     1     -14.664 -43.663 -57.073  1.00  0.00     0.223 C 
HETATM   10  O1  UNL     1     -13.468 -43.479 -56.743  1.00  0.00    -0.273 OA
ATOM     11  H2  UNL     1     -16.262 -44.983 -57.290  1.00  0.00     0.163 HD
BRANCH   9  12
HETATM   12  C6  UNL     1     -15.407 -42.448 -57.549  1.00  0.00     0.151 C 
BRANCH  12  13
HETATM   13  C5  UNL     1     -15.958 -42.688 -58.932  1.00  0.00     0.016 A 
HETATM   14  C1  UNL     1     -16.860 -41.924 -59.619  1.00  0.00     0.075 A 
HETATM   15  N1  UNL     1     -17.387 -40.717 -58.994  1.00  0.00    -0.100 NA
HETATM   16  C2  UNL     1     -17.205 -42.350 -60.853  1.00  0.00     0.079 A 
HETATM   17  C4  UNL     1     -16.627 -43.498 -61.304  1.00  0.00     0.068 A 
HETATM   18  S1  UNL     1     -15.621 -43.962 -60.013  1.00  0.00    -0.103 SA
BRANCH  16  19
HETATM   19  C3  UNL     1     -18.195 -41.597 -61.724  1.00  0.00     0.419 C 
HETATM   20  F1  UNL     1     -18.461 -42.440 -62.787  1.00  0.00    -0.166 F 
HETATM   21  F2  UNL     1     -19.389 -41.467 -61.012  1.00  0.00    -0.166 F 
HETATM   22  F3  UNL     1     -17.697 -40.398 -62.108  1.00  0.00    -0.166 F 
ENDBRANCH  16  19
ENDBRANCH  12  13
ENDBRANCH   9  12
ENDBRANCH   1   8
BRANCH   1  23
HETATM   23  C9  UNL     1     -13.343 -46.279 -57.242  1.00  0.00     0.246 C 
HETATM   24  O2  UNL     1     -13.292 -46.548 -58.467  1.00  0.00    -0.271 OA
HETATM   25  N3  UNL     1     -12.130 -46.102 -56.520  1.00  0.00    -0.354 N 
ATOM     26  H3  UNL     1     -12.196 -45.885 -55.526  1.00  0.00     0.162 HD
BRANCH  25  27
HETATM   27  C10 UNL     1     -10.826 -46.208 -57.090  1.00  0.00     0.084 C 
HETATM   28  C11 UNL     1      -9.794 -45.348 -56.400  1.00  0.00     0.025 C 
HETATM   29  C12 UNL     1      -8.434 -45.784 -56.911  1.00  0.00     0.002 C 
HETATM   30  C13 UNL     1      -8.566 -46.419 -58.298  1.00  0.00     0.000 C 
HETATM   31  C14 UNL     1      -9.294 -47.741 -58.212  1.00  0.00     0.002 C 
HETATM   32  C15 UNL     1     -10.293 -47.627 -57.083  1.00  0.00     0.025 C 
ENDBRANCH  25  27
ENDBRANCH   1  23
TORSDOF 6
ENDMDL
MODEL 4
REMARK VINA RESULT: -7.263887980      4.466      7.654
REMARK  6 active torsions:
REMARK  status: ('A' for Active; 'I' for Inactive)
REMARK    1  A    between atoms: C2_3  and  C3_4 
REMARK    2  A    between atoms: C5_10  and  C6_11 
REMARK    3  A    between atoms: C6_11  and  C7_12 
REMARK       I    between atoms: C7_12  and  N2_14 
REMARK    4  A    between atoms: N2_14  and  C8_16 
REMARK    5  A    between atoms: C8_16  and  C9_17 
REMARK       I    between atoms: C9_17  and  N3_19 
REMARK    6  A    between atoms: N3_19  and  C10_21 
ROOT
HETATM    1  C8  UNL     1     -12.721 -45.978 -59.025  1.00  0.00     0.113 C 
HETATM    2  C16 UNL     1     -12.840 -47.474 -58.887  1.00  0.00     0.041 C 
HETATM    3  C17 UNL     1     -14.271 -47.895 -59.053  1.00  0.00     0.003 C 
HETATM    4  C18 UNL     1     -14.532 -48.359 -60.496  1.00  0.00     0.000 C 
HETATM    5  C19 UNL     1     -14.564 -47.081 -61.315  1.00  0.00     0.000 C 
HETATM    6  C20 UNL     1     -13.135 -46.603 -61.442  1.00  0.00     0.003 C 
HETATM    7  C21 UNL     1     -12.758 -45.540 -60.474  1.00  0.00     0.041 C 
ENDROOT
BRANCH   1   8
HETATM    8  N2  UNL     1     -13.820 -45.370 -58.317  1.00  0.00    -0.343 N 
HETATM    9  C7  UNL     1     -13.959 -45.307 -56.916  1.00  0.00     0.223 C 
HETATM   10  O1  UNL     1     -13.111 -45.793 -56.130  1.00  0.00    -0.273 OA
ATOM     11  H2  UNL     1     -14.561 -44.950 -58.879  1.00  0.00     0.163 HD
BRANCH   9  12
HETATM   12  C6  UNL     1     -15.145 -44.646 -56.273  1.00  0.00     0.151 C 
BRANCH  12  13
HETATM   13  C5  UNL     1     -15.798 -45.592 -55.296  1.00  0.00     0.016 A 
HETATM   14  C1  UNL     1     -15.914 -45.448 -53.942  1.00  0.00     0.075 A 
HETATM   15  N1  UNL     1     -15.364 -44.257 -53.305  1.00  0.00    -0.100 NA
HETATM   16  C2  UNL     1     -16.545 -46.440 -53.276  1.00  0.00     0.079 A 
HETATM   17  C4  UNL     1     -17.007 -47.492 -54.009  1.00  0.00     0.068 A 
HETATM   18  S1  UNL     1     -16.560 -47.086 -55.599  1.00  0.00    -0.103 SA
BRANCH  16  19
HETATM   19  C3  UNL     1     -16.744 -46.409 -51.771  1.00  0.00     0.419 C 
HETATM   20  F1  UNL     1     -15.471 -46.368 -51.235  1.00  0.00    -0.166 F 
HETATM   21  F2  UNL     1     -17.354 -45.198 -51.439  1.00  0.00    -0.166 F 
HETATM   22  F3  UNL     1     -17.465 -47.475 -51.350  1.00  0.00    -0.166 F 
ENDBRANCH  16  19
ENDBRANCH  12  13
ENDBRANCH   9  12
ENDBRANCH   1   8
BRANCH   1  23
HETATM   23  C9  UNL     1     -11.449 -45.477 -58.451  1.00  0.00     0.246 C 
HETATM   24  O2  UNL     1     -11.081 -44.297 -58.672  1.00  0.00    -0.271 OA
HETATM   25  N3  UNL     1     -10.631 -46.319 -57.647  1.00  0.00    -0.354 N 
ATOM     26  H3  UNL     1     -10.950 -47.273 -57.483  1.00  0.00     0.162 HD
BRANCH  25  27
HETATM   27  C10 UNL     1      -9.396 -45.921 -57.055  1.00  0.00     0.084 C 
HETATM   28  C11 UNL     1      -9.246 -46.358 -55.617  1.00  0.00     0.025 C 
HETATM   29  C12 UNL     1      -7.798 -46.131 -55.228  1.00  0.00     0.002 C 
HETATM   30  C13 UNL     1      -7.180 -45.033 -56.098  1.00  0.00     0.000 C 
HETATM   31  C14 UNL     1      -7.038 -45.503 -57.528  1.00  0.00     0.002 C 
HETATM   32  C15 UNL     1      -8.187 -46.446 -57.804  1.00  0.00     0.025 C 
ENDBRANCH  25  27
ENDBRANCH   1  23
TORSDOF 6
ENDMDL
MODEL 5
REMARK VINA RESULT: -7.139099926      5.064      9.020
REMARK  6 active torsions:
REMARK  status: ('A' for Active; 'I' for Inactive)
REMARK    1  A    between atoms: C2_3  and  C3_4 
REMARK    2  A    between atoms: C5_10  and  C6_11 
REMARK    3  A    between atoms: C6_11  and  C7_12 
REMARK       I    between atoms: C7_12  and  N2_14 
REMARK    4  A    between atoms: N2_14  and  C8_16 
REMARK    5  A    between atoms: C8_16  and  C9_17 
REMARK       I    between atoms: C9_17  and  N3_19 
REMARK    6  A    between atoms: N3_19  and  C10_21 
ROOT
HETATM    1  C8  UNL     1     -10.965 -48.139 -58.006  1.00  0.00     0.113 C 
HETATM    2  C16 UNL     1     -10.085 -47.658 -59.129  1.00  0.00     0.041 C 
HETATM    3  C17 UNL     1     -10.272 -46.183 -59.339  1.00  0.00     0.003 C 
HETATM    4  C18 UNL     1      -9.175 -45.392 -58.607  1.00  0.00     0.000 C 
HETATM    5  C19 UNL     1      -9.553 -45.473 -57.138  1.00  0.00     0.000 C 
HETATM    6  C20 UNL     1      -9.224 -46.874 -56.676  1.00  0.00     0.003 C 
HETATM    7  C21 UNL     1     -10.387 -47.798 -56.649  1.00  0.00     0.041 C 
ENDROOT
BRANCH   1   8
HETATM    8  N2  UNL     1     -12.256 -47.509 -58.143  1.00  0.00    -0.343 N 
HETATM    9  C7  UNL     1     -13.359 -47.704 -57.288  1.00  0.00     0.223 C 
HETATM   10  O1  UNL     1     -13.318 -48.472 -56.297  1.00  0.00    -0.273 OA
ATOM     11  H2  UNL     1     -12.380 -46.868 -58.927  1.00  0.00     0.163 HD
BRANCH   9  12
HETATM   12  C6  UNL     1     -14.664 -46.997 -57.514  1.00  0.00     0.151 C 
BRANCH  12  13
HETATM   13  C5  UNL     1     -15.444 -46.923 -56.225  1.00  0.00     0.016 A 
HETATM   14  C1  UNL     1     -15.322 -46.001 -55.224  1.00  0.00     0.075 A 
HETATM   15  N1  UNL     1     -14.340 -44.932 -55.361  1.00  0.00    -0.100 NA
HETATM   16  C2  UNL     1     -16.137 -46.147 -54.157  1.00  0.00     0.079 A 
HETATM   17  C4  UNL     1     -17.006 -47.197 -54.172  1.00  0.00     0.068 A 
HETATM   18  S1  UNL     1     -16.676 -47.956 -55.659  1.00  0.00    -0.103 SA
BRANCH  16  19
HETATM   19  C3  UNL     1     -16.108 -45.194 -52.976  1.00  0.00     0.419 C 
HETATM   20  F1  UNL     1     -17.076 -45.660 -52.107  1.00  0.00    -0.166 F 
HETATM   21  F2  UNL     1     -14.882 -45.348 -52.325  1.00  0.00    -0.166 F 
HETATM   22  F3  UNL     1     -16.319 -43.916 -53.372  1.00  0.00    -0.166 F 
ENDBRANCH  16  19
ENDBRANCH  12  13
ENDBRANCH   9  12
ENDBRANCH   1   8
BRANCH   1  23
HETATM   23  C9  UNL     1     -11.146 -49.610 -58.045  1.00  0.00     0.246 C 
HETATM   24  O2  UNL     1     -11.544 -50.167 -59.098  1.00  0.00    -0.271 OA
HETATM   25  N3  UNL     1     -10.875 -50.408 -56.900  1.00  0.00    -0.354 N 
ATOM     26  H3  UNL     1     -10.554 -49.934 -56.056  1.00  0.00     0.162 HD
BRANCH  25  27
HETATM   27  C10 UNL     1     -11.020 -51.826 -56.848  1.00  0.00     0.084 C 
HETATM   28  C11 UNL     1      -9.705 -52.568 -56.816  1.00  0.00     0.025 C 
HETATM   29  C12 UNL     1     -10.013 -54.011 -56.467  1.00  0.00     0.002 C 
HETATM   30  C13 UNL     1     -11.446 -54.363 -56.875  1.00  0.00     0.000 C 
HETATM   31  C14 UNL     1     -12.442 -53.624 -56.010  1.00  0.00     0.002 C 
HETATM   32  C15 UNL     1     -11.820 -52.294 -55.649  1.00  0.00     0.025 C 
ENDBRANCH  25  27
ENDBRANCH   1  23
TORSDOF 6
ENDMDL
