MODEL 1
REMARK VINA RESULT: -7.405087845      0.000      0.000
REMARK  6 active torsions:
REMARK  status: ('A' for Active; 'I' for Inactive)
REMARK    1  A    between atoms: C2_3  and  C3_4 
REMARK    2  A    between atoms: C2_3  and  C4_6 
REMARK       I    between atoms: C4_6  and  N2_8 
REMARK    3  A    between atoms: N2_8  and  C5_10 
REMARK    4  A    between atoms: C5_10  and  C6_11 
REMARK    5  A    between atoms: C6_11  and  N3_12 
REMARK       I    between atoms: N3_12  and  C7_14 
REMARK       I    between atoms: C7_14  and  N4_16 
REMARK    6  A    between atoms: N4_16  and  C8_18 
ROOT
HETATM    1  N1  UNL     1      17.607   2.819  16.453  1.00  0.00    -0.196 NA
HETATM    2  C1  UNL     1      17.245   3.693  15.791  1.00  0.00     0.074 C 
HETATM    3  C2  UNL     1      16.774   4.772  14.955  1.00  0.00     0.198 C 
ENDROOT
BRANCH   3   4
HETATM    4  C3  UNL     1      15.299   5.039  15.148  1.00  0.00     0.143 C 
HETATM    5 CL1  UNL     1      15.052   6.794  15.299  1.00  0.00    -0.129 Cl
ENDBRANCH   3   4
BRANCH   3   6
HETATM    6  C4  UNL     1      16.976   4.465  13.498  1.00  0.00     0.236 C 
HETATM    7  O1  UNL     1      16.023   4.668  12.730  1.00  0.00    -0.272 OA
HETATM    8  N2  UNL     1      18.209   3.969  13.069  1.00  0.00    -0.358 N 
ATOM      9  H2  UNL     1      18.952   3.831  13.755  1.00  0.00     0.162 HD
BRANCH   8  10
HETATM   10  C5  UNL     1      18.466   3.647  11.692  1.00  0.00     0.142 C 
BRANCH  10  11
HETATM   11  C6  UNL     1      18.974   4.837  10.954  1.00  0.00     0.144 C 
BRANCH  11  12
HETATM   12  N3  UNL     1      17.980   5.379  10.086  1.00  0.00    -0.342 N 
HETATM   13  C7  UNL     1      17.418   6.665  10.293  1.00  0.00     0.316 C 
HETATM   14  O2  UNL     1      17.795   7.334  11.277  1.00  0.00    -0.247 OA
HETATM   15  N4  UNL     1      16.438   7.154   9.370  1.00  0.00    -0.334 N 
ATOM     16  H4  UNL     1      16.174   6.558   8.586  1.00  0.00     0.165 HD
ATOM     17  H3  UNL     1      17.664   4.825   9.291  1.00  0.00     0.164 HD
BRANCH  15  18
HETATM   18  C8  UNL     1      15.811   8.429   9.490  1.00  0.00     0.037 C 
HETATM   19  C9  UNL     1      16.649   9.552   8.941  1.00  0.00     0.035 C 
HETATM   20  C10 UNL     1      15.916  10.869   9.066  1.00  0.00    -0.010 C 
HETATM   21  C11 UNL     1      15.772  11.142  10.558  1.00  0.00     0.009 C 
HETATM   22  C15 UNL     1      14.556  10.862   8.450  1.00  0.00     0.030 C 
HETATM   23  C12 UNL     1      14.945  10.043  11.170  1.00  0.00    -0.010 C 
HETATM   24  C13 UNL     1      13.574  10.025  10.530  1.00  0.00     0.030 C 
HETATM   25  C17 UNL     1      15.536   8.672  10.968  1.00  0.00     0.035 C 
HETATM   26  C14 UNL     1      13.729   9.734   9.073  1.00  0.00     0.040 C 
HETATM   27 CL2  UNL     1      12.121   9.679   8.339  1.00  0.00    -0.119 Cl
HETATM   28  C16 UNL     1      14.474   8.457   8.772  1.00  0.00     0.056 C 
ENDBRANCH  15  18
ENDBRANCH  11  12
ENDBRANCH  10  11
ENDBRANCH   8  10
ENDBRANCH   3   6
TORSDOF 6
ENDMDL
MODEL 2
REMARK VINA RESULT: -7.334349688      1.586      1.694
REMARK  6 active torsions:
REMARK  status: ('A' for Active; 'I' for Inactive)
REMARK    1  A    between atoms: C2_3  and  C3_4 
REMARK    2  A    between atoms: C2_3  and  C4_6 
REMARK       I    between atoms: C4_6  and  N2_8 
REMARK    3  A    between atoms: N2_8  and  C5_10 
REMARK    4  A    between atoms: C5_10  and  C6_11 
REMARK    5  A    between atoms: C6_11  and  N3_12 
REMARK       I    between atoms: N3_12  and  C7_14 
REMARK       I    between atoms: C7_14  and  N4_16 
REMARK    6  A    between atoms: N4_16  and  C8_18 
ROOT
HETATM    1  N1  UNL     1      15.133   1.677  17.237  1.00  0.00    -0.196 NA
HETATM    2  C1  UNL     1      15.699   2.469  16.617  1.00  0.00     0.074 C 
HETATM    3  C2  UNL     1      16.389   3.460  15.825  1.00  0.00     0.198 C 
ENDROOT
BRANCH   3   4
HETATM    4  C3  UNL     1      15.506   4.642  15.496  1.00  0.00     0.143 C 
HETATM    5 CL1  UNL     1      14.345   4.874  16.823  1.00  0.00    -0.129 Cl
ENDBRANCH   3   4
BRANCH   3   6
HETATM    6  C4  UNL     1      16.859   2.888  14.518  1.00  0.00     0.236 C 
HETATM    7  O1  UNL     1      16.587   1.702  14.279  1.00  0.00    -0.272 OA
HETATM    8  N2  UNL     1      17.574   3.701  13.634  1.00  0.00    -0.358 N 
ATOM      9  H2  UNL     1      17.757   4.670  13.893  1.00  0.00     0.162 HD
BRANCH   8  10
HETATM   10  C5  UNL     1      18.059   3.214  12.372  1.00  0.00     0.142 C 
BRANCH  10  11
HETATM   11  C6  UNL     1      18.443   4.343  11.480  1.00  0.00     0.144 C 
BRANCH  11  12
HETATM   12  N3  UNL     1      17.916   5.583  11.949  1.00  0.00    -0.342 N 
HETATM   13  C7  UNL     1      17.275   6.505  11.083  1.00  0.00     0.316 C 
HETATM   14  O2  UNL     1      17.185   6.227   9.869  1.00  0.00    -0.247 OA
HETATM   15  N4  UNL     1      16.752   7.723  11.625  1.00  0.00    -0.334 N 
ATOM     16  H4  UNL     1      16.856   7.890  12.626  1.00  0.00     0.165 HD
ATOM     17  H3  UNL     1      18.003   5.814  12.938  1.00  0.00     0.164 HD
BRANCH  15  18
HETATM   18  C8  UNL     1      16.093   8.715  10.841  1.00  0.00     0.037 C 
HETATM   19  C9  UNL     1      16.984   9.875  10.487  1.00  0.00     0.035 C 
HETATM   20  C10 UNL     1      16.239  10.872   9.629  1.00  0.00    -0.010 C 
HETATM   21  C11 UNL     1      15.129  11.446  10.501  1.00  0.00     0.009 C 
HETATM   22  C15 UNL     1      15.623  10.275   8.407  1.00  0.00     0.030 C 
HETATM   23  C12 UNL     1      14.202  10.328  10.897  1.00  0.00    -0.010 C 
HETATM   24  C13 UNL     1      13.595   9.710   9.656  1.00  0.00     0.030 C 
HETATM   25  C17 UNL     1      14.897   9.216  11.639  1.00  0.00     0.035 C 
HETATM   26  C14 UNL     1      14.691   9.132   8.823  1.00  0.00     0.040 C 
HETATM   27 CL2  UNL     1      13.972   8.381   7.393  1.00  0.00    -0.119 Cl
HETATM   28  C16 UNL     1      15.558   8.131   9.546  1.00  0.00     0.056 C 
ENDBRANCH  15  18
ENDBRANCH  11  12
ENDBRANCH  10  11
ENDBRANCH   8  10
ENDBRANCH   3   6
TORSDOF 6
ENDMDL
MODEL 3
REMARK VINA RESULT: -7.295421401      2.200      2.469
REMARK  6 active torsions:
REMARK  status: ('A' for Active; 'I' for Inactive)
REMARK    1  A    between atoms: C2_3  and  C3_4 
REMARK    2  A    between atoms: C2_3  and  C4_6 
REMARK       I    between atoms: C4_6  and  N2_8 
REMARK    3  A    between atoms: N2_8  and  C5_10 
REMARK    4  A    between atoms: C5_10  and  C6_11 
REMARK    5  A    between atoms: C6_11  and  N3_12 
REMARK       I    between atoms: N3_12  and  C7_14 
REMARK       I    between atoms: C7_14  and  N4_16 
REMARK    6  A    between atoms: N4_16  and  C8_18 
ROOT
HETATM    1  N1  UNL     1      14.631   5.845  14.285  1.00  0.00    -0.196 NA
HETATM    2  C1  UNL     1      15.227   5.016  14.824  1.00  0.00     0.074 C 
HETATM    3  C2  UNL     1      15.976   3.996  15.517  1.00  0.00     0.198 C 
ENDROOT
BRANCH   3   4
HETATM    4  C3  UNL     1      15.498   3.803  16.938  1.00  0.00     0.143 C 
HETATM    5 CL1  UNL     1      13.915   2.992  16.902  1.00  0.00    -0.129 Cl
ENDBRANCH   3   4
BRANCH   3   6
HETATM    6  C4  UNL     1      17.437   4.342  15.591  1.00  0.00     0.236 C 
HETATM    7  O1  UNL     1      18.188   3.545  16.172  1.00  0.00    -0.272 OA
HETATM    8  N2  UNL     1      17.886   5.532  15.012  1.00  0.00    -0.358 N 
ATOM      9  H2  UNL     1      17.213   6.139  14.544  1.00  0.00     0.162 HD
BRANCH   8  10
HETATM   10  C5  UNL     1      19.268   5.927  15.054  1.00  0.00     0.142 C 
BRANCH  10  11
HETATM   11  C6  UNL     1      19.575   6.901  13.970  1.00  0.00     0.144 C 
BRANCH  11  12
HETATM   12  N3  UNL     1      18.695   6.743  12.859  1.00  0.00    -0.342 N 
HETATM   13  C7  UNL     1      17.929   7.819  12.344  1.00  0.00     0.316 C 
HETATM   14  O2  UNL     1      18.018   8.937  12.894  1.00  0.00    -0.247 OA
HETATM   15  N4  UNL     1      17.080   7.593  11.213  1.00  0.00    -0.334 N 
ATOM     16  H4  UNL     1      17.054   6.657  10.808  1.00  0.00     0.165 HD
ATOM     17  H3  UNL     1      18.614   5.826  12.420  1.00  0.00     0.164 HD
BRANCH  15  18
HETATM   18  C8  UNL     1      16.269   8.606  10.621  1.00  0.00     0.037 C 
HETATM   19  C9  UNL     1      17.054   9.820  10.202  1.00  0.00     0.035 C 
HETATM   20  C10 UNL     1      16.145  10.839   9.553  1.00  0.00    -0.010 C 
HETATM   21  C11 UNL     1      15.184  11.313  10.638  1.00  0.00     0.009 C 
HETATM   22  C15 UNL     1      15.346  10.296   8.415  1.00  0.00     0.030 C 
HETATM   23  C12 UNL     1      14.371  10.136  11.106  1.00  0.00    -0.010 C 
HETATM   24  C13 UNL     1      13.579   9.574   9.946  1.00  0.00     0.030 C 
HETATM   25  C17 UNL     1      15.214   9.008  11.642  1.00  0.00     0.035 C 
HETATM   26  C14 UNL     1      14.532   9.093   8.902  1.00  0.00     0.040 C 
HETATM   27 CL2  UNL     1      13.600   8.407   7.565  1.00  0.00    -0.119 Cl
HETATM   28  C16 UNL     1      15.537   8.084   9.398  1.00  0.00     0.056 C 
ENDBRANCH  15  18
ENDBRANCH  11  12
ENDBRANCH  10  11
ENDBRANCH   8  10
ENDBRANCH   3   6
TORSDOF 6
ENDMDL
MODEL 4
REMARK VINA RESULT: -7.286994734      4.401      5.794
REMARK  6 active torsions:
REMARK  status: ('A' for Active; 'I' for Inactive)
REMARK    1  A    between atoms: C2_3  and  C3_4 
REMARK    2  A    between atoms: C2_3  and  C4_6 
REMARK       I    between atoms: C4_6  and  N2_8 
REMARK    3  A    between atoms: N2_8  and  C5_10 
REMARK    4  A    between atoms: C5_10  and  C6_11 
REMARK    5  A    between atoms: C6_11  and  N3_12 
REMARK       I    between atoms: N3_12  and  C7_14 
REMARK       I    between atoms: C7_14  and  N4_16 
REMARK    6  A    between atoms: N4_16  and  C8_18 
ROOT
HETATM    1  N1  UNL     1      17.638   2.821  16.449  1.00  0.00    -0.196 NA
HETATM    2  C1  UNL     1      17.205   3.606  15.722  1.00  0.00     0.074 C 
HETATM    3  C2  UNL     1      16.644   4.573  14.809  1.00  0.00     0.198 C 
ENDROOT
BRANCH   3   4
HETATM    4  C3  UNL     1      15.229   4.954  15.181  1.00  0.00     0.143 C 
HETATM    5 CL1  UNL     1      15.101   6.728  15.197  1.00  0.00    -0.129 Cl
ENDBRANCH   3   4
BRANCH   3   6
HETATM    6  C4  UNL     1      16.598   4.040  13.404  1.00  0.00     0.236 C 
HETATM    7  O1  UNL     1      16.058   4.745  12.539  1.00  0.00    -0.272 OA
HETATM    8  N2  UNL     1      17.156   2.789  13.131  1.00  0.00    -0.358 N 
ATOM      9  H2  UNL     1      17.589   2.264  13.890  1.00  0.00     0.162 HD
BRANCH   8  10
HETATM   10  C5  UNL     1      17.138   2.217  11.812  1.00  0.00     0.142 C 
BRANCH  10  11
HETATM   11  C6  UNL     1      18.506   1.802  11.395  1.00  0.00     0.144 C 
BRANCH  11  12
HETATM   12  N3  UNL     1      19.062   2.709  10.445  1.00  0.00    -0.342 N 
HETATM   13  C7  UNL     1      19.740   3.891  10.840  1.00  0.00     0.316 C 
HETATM   14  O2  UNL     1      19.836   4.151  12.057  1.00  0.00    -0.247 OA
HETATM   15  N4  UNL     1      20.291   4.747   9.832  1.00  0.00    -0.334 N 
ATOM     16  H4  UNL     1      20.180   4.477   8.855  1.00  0.00     0.165 HD
ATOM     17  H3  UNL     1      18.971   2.501   9.451  1.00  0.00     0.164 HD
BRANCH  15  18
HETATM   18  C8  UNL     1      20.987   5.958  10.123  1.00  0.00     0.037 C 
HETATM   19  C9  UNL     1      20.137   6.969  10.842  1.00  0.00     0.035 C 
HETATM   20  C10 UNL     1      20.941   8.212  11.151  1.00  0.00    -0.010 C 
HETATM   21  C11 UNL     1      21.296   8.840   9.808  1.00  0.00     0.009 C 
HETATM   22  C15 UNL     1      22.205   7.943  11.898  1.00  0.00     0.030 C 
HETATM   23  C12 UNL     1      22.145   7.868   9.033  1.00  0.00    -0.010 C 
HETATM   24  C13 UNL     1      23.415   7.580   9.803  1.00  0.00     0.030 C 
HETATM   25  C17 UNL     1      21.468   6.542   8.802  1.00  0.00     0.035 C 
HETATM   26  C14 UNL     1      23.054   6.945  11.105  1.00  0.00     0.040 C 
HETATM   27 CL2  UNL     1      24.545   6.580  11.983  1.00  0.00    -0.119 Cl
HETATM   28  C16 UNL     1      22.217   5.697  10.975  1.00  0.00     0.056 C 
ENDBRANCH  15  18
ENDBRANCH  11  12
ENDBRANCH  10  11
ENDBRANCH   8  10
ENDBRANCH   3   6
TORSDOF 6
ENDMDL
MODEL 5
REMARK VINA RESULT: -7.238144416      4.395      5.299
REMARK  6 active torsions:
REMARK  status: ('A' for Active; 'I' for Inactive)
REMARK    1  A    between atoms: C2_3  and  C3_4 
REMARK    2  A    between atoms: C2_3  and  C4_6 
REMARK       I    between atoms: C4_6  and  N2_8 
REMARK    3  A    between atoms: N2_8  and  C5_10 
REMARK    4  A    between atoms: C5_10  and  C6_11 
REMARK    5  A    between atoms: C6_11  and  N3_12 
REMARK       I    between atoms: N3_12  and  C7_14 
REMARK       I    between atoms: C7_14  and  N4_16 
REMARK    6  A    between atoms: N4_16  and  C8_18 
ROOT
HETATM    1  N1  UNL     1      17.593   2.823  16.464  1.00  0.00    -0.196 NA
HETATM    2  C1  UNL     1      17.242   3.549  15.638  1.00  0.00     0.074 C 
HETATM    3  C2  UNL     1      16.782   4.445  14.604  1.00  0.00     0.198 C 
ENDROOT
BRANCH   3   4
HETATM    4  C3  UNL     1      15.433   5.044  14.928  1.00  0.00     0.143 C 
HETATM    5 CL1  UNL     1      15.587   6.815  14.955  1.00  0.00    -0.129 Cl
ENDBRANCH   3   4
BRANCH   3   6
HETATM    6  C4  UNL     1      16.640   3.735  13.286  1.00  0.00     0.236 C 
HETATM    7  O1  UNL     1      16.046   4.329  12.375  1.00  0.00    -0.272 OA
HETATM    8  N2  UNL     1      17.175   2.452  13.141  1.00  0.00    -0.358 N 
ATOM      9  H2  UNL     1      17.657   2.025  13.932  1.00  0.00     0.162 HD
BRANCH   8  10
HETATM   10  C5  UNL     1      17.067   1.716  11.911  1.00  0.00     0.142 C 
BRANCH  10  11
HETATM   11  C6  UNL     1      18.411   1.480  11.314  1.00  0.00     0.144 C 
BRANCH  11  12
HETATM   12  N3  UNL     1      18.753   2.499  10.377  1.00  0.00    -0.342 N 
HETATM   13  C7  UNL     1      19.527   3.630  10.742  1.00  0.00     0.316 C 
HETATM   14  O2  UNL     1      19.904   3.743  11.927  1.00  0.00    -0.247 OA
HETATM   15  N4  UNL     1      19.850   4.605   9.744  1.00  0.00    -0.334 N 
ATOM     16  H4  UNL     1      19.512   4.454   8.794  1.00  0.00     0.165 HD
ATOM     17  H3  UNL     1      18.432   2.411   9.413  1.00  0.00     0.164 HD
BRANCH  15  18
HETATM   18  C8  UNL     1      20.618   5.777  10.008  1.00  0.00     0.037 C 
HETATM   19  C9  UNL     1      20.714   6.700   8.822  1.00  0.00     0.035 C 
HETATM   20  C10 UNL     1      21.510   7.935   9.177  1.00  0.00    -0.010 C 
HETATM   21  C11 UNL     1      22.932   7.466   9.460  1.00  0.00     0.009 C 
HETATM   22  C15 UNL     1      20.999   8.657  10.379  1.00  0.00     0.030 C 
HETATM   23  C12 UNL     1      22.902   6.529  10.638  1.00  0.00    -0.010 C 
HETATM   24  C13 UNL     1      22.364   7.257  11.851  1.00  0.00     0.030 C 
HETATM   25  C17 UNL     1      22.014   5.331  10.422  1.00  0.00     0.035 C 
HETATM   26  C14 UNL     1      20.964   7.691  11.567  1.00  0.00     0.040 C 
HETATM   27 CL2  UNL     1      20.330   8.509  13.000  1.00  0.00    -0.119 Cl
HETATM   28  C16 UNL     1      20.037   6.570  11.164  1.00  0.00     0.056 C 
ENDBRANCH  15  18
ENDBRANCH  11  12
ENDBRANCH  10  11
ENDBRANCH   8  10
ENDBRANCH   3   6
TORSDOF 6
ENDMDL
