MODEL 1
REMARK VINA RESULT: -6.625882597      0.000      0.000
REMARK  7 active torsions:
REMARK  status: ('A' for Active; 'I' for Inactive)
REMARK    1  A    between atoms: C2_2  and  C4_4 
REMARK    2  A    between atoms: C8_10  and  C9_11 
REMARK    3  A    between atoms: C9_11  and  N2_12 
REMARK       I    between atoms: N2_12  and  C10_14 
REMARK    4  A    between atoms: C10_14  and  C11_16 
REMARK    5  A    between atoms: C11_16  and  O2_18 
REMARK    6  A    between atoms: C11_16  and  C13_20 
REMARK    7  A    between atoms: C13_20  and  N3_21 
ROOT
HETATM    1  N2  UNL     1      15.794   6.057  13.756  1.00  0.00    -0.358 N 
ATOM      2  H2  UNL     1      15.065   6.014  13.045  1.00  0.00     0.162 HD
HETATM    3  C10 UNL     1      17.078   6.422  13.375  1.00  0.00     0.253 C 
HETATM    4  O1  UNL     1      18.045   6.503  14.163  1.00  0.00    -0.270 OA
ENDROOT
BRANCH   3   5
HETATM    5  C11 UNL     1      17.414   6.761  11.933  1.00  0.00     0.161 C 
HETATM    6  C12 UNL     1      18.409   7.888  12.035  1.00  0.00     0.058 C 
BRANCH   5   7
HETATM    7  O2  UNL     1      16.241   7.193  11.301  1.00  0.00    -0.379 OA
ATOM      8  H2  UNL     1      16.407   8.047  10.921  1.00  0.00     0.211 HD
ENDBRANCH   5   7
BRANCH   5   9
HETATM    9  C13 UNL     1      17.946   5.499  11.343  1.00  0.00     0.319 C 
BRANCH   9  10
HETATM   10  N3  UNL     1      17.355   4.284  11.789  1.00  0.00     0.091 N 
HETATM   11  C14 UNL     1      18.461   3.344  12.029  1.00  0.00     0.274 C 
HETATM   12  C15 UNL     1      18.870   2.696  10.706  1.00  0.00     0.050 C 
HETATM   13  C16 UNL     1      17.847   1.582  10.471  1.00  0.00     0.085 C 
HETATM   14 CL1  UNL     1      18.398   0.136  11.339  1.00  0.00    -0.125 Cl
HETATM   15  C17 UNL     1      16.536   2.106  11.026  1.00  0.00     0.050 C 
HETATM   16  C18 UNL     1      16.461   3.634  10.885  1.00  0.00     0.274 C 
ENDBRANCH   9  10
ENDBRANCH   5   9
ENDBRANCH   3   5
BRANCH   1  17
HETATM   17  C9  UNL     1      15.453   5.736  15.112  1.00  0.00     0.127 C 
BRANCH  17  18
HETATM   18  C8  UNL     1      15.246   4.259  15.365  1.00  0.00     0.011 C 
HETATM   19  C4  UNL     1      14.495   4.074  16.644  1.00  0.00     0.012 C 
HETATM   20  C5  UNL     1      14.446   2.592  16.937  1.00  0.00     0.119 C 
HETATM   21  N1  UNL     1      15.726   2.011  17.049  1.00  0.00    -0.421 N 
HETATM   22  C6  UNL     1      16.630   2.235  15.988  1.00  0.00     0.114 C 
ATOM     23  H1  UNL     1      15.988   1.454  17.862  1.00  0.00     0.153 HD
HETATM   24  C7  UNL     1      16.522   3.495  15.239  1.00  0.00     0.026 C 
BRANCH  19  25
HETATM   25  C2  UNL     1      14.885   4.906  17.793  1.00  0.00    -0.017 C 
HETATM   26  C1  UNL     1      13.839   6.032  17.897  1.00  0.00     0.010 C 
HETATM   27  C3  UNL     1      14.957   4.260  19.120  1.00  0.00     0.010 C 
ENDBRANCH  19  25
ENDBRANCH  17  18
ENDBRANCH   1  17
TORSDOF 7
ENDMDL
MODEL 2
REMARK VINA RESULT: -6.618303716      3.673      7.131
REMARK  7 active torsions:
REMARK  status: ('A' for Active; 'I' for Inactive)
REMARK    1  A    between atoms: C2_2  and  C4_4 
REMARK    2  A    between atoms: C8_10  and  C9_11 
REMARK    3  A    between atoms: C9_11  and  N2_12 
REMARK       I    between atoms: N2_12  and  C10_14 
REMARK    4  A    between atoms: C10_14  and  C11_16 
REMARK    5  A    between atoms: C11_16  and  O2_18 
REMARK    6  A    between atoms: C11_16  and  C13_20 
REMARK    7  A    between atoms: C13_20  and  N3_21 
ROOT
HETATM    1  N2  UNL     1      17.355   6.756  11.280  1.00  0.00    -0.358 N 
ATOM      2  H2  UNL     1      18.086   7.290  11.749  1.00  0.00     0.162 HD
HETATM    3  C10 UNL     1      17.163   5.429  11.638  1.00  0.00     0.253 C 
HETATM    4  O1  UNL     1      16.299   4.684  11.126  1.00  0.00    -0.270 OA
ENDROOT
BRANCH   3   5
HETATM    5  C11 UNL     1      18.009   4.763  12.709  1.00  0.00     0.161 C 
HETATM    6  C12 UNL     1      18.806   5.890  13.311  1.00  0.00     0.058 C 
BRANCH   5   7
HETATM    7  O2  UNL     1      18.855   3.838  12.083  1.00  0.00    -0.379 OA
ATOM      8  H2  UNL     1      19.614   3.708  12.639  1.00  0.00     0.211 HD
ENDBRANCH   5   7
BRANCH   5   9
HETATM    9  C13 UNL     1      17.038   4.110  13.633  1.00  0.00     0.319 C 
BRANCH   9  10
HETATM   10  N3  UNL     1      16.597   4.879  14.746  1.00  0.00     0.091 N 
HETATM   11  C14 UNL     1      16.881   4.079  15.948  1.00  0.00     0.274 C 
HETATM   12  C15 UNL     1      15.754   3.068  16.160  1.00  0.00     0.050 C 
HETATM   13  C16 UNL     1      14.628   3.857  16.834  1.00  0.00     0.085 C 
HETATM   14 CL1  UNL     1      14.935   3.868  18.582  1.00  0.00    -0.125 Cl
HETATM   15  C17 UNL     1      14.694   5.252  16.242  1.00  0.00     0.050 C 
HETATM   16  C18 UNL     1      15.206   5.202  14.795  1.00  0.00     0.274 C 
ENDBRANCH   9  10
ENDBRANCH   5   9
ENDBRANCH   3   5
BRANCH   1  17
HETATM   17  C9  UNL     1      16.565   7.406  10.274  1.00  0.00     0.127 C 
BRANCH  17  18
HETATM   18  C8  UNL     1      16.957   8.844  10.014  1.00  0.00     0.011 C 
HETATM   19  C4  UNL     1      15.914   9.754  10.578  1.00  0.00     0.012 C 
HETATM   20  C5  UNL     1      16.263  11.165  10.163  1.00  0.00     0.119 C 
HETATM   21  N1  UNL     1      16.326  11.326   8.763  1.00  0.00    -0.421 N 
HETATM   22  C6  UNL     1      17.147  10.426   8.049  1.00  0.00     0.114 C 
ATOM     23  H1  UNL     1      15.802  12.060   8.288  1.00  0.00     0.153 HD
HETATM   24  C7  UNL     1      17.314   9.067   8.581  1.00  0.00     0.026 C 
BRANCH  19  25
HETATM   25  C2  UNL     1      14.503   9.391  10.368  1.00  0.00    -0.017 C 
HETATM   26  C1  UNL     1      13.811   9.507  11.739  1.00  0.00     0.010 C 
HETATM   27  C3  UNL     1      13.717  10.203   9.416  1.00  0.00     0.010 C 
ENDBRANCH  19  25
ENDBRANCH  17  18
ENDBRANCH   1  17
TORSDOF 7
ENDMDL
MODEL 3
REMARK VINA RESULT: -6.584004313      3.166      6.389
REMARK  7 active torsions:
REMARK  status: ('A' for Active; 'I' for Inactive)
REMARK    1  A    between atoms: C2_2  and  C4_4 
REMARK    2  A    between atoms: C8_10  and  C9_11 
REMARK    3  A    between atoms: C9_11  and  N2_12 
REMARK       I    between atoms: N2_12  and  C10_14 
REMARK    4  A    between atoms: C10_14  and  C11_16 
REMARK    5  A    between atoms: C11_16  and  O2_18 
REMARK    6  A    between atoms: C11_16  and  C13_20 
REMARK    7  A    between atoms: C13_20  and  N3_21 
ROOT
HETATM    1  N2  UNL     1      16.802   7.786  11.679  1.00  0.00    -0.358 N 
ATOM      2  H2  UNL     1      17.694   7.362  11.424  1.00  0.00     0.162 HD
HETATM    3  C10 UNL     1      16.103   7.270  12.762  1.00  0.00     0.253 C 
HETATM    4  O1  UNL     1      15.002   7.712  13.157  1.00  0.00    -0.270 OA
ENDROOT
BRANCH   3   5
HETATM    5  C11 UNL     1      16.636   6.101  13.570  1.00  0.00     0.161 C 
HETATM    6  C12 UNL     1      15.421   5.535  14.258  1.00  0.00     0.058 C 
BRANCH   5   7
HETATM    7  O2  UNL     1      17.549   6.599  14.509  1.00  0.00    -0.379 OA
ATOM      8  H2  UNL     1      17.383   6.169  15.339  1.00  0.00     0.211 HD
ENDBRANCH   5   7
BRANCH   5   9
HETATM    9  C13 UNL     1      17.281   5.194  12.577  1.00  0.00     0.319 C 
BRANCH   9  10
HETATM   10  N3  UNL     1      16.671   3.923  12.380  1.00  0.00     0.091 N 
HETATM   11  C14 UNL     1      17.654   2.916  12.813  1.00  0.00     0.274 C 
HETATM   12  C15 UNL     1      18.642   2.653  11.676  1.00  0.00     0.050 C 
HETATM   13  C16 UNL     1      17.921   1.686  10.733  1.00  0.00     0.085 C 
HETATM   14 CL1  UNL     1      18.185   0.036  11.332  1.00  0.00    -0.125 Cl
HETATM   15  C17 UNL     1      16.457   2.076  10.786  1.00  0.00     0.050 C 
HETATM   16  C18 UNL     1      16.307   3.584  11.042  1.00  0.00     0.274 C 
ENDBRANCH   9  10
ENDBRANCH   5   9
ENDBRANCH   3   5
BRANCH   1  17
HETATM   17  C9  UNL     1      16.318   8.892  10.904  1.00  0.00     0.127 C 
BRANCH  17  18
HETATM   18  C8  UNL     1      16.679   8.823   9.436  1.00  0.00     0.011 C 
HETATM   19  C4  UNL     1      15.495   9.221   8.615  1.00  0.00     0.012 C 
HETATM   20  C5  UNL     1      15.847   8.989   7.162  1.00  0.00     0.119 C 
HETATM   21  N1  UNL     1      16.189   7.649   6.887  1.00  0.00    -0.421 N 
HETATM   22  C6  UNL     1      17.185   7.060   7.695  1.00  0.00     0.114 C 
ATOM     23  H1  UNL     1      15.735   7.128   6.136  1.00  0.00     0.153 HD
HETATM   24  C7  UNL     1      17.310   7.517   9.085  1.00  0.00     0.026 C 
BRANCH  19  25
HETATM   25  C2  UNL     1      14.179   8.695   9.010  1.00  0.00    -0.017 C 
HETATM   26  C1  UNL     1      13.417   9.863   9.663  1.00  0.00     0.010 C 
HETATM   27  C3  UNL     1      13.307   8.148   7.950  1.00  0.00     0.010 C 
ENDBRANCH  19  25
ENDBRANCH  17  18
ENDBRANCH   1  17
TORSDOF 7
ENDMDL
MODEL 4
REMARK VINA RESULT: -6.576717778      3.693      7.201
REMARK  7 active torsions:
REMARK  status: ('A' for Active; 'I' for Inactive)
REMARK    1  A    between atoms: C2_2  and  C4_4 
REMARK    2  A    between atoms: C8_10  and  C9_11 
REMARK    3  A    between atoms: C9_11  and  N2_12 
REMARK       I    between atoms: N2_12  and  C10_14 
REMARK    4  A    between atoms: C10_14  and  C11_16 
REMARK    5  A    between atoms: C11_16  and  O2_18 
REMARK    6  A    between atoms: C11_16  and  C13_20 
REMARK    7  A    between atoms: C13_20  and  N3_21 
ROOT
HETATM    1  N2  UNL     1      17.326   6.763  11.360  1.00  0.00    -0.358 N 
ATOM      2  H2  UNL     1      18.060   7.286  11.837  1.00  0.00     0.162 HD
HETATM    3  C10 UNL     1      17.146   5.424  11.677  1.00  0.00     0.253 C 
HETATM    4  O1  UNL     1      16.280   4.691  11.152  1.00  0.00    -0.270 OA
ENDROOT
BRANCH   3   5
HETATM    5  C11 UNL     1      18.010   4.728  12.714  1.00  0.00     0.161 C 
HETATM    6  C12 UNL     1      18.832   5.836  13.320  1.00  0.00     0.058 C 
BRANCH   5   7
HETATM    7  O2  UNL     1      18.832   3.808  12.052  1.00  0.00    -0.379 OA
ATOM      8  H2  UNL     1      19.148   3.180  12.690  1.00  0.00     0.211 HD
ENDBRANCH   5   7
BRANCH   5   9
HETATM    9  C13 UNL     1      17.054   4.067  13.649  1.00  0.00     0.319 C 
BRANCH   9  10
HETATM   10  N3  UNL     1      16.601   4.839  14.755  1.00  0.00     0.091 N 
HETATM   11  C14 UNL     1      16.899   4.054  15.963  1.00  0.00     0.274 C 
HETATM   12  C15 UNL     1      15.788   3.027  16.185  1.00  0.00     0.050 C 
HETATM   13  C16 UNL     1      14.651   3.804  16.853  1.00  0.00     0.085 C 
HETATM   14 CL1  UNL     1      14.958   3.836  18.600  1.00  0.00    -0.125 Cl
HETATM   15  C17 UNL     1      14.693   5.195  16.248  1.00  0.00     0.050 C 
HETATM   16  C18 UNL     1      15.206   5.140  14.802  1.00  0.00     0.274 C 
ENDBRANCH   9  10
ENDBRANCH   5   9
ENDBRANCH   3   5
BRANCH   1  17
HETATM   17  C9  UNL     1      16.519   7.441  10.386  1.00  0.00     0.127 C 
BRANCH  17  18
HETATM   18  C8  UNL     1      16.035   8.805  10.826  1.00  0.00     0.011 C 
HETATM   19  C4  UNL     1      14.832   9.188  10.025  1.00  0.00     0.012 C 
HETATM   20  C5  UNL     1      14.477  10.613  10.385  1.00  0.00     0.119 C 
HETATM   21  N1  UNL     1      15.525  11.521  10.131  1.00  0.00    -0.421 N 
HETATM   22  C6  UNL     1      16.789  11.216  10.682  1.00  0.00     0.114 C 
ATOM     23  H1  UNL     1      15.377  12.362   9.574  1.00  0.00     0.153 HD
HETATM   24  C7  UNL     1      17.147   9.801  10.854  1.00  0.00     0.026 C 
BRANCH  19  25
HETATM   25  C2  UNL     1      14.858   8.916   8.579  1.00  0.00    -0.017 C 
HETATM   26  C1  UNL     1      13.455   8.402   8.204  1.00  0.00     0.010 C 
HETATM   27  C3  UNL     1      15.163  10.040   7.671  1.00  0.00     0.010 C 
ENDBRANCH  19  25
ENDBRANCH  17  18
ENDBRANCH   1  17
TORSDOF 7
ENDMDL
MODEL 5
REMARK VINA RESULT: -6.518347536      3.060      4.896
REMARK  7 active torsions:
REMARK  status: ('A' for Active; 'I' for Inactive)
REMARK    1  A    between atoms: C2_2  and  C4_4 
REMARK    2  A    between atoms: C8_10  and  C9_11 
REMARK    3  A    between atoms: C9_11  and  N2_12 
REMARK       I    between atoms: N2_12  and  C10_14 
REMARK    4  A    between atoms: C10_14  and  C11_16 
REMARK    5  A    between atoms: C11_16  and  O2_18 
REMARK    6  A    between atoms: C11_16  and  C13_20 
REMARK    7  A    between atoms: C13_20  and  N3_21 
ROOT
HETATM    1  N2  UNL     1      17.539   3.908  14.002  1.00  0.00    -0.358 N 
ATOM      2  H2  UNL     1      18.477   3.519  14.102  1.00  0.00     0.162 HD
HETATM    3  C10 UNL     1      16.755   3.492  12.934  1.00  0.00     0.253 C 
HETATM    4  O1  UNL     1      15.595   3.905  12.716  1.00  0.00    -0.270 OA
ENDROOT
BRANCH   3   5
HETATM    5  C11 UNL     1      17.260   2.477  11.924  1.00  0.00     0.161 C 
HETATM    6  C12 UNL     1      16.257   2.535  10.801  1.00  0.00     0.058 C 
BRANCH   5   7
HETATM    7  O2  UNL     1      17.249   1.214  12.531  1.00  0.00    -0.379 OA
ATOM      8  H2  UNL     1      16.945   0.581  11.892  1.00  0.00     0.211 HD
ENDBRANCH   5   7
BRANCH   5   9
HETATM    9  C13 UNL     1      18.637   2.923  11.566  1.00  0.00     0.319 C 
BRANCH   9  10
HETATM   10  N3  UNL     1      18.751   3.848  10.491  1.00  0.00     0.091 N 
HETATM   11  C14 UNL     1      20.152   3.799  10.044  1.00  0.00     0.274 C 
HETATM   12  C15 UNL     1      21.002   4.696  10.946  1.00  0.00     0.050 C 
HETATM   13  C16 UNL     1      20.782   6.117  10.421  1.00  0.00     0.085 C 
HETATM   14 CL1  UNL     1      21.922   6.393   9.089  1.00  0.00    -0.125 Cl
HETATM   15  C17 UNL     1      19.342   6.162   9.948  1.00  0.00     0.050 C 
HETATM   16  C18 UNL     1      18.468   5.216  10.785  1.00  0.00     0.274 C 
ENDBRANCH   9  10
ENDBRANCH   5   9
ENDBRANCH   3   5
BRANCH   1  17
HETATM   17  C9  UNL     1      17.082   4.863  14.970  1.00  0.00     0.127 C 
BRANCH  17  18
HETATM   18  C8  UNL     1      17.905   6.131  15.024  1.00  0.00     0.011 C 
HETATM   19  C4  UNL     1      17.049   7.296  14.645  1.00  0.00     0.012 C 
HETATM   20  C5  UNL     1      17.942   8.513  14.561  1.00  0.00     0.119 C 
HETATM   21  N1  UNL     1      18.984   8.365  13.622  1.00  0.00    -0.421 N 
HETATM   22  C6  UNL     1      19.795   7.215  13.737  1.00  0.00     0.114 C 
ATOM     23  H1  UNL     1      19.146   9.059  12.893  1.00  0.00     0.153 HD
HETATM   24  C7  UNL     1      19.186   5.988  14.270  1.00  0.00     0.026 C 
BRANCH  19  25
HETATM   25  C2  UNL     1      16.137   7.133  13.502  1.00  0.00    -0.017 C 
HETATM   26  C1  UNL     1      14.706   7.185  14.069  1.00  0.00     0.010 C 
HETATM   27  C3  UNL     1      16.207   8.131  12.415  1.00  0.00     0.010 C 
ENDBRANCH  19  25
ENDBRANCH  17  18
ENDBRANCH   1  17
TORSDOF 7
ENDMDL
