MODEL 1
REMARK VINA RESULT: -8.017385038      0.000      0.000
REMARK  8 active torsions:
REMARK  status: ('A' for Active; 'I' for Inactive)
REMARK    1  A    between atoms: N1_1  and  N2_4 
REMARK    2  A    between atoms: N2_4  and  N3_5 
REMARK    3  A    between atoms: N3_5  and  C1_7 
REMARK    4  A    between atoms: C1_7  and  C2_8 
REMARK    5  A    between atoms: C2_8  and  C3_9 
REMARK    6  A    between atoms: C5_11  and  C6_12 
REMARK    7  A    between atoms: N5_21  and  N6_23 
REMARK    8  A    between atoms: N6_23  and  C13_25 
ROOT
HETATM    1  C3  UNL     1     -22.930   0.734  -1.962  1.00  0.00    -0.073 C 
HETATM    2  C4  UNL     1     -21.928   0.013  -1.439  1.00  0.00     0.006 C 
HETATM    3  C5  UNL     1     -21.419  -1.218  -2.082  1.00  0.00     0.139 C 
HETATM    4  N4  UNL     1     -21.405  -1.138  -3.515  1.00  0.00    -0.366 N 
ATOM      5  H4  UNL     1     -20.724  -1.646  -4.079  1.00  0.00     0.161 HD
HETATM    6  C12 UNL     1     -22.396  -0.306  -4.099  1.00  0.00     0.096 C 
HETATM    7  N5  UNL     1     -22.334   0.018  -5.320  1.00  0.00    -0.288 N 
ATOM      8  H5  UNL     1     -23.072   0.617  -5.688  1.00  0.00     0.188 HD
HETATM    9  C19 UNL     1     -23.527   0.233  -3.270  1.00  0.00     0.111 C 
ENDROOT
BRANCH   7  10
HETATM   10  N6  UNL     1     -21.332  -0.384  -6.198  1.00  0.00    -0.300 N 
ATOM     11  H6  UNL     1     -20.438  -0.722  -5.842  1.00  0.00     0.187 HD
BRANCH  10  12
HETATM   12  C13 UNL     1     -21.567  -0.318  -7.582  1.00  0.00     0.048 A 
HETATM   13  C14 UNL     1     -22.640   0.408  -8.046  1.00  0.00     0.031 A 
HETATM   14  C15 UNL     1     -22.900   0.505  -9.410  1.00  0.00     0.002 A 
HETATM   15  C16 UNL     1     -22.047  -0.150 -10.281  1.00  0.00     0.000 A 
HETATM   16  C17 UNL     1     -20.957  -0.889  -9.847  1.00  0.00     0.002 A 
HETATM   17  C18 UNL     1     -20.748  -0.950  -8.473  1.00  0.00     0.031 A 
ENDBRANCH  10  12
ENDBRANCH   7  10
BRANCH   3  18
HETATM   18  C6  UNL     1     -20.153  -1.620  -1.476  1.00  0.00    -0.032 A 
HETATM   19  C7  UNL     1     -18.987  -1.300  -2.144  1.00  0.00     0.009 A 
HETATM   20  C8  UNL     1     -17.752  -1.610  -1.629  1.00  0.00     0.001 A 
HETATM   21  C9  UNL     1     -17.625  -2.257  -0.414  1.00  0.00     0.000 A 
HETATM   22  C10 UNL     1     -18.804  -2.582   0.265  1.00  0.00     0.001 A 
HETATM   23  C11 UNL     1     -20.033  -2.265  -0.267  1.00  0.00     0.009 A 
ENDBRANCH   3  18
BRANCH   1  24
HETATM   24  C2  UNL     1     -23.447   1.956  -1.334  1.00  0.00     0.056 C 
BRANCH  24  25
HETATM   25  C1  UNL     1     -24.607   1.735  -0.417  1.00  0.00     0.160 C 
BRANCH  25  26
HETATM   26  N3  UNL     1     -25.849   2.081  -1.106  1.00  0.00    -0.252 N 
ATOM     27  H3  UNL     1     -26.032   1.760  -2.057  1.00  0.00     0.196 HD
BRANCH  26  28
HETATM   28  N2  UNL     1     -26.669   2.777  -0.498  1.00  0.00    -0.249 NA
BRANCH  28  29
HETATM   29  N1  UNL     1     -27.434   3.167   0.383  1.00  0.00    -0.261 N 
ATOM     30  H12 UNL     1     -28.295   2.882  -0.083  1.00  0.00     0.193 HD
ATOM     31  H11 UNL     1     -27.770   3.579   1.253  1.00  0.00     0.193 HD
ENDBRANCH  28  29
ENDBRANCH  26  28
ENDBRANCH  25  26
ENDBRANCH  24  25
ENDBRANCH   1  24
TORSDOF 8
ENDMDL
MODEL 2
REMARK VINA RESULT: -8.006370012      2.289      5.758
REMARK  8 active torsions:
REMARK  status: ('A' for Active; 'I' for Inactive)
REMARK    1  A    between atoms: N1_1  and  N2_4 
REMARK    2  A    between atoms: N2_4  and  N3_5 
REMARK    3  A    between atoms: N3_5  and  C1_7 
REMARK    4  A    between atoms: C1_7  and  C2_8 
REMARK    5  A    between atoms: C2_8  and  C3_9 
REMARK    6  A    between atoms: C5_11  and  C6_12 
REMARK    7  A    between atoms: N5_21  and  N6_23 
REMARK    8  A    between atoms: N6_23  and  C13_25 
ROOT
HETATM    1  C3  UNL     1     -20.576  -0.699  -2.070  1.00  0.00    -0.073 C 
HETATM    2  C4  UNL     1     -21.598  -0.012  -1.540  1.00  0.00     0.006 C 
HETATM    3  C5  UNL     1     -22.102   1.243  -2.138  1.00  0.00     0.139 C 
HETATM    4  N4  UNL     1     -22.080   1.229  -3.573  1.00  0.00    -0.366 N 
ATOM      5  H4  UNL     1     -22.751   1.757  -4.131  1.00  0.00     0.161 HD
HETATM    6  C12 UNL     1     -21.065   0.434  -4.169  1.00  0.00     0.096 C 
HETATM    7  N5  UNL     1     -21.094   0.166  -5.405  1.00  0.00    -0.288 N 
ATOM      8  H5  UNL     1     -20.341  -0.409  -5.782  1.00  0.00     0.188 HD
HETATM    9  C19 UNL     1     -19.951  -0.133  -3.337  1.00  0.00     0.111 C 
ENDROOT
BRANCH   7  10
HETATM   10  N6  UNL     1     -22.078   0.599  -6.289  1.00  0.00    -0.300 N 
ATOM     11  H6  UNL     1     -22.924   1.047  -5.940  1.00  0.00     0.187 HD
BRANCH  10  12
HETATM   12  C13 UNL     1     -21.889   0.412  -7.669  1.00  0.00     0.048 A 
HETATM   13  C14 UNL     1     -20.860  -0.393  -8.102  1.00  0.00     0.031 A 
HETATM   14  C15 UNL     1     -20.647  -0.611  -9.460  1.00  0.00     0.002 A 
HETATM   15  C16 UNL     1     -21.502   0.006 -10.357  1.00  0.00     0.000 A 
HETATM   16  C17 UNL     1     -22.548   0.822  -9.955  1.00  0.00     0.002 A 
HETATM   17  C18 UNL     1     -22.711   1.002  -8.585  1.00  0.00     0.031 A 
ENDBRANCH  10  12
ENDBRANCH   7  10
BRANCH   3  18
HETATM   18  C6  UNL     1     -23.387   1.605  -1.547  1.00  0.00    -0.032 A 
HETATM   19  C7  UNL     1     -24.534   1.266  -2.237  1.00  0.00     0.009 A 
HETATM   20  C8  UNL     1     -25.784   1.539  -1.737  1.00  0.00     0.001 A 
HETATM   21  C9  UNL     1     -25.946   2.165  -0.517  1.00  0.00     0.000 A 
HETATM   22  C10 UNL     1     -24.786   2.511   0.185  1.00  0.00     0.001 A 
HETATM   23  C11 UNL     1     -23.542   2.231  -0.331  1.00  0.00     0.009 A 
ENDBRANCH   3  18
BRANCH   1  24
HETATM   24  C2  UNL     1     -20.062  -1.945  -1.485  1.00  0.00     0.056 C 
BRANCH  24  25
HETATM   25  C1  UNL     1     -18.954  -1.752  -0.500  1.00  0.00     0.160 C 
BRANCH  25  26
HETATM   26  N3  UNL     1     -17.674  -2.060  -1.138  1.00  0.00    -0.252 N 
ATOM     27  H3  UNL     1     -17.443  -1.692  -2.060  1.00  0.00     0.196 HD
BRANCH  26  28
HETATM   28  N2  UNL     1     -16.884  -2.782  -0.520  1.00  0.00    -0.249 NA
BRANCH  28  29
HETATM   29  N1  UNL     1     -16.089  -3.166   0.336  1.00  0.00    -0.261 N 
ATOM     30  H12 UNL     1     -16.769  -3.249   1.092  1.00  0.00     0.193 HD
ATOM     31  H11 UNL     1     -15.216  -3.451   0.781  1.00  0.00     0.193 HD
ENDBRANCH  28  29
ENDBRANCH  26  28
ENDBRANCH  25  26
ENDBRANCH  24  25
ENDBRANCH   1  24
TORSDOF 8
ENDMDL
MODEL 3
REMARK VINA RESULT: -7.989429289      2.235      6.752
REMARK  8 active torsions:
REMARK  status: ('A' for Active; 'I' for Inactive)
REMARK    1  A    between atoms: N1_1  and  N2_4 
REMARK    2  A    between atoms: N2_4  and  N3_5 
REMARK    3  A    between atoms: N3_5  and  C1_7 
REMARK    4  A    between atoms: C1_7  and  C2_8 
REMARK    5  A    between atoms: C2_8  and  C3_9 
REMARK    6  A    between atoms: C5_11  and  C6_12 
REMARK    7  A    between atoms: N5_21  and  N6_23 
REMARK    8  A    between atoms: N6_23  and  C13_25 
ROOT
HETATM    1  C3  UNL     1     -22.018  -0.783  -5.055  1.00  0.00    -0.073 C 
HETATM    2  C4  UNL     1     -21.115  -1.236  -4.174  1.00  0.00     0.006 C 
HETATM    3  C5  UNL     1     -20.382  -0.333  -3.259  1.00  0.00     0.139 C 
HETATM    4  N4  UNL     1     -21.187   0.753  -2.777  1.00  0.00    -0.366 N 
ATOM      5  H4  UNL     1     -21.030   1.180  -1.865  1.00  0.00     0.161 HD
HETATM    6  C12 UNL     1     -22.216   1.196  -3.650  1.00  0.00     0.096 C 
HETATM    7  N5  UNL     1     -23.121   1.980  -3.241  1.00  0.00    -0.288 N 
ATOM      8  H5  UNL     1     -23.835   2.267  -3.910  1.00  0.00     0.188 HD
HETATM    9  C19 UNL     1     -22.270   0.718  -5.073  1.00  0.00     0.111 C 
ENDROOT
BRANCH   7  10
HETATM   10  N6  UNL     1     -23.212   2.479  -1.946  1.00  0.00    -0.300 N 
ATOM     11  H6  UNL     1     -22.453   3.035  -1.552  1.00  0.00     0.187 HD
BRANCH  10  12
HETATM   12  C13 UNL     1     -24.364   2.210  -1.188  1.00  0.00     0.048 A 
HETATM   13  C14 UNL     1     -24.365   2.500   0.157  1.00  0.00     0.031 A 
HETATM   14  C15 UNL     1     -25.491   2.256   0.939  1.00  0.00     0.002 A 
HETATM   15  C16 UNL     1     -26.604   1.715   0.322  1.00  0.00     0.000 A 
HETATM   16  C17 UNL     1     -26.638   1.412  -1.031  1.00  0.00     0.002 A 
HETATM   17  C18 UNL     1     -25.483   1.677  -1.761  1.00  0.00     0.031 A 
ENDBRANCH  10  12
ENDBRANCH   7  10
BRANCH   3  18
HETATM   18  C6  UNL     1     -19.707  -1.105  -2.220  1.00  0.00    -0.032 A 
HETATM   19  C7  UNL     1     -18.332  -1.217  -2.288  1.00  0.00     0.009 A 
HETATM   20  C8  UNL     1     -17.615  -1.896  -1.334  1.00  0.00     0.001 A 
HETATM   21  C9  UNL     1     -18.243  -2.498  -0.260  1.00  0.00     0.000 A 
HETATM   22  C10 UNL     1     -19.636  -2.387  -0.188  1.00  0.00     0.001 A 
HETATM   23  C11 UNL     1     -20.338  -1.704  -1.154  1.00  0.00     0.009 A 
ENDBRANCH   3  18
BRANCH   1  24
HETATM   24  C2  UNL     1     -22.751  -1.666  -5.972  1.00  0.00     0.056 C 
BRANCH  24  25
HETATM   25  C1  UNL     1     -22.673  -1.265  -7.409  1.00  0.00     0.160 C 
BRANCH  25  26
HETATM   26  N3  UNL     1     -22.956  -2.423  -8.257  1.00  0.00    -0.252 N 
ATOM     27  H3  UNL     1     -23.751  -3.033  -8.067  1.00  0.00     0.196 HD
BRANCH  26  28
HETATM   28  N2  UNL     1     -22.200  -2.636  -9.210  1.00  0.00    -0.249 NA
BRANCH  28  29
HETATM   29  N1  UNL     1     -21.587  -3.230 -10.096  1.00  0.00    -0.261 N 
ATOM     30  H12 UNL     1     -22.410  -3.590 -10.580  1.00  0.00     0.193 HD
ATOM     31  H11 UNL     1     -20.815  -3.594 -10.655  1.00  0.00     0.193 HD
ENDBRANCH  28  29
ENDBRANCH  26  28
ENDBRANCH  25  26
ENDBRANCH  24  25
ENDBRANCH   1  24
TORSDOF 8
ENDMDL
MODEL 4
REMARK VINA RESULT: -7.947383129      2.203      6.818
REMARK  8 active torsions:
REMARK  status: ('A' for Active; 'I' for Inactive)
REMARK    1  A    between atoms: N1_1  and  N2_4 
REMARK    2  A    between atoms: N2_4  and  N3_5 
REMARK    3  A    between atoms: N3_5  and  C1_7 
REMARK    4  A    between atoms: C1_7  and  C2_8 
REMARK    5  A    between atoms: C2_8  and  C3_9 
REMARK    6  A    between atoms: C5_11  and  C6_12 
REMARK    7  A    between atoms: N5_21  and  N6_23 
REMARK    8  A    between atoms: N6_23  and  C13_25 
ROOT
HETATM    1  C3  UNL     1     -21.977  -0.687  -5.055  1.00  0.00    -0.073 C 
HETATM    2  C4  UNL     1     -21.067  -1.146  -4.185  1.00  0.00     0.006 C 
HETATM    3  C5  UNL     1     -20.340  -0.252  -3.256  1.00  0.00     0.139 C 
HETATM    4  N4  UNL     1     -21.157   0.815  -2.751  1.00  0.00    -0.366 N 
ATOM      5  H4  UNL     1     -21.002   1.227  -1.831  1.00  0.00     0.161 HD
HETATM    6  C12 UNL     1     -22.193   1.262  -3.613  1.00  0.00     0.096 C 
HETATM    7  N5  UNL     1     -23.105   2.028  -3.186  1.00  0.00    -0.288 N 
ATOM      8  H5  UNL     1     -23.825   2.319  -3.847  1.00  0.00     0.188 HD
HETATM    9  C19 UNL     1     -22.246   0.811  -5.044  1.00  0.00     0.111 C 
ENDROOT
BRANCH   7  10
HETATM   10  N6  UNL     1     -23.198   2.503  -1.882  1.00  0.00    -0.300 N 
ATOM     11  H6  UNL     1     -22.428   3.026  -1.466  1.00  0.00     0.187 HD
BRANCH  10  12
HETATM   12  C13 UNL     1     -24.367   2.252  -1.143  1.00  0.00     0.048 A 
HETATM   13  C14 UNL     1     -25.444   1.668  -1.770  1.00  0.00     0.031 A 
HETATM   14  C15 UNL     1     -26.616   1.394  -1.070  1.00  0.00     0.002 A 
HETATM   15  C16 UNL     1     -26.661   1.727   0.272  1.00  0.00     0.000 A 
HETATM   16  C17 UNL     1     -25.595   2.315   0.935  1.00  0.00     0.002 A 
HETATM   17  C18 UNL     1     -24.452   2.565   0.183  1.00  0.00     0.031 A 
ENDBRANCH  10  12
ENDBRANCH   7  10
BRANCH   3  18
HETATM   18  C6  UNL     1     -19.653  -1.036  -2.234  1.00  0.00    -0.032 A 
HETATM   19  C7  UNL     1     -20.417  -1.607  -1.235  1.00  0.00     0.009 A 
HETATM   20  C8  UNL     1     -19.856  -2.387  -0.253  1.00  0.00     0.001 A 
HETATM   21  C9  UNL     1     -18.497  -2.635  -0.225  1.00  0.00     0.000 A 
HETATM   22  C10 UNL     1     -17.719  -2.057  -1.236  1.00  0.00     0.001 A 
HETATM   23  C11 UNL     1     -18.299  -1.277  -2.210  1.00  0.00     0.009 A 
ENDBRANCH   3  18
BRANCH   1  24
HETATM   24  C2  UNL     1     -22.703  -1.562  -5.986  1.00  0.00     0.056 C 
BRANCH  24  25
HETATM   25  C1  UNL     1     -22.575  -1.173  -7.424  1.00  0.00     0.160 C 
BRANCH  25  26
HETATM   26  N3  UNL     1     -22.850  -2.334  -8.270  1.00  0.00    -0.252 N 
ATOM     27  H3  UNL     1     -23.692  -2.894  -8.139  1.00  0.00     0.196 HD
BRANCH  26  28
HETATM   28  N2  UNL     1     -22.027  -2.612  -9.148  1.00  0.00    -0.249 NA
BRANCH  28  29
HETATM   29  N1  UNL     1     -21.491  -3.178 -10.100  1.00  0.00    -0.261 N 
ATOM     30  H12 UNL     1     -21.744  -4.126  -9.824  1.00  0.00     0.193 HD
ATOM     31  H11 UNL     1     -20.971  -3.322 -10.966  1.00  0.00     0.193 HD
ENDBRANCH  28  29
ENDBRANCH  26  28
ENDBRANCH  25  26
ENDBRANCH  24  25
ENDBRANCH   1  24
TORSDOF 8
ENDMDL
MODEL 5
REMARK VINA RESULT: -7.914818592      2.732      7.340
REMARK  8 active torsions:
REMARK  status: ('A' for Active; 'I' for Inactive)
REMARK    1  A    between atoms: N1_1  and  N2_4 
REMARK    2  A    between atoms: N2_4  and  N3_5 
REMARK    3  A    between atoms: N3_5  and  C1_7 
REMARK    4  A    between atoms: C1_7  and  C2_8 
REMARK    5  A    between atoms: C2_8  and  C3_9 
REMARK    6  A    between atoms: C5_11  and  C6_12 
REMARK    7  A    between atoms: N5_21  and  N6_23 
REMARK    8  A    between atoms: N6_23  and  C13_25 
ROOT
HETATM    1  C3  UNL     1     -21.560   0.711  -5.071  1.00  0.00    -0.073 C 
HETATM    2  C4  UNL     1     -22.401   1.224  -4.162  1.00  0.00     0.006 C 
HETATM    3  C5  UNL     1     -23.181   0.372  -3.238  1.00  0.00     0.139 C 
HETATM    4  N4  UNL     1     -22.453  -0.780  -2.786  1.00  0.00    -0.366 N 
ATOM      5  H4  UNL     1     -22.621  -1.204  -1.874  1.00  0.00     0.161 HD
HETATM    6  C12 UNL     1     -21.485  -1.293  -3.689  1.00  0.00     0.096 C 
HETATM    7  N5  UNL     1     -20.635  -2.151  -3.310  1.00  0.00    -0.288 N 
ATOM      8  H5  UNL     1     -19.962  -2.486  -3.999  1.00  0.00     0.188 HD
HETATM    9  C19 UNL     1     -21.428  -0.805  -5.108  1.00  0.00     0.111 C 
ENDROOT
BRANCH   7  10
HETATM   10  N6  UNL     1     -20.552  -2.670  -2.022  1.00  0.00    -0.300 N 
ATOM     11  H6  UNL     1     -21.281  -3.290  -1.667  1.00  0.00     0.187 HD
BRANCH  10  12
HETATM   12  C13 UNL     1     -19.452  -2.331  -1.217  1.00  0.00     0.048 A 
HETATM   13  C14 UNL     1     -18.291  -1.897  -1.815  1.00  0.00     0.031 A 
HETATM   14  C15 UNL     1     -17.183  -1.542  -1.050  1.00  0.00     0.002 A 
HETATM   15  C16 UNL     1     -17.288  -1.640   0.326  1.00  0.00     0.000 A 
HETATM   16  C17 UNL     1     -18.442  -2.072   0.961  1.00  0.00     0.002 A 
HETATM   17  C18 UNL     1     -19.516  -2.413   0.145  1.00  0.00     0.031 A 
ENDBRANCH  10  12
ENDBRANCH   7  10
BRANCH   3  18
HETATM   18  C6  UNL     1     -23.767   1.183  -2.175  1.00  0.00    -0.032 A 
HETATM   19  C7  UNL     1     -25.142   1.314  -2.144  1.00  0.00     0.009 A 
HETATM   20  C8  UNL     1     -25.777   2.032  -1.160  1.00  0.00     0.001 A 
HETATM   21  C9  UNL     1     -25.063   2.654  -0.154  1.00  0.00     0.000 A 
HETATM   22  C10 UNL     1     -23.670   2.523  -0.182  1.00  0.00     0.001 A 
HETATM   23  C11 UNL     1     -23.051   1.802  -1.176  1.00  0.00     0.009 A 
ENDBRANCH   3  18
BRANCH   1  24
HETATM   24  C2  UNL     1     -20.781   1.543  -5.997  1.00  0.00     0.056 C 
BRANCH  24  25
HETATM   25  C1  UNL     1     -20.963   1.196  -7.439  1.00  0.00     0.160 C 
BRANCH  25  26
HETATM   26  N3  UNL     1     -20.680   2.369  -8.265  1.00  0.00    -0.252 N 
ATOM     27  H3  UNL     1     -19.885   2.976  -8.064  1.00  0.00     0.196 HD
BRANCH  26  28
HETATM   28  N2  UNL     1     -21.438   2.601  -9.213  1.00  0.00    -0.249 NA
BRANCH  28  29
HETATM   29  N1  UNL     1     -22.010   3.199 -10.123  1.00  0.00    -0.261 N 
ATOM     30  H12 UNL     1     -21.492   2.764 -10.886  1.00  0.00     0.193 HD
ATOM     31  H11 UNL     1     -22.646   3.831 -10.609  1.00  0.00     0.193 HD
ENDBRANCH  28  29
ENDBRANCH  26  28
ENDBRANCH  25  26
ENDBRANCH  24  25
ENDBRANCH   1  24
TORSDOF 8
ENDMDL
