MODEL 1
REMARK VINA RESULT: -8.203697914      0.000      0.000
REMARK  9 active torsions:
REMARK  status: ('A' for Active; 'I' for Inactive)
REMARK    1  A    between atoms: O1_1  and  C1_3 
REMARK    2  A    between atoms: C1_3  and  C2_4 
REMARK    3  A    between atoms: C5_7  and  C6_8 
REMARK    4  A    between atoms: C6_8  and  C7_9 
REMARK    5  A    between atoms: C7_9  and  N1_10 
REMARK    6  A    between atoms: C13_16  and  C14_17 
REMARK    7  A    between atoms: C15_18  and  C16_19 
REMARK    8  A    between atoms: C21_24  and  C22_25 
REMARK    9  A    between atoms: C22_25  and  O2_26 
ROOT
HETATM    1  N1  UNL     1       0.940  -0.510   3.711  1.00  0.00    -0.367 N 
HETATM    2  C8  UNL     1       2.116  -0.028   3.131  1.00  0.00     0.064 C 
HETATM    3  C9  UNL     1       1.939   1.273   2.372  1.00  0.00     0.049 C 
HETATM    4  C10 UNL     1       0.513   1.275   1.857  1.00  0.00    -0.003 C 
HETATM    5  C11 UNL     1       0.294   2.031   0.601  1.00  0.00     0.006 C 
HETATM    6  C12 UNL     1      -0.379   1.039  -0.370  1.00  0.00     0.009 C 
HETATM    7  C13 UNL     1      -0.899  -0.064   0.512  1.00  0.00     0.014 C 
HETATM    8  C20 UNL     1       0.227  -0.163   1.504  1.00  0.00     0.023 C 
HETATM    9  C21 UNL     1      -0.086  -0.867   2.790  1.00  0.00     0.116 C 
ENDROOT
BRANCH   1  10
HETATM   10  C7  UNL     1       0.873  -0.944   5.024  1.00  0.00     0.064 C 
BRANCH  10  11
HETATM   11  C6  UNL     1       0.648   0.161   6.027  1.00  0.00     0.049 C 
BRANCH  11  12
HETATM   12  C5  UNL     1       0.500  -0.330   7.433  1.00  0.00    -0.010 C 
HETATM   13  C4  UNL     1      -0.944  -0.640   7.741  1.00  0.00     0.005 C 
HETATM   14  C3  UNL     1      -1.158  -0.646   9.239  1.00  0.00     0.007 C 
HETATM   15  C2  UNL     1       0.058  -1.232   9.893  1.00  0.00     0.009 C 
HETATM   16  C24 UNL     1       0.787  -2.198   8.988  1.00  0.00     0.007 C 
HETATM   17  C23 UNL     1       1.345  -1.512   7.763  1.00  0.00     0.005 C 
BRANCH  15  18
HETATM   18  C1  UNL     1      -0.436  -2.089  11.067  1.00  0.00     0.168 C 
BRANCH  18  19
HETATM   19  O1  UNL     1      -0.708  -3.385  10.687  1.00  0.00    -0.400 OA
ATOM     20  H1  UNL     1      -1.360  -3.793  11.245  1.00  0.00     0.209 HD
ENDBRANCH  18  19
ENDBRANCH  15  18
ENDBRANCH  11  12
ENDBRANCH  10  11
ENDBRANCH   1  10
BRANCH   9  21
HETATM   21  C22 UNL     1      -1.479  -0.759   3.286  1.00  0.00     0.190 C 
BRANCH  21  22
HETATM   22  O2  UNL     1      -2.145  -1.944   3.518  1.00  0.00    -0.399 OA
ATOM     23  H2  UNL     1      -2.419  -2.110   4.412  1.00  0.00     0.209 HD
ENDBRANCH  21  22
ENDBRANCH   9  21
BRANCH   7  24
HETATM   24  C14 UNL     1      -1.135  -1.353  -0.159  1.00  0.00    -0.025 C 
HETATM   25  C15 UNL     1      -2.177  -1.971  -0.583  1.00  0.00    -0.026 C 
BRANCH  25  26
HETATM   26  C16 UNL     1      -3.589  -1.599  -0.550  1.00  0.00     0.008 C 
HETATM   27  C17 UNL     1      -4.229  -1.996   0.805  1.00  0.00     0.008 C 
HETATM   28  C18 UNL     1      -5.402  -2.493   0.029  1.00  0.00     0.001 C 
HETATM   29  C19 UNL     1      -4.453  -2.715  -1.140  1.00  0.00     0.008 C 
ENDBRANCH  25  26
ENDBRANCH   7  24
TORSDOF 9
ENDMDL
MODEL 2
REMARK VINA RESULT: -8.196285176      2.771      5.090
REMARK  9 active torsions:
REMARK  status: ('A' for Active; 'I' for Inactive)
REMARK    1  A    between atoms: O1_1  and  C1_3 
REMARK    2  A    between atoms: C1_3  and  C2_4 
REMARK    3  A    between atoms: C5_7  and  C6_8 
REMARK    4  A    between atoms: C6_8  and  C7_9 
REMARK    5  A    between atoms: C7_9  and  N1_10 
REMARK    6  A    between atoms: C13_16  and  C14_17 
REMARK    7  A    between atoms: C15_18  and  C16_19 
REMARK    8  A    between atoms: C21_24  and  C22_25 
REMARK    9  A    between atoms: C22_25  and  O2_26 
ROOT
HETATM    1  N1  UNL     1      -0.907   0.498   3.656  1.00  0.00    -0.367 N 
HETATM    2  C8  UNL     1      -2.086   0.004   3.092  1.00  0.00     0.064 C 
HETATM    3  C9  UNL     1      -1.908  -1.299   2.338  1.00  0.00     0.049 C 
HETATM    4  C10 UNL     1      -0.487  -1.293   1.807  1.00  0.00    -0.003 C 
HETATM    5  C11 UNL     1      -0.277  -2.053   0.552  1.00  0.00     0.006 C 
HETATM    6  C12 UNL     1       0.377  -1.061  -0.431  1.00  0.00     0.009 C 
HETATM    7  C13 UNL     1       0.899   0.050   0.439  1.00  0.00     0.014 C 
HETATM    8  C20 UNL     1      -0.218   0.145   1.443  1.00  0.00     0.023 C 
HETATM    9  C21 UNL     1       0.105   0.859   2.721  1.00  0.00     0.116 C 
ENDROOT
BRANCH   1  10
HETATM   10  C7  UNL     1      -0.829   0.940   4.966  1.00  0.00     0.064 C 
BRANCH  10  11
HETATM   11  C6  UNL     1      -0.566  -0.155   5.970  1.00  0.00     0.049 C 
BRANCH  11  12
HETATM   12  C5  UNL     1      -0.457   0.339   7.379  1.00  0.00    -0.010 C 
HETATM   13  C4  UNL     1       0.981   0.635   7.731  1.00  0.00     0.005 C 
HETATM   14  C3  UNL     1       1.147   0.644   9.235  1.00  0.00     0.007 C 
HETATM   15  C2  UNL     1      -0.082   1.246   9.848  1.00  0.00     0.009 C 
HETATM   16  C24 UNL     1      -0.772   2.217   8.917  1.00  0.00     0.007 C 
HETATM   17  C23 UNL     1      -1.298   1.532   7.677  1.00  0.00     0.005 C 
BRANCH  15  18
HETATM   18  C1  UNL     1       0.384   2.103  11.034  1.00  0.00     0.168 C 
BRANCH  18  19
HETATM   19  O1  UNL     1       0.679   3.394  10.659  1.00  0.00    -0.400 OA
ATOM     20  H1  UNL     1       0.334   4.034  11.270  1.00  0.00     0.209 HD
ENDBRANCH  18  19
ENDBRANCH  15  18
ENDBRANCH  11  12
ENDBRANCH  10  11
ENDBRANCH   1  10
BRANCH   9  21
HETATM   21  C22 UNL     1       1.504   0.765   3.202  1.00  0.00     0.190 C 
BRANCH  21  22
HETATM   22  O2  UNL     1       2.141   1.955   3.485  1.00  0.00    -0.399 OA
ATOM     23  H2  UNL     1       1.824   2.438   4.239  1.00  0.00     0.209 HD
ENDBRANCH  21  22
ENDBRANCH   9  21
BRANCH   7  24
HETATM   24  C14 UNL     1       1.117   1.338  -0.241  1.00  0.00    -0.025 C 
HETATM   25  C15 UNL     1       2.149   1.963  -0.677  1.00  0.00    -0.026 C 
BRANCH  25  26
HETATM   26  C16 UNL     1       3.564   1.606  -0.654  1.00  0.00     0.008 C 
HETATM   27  C17 UNL     1       4.175   1.874   0.746  1.00  0.00     0.008 C 
HETATM   28  C18 UNL     1       5.355   2.458   0.046  1.00  0.00     0.001 C 
HETATM   29  C19 UNL     1       4.425   2.784  -1.114  1.00  0.00     0.008 C 
ENDBRANCH  25  26
ENDBRANCH   7  24
TORSDOF 9
ENDMDL
MODEL 3
REMARK VINA RESULT: -8.031362934      1.865      2.006
REMARK  9 active torsions:
REMARK  status: ('A' for Active; 'I' for Inactive)
REMARK    1  A    between atoms: O1_1  and  C1_3 
REMARK    2  A    between atoms: C1_3  and  C2_4 
REMARK    3  A    between atoms: C5_7  and  C6_8 
REMARK    4  A    between atoms: C6_8  and  C7_9 
REMARK    5  A    between atoms: C7_9  and  N1_10 
REMARK    6  A    between atoms: C13_16  and  C14_17 
REMARK    7  A    between atoms: C15_18  and  C16_19 
REMARK    8  A    between atoms: C21_24  and  C22_25 
REMARK    9  A    between atoms: C22_25  and  O2_26 
ROOT
HETATM    1  N1  UNL     1       0.023  -0.583   3.740  1.00  0.00    -0.367 N 
HETATM    2  C8  UNL     1       1.309  -0.267   3.293  1.00  0.00     0.064 C 
HETATM    3  C9  UNL     1       1.362   0.944   2.382  1.00  0.00     0.049 C 
HETATM    4  C10 UNL     1       0.027   0.996   1.664  1.00  0.00    -0.003 C 
HETATM    5  C11 UNL     1       0.056   1.611   0.316  1.00  0.00     0.006 C 
HETATM    6  C12 UNL     1      -0.567   0.566  -0.632  1.00  0.00     0.009 C 
HETATM    7  C13 UNL     1      -1.305  -0.381   0.276  1.00  0.00     0.014 C 
HETATM    8  C20 UNL     1      -0.341  -0.447   1.429  1.00  0.00     0.023 C 
HETATM    9  C21 UNL     1      -0.894  -0.968   2.721  1.00  0.00     0.116 C 
ENDROOT
BRANCH   1  10
HETATM   10  C7  UNL     1      -0.265  -0.852   5.068  1.00  0.00     0.064 C 
BRANCH  10  11
HETATM   11  C6  UNL     1       0.951  -0.915   5.960  1.00  0.00     0.049 C 
BRANCH  11  12
HETATM   12  C5  UNL     1       0.897   0.042   7.111  1.00  0.00    -0.010 C 
HETATM   13  C4  UNL     1      -0.531   0.289   7.534  1.00  0.00     0.005 C 
HETATM   14  C3  UNL     1      -0.615   1.580   8.317  1.00  0.00     0.007 C 
HETATM   15  C2  UNL     1       0.619   1.711   9.159  1.00  0.00     0.009 C 
HETATM   16  C24 UNL     1       1.215   0.368   9.515  1.00  0.00     0.007 C 
HETATM   17  C23 UNL     1       1.702  -0.374   8.293  1.00  0.00     0.005 C 
BRANCH  15  18
HETATM   18  C1  UNL     1       0.181   2.316  10.501  1.00  0.00     0.168 C 
BRANCH  18  19
HETATM   19  O1  UNL     1       0.560   3.634  10.625  1.00  0.00    -0.400 OA
ATOM     20  H1  UNL     1       1.480   3.763  10.427  1.00  0.00     0.209 HD
ENDBRANCH  18  19
ENDBRANCH  15  18
ENDBRANCH  11  12
ENDBRANCH  10  11
ENDBRANCH   1  10
BRANCH   9  21
HETATM   21  C22 UNL     1      -2.326  -0.693   2.991  1.00  0.00     0.190 C 
BRANCH  21  22
HETATM   22  O2  UNL     1      -3.149  -1.791   3.131  1.00  0.00    -0.399 OA
ATOM     23  H2  UNL     1      -2.950  -2.543   2.585  1.00  0.00     0.209 HD
ENDBRANCH  21  22
ENDBRANCH   9  21
BRANCH   7  24
HETATM   24  C14 UNL     1      -1.566  -1.718  -0.282  1.00  0.00    -0.025 C 
HETATM   25  C15 UNL     1      -2.609  -2.324  -0.721  1.00  0.00    -0.026 C 
BRANCH  25  26
HETATM   26  C16 UNL     1      -3.996  -1.882  -0.831  1.00  0.00     0.008 C 
HETATM   27  C17 UNL     1      -4.834  -2.400   0.365  1.00  0.00     0.008 C 
HETATM   28  C18 UNL     1      -5.905  -2.737  -0.617  1.00  0.00     0.001 C 
HETATM   29  C19 UNL     1      -4.811  -2.871  -1.667  1.00  0.00     0.008 C 
ENDBRANCH  25  26
ENDBRANCH   7  24
TORSDOF 9
ENDMDL
MODEL 4
REMARK VINA RESULT: -8.024236133      2.391      4.923
REMARK  9 active torsions:
REMARK  status: ('A' for Active; 'I' for Inactive)
REMARK    1  A    between atoms: O1_1  and  C1_3 
REMARK    2  A    between atoms: C1_3  and  C2_4 
REMARK    3  A    between atoms: C5_7  and  C6_8 
REMARK    4  A    between atoms: C6_8  and  C7_9 
REMARK    5  A    between atoms: C7_9  and  N1_10 
REMARK    6  A    between atoms: C13_16  and  C14_17 
REMARK    7  A    between atoms: C15_18  and  C16_19 
REMARK    8  A    between atoms: C21_24  and  C22_25 
REMARK    9  A    between atoms: C22_25  and  O2_26 
ROOT
HETATM    1  N1  UNL     1      -0.036   0.558   3.716  1.00  0.00    -0.367 N 
HETATM    2  C8  UNL     1      -1.326   0.238   3.286  1.00  0.00     0.064 C 
HETATM    3  C9  UNL     1      -1.389  -0.980   2.383  1.00  0.00     0.049 C 
HETATM    4  C10 UNL     1      -0.062  -1.035   1.651  1.00  0.00    -0.003 C 
HETATM    5  C11 UNL     1      -0.106  -1.660   0.308  1.00  0.00     0.006 C 
HETATM    6  C12 UNL     1       0.505  -0.621  -0.655  1.00  0.00     0.009 C 
HETATM    7  C13 UNL     1       1.253   0.332   0.238  1.00  0.00     0.014 C 
HETATM    8  C20 UNL     1       0.302   0.406   1.401  1.00  0.00     0.023 C 
HETATM    9  C21 UNL     1       0.869   0.936   2.684  1.00  0.00     0.116 C 
ENDROOT
BRANCH   1  10
HETATM   10  C7  UNL     1       0.267   0.836   5.039  1.00  0.00     0.064 C 
BRANCH  10  11
HETATM   11  C6  UNL     1      -0.940   0.926   5.940  1.00  0.00     0.049 C 
BRANCH  11  12
HETATM   12  C5  UNL     1      -0.893  -0.022   7.098  1.00  0.00    -0.010 C 
HETATM   13  C4  UNL     1       0.534  -0.280   7.518  1.00  0.00     0.005 C 
HETATM   14  C3  UNL     1       0.608  -1.566   8.311  1.00  0.00     0.007 C 
HETATM   15  C2  UNL     1      -0.624  -1.677   9.159  1.00  0.00     0.009 C 
HETATM   16  C24 UNL     1      -1.206  -0.326   9.506  1.00  0.00     0.007 C 
HETATM   17  C23 UNL     1      -1.690   0.411   8.279  1.00  0.00     0.005 C 
BRANCH  15  18
HETATM   18  C1  UNL     1      -0.189  -2.276  10.504  1.00  0.00     0.168 C 
BRANCH  18  19
HETATM   19  O1  UNL     1      -0.572  -3.593  10.635  1.00  0.00    -0.400 OA
ATOM     20  H1  UNL     1      -1.386  -3.777  10.181  1.00  0.00     0.209 HD
ENDBRANCH  18  19
ENDBRANCH  15  18
ENDBRANCH  11  12
ENDBRANCH  10  11
ENDBRANCH   1  10
BRANCH   9  21
HETATM   21  C22 UNL     1       2.304   0.664   2.939  1.00  0.00     0.190 C 
BRANCH  21  22
HETATM   22  O2  UNL     1       3.103   1.759   3.196  1.00  0.00    -0.399 OA
ATOM     23  H2  UNL     1       3.419   1.855   4.086  1.00  0.00     0.209 HD
ENDBRANCH  21  22
ENDBRANCH   9  21
BRANCH   7  24
HETATM   24  C14 UNL     1       1.507   1.666  -0.332  1.00  0.00    -0.025 C 
HETATM   25  C15 UNL     1       2.550   2.280  -0.757  1.00  0.00    -0.026 C 
BRANCH  25  26
HETATM   26  C16 UNL     1       3.945   1.856  -0.834  1.00  0.00     0.008 C 
HETATM   27  C17 UNL     1       4.738   2.352   0.402  1.00  0.00     0.008 C 
HETATM   28  C18 UNL     1       5.836   2.726  -0.535  1.00  0.00     0.001 C 
HETATM   29  C19 UNL     1       4.775   2.876  -1.616  1.00  0.00     0.008 C 
ENDBRANCH  25  26
ENDBRANCH   7  24
TORSDOF 9
ENDMDL
MODEL 5
REMARK VINA RESULT: -8.000879664      1.878      2.204
REMARK  9 active torsions:
REMARK  status: ('A' for Active; 'I' for Inactive)
REMARK    1  A    between atoms: O1_1  and  C1_3 
REMARK    2  A    between atoms: C1_3  and  C2_4 
REMARK    3  A    between atoms: C5_7  and  C6_8 
REMARK    4  A    between atoms: C6_8  and  C7_9 
REMARK    5  A    between atoms: C7_9  and  N1_10 
REMARK    6  A    between atoms: C13_16  and  C14_17 
REMARK    7  A    between atoms: C15_18  and  C16_19 
REMARK    8  A    between atoms: C21_24  and  C22_25 
REMARK    9  A    between atoms: C22_25  and  O2_26 
ROOT
HETATM    1  N1  UNL     1       0.050  -0.652   3.926  1.00  0.00    -0.367 N 
HETATM    2  C8  UNL     1       1.353  -0.339   3.533  1.00  0.00     0.064 C 
HETATM    3  C9  UNL     1       1.452   0.891   2.652  1.00  0.00     0.049 C 
HETATM    4  C10 UNL     1       0.144   0.973   1.888  1.00  0.00    -0.003 C 
HETATM    5  C11 UNL     1       0.228   1.618   0.556  1.00  0.00     0.006 C 
HETATM    6  C12 UNL     1      -0.370   0.601  -0.437  1.00  0.00     0.009 C 
HETATM    7  C13 UNL     1      -1.151  -0.357   0.421  1.00  0.00     0.014 C 
HETATM    8  C20 UNL     1      -0.229  -0.460   1.607  1.00  0.00     0.023 C 
HETATM    9  C21 UNL     1      -0.834  -1.003   2.866  1.00  0.00     0.116 C 
ENDROOT
BRANCH   1  10
HETATM   10  C7  UNL     1      -0.289  -0.947   5.237  1.00  0.00     0.064 C 
BRANCH  10  11
HETATM   11  C6  UNL     1       0.847  -0.785   6.216  1.00  0.00     0.049 C 
BRANCH  11  12
HETATM   12  C5  UNL     1       0.455  -0.073   7.473  1.00  0.00    -0.010 C 
HETATM   13  C4  UNL     1       1.650   0.606   8.098  1.00  0.00     0.005 C 
HETATM   14  C3  UNL     1       1.376   0.881   9.560  1.00  0.00     0.007 C 
HETATM   15  C2  UNL     1      -0.068   1.258   9.713  1.00  0.00     0.009 C 
HETATM   16  C24 UNL     1      -0.633   1.886   8.459  1.00  0.00     0.007 C 
HETATM   17  C23 UNL     1      -0.646   0.917   7.300  1.00  0.00     0.005 C 
BRANCH  15  18
HETATM   18  C1  UNL     1      -0.129   2.369  10.771  1.00  0.00     0.168 C 
BRANCH  18  19
HETATM   19  O1  UNL     1       0.628   3.465  10.419  1.00  0.00    -0.400 OA
ATOM     20  H1  UNL     1       0.117   4.266  10.410  1.00  0.00     0.209 HD
ENDBRANCH  18  19
ENDBRANCH  15  18
ENDBRANCH  11  12
ENDBRANCH  10  11
ENDBRANCH   1  10
BRANCH   9  21
HETATM   21  C22 UNL     1      -2.272  -0.719   3.090  1.00  0.00     0.190 C 
BRANCH  21  22
HETATM   22  O2  UNL     1      -3.105  -1.812   3.212  1.00  0.00    -0.399 OA
ATOM     23  H2  UNL     1      -3.810  -1.881   2.579  1.00  0.00     0.209 HD
ENDBRANCH  21  22
ENDBRANCH   9  21
BRANCH   7  24
HETATM   24  C14 UNL     1      -1.405  -1.679  -0.175  1.00  0.00    -0.025 C 
HETATM   25  C15 UNL     1      -2.442  -2.273  -0.642  1.00  0.00    -0.026 C 
BRANCH  25  26
HETATM   26  C16 UNL     1      -3.828  -1.828  -0.756  1.00  0.00     0.008 C 
HETATM   27  C17 UNL     1      -4.678  -2.376   0.418  1.00  0.00     0.008 C 
HETATM   28  C18 UNL     1      -5.739  -2.688  -0.582  1.00  0.00     0.001 C 
HETATM   29  C19 UNL     1      -4.634  -2.796  -1.624  1.00  0.00     0.008 C 
ENDBRANCH  25  26
ENDBRANCH   7  24
TORSDOF 9
ENDMDL
