MODEL 1
REMARK VINA RESULT: -7.808021581      0.000      0.000
REMARK  8 active torsions:
REMARK  status: ('A' for Active; 'I' for Inactive)
REMARK    1  A    between atoms: C2_2  and  C3_3 
REMARK    2  A    between atoms: C5_6  and  N1_7 
REMARK    3  A    between atoms: N1_7  and  C6_9 
REMARK    4  A    between atoms: C6_9  and  C7_10 
REMARK    5  A    between atoms: C7_10  and  C8_11 
REMARK    6  A    between atoms: C8_11  and  C9_12 
REMARK    7  A    between atoms: C9_12  and  C11_14 
REMARK    8  A    between atoms: C19_22  and  O2_23 
ROOT
HETATM    1  C11 UNL     1       0.087   0.547   4.040  1.00  0.00    -0.006 C 
HETATM    2  C12 UNL     1      -1.197   1.081   4.664  1.00  0.00     0.006 C 
HETATM    3  C13 UNL     1      -0.835   1.530   6.039  1.00  0.00     0.010 C 
HETATM    4  C14 UNL     1       0.219   0.532   6.459  1.00  0.00    -0.032 C 
HETATM    5  C15 UNL     1       1.141   1.148   7.494  1.00  0.00     0.016 C 
HETATM    6  C16 UNL     1      -0.467  -0.704   7.021  1.00  0.00     0.023 C 
HETATM    7  C17 UNL     1      -1.463  -0.400   8.087  1.00  0.00     0.012 C 
HETATM    8  C18 UNL     1      -1.587  -1.634   8.984  1.00  0.00     0.033 C 
HETATM    9  C19 UNL     1      -0.291  -1.734   9.755  1.00  0.00     0.122 C 
HETATM   10  C20 UNL     1       0.804  -2.168   8.804  1.00  0.00     0.065 C 
HETATM   11  C21 UNL     1       0.632  -1.619   7.458  1.00  0.00    -0.076 C 
HETATM   12  C22 UNL     1       1.501  -1.929   6.506  1.00  0.00    -0.023 C 
HETATM   13  C23 UNL     1       1.258  -1.333   5.169  1.00  0.00     0.033 C 
HETATM   14  C24 UNL     1       0.944   0.144   5.196  1.00  0.00     0.002 C 
ENDROOT
BRANCH   1  15
HETATM   15  C9  UNL     1       0.666   1.599   3.134  1.00  0.00    -0.014 C 
HETATM   16  C10 UNL     1       2.168   1.731   3.327  1.00  0.00     0.010 C 
BRANCH  15  17
HETATM   17  C8  UNL     1       0.457   1.343   1.669  1.00  0.00     0.006 C 
BRANCH  17  18
HETATM   18  C7  UNL     1       0.565  -0.112   1.306  1.00  0.00     0.020 C 
BRANCH  18  19
HETATM   19  C6  UNL     1      -0.038  -0.340  -0.091  1.00  0.00     0.116 C 
BRANCH  19  20
HETATM   20  N1  UNL     1      -1.457  -0.354   0.098  1.00  0.00    -0.396 N 
ATOM     21  H1  UNL     1      -2.061   0.371  -0.291  1.00  0.00     0.155 HD
BRANCH  20  22
HETATM   22  C5  UNL     1      -1.974  -1.427   0.853  1.00  0.00     0.226 C 
HETATM   23  C3  UNL     1      -2.811  -1.170   2.059  1.00  0.00     0.080 C 
HETATM   24  C4  UNL     1      -3.949  -1.625   1.242  1.00  0.00     0.183 C 
HETATM   25  O1  UNL     1      -3.053  -2.048   0.247  1.00  0.00    -0.366 OA
BRANCH  23  26
HETATM   26  C2  UNL     1      -2.455  -2.078   3.177  1.00  0.00    -0.026 C 
HETATM   27  C1  UNL     1      -1.346  -2.756   3.281  1.00  0.00     0.007 C 
ENDBRANCH  23  26
ENDBRANCH  20  22
ENDBRANCH  19  20
ENDBRANCH  18  19
ENDBRANCH  17  18
ENDBRANCH  15  17
ENDBRANCH   1  15
BRANCH   9  28
HETATM   28  O2  UNL     1      -0.381  -2.570  10.855  1.00  0.00    -0.395 OA
ATOM     29  H2  UNL     1       0.385  -3.120  10.966  1.00  0.00     0.210 HD
ENDBRANCH   9  28
TORSDOF 8
ENDMDL
MODEL 2
REMARK VINA RESULT: -7.807002637      2.254      4.348
REMARK  8 active torsions:
REMARK  status: ('A' for Active; 'I' for Inactive)
REMARK    1  A    between atoms: C2_2  and  C3_3 
REMARK    2  A    between atoms: C5_6  and  N1_7 
REMARK    3  A    between atoms: N1_7  and  C6_9 
REMARK    4  A    between atoms: C6_9  and  C7_10 
REMARK    5  A    between atoms: C7_10  and  C8_11 
REMARK    6  A    between atoms: C8_11  and  C9_12 
REMARK    7  A    between atoms: C9_12  and  C11_14 
REMARK    8  A    between atoms: C19_22  and  O2_23 
ROOT
HETATM    1  C11 UNL     1      -0.077  -0.539   4.023  1.00  0.00    -0.006 C 
HETATM    2  C12 UNL     1       1.204  -1.077   4.650  1.00  0.00     0.006 C 
HETATM    3  C13 UNL     1       0.837  -1.527   6.023  1.00  0.00     0.010 C 
HETATM    4  C14 UNL     1      -0.216  -0.527   6.442  1.00  0.00    -0.032 C 
HETATM    5  C15 UNL     1      -1.142  -1.143   7.473  1.00  0.00     0.016 C 
HETATM    6  C16 UNL     1       0.471   0.706   7.007  1.00  0.00     0.023 C 
HETATM    7  C17 UNL     1       1.463   0.399   8.075  1.00  0.00     0.012 C 
HETATM    8  C18 UNL     1       1.586   1.632   8.975  1.00  0.00     0.033 C 
HETATM    9  C19 UNL     1       0.288   1.734   9.742  1.00  0.00     0.122 C 
HETATM   10  C20 UNL     1      -0.803   2.171   8.788  1.00  0.00     0.065 C 
HETATM   11  C21 UNL     1      -0.628   1.624   7.442  1.00  0.00    -0.076 C 
HETATM   12  C22 UNL     1      -1.493   1.937   6.488  1.00  0.00    -0.023 C 
HETATM   13  C23 UNL     1      -1.247   1.341   5.151  1.00  0.00     0.033 C 
HETATM   14  C24 UNL     1      -0.936  -0.136   5.177  1.00  0.00     0.002 C 
ENDROOT
BRANCH   1  15
HETATM   15  C9  UNL     1      -0.656  -1.589   3.114  1.00  0.00    -0.014 C 
HETATM   16  C10 UNL     1      -2.161  -1.706   3.290  1.00  0.00     0.010 C 
BRANCH  15  17
HETATM   17  C8  UNL     1      -0.427  -1.341   1.650  1.00  0.00     0.006 C 
BRANCH  17  18
HETATM   18  C7  UNL     1      -0.585   0.106   1.269  1.00  0.00     0.020 C 
BRANCH  18  19
HETATM   19  C6  UNL     1       0.046   0.345  -0.113  1.00  0.00     0.116 C 
BRANCH  19  20
HETATM   20  N1  UNL     1       1.462   0.344   0.103  1.00  0.00    -0.396 N 
ATOM     21  H1  UNL     1       2.064  -0.394  -0.263  1.00  0.00     0.155 HD
BRANCH  20  22
HETATM   22  C5  UNL     1       1.977   1.423   0.850  1.00  0.00     0.226 C 
HETATM   23  C3  UNL     1       2.811   1.175   2.061  1.00  0.00     0.080 C 
HETATM   24  C4  UNL     1       3.952   1.621   1.244  1.00  0.00     0.183 C 
HETATM   25  O1  UNL     1       3.059   2.037   0.243  1.00  0.00    -0.366 OA
BRANCH  23  26
HETATM   26  C2  UNL     1       2.453   2.092   3.170  1.00  0.00    -0.026 C 
HETATM   27  C1  UNL     1       1.342   2.768   3.268  1.00  0.00     0.007 C 
ENDBRANCH  23  26
ENDBRANCH  20  22
ENDBRANCH  19  20
ENDBRANCH  18  19
ENDBRANCH  17  18
ENDBRANCH  15  17
ENDBRANCH   1  15
BRANCH   9  28
HETATM   28  O2  UNL     1       0.377   2.568  10.843  1.00  0.00    -0.395 OA
ATOM     29  H2  UNL     1      -0.468   2.889  11.133  1.00  0.00     0.210 HD
ENDBRANCH   9  28
TORSDOF 8
ENDMDL
MODEL 3
REMARK VINA RESULT: -7.750245563      5.072      9.648
REMARK  8 active torsions:
REMARK  status: ('A' for Active; 'I' for Inactive)
REMARK    1  A    between atoms: C2_2  and  C3_3 
REMARK    2  A    between atoms: C5_6  and  N1_7 
REMARK    3  A    between atoms: N1_7  and  C6_9 
REMARK    4  A    between atoms: C6_9  and  C7_10 
REMARK    5  A    between atoms: C7_10  and  C8_11 
REMARK    6  A    between atoms: C8_11  and  C9_12 
REMARK    7  A    between atoms: C9_12  and  C11_14 
REMARK    8  A    between atoms: C19_22  and  O2_23 
ROOT
HETATM    1  C11 UNL     1      -0.236  -0.749   9.805  1.00  0.00    -0.006 C 
HETATM    2  C12 UNL     1       0.568  -1.863   9.144  1.00  0.00     0.006 C 
HETATM    3  C13 UNL     1       1.540  -1.190   8.235  1.00  0.00     0.010 C 
HETATM    4  C14 UNL     1       0.769   0.009   7.735  1.00  0.00    -0.032 C 
HETATM    5  C15 UNL     1       1.724   1.119   7.341  1.00  0.00     0.016 C 
HETATM    6  C16 UNL     1      -0.082  -0.412   6.546  1.00  0.00     0.023 C 
HETATM    7  C17 UNL     1       0.687  -1.116   5.482  1.00  0.00     0.012 C 
HETATM    8  C18 UNL     1      -0.045  -0.909   4.154  1.00  0.00     0.033 C 
HETATM    9  C19 UNL     1       0.134   0.547   3.790  1.00  0.00     0.122 C 
HETATM   10  C20 UNL     1      -0.709   1.386   4.726  1.00  0.00     0.065 C 
HETATM   11  C21 UNL     1      -0.774   0.828   6.078  1.00  0.00    -0.076 C 
HETATM   12  C22 UNL     1      -1.495   1.440   7.007  1.00  0.00    -0.023 C 
HETATM   13  C23 UNL     1      -1.510   0.813   8.352  1.00  0.00     0.033 C 
HETATM   14  C24 UNL     1      -0.149   0.407   8.862  1.00  0.00     0.002 C 
ENDROOT
BRANCH   1  15
HETATM   15  C9  UNL     1       0.308  -0.507  11.187  1.00  0.00    -0.014 C 
HETATM   16  C10 UNL     1       0.349   0.977  11.514  1.00  0.00     0.010 C 
BRANCH  15  17
HETATM   17  C8  UNL     1      -0.482  -1.152  12.289  1.00  0.00     0.006 C 
BRANCH  17  18
HETATM   18  C7  UNL     1      -0.656  -0.260  13.487  1.00  0.00     0.020 C 
BRANCH  18  19
HETATM   19  C6  UNL     1      -1.967  -0.617  14.208  1.00  0.00     0.116 C 
BRANCH  19  20
HETATM   20  N1  UNL     1      -1.840  -0.082  15.530  1.00  0.00    -0.396 N 
ATOM     21  H1  UNL     1      -0.930   0.073  15.965  1.00  0.00     0.155 HD
BRANCH  20  22
HETATM   22  C5  UNL     1      -3.045   0.220  16.198  1.00  0.00     0.226 C 
HETATM   23  C3  UNL     1      -4.357   0.019  15.519  1.00  0.00     0.080 C 
HETATM   24  C4  UNL     1      -4.530  -1.136  16.416  1.00  0.00     0.183 C 
HETATM   25  O1  UNL     1      -3.397  -0.731  17.140  1.00  0.00    -0.366 OA
BRANCH  23  26
HETATM   26  C2  UNL     1      -5.287   1.145  15.780  1.00  0.00    -0.026 C 
HETATM   27  C1  UNL     1      -5.076   2.392  15.463  1.00  0.00     0.007 C 
ENDBRANCH  23  26
ENDBRANCH  20  22
ENDBRANCH  19  20
ENDBRANCH  18  19
ENDBRANCH  17  18
ENDBRANCH  15  17
ENDBRANCH   1  15
BRANCH   9  28
HETATM   28  O2  UNL     1      -0.153   0.809   2.461  1.00  0.00    -0.395 OA
ATOM     29  H2  UNL     1      -0.214   1.738   2.272  1.00  0.00     0.210 HD
ENDBRANCH   9  28
TORSDOF 8
ENDMDL
MODEL 4
REMARK VINA RESULT: -7.737565943      5.265      9.989
REMARK  8 active torsions:
REMARK  status: ('A' for Active; 'I' for Inactive)
REMARK    1  A    between atoms: C2_2  and  C3_3 
REMARK    2  A    between atoms: C5_6  and  N1_7 
REMARK    3  A    between atoms: N1_7  and  C6_9 
REMARK    4  A    between atoms: C6_9  and  C7_10 
REMARK    5  A    between atoms: C7_10  and  C8_11 
REMARK    6  A    between atoms: C8_11  and  C9_12 
REMARK    7  A    between atoms: C9_12  and  C11_14 
REMARK    8  A    between atoms: C19_22  and  O2_23 
ROOT
HETATM    1  C11 UNL     1       0.231   0.749   9.794  1.00  0.00    -0.006 C 
HETATM    2  C12 UNL     1      -0.561   1.883   9.151  1.00  0.00     0.006 C 
HETATM    3  C13 UNL     1      -1.539   1.235   8.231  1.00  0.00     0.010 C 
HETATM    4  C14 UNL     1      -0.780   0.037   7.711  1.00  0.00    -0.032 C 
HETATM    5  C15 UNL     1      -1.746  -1.056   7.298  1.00  0.00     0.016 C 
HETATM    6  C16 UNL     1       0.076   0.470   6.530  1.00  0.00     0.023 C 
HETATM    7  C17 UNL     1      -0.685   1.200   5.477  1.00  0.00     0.012 C 
HETATM    8  C18 UNL     1       0.046   1.007   4.146  1.00  0.00     0.033 C 
HETATM    9  C19 UNL     1      -0.147  -0.440   3.757  1.00  0.00     0.122 C 
HETATM   10  C20 UNL     1       0.686  -1.303   4.679  1.00  0.00     0.065 C 
HETATM   11  C21 UNL     1       0.756  -0.769   6.041  1.00  0.00    -0.076 C 
HETATM   12  C22 UNL     1       1.470  -1.404   6.959  1.00  0.00    -0.023 C 
HETATM   13  C23 UNL     1       1.490  -0.801   8.315  1.00  0.00     0.033 C 
HETATM   14  C24 UNL     1       0.133  -0.389   8.832  1.00  0.00     0.002 C 
ENDROOT
BRANCH   1  15
HETATM   15  C9  UNL     1      -0.317   0.489  11.171  1.00  0.00    -0.014 C 
HETATM   16  C10 UNL     1      -0.351  -0.998  11.482  1.00  0.00     0.010 C 
BRANCH  15  17
HETATM   17  C8  UNL     1       0.466   1.127  12.283  1.00  0.00     0.006 C 
BRANCH  17  18
HETATM   18  C7  UNL     1       0.705   0.198  13.441  1.00  0.00     0.020 C 
BRANCH  18  19
HETATM   19  C6  UNL     1       1.958   0.647  14.211  1.00  0.00     0.116 C 
BRANCH  19  20
HETATM   20  N1  UNL     1       1.818   0.106  15.529  1.00  0.00    -0.396 N 
ATOM     21  H1  UNL     1       0.904  -0.030  15.963  1.00  0.00     0.155 HD
BRANCH  20  22
HETATM   22  C5  UNL     1       3.015  -0.229  16.195  1.00  0.00     0.226 C 
HETATM   23  C3  UNL     1       4.335   0.003  15.542  1.00  0.00     0.080 C 
HETATM   24  C4  UNL     1       4.499   1.113  16.495  1.00  0.00     0.183 C 
HETATM   25  O1  UNL     1       3.357   0.675  17.186  1.00  0.00    -0.366 OA
BRANCH  23  26
HETATM   26  C2  UNL     1       5.261  -1.136  15.759  1.00  0.00    -0.026 C 
HETATM   27  C1  UNL     1       5.030  -2.376  15.428  1.00  0.00     0.007 C 
ENDBRANCH  23  26
ENDBRANCH  20  22
ENDBRANCH  19  20
ENDBRANCH  18  19
ENDBRANCH  17  18
ENDBRANCH  15  17
ENDBRANCH   1  15
BRANCH   9  28
HETATM   28  O2  UNL     1       0.138  -0.682   2.424  1.00  0.00    -0.395 OA
ATOM     29  H2  UNL     1       0.261  -1.605   2.234  1.00  0.00     0.210 HD
ENDBRANCH   9  28
TORSDOF 8
ENDMDL
MODEL 5
REMARK VINA RESULT: -7.411986065      5.060      9.298
REMARK  8 active torsions:
REMARK  status: ('A' for Active; 'I' for Inactive)
REMARK    1  A    between atoms: C2_2  and  C3_3 
REMARK    2  A    between atoms: C5_6  and  N1_7 
REMARK    3  A    between atoms: N1_7  and  C6_9 
REMARK    4  A    between atoms: C6_9  and  C7_10 
REMARK    5  A    between atoms: C7_10  and  C8_11 
REMARK    6  A    between atoms: C8_11  and  C9_12 
REMARK    7  A    between atoms: C9_12  and  C11_14 
REMARK    8  A    between atoms: C19_22  and  O2_23 
ROOT
HETATM    1  C11 UNL     1       0.885   1.215   9.817  1.00  0.00    -0.006 C 
HETATM    2  C12 UNL     1       0.010   2.244   9.110  1.00  0.00     0.006 C 
HETATM    3  C13 UNL     1      -1.101   1.479   8.477  1.00  0.00     0.010 C 
HETATM    4  C14 UNL     1      -0.438   0.184   8.069  1.00  0.00    -0.032 C 
HETATM    5  C15 UNL     1      -1.462  -0.933   8.007  1.00  0.00     0.016 C 
HETATM    6  C16 UNL     1       0.229   0.375   6.716  1.00  0.00     0.023 C 
HETATM    7  C17 UNL     1      -0.680   0.935   5.677  1.00  0.00     0.012 C 
HETATM    8  C18 UNL     1      -0.164   0.489   4.306  1.00  0.00     0.033 C 
HETATM    9  C19 UNL     1      -0.423  -0.997   4.214  1.00  0.00     0.122 C 
HETATM   10  C20 UNL     1       0.537  -1.713   5.139  1.00  0.00     0.065 C 
HETATM   11  C21 UNL     1       0.819  -0.952   6.358  1.00  0.00    -0.076 C 
HETATM   12  C22 UNL     1       1.661  -1.440   7.257  1.00  0.00    -0.023 C 
HETATM   13  C23 UNL     1       1.893  -0.610   8.465  1.00  0.00     0.033 C 
HETATM   14  C24 UNL     1       0.634  -0.070   9.099  1.00  0.00     0.002 C 
ENDROOT
BRANCH   1  15
HETATM   15  C9  UNL     1       0.555   1.217  11.285  1.00  0.00    -0.014 C 
HETATM   16  C10 UNL     1      -0.542   2.220  11.604  1.00  0.00     0.010 C 
BRANCH  15  17
HETATM   17  C8  UNL     1       0.077  -0.103  11.818  1.00  0.00     0.006 C 
BRANCH  17  18
HETATM   18  C7  UNL     1      -0.086  -0.108  13.313  1.00  0.00     0.020 C 
BRANCH  18  19
HETATM   19  C6  UNL     1      -1.450  -0.716  13.680  1.00  0.00     0.116 C 
BRANCH  19  20
HETATM   20  N1  UNL     1      -1.813  -0.127  14.934  1.00  0.00    -0.396 N 
ATOM     21  H1  UNL     1      -1.112   0.181  15.608  1.00  0.00     0.155 HD
BRANCH  20  22
HETATM   22  C5  UNL     1      -3.194   0.004  15.184  1.00  0.00     0.226 C 
HETATM   23  C3  UNL     1      -3.706   0.086  16.582  1.00  0.00     0.080 C 
HETATM   24  C4  UNL     1      -3.954   1.510  16.301  1.00  0.00     0.183 C 
HETATM   25  O1  UNL     1      -3.671   1.281  14.944  1.00  0.00    -0.366 OA
BRANCH  23  26
HETATM   26  C2  UNL     1      -4.933  -0.728  16.765  1.00  0.00    -0.026 C 
HETATM   27  C1  UNL     1      -4.984  -2.030  16.785  1.00  0.00     0.007 C 
ENDBRANCH  23  26
ENDBRANCH  20  22
ENDBRANCH  19  20
ENDBRANCH  18  19
ENDBRANCH  17  18
ENDBRANCH  15  17
ENDBRANCH   1  15
BRANCH   9  28
HETATM   28  O2  UNL     1      -0.347  -1.478   2.918  1.00  0.00    -0.395 OA
ATOM     29  H2  UNL     1      -0.802  -0.926   2.292  1.00  0.00     0.210 HD
ENDBRANCH   9  28
TORSDOF 8
ENDMDL
