MODEL 1
REMARK VINA RESULT: -6.932241234      0.000      0.000
REMARK  10 active torsions:
REMARK  status: ('A' for Active; 'I' for Inactive)
REMARK    1  A    between atoms: N1_2  and  C2_4 
REMARK    2  A    between atoms: C3_7  and  N3_8 
REMARK    3  A    between atoms: N7_19  and  C6_20 
REMARK    4  A    between atoms: C6_20  and  C7_21 
REMARK    5  A    between atoms: C6_20  and  O1_26 
REMARK    6  A    between atoms: C7_21  and  N8_22 
REMARK    7  A    between atoms: O1_26  and  C8_27 
REMARK    8  A    between atoms: C8_27  and  C9_29 
REMARK    9  A    between atoms: C10_33  and  O3_34 
REMARK   10  A    between atoms: C11_36  and  O4_37 
ROOT
HETATM    1  C2  UNL     1     -19.611 -21.469 -15.237  1.00  0.00     0.148 A 
HETATM    2  N2  UNL     1     -20.216 -22.401 -14.484  1.00  0.00    -0.175 N 
ATOM      3  H2  UNL     1     -19.804 -22.666 -13.589  1.00  0.00     0.186 HD
HETATM    4  C3  UNL     1     -21.364 -22.996 -14.891  1.00  0.00     0.679 A 
HETATM    5  N4  UNL     1     -21.963 -22.697 -16.058  1.00  0.00    -0.173 N 
ATOM      6  H4  UNL     1     -22.826 -23.163 -16.336  1.00  0.00     0.186 HD
HETATM    7  C4  UNL     1     -21.396 -21.768 -16.851  1.00  0.00     0.173 A 
HETATM    8  C5  UNL     1     -20.210 -21.149 -16.437  1.00  0.00     0.140 A 
HETATM    9  N5  UNL     1     -19.911 -20.301 -17.417  1.00  0.00    -0.279 N 
ATOM     10  H5  UNL     1     -19.099 -19.684 -17.438  1.00  0.00     0.189 HD
HETATM   11  N6  UNL     1     -20.833 -20.385 -18.361  1.00  0.00    -0.236 N 
ATOM     12  H6  UNL     1     -20.830 -19.833 -19.219  1.00  0.00     0.208 HD
HETATM   13  N7  UNL     1     -21.759 -21.273 -18.051  1.00  0.00    -0.227 N 
ENDROOT
BRANCH  13  14
HETATM   14  C6  UNL     1     -22.938 -21.654 -18.830  1.00  0.00     0.282 C 
BRANCH  14  15
HETATM   15  C7  UNL     1     -22.852 -21.096 -20.239  1.00  0.00     0.285 C 
BRANCH  15  16
HETATM   16  N8  UNL     1     -22.406 -22.106 -21.180  1.00  0.00    -0.075 N 
ATOM     17  H83 UNL     1     -22.718 -23.037 -20.905  1.00  0.00     0.274 HD
ATOM     18  H82 UNL     1     -22.899 -22.032 -22.070  1.00  0.00     0.274 HD
ATOM     19  H81 UNL     1     -21.395 -22.073 -21.308  1.00  0.00     0.274 HD
ENDBRANCH  15  16
ENDBRANCH  14  15
BRANCH  14  20
HETATM   20  O1  UNL     1     -24.136 -21.311 -18.193  1.00  0.00    -0.290 OA
BRANCH  20  21
HETATM   21  C8  UNL     1     -25.020 -22.184 -17.613  1.00  0.00     0.294 C 
HETATM   22  O2  UNL     1     -24.599 -23.323 -17.292  1.00  0.00    -0.263 OA
BRANCH  21  23
HETATM   23  C9  UNL     1     -26.459 -21.821 -17.357  1.00  0.00     0.320 C 
HETATM   24  N9  UNL     1     -26.604 -20.834 -16.316  1.00  0.00    -0.030 N 
HETATM   25  C10 UNL     1     -26.998 -21.875 -15.394  1.00  0.00     0.351 C 
ATOM     26  H92 UNL     1     -25.827 -20.214 -16.087  1.00  0.00     0.281 HD
ATOM     27  H91 UNL     1     -27.207 -20.023 -16.460  1.00  0.00     0.281 HD
HETATM   28  C11 UNL     1     -27.218 -22.812 -16.540  1.00  0.00     0.215 C 
BRANCH  25  29
HETATM   29  O3  UNL     1     -25.959 -22.305 -14.565  1.00  0.00    -0.368 OA
ATOM     30  H3  UNL     1     -25.430 -22.995 -14.950  1.00  0.00     0.212 HD
ENDBRANCH  25  29
BRANCH  28  31
HETATM   31  O4  UNL     1     -28.580 -22.847 -16.901  1.00  0.00    -0.389 OA
ATOM     32  H4  UNL     1     -28.702 -22.649 -17.822  1.00  0.00     0.210 HD
ENDBRANCH  28  31
ENDBRANCH  21  23
ENDBRANCH  20  21
ENDBRANCH  14  20
ENDBRANCH  13  14
BRANCH   4  33
HETATM   33  N3  UNL     1     -21.929 -23.898 -14.137  1.00  0.00    -0.234 N 
ATOM     34  H32 UNL     1     -22.363 -24.695 -14.602  1.00  0.00     0.174 HD
ATOM     35  H31 UNL     1     -21.924 -23.787 -13.124  1.00  0.00     0.174 HD
ENDBRANCH   4  33
BRANCH   1  36
HETATM   36  N1  UNL     1     -18.524 -20.911 -14.844  1.00  0.00    -0.378 N 
HETATM   37  C1  UNL     1     -18.028 -20.924 -13.508  1.00  0.00     0.147 C 
ATOM     38  H1  UNL     1     -17.970 -20.418 -15.544  1.00  0.00     0.160 HD
ENDBRANCH   1  36
TORSDOF 10
ENDMDL
MODEL 2
REMARK VINA RESULT: -6.908076784      2.293      4.161
REMARK  10 active torsions:
REMARK  status: ('A' for Active; 'I' for Inactive)
REMARK    1  A    between atoms: N1_2  and  C2_4 
REMARK    2  A    between atoms: C3_7  and  N3_8 
REMARK    3  A    between atoms: N7_19  and  C6_20 
REMARK    4  A    between atoms: C6_20  and  C7_21 
REMARK    5  A    between atoms: C6_20  and  O1_26 
REMARK    6  A    between atoms: C7_21  and  N8_22 
REMARK    7  A    between atoms: O1_26  and  C8_27 
REMARK    8  A    between atoms: C8_27  and  C9_29 
REMARK    9  A    between atoms: C10_33  and  O3_34 
REMARK   10  A    between atoms: C11_36  and  O4_37 
ROOT
HETATM    1  C2  UNL     1     -17.086 -20.453 -12.819  1.00  0.00     0.148 A 
HETATM    2  N2  UNL     1     -17.608 -20.757 -11.619  1.00  0.00    -0.175 N 
ATOM      3  H2  UNL     1     -17.076 -20.549 -10.775  1.00  0.00     0.186 HD
HETATM    4  C3  UNL     1     -18.830 -21.334 -11.512  1.00  0.00     0.679 A 
HETATM    5  N4  UNL     1     -19.588 -21.636 -12.582  1.00  0.00    -0.173 N 
ATOM      6  H4  UNL     1     -20.503 -22.070 -12.467  1.00  0.00     0.186 HD
HETATM    7  C4  UNL     1     -19.110 -21.352 -13.807  1.00  0.00     0.173 A 
HETATM    8  C5  UNL     1     -17.848 -20.755 -13.928  1.00  0.00     0.140 A 
HETATM    9  N5  UNL     1     -17.667 -20.607 -15.237  1.00  0.00    -0.279 N 
ATOM     10  H5  UNL     1     -16.841 -20.200 -15.677  1.00  0.00     0.189 HD
HETATM   11  N6  UNL     1     -18.726 -21.070 -15.877  1.00  0.00    -0.236 N 
ATOM     12  H6  UNL     1     -18.831 -21.068 -16.892  1.00  0.00     0.208 HD
HETATM   13  N7  UNL     1     -19.631 -21.536 -15.037  1.00  0.00    -0.227 N 
ENDROOT
BRANCH  13  14
HETATM   14  C6  UNL     1     -20.932 -22.129 -15.352  1.00  0.00     0.282 C 
BRANCH  14  15
HETATM   15  C7  UNL     1     -20.936 -23.612 -15.032  1.00  0.00     0.285 C 
BRANCH  15  16
HETATM   16  N8  UNL     1     -22.049 -23.962 -14.170  1.00  0.00    -0.075 N 
ATOM     17  H83 UNL     1     -22.918 -24.050 -14.697  1.00  0.00     0.274 HD
ATOM     18  H82 UNL     1     -21.973 -24.922 -13.832  1.00  0.00     0.274 HD
ATOM     19  H81 UNL     1     -22.143 -23.301 -13.399  1.00  0.00     0.274 HD
ENDBRANCH  15  16
ENDBRANCH  14  15
BRANCH  14  20
HETATM   20  O1  UNL     1     -21.338 -21.865 -16.665  1.00  0.00    -0.290 OA
BRANCH  20  21
HETATM   21  C8  UNL     1     -22.040 -20.766 -17.087  1.00  0.00     0.294 C 
HETATM   22  O2  UNL     1     -21.663 -19.637 -16.688  1.00  0.00    -0.263 OA
BRANCH  21  23
HETATM   23  C9  UNL     1     -23.232 -20.874 -18.000  1.00  0.00     0.320 C 
HETATM   24  N9  UNL     1     -24.478 -20.950 -17.279  1.00  0.00    -0.030 N 
HETATM   25  C10 UNL     1     -24.522 -22.375 -17.518  1.00  0.00     0.351 C 
ATOM     26  H92 UNL     1     -24.540 -20.589 -16.327  1.00  0.00     0.281 HD
ATOM     27  H91 UNL     1     -25.264 -20.361 -17.552  1.00  0.00     0.281 HD
HETATM   28  C11 UNL     1     -23.464 -22.235 -18.568  1.00  0.00     0.215 C 
BRANCH  25  29
HETATM   29  O3  UNL     1     -24.077 -23.134 -16.433  1.00  0.00    -0.368 OA
ATOM     30  H3  UNL     1     -23.181 -22.942 -16.179  1.00  0.00     0.212 HD
ENDBRANCH  25  29
BRANCH  28  31
HETATM   31  O4  UNL     1     -24.042 -22.170 -19.851  1.00  0.00    -0.389 OA
ATOM     32  H4  UNL     1     -23.570 -21.569 -20.416  1.00  0.00     0.210 HD
ENDBRANCH  28  31
ENDBRANCH  21  23
ENDBRANCH  20  21
ENDBRANCH  14  20
ENDBRANCH  13  14
BRANCH   4  33
HETATM   33  N3  UNL     1     -19.311 -21.616 -10.333  1.00  0.00    -0.234 N 
ATOM     34  H32 UNL     1     -20.312 -21.802 -10.265  1.00  0.00     0.174 HD
ATOM     35  H31 UNL     1     -18.689 -21.645  -9.526  1.00  0.00     0.174 HD
ENDBRANCH   4  33
BRANCH   1  36
HETATM   36  N1  UNL     1     -15.929 -19.908 -12.912  1.00  0.00    -0.378 N 
HETATM   37  C1  UNL     1     -14.702 -20.606 -13.111  1.00  0.00     0.147 C 
ATOM     38  H1  UNL     1     -15.882 -18.892 -12.837  1.00  0.00     0.160 HD
ENDBRANCH   1  36
TORSDOF 10
ENDMDL
MODEL 3
REMARK VINA RESULT: -6.890879867      1.712      2.898
REMARK  10 active torsions:
REMARK  status: ('A' for Active; 'I' for Inactive)
REMARK    1  A    between atoms: N1_2  and  C2_4 
REMARK    2  A    between atoms: C3_7  and  N3_8 
REMARK    3  A    between atoms: N7_19  and  C6_20 
REMARK    4  A    between atoms: C6_20  and  C7_21 
REMARK    5  A    between atoms: C6_20  and  O1_26 
REMARK    6  A    between atoms: C7_21  and  N8_22 
REMARK    7  A    between atoms: O1_26  and  C8_27 
REMARK    8  A    between atoms: C8_27  and  C9_29 
REMARK    9  A    between atoms: C10_33  and  O3_34 
REMARK   10  A    between atoms: C11_36  and  O4_37 
ROOT
HETATM    1  C2  UNL     1     -19.830 -20.923 -15.978  1.00  0.00     0.148 A 
HETATM    2  N2  UNL     1     -20.055 -19.810 -16.695  1.00  0.00    -0.175 N 
ATOM      3  H2  UNL     1     -19.307 -19.126 -16.806  1.00  0.00     0.186 HD
HETATM    4  C3  UNL     1     -21.259 -19.581 -17.273  1.00  0.00     0.679 A 
HETATM    5  N4  UNL     1     -22.291 -20.438 -17.168  1.00  0.00    -0.173 N 
ATOM      6  H4  UNL     1     -23.185 -20.236 -17.616  1.00  0.00     0.186 HD
HETATM    7  C4  UNL     1     -22.117 -21.568 -16.460  1.00  0.00     0.173 A 
HETATM    8  C5  UNL     1     -20.875 -21.814 -15.859  1.00  0.00     0.140 A 
HETATM    9  N5  UNL     1     -21.021 -22.984 -15.245  1.00  0.00    -0.279 N 
ATOM     10  H5  UNL     1     -20.300 -23.462 -14.704  1.00  0.00     0.189 HD
HETATM   11  N6  UNL     1     -22.249 -23.431 -15.447  1.00  0.00    -0.236 N 
ATOM     12  H6  UNL     1     -22.608 -24.312 -15.080  1.00  0.00     0.208 HD
HETATM   13  N7  UNL     1     -22.950 -22.591 -16.185  1.00  0.00    -0.227 N 
ENDROOT
BRANCH  13  14
HETATM   14  C6  UNL     1     -24.340 -22.725 -16.626  1.00  0.00     0.282 C 
BRANCH  14  15
HETATM   15  C7  UNL     1     -24.416 -23.486 -17.936  1.00  0.00     0.285 C 
BRANCH  15  16
HETATM   16  N8  UNL     1     -24.165 -22.614 -19.068  1.00  0.00    -0.075 N 
ATOM     17  H83 UNL     1     -23.284 -22.111 -18.964  1.00  0.00     0.274 HD
ATOM     18  H82 UNL     1     -23.942 -23.147 -19.909  1.00  0.00     0.274 HD
ATOM     19  H81 UNL     1     -24.945 -21.976 -19.225  1.00  0.00     0.274 HD
ENDBRANCH  15  16
ENDBRANCH  14  15
BRANCH  14  20
HETATM   20  O1  UNL     1     -25.005 -21.495 -16.684  1.00  0.00    -0.290 OA
BRANCH  20  21
HETATM   21  C8  UNL     1     -26.361 -21.314 -16.766  1.00  0.00     0.294 C 
HETATM   22  O2  UNL     1     -26.868 -21.172 -17.906  1.00  0.00    -0.263 OA
BRANCH  21  23
HETATM   23  C9  UNL     1     -27.245 -21.279 -15.548  1.00  0.00     0.320 C 
HETATM   24  N9  UNL     1     -26.990 -22.376 -14.647  1.00  0.00    -0.030 N 
HETATM   25  C10 UNL     1     -28.174 -23.044 -15.137  1.00  0.00     0.351 C 
ATOM     26  H92 UNL     1     -26.089 -22.854 -14.665  1.00  0.00     0.281 HD
ATOM     27  H91 UNL     1     -26.877 -22.203 -13.648  1.00  0.00     0.281 HD
HETATM   28  C11 UNL     1     -28.637 -21.769 -15.769  1.00  0.00     0.215 C 
BRANCH  25  29
HETATM   29  O3  UNL     1     -27.902 -24.027 -16.093  1.00  0.00    -0.368 OA
ATOM     30  H3  UNL     1     -27.722 -24.881 -15.716  1.00  0.00     0.212 HD
ENDBRANCH  25  29
BRANCH  28  31
HETATM   31  O4  UNL     1     -29.559 -21.106 -14.935  1.00  0.00    -0.389 OA
ATOM     32  H4  UNL     1     -29.174 -20.887 -14.095  1.00  0.00     0.210 HD
ENDBRANCH  28  31
ENDBRANCH  21  23
ENDBRANCH  20  21
ENDBRANCH  14  20
ENDBRANCH  13  14
BRANCH   4  33
HETATM   33  N3  UNL     1     -21.448 -18.491 -17.965  1.00  0.00    -0.234 N 
ATOM     34  H32 UNL     1     -20.891 -17.674 -17.718  1.00  0.00     0.174 HD
ATOM     35  H31 UNL     1     -22.134 -18.483 -18.720  1.00  0.00     0.174 HD
ENDBRANCH   4  33
BRANCH   1  36
HETATM   36  N1  UNL     1     -18.687 -21.132 -15.433  1.00  0.00    -0.378 N 
HETATM   37  C1  UNL     1     -18.303 -20.700 -14.130  1.00  0.00     0.147 C 
ATOM     38  H1  UNL     1     -17.996 -21.650 -15.977  1.00  0.00     0.160 HD
ENDBRANCH   1  36
TORSDOF 10
ENDMDL
MODEL 4
REMARK VINA RESULT: -6.889546597      1.657      2.360
REMARK  10 active torsions:
REMARK  status: ('A' for Active; 'I' for Inactive)
REMARK    1  A    between atoms: N1_2  and  C2_4 
REMARK    2  A    between atoms: C3_7  and  N3_8 
REMARK    3  A    between atoms: N7_19  and  C6_20 
REMARK    4  A    between atoms: C6_20  and  C7_21 
REMARK    5  A    between atoms: C6_20  and  O1_26 
REMARK    6  A    between atoms: C7_21  and  N8_22 
REMARK    7  A    between atoms: O1_26  and  C8_27 
REMARK    8  A    between atoms: C8_27  and  C9_29 
REMARK    9  A    between atoms: C10_33  and  O3_34 
REMARK   10  A    between atoms: C11_36  and  O4_37 
ROOT
HETATM    1  C2  UNL     1     -19.195 -21.376 -13.806  1.00  0.00     0.148 A 
HETATM    2  N2  UNL     1     -20.039 -22.363 -13.463  1.00  0.00    -0.175 N 
ATOM      3  H2  UNL     1     -20.032 -22.718 -12.508  1.00  0.00     0.186 HD
HETATM    4  C3  UNL     1     -20.899 -22.895 -14.365  1.00  0.00     0.679 A 
HETATM    5  N4  UNL     1     -20.963 -22.476 -15.643  1.00  0.00    -0.173 N 
ATOM      6  H4  UNL     1     -21.622 -22.898 -16.297  1.00  0.00     0.186 HD
HETATM    7  C4  UNL     1     -20.139 -21.489 -16.037  1.00  0.00     0.173 A 
HETATM    8  C5  UNL     1     -19.246 -20.934 -15.111  1.00  0.00     0.140 A 
HETATM    9  N5  UNL     1     -18.584 -20.004 -15.794  1.00  0.00    -0.279 N 
ATOM     10  H5  UNL     1     -17.851 -19.404 -15.417  1.00  0.00     0.189 HD
HETATM   11  N6  UNL     1     -19.027 -19.982 -17.039  1.00  0.00    -0.236 N 
ATOM     12  H6  UNL     1     -18.679 -19.352 -17.762  1.00  0.00     0.208 HD
HETATM   13  N7  UNL     1     -19.978 -20.877 -17.227  1.00  0.00    -0.227 N 
ENDROOT
BRANCH  13  14
HETATM   14  C6  UNL     1     -20.717 -21.161 -18.459  1.00  0.00     0.282 C 
BRANCH  14  15
HETATM   15  C7  UNL     1     -20.095 -20.433 -19.636  1.00  0.00     0.285 C 
BRANCH  15  16
HETATM   16  N8  UNL     1     -20.655 -20.890 -20.894  1.00  0.00    -0.075 N 
ATOM     17  H83 UNL     1     -20.017 -20.720 -21.671  1.00  0.00     0.274 HD
ATOM     18  H82 UNL     1     -20.690 -21.909 -20.940  1.00  0.00     0.274 HD
ATOM     19  H81 UNL     1     -21.572 -20.476 -21.064  1.00  0.00     0.274 HD
ENDBRANCH  15  16
ENDBRANCH  14  15
BRANCH  14  20
HETATM   20  O1  UNL     1     -22.086 -20.902 -18.335  1.00  0.00    -0.290 OA
BRANCH  20  21
HETATM   21  C8  UNL     1     -23.102 -21.787 -18.590  1.00  0.00     0.294 C 
HETATM   22  O2  UNL     1     -23.562 -21.836 -19.757  1.00  0.00    -0.263 OA
BRANCH  21  23
HETATM   23  C9  UNL     1     -23.672 -22.687 -17.525  1.00  0.00     0.320 C 
HETATM   24  N9  UNL     1     -24.884 -23.344 -17.946  1.00  0.00    -0.030 N 
HETATM   25  C10 UNL     1     -25.656 -22.405 -17.166  1.00  0.00     0.351 C 
ATOM     26  H92 UNL     1     -25.080 -23.469 -18.939  1.00  0.00     0.281 HD
ATOM     27  H91 UNL     1     -24.999 -24.347 -17.799  1.00  0.00     0.281 HD
HETATM   28  C11 UNL     1     -24.417 -21.980 -16.442  1.00  0.00     0.215 C 
BRANCH  25  29
HETATM   29  O3  UNL     1     -26.195 -21.363 -17.926  1.00  0.00    -0.368 OA
ATOM     30  H3  UNL     1     -27.044 -21.069 -17.616  1.00  0.00     0.212 HD
ENDBRANCH  25  29
BRANCH  28  31
HETATM   31  O4  UNL     1     -24.304 -22.655 -15.210  1.00  0.00    -0.389 OA
ATOM     32  H4  UNL     1     -25.144 -22.726 -14.773  1.00  0.00     0.210 HD
ENDBRANCH  28  31
ENDBRANCH  21  23
ENDBRANCH  20  21
ENDBRANCH  14  20
ENDBRANCH  13  14
BRANCH   4  33
HETATM   33  N3  UNL     1     -21.708 -23.852 -14.003  1.00  0.00    -0.234 N 
ATOM     34  H32 UNL     1     -21.430 -24.428 -13.208  1.00  0.00     0.174 HD
ATOM     35  H31 UNL     1     -22.579 -23.999 -14.513  1.00  0.00     0.174 HD
ENDBRANCH   4  33
BRANCH   1  36
HETATM   36  N1  UNL     1     -18.383 -20.878 -12.946  1.00  0.00    -0.378 N 
HETATM   37  C1  UNL     1     -17.049 -21.324 -12.717  1.00  0.00     0.147 C 
ATOM     38  H1  UNL     1     -18.720 -20.101 -12.379  1.00  0.00     0.160 HD
ENDBRANCH   1  36
TORSDOF 10
ENDMDL
MODEL 5
REMARK VINA RESULT: -6.880247434      6.663      9.328
REMARK  10 active torsions:
REMARK  status: ('A' for Active; 'I' for Inactive)
REMARK    1  A    between atoms: N1_2  and  C2_4 
REMARK    2  A    between atoms: C3_7  and  N3_8 
REMARK    3  A    between atoms: N7_19  and  C6_20 
REMARK    4  A    between atoms: C6_20  and  C7_21 
REMARK    5  A    between atoms: C6_20  and  O1_26 
REMARK    6  A    between atoms: C7_21  and  N8_22 
REMARK    7  A    between atoms: O1_26  and  C8_27 
REMARK    8  A    between atoms: C8_27  and  C9_29 
REMARK    9  A    between atoms: C10_33  and  O3_34 
REMARK   10  A    between atoms: C11_36  and  O4_37 
ROOT
HETATM    1  C2  UNL     1     -30.100 -21.744 -14.035  1.00  0.00     0.148 A 
HETATM    2  N2  UNL     1     -29.172 -21.505 -14.976  1.00  0.00    -0.175 N 
ATOM      3  H2  UNL     1     -28.929 -20.542 -15.206  1.00  0.00     0.186 HD
HETATM    4  C3  UNL     1     -28.553 -22.522 -15.625  1.00  0.00     0.679 A 
HETATM    5  N4  UNL     1     -28.824 -23.816 -15.374  1.00  0.00    -0.173 N 
ATOM      6  H4  UNL     1     -28.340 -24.558 -15.880  1.00  0.00     0.186 HD
HETATM    7  C4  UNL     1     -29.747 -24.109 -14.439  1.00  0.00     0.173 A 
HETATM    8  C5  UNL     1     -30.391 -23.064 -13.764  1.00  0.00     0.140 A 
HETATM    9  N5  UNL     1     -31.228 -23.668 -12.925  1.00  0.00    -0.279 N 
ATOM     10  H5  UNL     1     -31.858 -23.196 -12.277  1.00  0.00     0.189 HD
HETATM   11  N6  UNL     1     -31.114 -24.978 -13.065  1.00  0.00    -0.236 N 
ATOM     12  H6  UNL     1     -31.649 -25.662 -12.531  1.00  0.00     0.208 HD
HETATM   13  N7  UNL     1     -30.218 -25.287 -13.984  1.00  0.00    -0.227 N 
ENDROOT
BRANCH  13  14
HETATM   14  C6  UNL     1     -29.806 -26.620 -14.427  1.00  0.00     0.282 C 
BRANCH  14  15
HETATM   15  C7  UNL     1     -29.603 -27.541 -13.239  1.00  0.00     0.285 C 
BRANCH  15  16
HETATM   16  N8  UNL     1     -30.167 -28.855 -13.488  1.00  0.00    -0.075 N 
ATOM     17  H83 UNL     1     -30.877 -29.094 -12.796  1.00  0.00     0.274 HD
ATOM     18  H82 UNL     1     -30.755 -28.858 -14.322  1.00  0.00     0.274 HD
ATOM     19  H81 UNL     1     -29.439 -29.567 -13.540  1.00  0.00     0.274 HD
ENDBRANCH  15  16
ENDBRANCH  14  15
BRANCH  14  20
HETATM   20  O1  UNL     1     -28.690 -26.584 -15.271  1.00  0.00    -0.290 OA
BRANCH  20  21
HETATM   21  C8  UNL     1     -28.238 -27.613 -16.055  1.00  0.00     0.294 C 
HETATM   22  O2  UNL     1     -29.083 -28.421 -16.512  1.00  0.00    -0.263 OA
BRANCH  21  23
HETATM   23  C9  UNL     1     -26.779 -27.799 -16.377  1.00  0.00     0.320 C 
HETATM   24  N9  UNL     1     -26.338 -26.957 -17.461  1.00  0.00    -0.030 N 
HETATM   25  C10 UNL     1     -26.388 -28.092 -18.354  1.00  0.00     0.351 C 
ATOM     26  H92 UNL     1     -26.851 -26.105 -17.688  1.00  0.00     0.281 HD
ATOM     27  H91 UNL     1     -25.479 -26.414 -17.371  1.00  0.00     0.281 HD
HETATM   28  C11 UNL     1     -26.465 -29.017 -17.180  1.00  0.00     0.215 C 
BRANCH  25  29
HETATM   29  O3  UNL     1     -27.551 -28.140 -19.128  1.00  0.00    -0.368 OA
ATOM     30  H3  UNL     1     -27.458 -27.719 -19.975  1.00  0.00     0.212 HD
ENDBRANCH  25  29
BRANCH  28  31
HETATM   31  O4  UNL     1     -25.191 -29.530 -16.866  1.00  0.00    -0.389 OA
ATOM     32  H4  UNL     1     -25.211 -30.057 -16.076  1.00  0.00     0.210 HD
ENDBRANCH  28  31
ENDBRANCH  21  23
ENDBRANCH  20  21
ENDBRANCH  14  20
ENDBRANCH  13  14
BRANCH   4  33
HETATM   33  N3  UNL     1     -27.655 -22.259 -16.533  1.00  0.00    -0.234 N 
ATOM     34  H32 UNL     1     -27.035 -21.466 -16.367  1.00  0.00     0.174 HD
ATOM     35  H31 UNL     1     -27.595 -22.839 -17.369  1.00  0.00     0.174 HD
ENDBRANCH   4  33
BRANCH   1  36
HETATM   36  N1  UNL     1     -30.682 -20.776 -13.426  1.00  0.00    -0.378 N 
HETATM   37  C1  UNL     1     -31.146 -19.575 -14.041  1.00  0.00     0.147 C 
ATOM     38  H1  UNL     1     -30.824 -20.872 -12.421  1.00  0.00     0.160 HD
ENDBRANCH   1  36
TORSDOF 10
ENDMDL
