MODEL 1
REMARK VINA RESULT: -8.494100970      0.000      0.000
REMARK  8 active torsions:
REMARK  status: ('A' for Active; 'I' for Inactive)
REMARK       I    between atoms: C1_4  and  N3_6 
REMARK       I    between atoms: N3_6  and  C2_8 
REMARK    1  A    between atoms: C2_8  and  C3_10 
REMARK    2  A    between atoms: C3_10  and  O2_11 
REMARK    3  A    between atoms: C3_10  and  C4_13 
REMARK    4  A    between atoms: C4_13  and  O3_14 
REMARK    5  A    between atoms: C4_13  and  C5_16 
REMARK    6  A    between atoms: C6_20  and  N6_21 
REMARK    7  A    between atoms: C9_24  and  N7_25 
REMARK    8  A    between atoms: N7_25  and  N8_27 
ROOT
HETATM    1  C5  UNL     1     -28.851 -22.569 -13.924  1.00  0.00     0.276 C 
HETATM    2  N4  UNL     1     -29.327 -21.636 -14.892  1.00  0.00    -0.102 NA
HETATM    3  N5  UNL     1     -28.184 -21.270 -15.628  1.00  0.00    -0.266 N 
ATOM      4  H5  UNL     1     -28.126 -20.446 -16.225  1.00  0.00     0.186 HD
HETATM    5  C6  UNL     1     -27.220 -22.107 -15.453  1.00  0.00     0.247 C 
HETATM    6  O5  UNL     1     -27.693 -23.074 -14.583  1.00  0.00    -0.294 OA
ENDROOT
BRANCH   1   7
HETATM    7  C4  UNL     1     -29.788 -23.648 -13.515  1.00  0.00     0.203 C 
BRANCH   7   8
HETATM    8  C3  UNL     1     -30.244 -24.565 -14.611  1.00  0.00     0.242 C 
BRANCH   8   9
HETATM    9  C2  UNL     1     -29.660 -25.902 -14.624  1.00  0.00     0.255 C 
HETATM   10  N3  UNL     1     -30.202 -26.928 -13.819  1.00  0.00    -0.299 N 
HETATM   11  C1  UNL     1     -29.624 -28.218 -13.840  1.00  0.00     0.188 C 
ATOM     12  H3  UNL     1     -31.008 -26.739 -13.223  1.00  0.00     0.171 HD
HETATM   13  N1  UNL     1     -30.095 -29.188 -13.112  1.00  0.00    -0.373 N 
HETATM   14  N2  UNL     1     -28.507 -28.534 -14.647  1.00  0.00    -0.064 NA
ATOM     15  H12 UNL     1     -29.679 -30.119 -13.127  1.00  0.00     0.158 HD
ATOM     16  H11 UNL     1     -30.901 -28.960 -12.531  1.00  0.00     0.158 HD
HETATM   17  O1  UNL     1     -28.650 -26.199 -15.356  1.00  0.00    -0.270 OA
ENDBRANCH   8   9
BRANCH   8  18
HETATM   18  O2  UNL     1     -29.890 -23.953 -15.837  1.00  0.00    -0.383 OA
ATOM     19  H2  UNL     1     -30.560 -23.305 -16.023  1.00  0.00     0.210 HD
ENDBRANCH   8  18
ENDBRANCH   7   8
BRANCH   7  20
HETATM   20  O3  UNL     1     -29.338 -24.360 -12.414  1.00  0.00    -0.388 OA
ATOM     21  H3  UNL     1     -29.111 -23.781 -11.696  1.00  0.00     0.210 HD
ENDBRANCH   7  20
ENDBRANCH   1   7
BRANCH   5  22
HETATM   22  N6  UNL     1     -25.913 -22.034 -16.054  1.00  0.00    -0.238 N 
HETATM   23  C7  UNL     1     -24.791 -22.405 -15.435  1.00  0.00     0.109 A 
HETATM   24  C8  UNL     1     -23.536 -22.339 -16.000  1.00  0.00     0.068 A 
HETATM   25  C9  UNL     1     -23.480 -21.849 -17.303  1.00  0.00     0.124 A 
HETATM   26  N9  UNL     1     -24.608 -21.475 -17.928  1.00  0.00    -0.293 N 
HETATM   27  C10 UNL     1     -25.817 -21.567 -17.308  1.00  0.00     0.335 A 
ATOM     28  H9  UNL     1     -24.559 -21.117 -18.882  1.00  0.00     0.172 HD
HETATM   29  O4  UNL     1     -26.827 -21.198 -17.961  1.00  0.00    -0.246 OA
BRANCH  25  30
HETATM   30  N7  UNL     1     -22.315 -21.783 -17.839  1.00  0.00    -0.292 N 
ATOM     31  H7  UNL     1     -22.247 -21.643 -18.848  1.00  0.00     0.188 HD
BRANCH  30  32
HETATM   32  N8  UNL     1     -21.133 -21.896 -17.095  1.00  0.00    -0.344 N 
ATOM     33  H82 UNL     1     -21.109 -22.591 -16.349  1.00  0.00     0.176 HD
ATOM     34  H81 UNL     1     -20.314 -21.316 -17.273  1.00  0.00     0.176 HD
ENDBRANCH  30  32
ENDBRANCH  25  30
ENDBRANCH   5  22
TORSDOF 8
ENDMDL
MODEL 2
REMARK VINA RESULT: -8.491485482      1.940      7.744
REMARK  8 active torsions:
REMARK  status: ('A' for Active; 'I' for Inactive)
REMARK       I    between atoms: C1_4  and  N3_6 
REMARK       I    between atoms: N3_6  and  C2_8 
REMARK    1  A    between atoms: C2_8  and  C3_10 
REMARK    2  A    between atoms: C3_10  and  O2_11 
REMARK    3  A    between atoms: C3_10  and  C4_13 
REMARK    4  A    between atoms: C4_13  and  O3_14 
REMARK    5  A    between atoms: C4_13  and  C5_16 
REMARK    6  A    between atoms: C6_20  and  N6_21 
REMARK    7  A    between atoms: C9_24  and  N7_25 
REMARK    8  A    between atoms: N7_25  and  N8_27 
ROOT
HETATM    1  C5  UNL     1     -27.262 -21.832 -16.391  1.00  0.00     0.276 C 
HETATM    2  N4  UNL     1     -27.881 -20.862 -15.548  1.00  0.00    -0.102 NA
HETATM    3  N5  UNL     1     -28.781 -21.598 -14.756  1.00  0.00    -0.266 N 
ATOM      4  H5  UNL     1     -29.551 -21.187 -14.229  1.00  0.00     0.186 HD
HETATM    5  C6  UNL     1     -28.510 -22.858 -14.778  1.00  0.00     0.247 C 
HETATM    6  O5  UNL     1     -27.405 -23.008 -15.597  1.00  0.00    -0.294 OA
ENDROOT
BRANCH   1   7
HETATM    7  C4  UNL     1     -25.850 -21.579 -16.780  1.00  0.00     0.203 C 
BRANCH   7   8
HETATM    8  C3  UNL     1     -24.848 -22.582 -16.291  1.00  0.00     0.242 C 
BRANCH   8   9
HETATM    9  C2  UNL     1     -23.476 -22.109 -16.141  1.00  0.00     0.255 C 
HETATM   10  N3  UNL     1     -22.983 -21.066 -16.955  1.00  0.00    -0.299 N 
HETATM   11  C1  UNL     1     -21.651 -20.620 -16.800  1.00  0.00     0.188 C 
ATOM     12  H3  UNL     1     -23.587 -20.635 -17.655  1.00  0.00     0.171 HD
HETATM   13  N1  UNL     1     -21.163 -19.662 -17.532  1.00  0.00    -0.373 N 
HETATM   14  N2  UNL     1     -20.772 -21.181 -15.845  1.00  0.00    -0.064 NA
ATOM     15  H12 UNL     1     -20.202 -19.340 -17.419  1.00  0.00     0.158 HD
ATOM     16  H11 UNL     1     -21.797 -19.257 -18.219  1.00  0.00     0.158 HD
HETATM   17  O1  UNL     1     -22.672 -22.610 -15.275  1.00  0.00    -0.270 OA
ENDBRANCH   8   9
BRANCH   8  18
HETATM   18  O2  UNL     1     -24.817 -23.632 -17.240  1.00  0.00    -0.383 OA
ATOM     19  H2  UNL     1     -23.901 -23.808 -17.423  1.00  0.00     0.210 HD
ENDBRANCH   8  18
ENDBRANCH   7   8
BRANCH   7  20
HETATM   20  O3  UNL     1     -25.703 -21.338 -18.138  1.00  0.00    -0.388 OA
ATOM     21  H3  UNL     1     -26.300 -21.870 -18.650  1.00  0.00     0.210 HD
ENDBRANCH   7  20
ENDBRANCH   1   7
BRANCH   5  22
HETATM   22  N6  UNL     1     -29.229 -23.893 -14.080  1.00  0.00    -0.238 N 
HETATM   23  C7  UNL     1     -28.961 -24.265 -12.827  1.00  0.00     0.109 A 
HETATM   24  C8  UNL     1     -29.641 -25.253 -12.150  1.00  0.00     0.068 A 
HETATM   25  C9  UNL     1     -30.668 -25.878 -12.855  1.00  0.00     0.124 A 
HETATM   26  N9  UNL     1     -30.940 -25.504 -14.115  1.00  0.00    -0.293 N 
HETATM   27  C10 UNL     1     -30.225 -24.518 -14.725  1.00  0.00     0.335 A 
ATOM     28  H9  UNL     1     -31.693 -25.966 -14.625  1.00  0.00     0.172 HD
HETATM   29  O4  UNL     1     -30.541 -24.226 -15.906  1.00  0.00    -0.246 OA
BRANCH  25  30
HETATM   30  N7  UNL     1     -31.310 -26.800 -12.233  1.00  0.00    -0.292 N 
ATOM     31  H7  UNL     1     -31.551 -27.654 -12.737  1.00  0.00     0.188 HD
BRANCH  30  32
HETATM   32  N8  UNL     1     -31.692 -26.681 -10.890  1.00  0.00    -0.344 N 
ATOM     33  H82 UNL     1     -32.676 -26.818 -10.664  1.00  0.00     0.176 HD
ATOM     34  H81 UNL     1     -31.028 -26.466 -10.147  1.00  0.00     0.176 HD
ENDBRANCH  30  32
ENDBRANCH  25  30
ENDBRANCH   5  22
TORSDOF 8
ENDMDL
MODEL 3
REMARK VINA RESULT: -8.394909957      1.794      2.668
REMARK  8 active torsions:
REMARK  status: ('A' for Active; 'I' for Inactive)
REMARK       I    between atoms: C1_4  and  N3_6 
REMARK       I    between atoms: N3_6  and  C2_8 
REMARK    1  A    between atoms: C2_8  and  C3_10 
REMARK    2  A    between atoms: C3_10  and  O2_11 
REMARK    3  A    between atoms: C3_10  and  C4_13 
REMARK    4  A    between atoms: C4_13  and  O3_14 
REMARK    5  A    between atoms: C4_13  and  C5_16 
REMARK    6  A    between atoms: C6_20  and  N6_21 
REMARK    7  A    between atoms: C9_24  and  N7_25 
REMARK    8  A    between atoms: N7_25  and  N8_27 
ROOT
HETATM    1  C5  UNL     1     -27.497 -22.303 -15.998  1.00  0.00     0.276 C 
HETATM    2  N4  UNL     1     -27.167 -23.463 -16.760  1.00  0.00    -0.102 NA
HETATM    3  N5  UNL     1     -25.843 -23.248 -17.183  1.00  0.00    -0.266 N 
ATOM      4  H5  UNL     1     -25.393 -23.760 -17.942  1.00  0.00     0.186 HD
HETATM    5  C6  UNL     1     -25.268 -22.325 -16.492  1.00  0.00     0.247 C 
HETATM    6  O5  UNL     1     -26.203 -21.885 -15.571  1.00  0.00    -0.294 OA
ENDROOT
BRANCH   1   7
HETATM    7  C4  UNL     1     -28.436 -22.492 -14.862  1.00  0.00     0.203 C 
BRANCH   7   8
HETATM    8  C3  UNL     1     -29.725 -23.185 -15.189  1.00  0.00     0.242 C 
BRANCH   8   9
HETATM    9  C2  UNL     1     -29.870 -24.552 -14.698  1.00  0.00     0.255 C 
HETATM   10  N3  UNL     1     -30.666 -24.826 -13.564  1.00  0.00    -0.299 N 
HETATM   11  C1  UNL     1     -30.795 -26.154 -13.099  1.00  0.00     0.188 C 
ATOM     12  H3  UNL     1     -31.147 -24.067 -13.081  1.00  0.00     0.171 HD
HETATM   13  N1  UNL     1     -31.519 -26.445 -12.058  1.00  0.00    -0.373 N 
HETATM   14  N2  UNL     1     -30.151 -27.243 -13.730  1.00  0.00    -0.064 NA
ATOM     15  H12 UNL     1     -31.612 -27.403 -11.722  1.00  0.00     0.158 HD
ATOM     16  H11 UNL     1     -31.984 -25.659 -11.603  1.00  0.00     0.158 HD
HETATM   17  O1  UNL     1     -29.293 -25.547 -15.267  1.00  0.00    -0.270 OA
ENDBRANCH   8   9
BRANCH   8  18
HETATM   18  O2  UNL     1     -29.815 -23.246 -16.600  1.00  0.00    -0.383 OA
ATOM     19  H2  UNL     1     -30.075 -22.382 -16.895  1.00  0.00     0.210 HD
ENDBRANCH   8  18
ENDBRANCH   7   8
BRANCH   7  20
HETATM   20  O3  UNL     1     -27.827 -23.055 -13.750  1.00  0.00    -0.388 OA
ATOM     21  H3  UNL     1     -27.276 -22.425 -13.301  1.00  0.00     0.210 HD
ENDBRANCH   7  20
ENDBRANCH   1   7
BRANCH   5  22
HETATM   22  N6  UNL     1     -23.917 -21.855 -16.660  1.00  0.00    -0.238 N 
HETATM   23  C7  UNL     1     -23.585 -20.814 -17.426  1.00  0.00     0.109 A 
HETATM   24  C8  UNL     1     -22.296 -20.358 -17.594  1.00  0.00     0.068 A 
HETATM   25  C9  UNL     1     -21.307 -21.054 -16.902  1.00  0.00     0.124 A 
HETATM   26  N9  UNL     1     -21.640 -22.101 -16.131  1.00  0.00    -0.293 N 
HETATM   27  C10 UNL     1     -22.937 -22.500 -16.010  1.00  0.00     0.335 A 
ATOM     28  H9  UNL     1     -20.910 -22.606 -15.628  1.00  0.00     0.172 HD
HETATM   29  O4  UNL     1     -23.167 -23.489 -15.269  1.00  0.00    -0.246 OA
BRANCH  25  30
HETATM   30  N7  UNL     1     -20.102 -20.636 -17.052  1.00  0.00    -0.292 N 
ATOM     31  H7  UNL     1     -19.869 -20.103 -17.890  1.00  0.00     0.188 HD
BRANCH  30  32
HETATM   32  N8  UNL     1     -19.094 -20.884 -16.111  1.00  0.00    -0.344 N 
ATOM     33  H82 UNL     1     -19.349 -21.402 -15.270  1.00  0.00     0.176 HD
ATOM     34  H81 UNL     1     -18.133 -20.568 -16.238  1.00  0.00     0.176 HD
ENDBRANCH  30  32
ENDBRANCH  25  30
ENDBRANCH   5  22
TORSDOF 8
ENDMDL
MODEL 4
REMARK VINA RESULT: -8.376935472      2.185      3.440
REMARK  8 active torsions:
REMARK  status: ('A' for Active; 'I' for Inactive)
REMARK       I    between atoms: C1_4  and  N3_6 
REMARK       I    between atoms: N3_6  and  C2_8 
REMARK    1  A    between atoms: C2_8  and  C3_10 
REMARK    2  A    between atoms: C3_10  and  O2_11 
REMARK    3  A    between atoms: C3_10  and  C4_13 
REMARK    4  A    between atoms: C4_13  and  O3_14 
REMARK    5  A    between atoms: C4_13  and  C5_16 
REMARK    6  A    between atoms: C6_20  and  N6_21 
REMARK    7  A    between atoms: C9_24  and  N7_25 
REMARK    8  A    between atoms: N7_25  and  N8_27 
ROOT
HETATM    1  C5  UNL     1     -26.971 -21.790 -16.335  1.00  0.00     0.276 C 
HETATM    2  N4  UNL     1     -26.807 -21.440 -17.708  1.00  0.00    -0.102 NA
HETATM    3  N5  UNL     1     -25.439 -21.141 -17.840  1.00  0.00    -0.266 N 
ATOM      4  H5  UNL     1     -25.037 -20.623 -18.622  1.00  0.00     0.186 HD
HETATM    5  C6  UNL     1     -24.755 -21.603 -16.850  1.00  0.00     0.247 C 
HETATM    6  O5  UNL     1     -25.656 -22.235 -16.012  1.00  0.00    -0.294 OA
ENDROOT
BRANCH   1   7
HETATM    7  C4  UNL     1     -28.008 -22.807 -16.021  1.00  0.00     0.203 C 
BRANCH   7   8
HETATM    8  C3  UNL     1     -28.714 -22.637 -14.709  1.00  0.00     0.242 C 
BRANCH   8   9
HETATM    9  C2  UNL     1     -29.475 -23.785 -14.227  1.00  0.00     0.255 C 
HETATM   10  N3  UNL     1     -30.243 -23.691 -13.046  1.00  0.00    -0.299 N 
HETATM   11  C1  UNL     1     -30.973 -24.813 -12.590  1.00  0.00     0.188 C 
ATOM     12  H3  UNL     1     -30.273 -22.816 -12.523  1.00  0.00     0.171 HD
HETATM   13  N1  UNL     1     -31.692 -24.764 -11.508  1.00  0.00    -0.373 N 
HETATM   14  N2  UNL     1     -30.968 -26.049 -13.276  1.00  0.00    -0.064 NA
ATOM     15  H12 UNL     1     -32.218 -25.573 -11.178  1.00  0.00     0.158 HD
ATOM     16  H11 UNL     1     -31.695 -23.872 -11.013  1.00  0.00     0.158 HD
HETATM   17  O1  UNL     1     -29.479 -24.909 -14.845  1.00  0.00    -0.270 OA
ENDBRANCH   8   9
BRANCH   8  18
HETATM   18  O2  UNL     1     -29.636 -21.575 -14.870  1.00  0.00    -0.383 OA
ATOM     19  H2  UNL     1     -29.158 -20.855 -15.266  1.00  0.00     0.210 HD
ENDBRANCH   8  18
ENDBRANCH   7   8
BRANCH   7  20
HETATM   20  O3  UNL     1     -28.908 -22.993 -17.060  1.00  0.00    -0.388 OA
ATOM     21  H3  UNL     1     -29.274 -23.869 -17.048  1.00  0.00     0.210 HD
ENDBRANCH   7  20
ENDBRANCH   1   7
BRANCH   5  22
HETATM   22  N6  UNL     1     -23.332 -21.475 -16.669  1.00  0.00    -0.238 N 
HETATM   23  C7  UNL     1     -22.616 -20.447 -17.128  1.00  0.00     0.109 A 
HETATM   24  C8  UNL     1     -21.255 -20.315 -16.961  1.00  0.00     0.068 A 
HETATM   25  C9  UNL     1     -20.624 -21.342 -16.262  1.00  0.00     0.124 A 
HETATM   26  N9  UNL     1     -21.343 -22.377 -15.798  1.00  0.00    -0.293 N 
HETATM   27  C10 UNL     1     -22.688 -22.444 -16.000  1.00  0.00     0.335 A 
ATOM     28  H9  UNL     1     -20.874 -23.125 -15.287  1.00  0.00     0.172 HD
HETATM   29  O4  UNL     1     -23.290 -23.445 -15.535  1.00  0.00    -0.246 OA
BRANCH  25  30
HETATM   30  N7  UNL     1     -19.355 -21.229 -16.100  1.00  0.00    -0.292 N 
ATOM     31  H7  UNL     1     -18.763 -21.132 -16.925  1.00  0.00     0.188 HD
BRANCH  30  32
HETATM   32  N8  UNL     1     -18.752 -21.234 -14.836  1.00  0.00    -0.344 N 
ATOM     33  H82 UNL     1     -19.362 -21.203 -14.020  1.00  0.00     0.176 HD
ATOM     34  H81 UNL     1     -17.740 -21.266 -14.710  1.00  0.00     0.176 HD
ENDBRANCH  30  32
ENDBRANCH  25  30
ENDBRANCH   5  22
TORSDOF 8
ENDMDL
MODEL 5
REMARK VINA RESULT: -8.360617884      1.610      2.289
REMARK  8 active torsions:
REMARK  status: ('A' for Active; 'I' for Inactive)
REMARK       I    between atoms: C1_4  and  N3_6 
REMARK       I    between atoms: N3_6  and  C2_8 
REMARK    1  A    between atoms: C2_8  and  C3_10 
REMARK    2  A    between atoms: C3_10  and  O2_11 
REMARK    3  A    between atoms: C3_10  and  C4_13 
REMARK    4  A    between atoms: C4_13  and  O3_14 
REMARK    5  A    between atoms: C4_13  and  C5_16 
REMARK    6  A    between atoms: C6_20  and  N6_21 
REMARK    7  A    between atoms: C9_24  and  N7_25 
REMARK    8  A    between atoms: N7_25  and  N8_27 
ROOT
HETATM    1  C5  UNL     1     -27.736 -21.490 -15.772  1.00  0.00     0.276 C 
HETATM    2  N4  UNL     1     -27.598 -21.525 -17.192  1.00  0.00    -0.102 NA
HETATM    3  N5  UNL     1     -26.209 -21.560 -17.415  1.00  0.00    -0.266 N 
ATOM      4  H5  UNL     1     -25.766 -21.342 -18.307  1.00  0.00     0.186 HD
HETATM    5  C6  UNL     1     -25.567 -21.901 -16.351  1.00  0.00     0.247 C 
HETATM    6  O5  UNL     1     -26.518 -22.109 -15.368  1.00  0.00    -0.294 OA
ENDROOT
BRANCH   1   7
HETATM    7  C4  UNL     1     -28.932 -22.161 -15.199  1.00  0.00     0.203 C 
BRANCH   7   8
HETATM    8  C3  UNL     1     -28.659 -23.191 -14.144  1.00  0.00     0.242 C 
BRANCH   8   9
HETATM    9  C2  UNL     1     -28.822 -24.586 -14.541  1.00  0.00     0.255 C 
HETATM   10  N3  UNL     1     -29.544 -25.484 -13.726  1.00  0.00    -0.299 N 
HETATM   11  C1  UNL     1     -29.692 -26.833 -14.123  1.00  0.00     0.188 C 
ATOM     12  H3  UNL     1     -29.960 -25.161 -12.852  1.00  0.00     0.171 HD
HETATM   13  N1  UNL     1     -30.350 -27.689 -13.398  1.00  0.00    -0.373 N 
HETATM   14  N2  UNL     1     -29.138 -27.333 -15.324  1.00  0.00    -0.064 NA
ATOM     15  H12 UNL     1     -30.457 -28.662 -13.684  1.00  0.00     0.158 HD
ATOM     16  H11 UNL     1     -30.750 -27.328 -12.532  1.00  0.00     0.158 HD
HETATM   17  O1  UNL     1     -28.326 -25.048 -15.631  1.00  0.00    -0.270 OA
ENDBRANCH   8   9
BRANCH   8  18
HETATM   18  O2  UNL     1     -29.574 -22.957 -13.090  1.00  0.00    -0.383 OA
ATOM     19  H2  UNL     1     -30.309 -23.543 -13.230  1.00  0.00     0.210 HD
ENDBRANCH   8  18
ENDBRANCH   7   8
BRANCH   7  20
HETATM   20  O3  UNL     1     -29.906 -21.263 -14.788  1.00  0.00    -0.388 OA
ATOM     21  H3  UNL     1     -29.539 -20.400 -14.637  1.00  0.00     0.210 HD
ENDBRANCH   7  20
ENDBRANCH   1   7
BRANCH   5  22
HETATM   22  N6  UNL     1     -24.138 -22.035 -16.229  1.00  0.00    -0.238 N 
HETATM   23  C7  UNL     1     -23.538 -22.681 -15.227  1.00  0.00     0.109 A 
HETATM   24  C8  UNL     1     -22.172 -22.814 -15.100  1.00  0.00     0.068 A 
HETATM   25  C9  UNL     1     -21.406 -22.224 -16.104  1.00  0.00     0.124 A 
HETATM   26  N9  UNL     1     -22.009 -21.574 -17.112  1.00  0.00    -0.293 N 
HETATM   27  C10 UNL     1     -23.366 -21.480 -17.175  1.00  0.00     0.335 A 
ATOM     28  H9  UNL     1     -21.442 -21.144 -17.843  1.00  0.00     0.172 HD
HETATM   29  O4  UNL     1     -23.854 -20.856 -18.151  1.00  0.00    -0.246 OA
BRANCH  25  30
HETATM   30  N7  UNL     1     -20.132 -22.342 -15.995  1.00  0.00    -0.292 N 
ATOM     31  H7  UNL     1     -19.716 -23.268 -16.097  1.00  0.00     0.188 HD
BRANCH  30  32
HETATM   32  N8  UNL     1     -19.291 -21.251 -15.742  1.00  0.00    -0.344 N 
ATOM     33  H82 UNL     1     -19.166 -20.965 -14.771  1.00  0.00     0.176 HD
ATOM     34  H81 UNL     1     -18.810 -20.743 -16.484  1.00  0.00     0.176 HD
ENDBRANCH  30  32
ENDBRANCH  25  30
ENDBRANCH   5  22
TORSDOF 8
ENDMDL
