MODEL 1
REMARK VINA RESULT: -7.314541619      0.000      0.000
REMARK  16 active torsions:
REMARK  status: ('A' for Active; 'I' for Inactive)
REMARK    1  A    between atoms: C2_2  and  C3_3 
REMARK    2  A    between atoms: C3_3  and  C4_4 
REMARK    3  A    between atoms: C4_4  and  O2_6 
REMARK    4  A    between atoms: O2_6  and  C5_7 
REMARK    5  A    between atoms: C6_8  and  O3_9 
REMARK    6  A    between atoms: O3_9  and  C7_10 
REMARK    7  A    between atoms: C8_11  and  O4_12 
REMARK    8  A    between atoms: O4_12  and  C9_13 
REMARK    9  A    between atoms: C12_17  and  O6_18 
REMARK   10  A    between atoms: O6_18  and  C13_19 
REMARK   11  A    between atoms: C15_22  and  S1_23 
REMARK   12  A    between atoms: S1_23  and  C16_24 
REMARK   13  A    between atoms: C16_24  and  C17_25 
REMARK   14  A    between atoms: C19_28  and  C20_29 
REMARK   15  A    between atoms: C20_29  and  O9_30 
REMARK   16  A    between atoms: C21_32  and  O10_33 
ROOT
HETATM    1  C7  UNL     1      -2.848   4.402  14.094  1.00  0.00     0.170 C 
HETATM    2  C8  UNL     1      -3.693   5.439  13.482  1.00  0.00     0.164 C 
HETATM    3  C11 UNL     1      -2.725   6.315  12.679  1.00  0.00     0.069 C 
HETATM    4  C12 UNL     1      -1.342   5.724  13.006  1.00  0.00     0.150 C 
HETATM    5  C15 UNL     1      -1.730   4.255  13.034  1.00  0.00     0.108 C 
ENDROOT
BRANCH   1   6
HETATM    6  O3  UNL     1      -3.384   3.207  14.425  1.00  0.00    -0.349 OA
BRANCH   6   7
HETATM    7  C6  UNL     1      -4.597   2.827  13.972  1.00  0.00     0.293 C 
HETATM    8  C5  UNL     1      -4.601   1.360  13.647  1.00  0.00     0.218 C 
HETATM    9  C21 UNL     1      -4.215   0.785  14.994  1.00  0.00     0.183 C 
HETATM   10  C19 UNL     1      -4.900   1.788  15.917  1.00  0.00     0.179 C 
HETATM   11  O8  UNL     1      -5.508   2.744  15.103  1.00  0.00    -0.348 OA
BRANCH   8  12
HETATM   12  O2  UNL     1      -3.742   1.091  12.596  1.00  0.00    -0.308 OA
BRANCH  12  13
HETATM   13  C4  UNL     1      -4.184   0.497  11.407  1.00  0.00     0.262 C 
HETATM   14  O1  UNL     1      -5.240   1.000  10.935  1.00  0.00    -0.265 OA
BRANCH  13  15
HETATM   15  C3  UNL     1      -3.519  -0.618  10.720  1.00  0.00     0.137 C 
BRANCH  15  16
HETATM   16  C2  UNL     1      -3.604  -1.831  11.557  1.00  0.00    -0.027 C 
HETATM   17  C1  UNL     1      -2.991  -2.952  11.204  1.00  0.00     0.007 C 
ENDBRANCH  15  16
ENDBRANCH  13  15
ENDBRANCH  12  13
ENDBRANCH   8  12
BRANCH   9  18
HETATM   18  O10 UNL     1      -4.793  -0.450  15.243  1.00  0.00    -0.390 OA
ATOM     19  H10 UNL     1      -4.327  -0.953  15.900  1.00  0.00     0.210 HD
ENDBRANCH   9  18
BRANCH  10  20
HETATM   20  C20 UNL     1      -6.008   1.134  16.721  1.00  0.00     0.198 C 
BRANCH  20  21
HETATM   21  O9  UNL     1      -5.399   0.399  17.736  1.00  0.00    -0.398 OA
ATOM     22  H9  UNL     1      -5.690   0.769  18.561  1.00  0.00     0.209 HD
ENDBRANCH  20  21
ENDBRANCH  10  20
ENDBRANCH   6   7
ENDBRANCH   1   6
BRANCH   2  23
HETATM   23  O4  UNL     1      -4.313   6.227  14.488  1.00  0.00    -0.314 OA
BRANCH  23  24
HETATM   24  C9  UNL     1      -5.717   6.298  14.574  1.00  0.00     0.255 C 
HETATM   25  C10 UNL     1      -6.609   6.234  13.405  1.00  0.00     0.126 C 
HETATM   26  O5  UNL     1      -6.171   6.422  15.759  1.00  0.00    -0.266 OA
ENDBRANCH  23  24
ENDBRANCH   2  23
BRANCH   5  27
HETATM   27  S1  UNL     1      -2.420   3.881  11.422  1.00  0.00    -0.159 SA
BRANCH  27  28
HETATM   28  C16 UNL     1      -1.357   2.734  10.524  1.00  0.00     0.074 C 
BRANCH  28  29
HETATM   29  C17 UNL     1      -0.790   3.345   9.248  1.00  0.00     0.006 C 
HETATM   30  C18 UNL     1       0.666   3.688   9.595  1.00  0.00     0.006 C 
ENDBRANCH  28  29
ENDBRANCH  27  28
ENDBRANCH   5  27
BRANCH   4  31
HETATM   31  O6  UNL     1      -0.402   5.947  12.015  1.00  0.00    -0.315 OA
BRANCH  31  32
HETATM   32  C13 UNL     1       0.641   6.867  12.148  1.00  0.00     0.255 C 
HETATM   33  C14 UNL     1       2.016   6.486  11.731  1.00  0.00     0.126 C 
HETATM   34  O7  UNL     1       0.375   8.008  12.626  1.00  0.00    -0.266 OA
ENDBRANCH  31  32
ENDBRANCH   4  31
TORSDOF 16
ENDMDL
MODEL 2
REMARK VINA RESULT: -6.774177936      2.642      4.694
REMARK  16 active torsions:
REMARK  status: ('A' for Active; 'I' for Inactive)
REMARK    1  A    between atoms: C2_2  and  C3_3 
REMARK    2  A    between atoms: C3_3  and  C4_4 
REMARK    3  A    between atoms: C4_4  and  O2_6 
REMARK    4  A    between atoms: O2_6  and  C5_7 
REMARK    5  A    between atoms: C6_8  and  O3_9 
REMARK    6  A    between atoms: O3_9  and  C7_10 
REMARK    7  A    between atoms: C8_11  and  O4_12 
REMARK    8  A    between atoms: O4_12  and  C9_13 
REMARK    9  A    between atoms: C12_17  and  O6_18 
REMARK   10  A    between atoms: O6_18  and  C13_19 
REMARK   11  A    between atoms: C15_22  and  S1_23 
REMARK   12  A    between atoms: S1_23  and  C16_24 
REMARK   13  A    between atoms: C16_24  and  C17_25 
REMARK   14  A    between atoms: C19_28  and  C20_29 
REMARK   15  A    between atoms: C20_29  and  O9_30 
REMARK   16  A    between atoms: C21_32  and  O10_33 
ROOT
HETATM    1  C7  UNL     1      -4.078   5.320  11.534  1.00  0.00     0.170 C 
HETATM    2  C8  UNL     1      -4.348   6.180  10.371  1.00  0.00     0.164 C 
HETATM    3  C11 UNL     1      -4.050   7.604  10.855  1.00  0.00     0.069 C 
HETATM    4  C12 UNL     1      -3.719   7.420  12.346  1.00  0.00     0.150 C 
HETATM    5  C15 UNL     1      -2.954   6.112  12.244  1.00  0.00     0.108 C 
ENDROOT
BRANCH   1   6
HETATM    6  O3  UNL     1      -3.740   4.026  11.349  1.00  0.00    -0.349 OA
BRANCH   6   7
HETATM    7  C6  UNL     1      -3.378   3.236  12.382  1.00  0.00     0.293 C 
HETATM    8  C5  UNL     1      -4.478   2.268  12.714  1.00  0.00     0.218 C 
HETATM    9  C21 UNL     1      -4.618   1.555  11.385  1.00  0.00     0.183 C 
HETATM   10  C19 UNL     1      -3.165   1.570  10.920  1.00  0.00     0.179 C 
HETATM   11  O8  UNL     1      -2.430   2.244  11.898  1.00  0.00    -0.348 OA
BRANCH   8  12
HETATM   12  O2  UNL     1      -5.598   2.940  13.170  1.00  0.00    -0.308 OA
BRANCH  12  13
HETATM   13  C4  UNL     1      -5.781   3.247  14.525  1.00  0.00     0.262 C 
HETATM   14  O1  UNL     1      -6.152   4.432  14.744  1.00  0.00    -0.265 OA
BRANCH  13  15
HETATM   15  C3  UNL     1      -5.573   2.313  15.640  1.00  0.00     0.137 C 
BRANCH  15  16
HETATM   16  C2  UNL     1      -6.774   2.299  16.497  1.00  0.00    -0.027 C 
HETATM   17  C1  UNL     1      -7.184   1.183  17.086  1.00  0.00     0.007 C 
ENDBRANCH  15  16
ENDBRANCH  13  15
ENDBRANCH  12  13
ENDBRANCH   8  12
BRANCH   9  18
HETATM   18  O10 UNL     1      -4.981   0.224  11.519  1.00  0.00    -0.390 OA
ATOM     19  H10 UNL     1      -4.235  -0.364  11.555  1.00  0.00     0.210 HD
ENDBRANCH   9  18
BRANCH  10  20
HETATM   20  C20 UNL     1      -2.593   0.168  10.838  1.00  0.00     0.198 C 
BRANCH  20  21
HETATM   21  O9  UNL     1      -3.074  -0.400   9.660  1.00  0.00    -0.398 OA
ATOM     22  H9  UNL     1      -3.960  -0.694   9.833  1.00  0.00     0.209 HD
ENDBRANCH  20  21
ENDBRANCH  10  20
ENDBRANCH   6   7
ENDBRANCH   1   6
BRANCH   2  23
HETATM   23  O4  UNL     1      -5.715   6.090   9.996  1.00  0.00    -0.314 OA
BRANCH  23  24
HETATM   24  C9  UNL     1      -6.107   6.331   8.665  1.00  0.00     0.255 C 
HETATM   25  C10 UNL     1      -7.478   6.697   8.273  1.00  0.00     0.126 C 
HETATM   26  O5  UNL     1      -5.173   6.209   7.807  1.00  0.00    -0.266 OA
ENDBRANCH  23  24
ENDBRANCH   2  23
BRANCH   5  27
HETATM   27  S1  UNL     1      -1.581   6.411  11.131  1.00  0.00    -0.159 SA
BRANCH  27  28
HETATM   28  C16 UNL     1      -0.127   5.475  11.646  1.00  0.00     0.074 C 
BRANCH  28  29
HETATM   29  C17 UNL     1       0.199   4.335  10.688  1.00  0.00     0.006 C 
HETATM   30  C18 UNL     1      -0.800   4.497   9.535  1.00  0.00     0.006 C 
ENDBRANCH  28  29
ENDBRANCH  27  28
ENDBRANCH   5  27
BRANCH   4  31
HETATM   31  O6  UNL     1      -2.896   8.411  12.851  1.00  0.00    -0.315 OA
BRANCH  31  32
HETATM   32  C13 UNL     1      -2.402   8.398  14.158  1.00  0.00     0.255 C 
HETATM   33  C14 UNL     1      -0.964   8.681  14.404  1.00  0.00     0.126 C 
HETATM   34  O7  UNL     1      -3.208   8.143  15.100  1.00  0.00    -0.266 OA
ENDBRANCH  31  32
ENDBRANCH   4  31
TORSDOF 16
ENDMDL
MODEL 3
REMARK VINA RESULT: -6.703313390      2.650      7.657
REMARK  16 active torsions:
REMARK  status: ('A' for Active; 'I' for Inactive)
REMARK    1  A    between atoms: C2_2  and  C3_3 
REMARK    2  A    between atoms: C3_3  and  C4_4 
REMARK    3  A    between atoms: C4_4  and  O2_6 
REMARK    4  A    between atoms: O2_6  and  C5_7 
REMARK    5  A    between atoms: C6_8  and  O3_9 
REMARK    6  A    between atoms: O3_9  and  C7_10 
REMARK    7  A    between atoms: C8_11  and  O4_12 
REMARK    8  A    between atoms: O4_12  and  C9_13 
REMARK    9  A    between atoms: C12_17  and  O6_18 
REMARK   10  A    between atoms: O6_18  and  C13_19 
REMARK   11  A    between atoms: C15_22  and  S1_23 
REMARK   12  A    between atoms: S1_23  and  C16_24 
REMARK   13  A    between atoms: C16_24  and  C17_25 
REMARK   14  A    between atoms: C19_28  and  C20_29 
REMARK   15  A    between atoms: C20_29  and  O9_30 
REMARK   16  A    between atoms: C21_32  and  O10_33 
ROOT
HETATM    1  C7  UNL     1      -3.531   2.999  12.989  1.00  0.00     0.170 C 
HETATM    2  C8  UNL     1      -4.374   1.847  12.637  1.00  0.00     0.164 C 
HETATM    3  C11 UNL     1      -4.792   1.237  13.980  1.00  0.00     0.069 C 
HETATM    4  C12 UNL     1      -4.029   2.081  15.016  1.00  0.00     0.150 C 
HETATM    5  C15 UNL     1      -4.156   3.434  14.337  1.00  0.00     0.108 C 
ENDROOT
BRANCH   1   6
HETATM    6  O3  UNL     1      -3.417   4.037  12.132  1.00  0.00    -0.349 OA
BRANCH   6   7
HETATM    7  C6  UNL     1      -3.903   3.970  10.875  1.00  0.00     0.293 C 
HETATM    8  C5  UNL     1      -4.152   5.350  10.334  1.00  0.00     0.218 C 
HETATM    9  C21 UNL     1      -2.761   5.938  10.449  1.00  0.00     0.183 C 
HETATM   10  C19 UNL     1      -1.922   4.696  10.164  1.00  0.00     0.179 C 
HETATM   11  O8  UNL     1      -2.812   3.638   9.972  1.00  0.00    -0.348 OA
BRANCH   8  12
HETATM   12  O2  UNL     1      -5.148   5.984  11.056  1.00  0.00    -0.308 OA
BRANCH  12  13
HETATM   13  C4  UNL     1      -6.114   6.790  10.440  1.00  0.00     0.262 C 
HETATM   14  O1  UNL     1      -6.557   6.333   9.352  1.00  0.00    -0.265 OA
BRANCH  13  15
HETATM   15  C3  UNL     1      -6.610   8.069  10.967  1.00  0.00     0.137 C 
BRANCH  15  16
HETATM   16  C2  UNL     1      -5.600   9.120  10.734  1.00  0.00    -0.027 C 
HETATM   17  C1  UNL     1      -5.954  10.335  10.338  1.00  0.00     0.007 C 
ENDBRANCH  15  16
ENDBRANCH  13  15
ENDBRANCH  12  13
ENDBRANCH   8  12
BRANCH   9  18
HETATM   18  O10 UNL     1      -2.475   6.854   9.448  1.00  0.00    -0.390 OA
ATOM     19  H10 UNL     1      -1.661   7.322   9.594  1.00  0.00     0.210 HD
ENDBRANCH   9  18
BRANCH  10  20
HETATM   20  C20 UNL     1      -1.137   4.841   8.875  1.00  0.00     0.198 C 
BRANCH  20  21
HETATM   21  O9  UNL     1      -1.876   4.215   7.873  1.00  0.00    -0.398 OA
ATOM     22  H9  UNL     1      -1.258   3.918   7.215  1.00  0.00     0.209 HD
ENDBRANCH  20  21
ENDBRANCH  10  20
ENDBRANCH   6   7
ENDBRANCH   1   6
BRANCH   2  23
HETATM   23  O4  UNL     1      -3.623   0.891  11.902  1.00  0.00    -0.314 OA
BRANCH  23  24
HETATM   24  C9  UNL     1      -4.276  -0.076  11.113  1.00  0.00     0.255 C 
HETATM   25  C10 UNL     1      -4.172  -1.525  11.348  1.00  0.00     0.126 C 
HETATM   26  O5  UNL     1      -4.980   0.402  10.164  1.00  0.00    -0.266 OA
ENDBRANCH  23  24
ENDBRANCH   2  23
BRANCH   5  27
HETATM   27  S1  UNL     1      -5.911   3.750  14.156  1.00  0.00    -0.159 SA
BRANCH  27  28
HETATM   28  C16 UNL     1      -6.237   5.523  14.100  1.00  0.00     0.074 C 
BRANCH  28  29
HETATM   29  C17 UNL     1      -5.331   6.311  15.039  1.00  0.00     0.006 C 
HETATM   30  C18 UNL     1      -4.199   6.830  14.142  1.00  0.00     0.006 C 
ENDBRANCH  28  29
ENDBRANCH  27  28
ENDBRANCH   5  27
BRANCH   4  31
HETATM   31  O6  UNL     1      -4.643   2.115  16.256  1.00  0.00    -0.315 OA
BRANCH  31  32
HETATM   32  C13 UNL     1      -5.506   1.112  16.706  1.00  0.00     0.255 C 
HETATM   33  C14 UNL     1      -6.923   1.442  17.009  1.00  0.00     0.126 C 
HETATM   34  O7  UNL     1      -5.045  -0.058  16.841  1.00  0.00    -0.266 OA
ENDBRANCH  31  32
ENDBRANCH   4  31
TORSDOF 16
ENDMDL
MODEL 4
REMARK VINA RESULT: -6.642060053      1.741      4.000
REMARK  16 active torsions:
REMARK  status: ('A' for Active; 'I' for Inactive)
REMARK    1  A    between atoms: C2_2  and  C3_3 
REMARK    2  A    between atoms: C3_3  and  C4_4 
REMARK    3  A    between atoms: C4_4  and  O2_6 
REMARK    4  A    between atoms: O2_6  and  C5_7 
REMARK    5  A    between atoms: C6_8  and  O3_9 
REMARK    6  A    between atoms: O3_9  and  C7_10 
REMARK    7  A    between atoms: C8_11  and  O4_12 
REMARK    8  A    between atoms: O4_12  and  C9_13 
REMARK    9  A    between atoms: C12_17  and  O6_18 
REMARK   10  A    between atoms: O6_18  and  C13_19 
REMARK   11  A    between atoms: C15_22  and  S1_23 
REMARK   12  A    between atoms: S1_23  and  C16_24 
REMARK   13  A    between atoms: C16_24  and  C17_25 
REMARK   14  A    between atoms: C19_28  and  C20_29 
REMARK   15  A    between atoms: C20_29  and  O9_30 
REMARK   16  A    between atoms: C21_32  and  O10_33 
ROOT
HETATM    1  C7  UNL     1      -3.788   4.732  12.799  1.00  0.00     0.170 C 
HETATM    2  C8  UNL     1      -4.572   5.731  12.056  1.00  0.00     0.164 C 
HETATM    3  C11 UNL     1      -3.855   7.063  12.308  1.00  0.00     0.069 C 
HETATM    4  C12 UNL     1      -2.737   6.693  13.297  1.00  0.00     0.150 C 
HETATM    5  C15 UNL     1      -2.366   5.339  12.718  1.00  0.00     0.108 C 
ENDROOT
BRANCH   1   6
HETATM    6  O3  UNL     1      -3.804   3.439  12.409  1.00  0.00    -0.349 OA
BRANCH   6   7
HETATM    7  C6  UNL     1      -2.960   2.531  12.941  1.00  0.00     0.293 C 
HETATM    8  C5  UNL     1      -3.719   1.325  13.419  1.00  0.00     0.218 C 
HETATM    9  C21 UNL     1      -4.384   0.897  12.128  1.00  0.00     0.183 C 
HETATM   10  C19 UNL     1      -3.299   1.284  11.128  1.00  0.00     0.179 C 
HETATM   11  O8  UNL     1      -2.258   1.860  11.858  1.00  0.00    -0.348 OA
BRANCH   8  12
HETATM   12  O2  UNL     1      -4.564   1.663  14.462  1.00  0.00    -0.308 OA
BRANCH  12  13
HETATM   13  C4  UNL     1      -4.789   0.804  15.545  1.00  0.00     0.262 C 
HETATM   14  O1  UNL     1      -4.767  -0.422  15.250  1.00  0.00    -0.265 OA
BRANCH  13  15
HETATM   15  C3  UNL     1      -5.037   1.232  16.928  1.00  0.00     0.137 C 
BRANCH  15  16
HETATM   16  C2  UNL     1      -6.433   0.926  17.294  1.00  0.00    -0.027 C 
HETATM   17  C1  UNL     1      -7.446   1.589  16.752  1.00  0.00     0.007 C 
ENDBRANCH  15  16
ENDBRANCH  13  15
ENDBRANCH  12  13
ENDBRANCH   8  12
BRANCH   9  18
HETATM   18  O10 UNL     1      -4.548  -0.476  12.031  1.00  0.00    -0.390 OA
ATOM     19  H10 UNL     1      -5.437  -0.758  12.212  1.00  0.00     0.210 HD
ENDBRANCH   9  18
BRANCH  10  20
HETATM   20  C20 UNL     1      -2.721   0.064  10.437  1.00  0.00     0.198 C 
BRANCH  20  21
HETATM   21  O9  UNL     1      -3.636  -0.325   9.461  1.00  0.00    -0.398 OA
ATOM     22  H9  UNL     1      -3.262  -0.095   8.620  1.00  0.00     0.209 HD
ENDBRANCH  20  21
ENDBRANCH  10  20
ENDBRANCH   6   7
ENDBRANCH   1   6
BRANCH   2  23
HETATM   23  O4  UNL     1      -5.893   5.806  12.572  1.00  0.00    -0.314 OA
BRANCH  23  24
HETATM   24  C9  UNL     1      -6.165   5.405  13.895  1.00  0.00     0.255 C 
HETATM   25  C10 UNL     1      -5.923   6.256  15.071  1.00  0.00     0.126 C 
HETATM   26  O5  UNL     1      -6.649   4.231  14.005  1.00  0.00    -0.266 OA
ENDBRANCH  23  24
ENDBRANCH   2  23
BRANCH   5  27
HETATM   27  S1  UNL     1      -1.890   5.628  11.014  1.00  0.00    -0.159 SA
BRANCH  27  28
HETATM   28  C16 UNL     1      -0.133   5.293  10.778  1.00  0.00     0.074 C 
BRANCH  28  29
HETATM   29  C17 UNL     1       0.145   3.820  10.502  1.00  0.00     0.006 C 
HETATM   30  C18 UNL     1      -0.595   3.522   9.191  1.00  0.00     0.006 C 
ENDBRANCH  28  29
ENDBRANCH  27  28
ENDBRANCH   5  27
BRANCH   4  31
HETATM   31  O6  UNL     1      -1.649   7.547  13.240  1.00  0.00    -0.315 OA
BRANCH  31  32
HETATM   32  C13 UNL     1      -1.468   8.612  14.126  1.00  0.00     0.255 C 
HETATM   33  C14 UNL     1      -2.422   8.805  15.249  1.00  0.00     0.126 C 
HETATM   34  O7  UNL     1      -0.484   9.385  13.939  1.00  0.00    -0.266 OA
ENDBRANCH  31  32
ENDBRANCH   4  31
TORSDOF 16
ENDMDL
MODEL 5
REMARK VINA RESULT: -6.619187099      1.901      2.214
REMARK  16 active torsions:
REMARK  status: ('A' for Active; 'I' for Inactive)
REMARK    1  A    between atoms: C2_2  and  C3_3 
REMARK    2  A    between atoms: C3_3  and  C4_4 
REMARK    3  A    between atoms: C4_4  and  O2_6 
REMARK    4  A    between atoms: O2_6  and  C5_7 
REMARK    5  A    between atoms: C6_8  and  O3_9 
REMARK    6  A    between atoms: O3_9  and  C7_10 
REMARK    7  A    between atoms: C8_11  and  O4_12 
REMARK    8  A    between atoms: O4_12  and  C9_13 
REMARK    9  A    between atoms: C12_17  and  O6_18 
REMARK   10  A    between atoms: O6_18  and  C13_19 
REMARK   11  A    between atoms: C15_22  and  S1_23 
REMARK   12  A    between atoms: S1_23  and  C16_24 
REMARK   13  A    between atoms: C16_24  and  C17_25 
REMARK   14  A    between atoms: C19_28  and  C20_29 
REMARK   15  A    between atoms: C20_29  and  O9_30 
REMARK   16  A    between atoms: C21_32  and  O10_33 
ROOT
HETATM    1  C7  UNL     1      -3.660   5.454  13.590  1.00  0.00     0.170 C 
HETATM    2  C8  UNL     1      -4.065   6.285  12.446  1.00  0.00     0.164 C 
HETATM    3  C11 UNL     1      -3.183   7.536  12.535  1.00  0.00     0.069 C 
HETATM    4  C12 UNL     1      -2.393   7.333  13.839  1.00  0.00     0.150 C 
HETATM    5  C15 UNL     1      -2.167   5.835  13.731  1.00  0.00     0.108 C 
ENDROOT
BRANCH   1   6
HETATM    6  O3  UNL     1      -3.834   4.115  13.544  1.00  0.00    -0.349 OA
BRANCH   6   7
HETATM    7  C6  UNL     1      -5.034   3.569  13.256  1.00  0.00     0.293 C 
HETATM    8  C5  UNL     1      -4.872   2.131  12.849  1.00  0.00     0.218 C 
HETATM    9  C21 UNL     1      -4.199   1.576  14.087  1.00  0.00     0.183 C 
HETATM   10  C19 UNL     1      -4.872   2.426  15.160  1.00  0.00     0.179 C 
HETATM   11  O8  UNL     1      -5.735   3.305  14.503  1.00  0.00    -0.348 OA
BRANCH   8  12
HETATM   12  O2  UNL     1      -4.158   2.036  11.668  1.00  0.00    -0.308 OA
BRANCH  12  13
HETATM   13  C4  UNL     1      -4.121   0.855  10.914  1.00  0.00     0.262 C 
HETATM   14  O1  UNL     1      -5.112   0.693  10.152  1.00  0.00    -0.265 OA
BRANCH  13  15
HETATM   15  C3  UNL     1      -3.048  -0.147  10.964  1.00  0.00     0.137 C 
BRANCH  15  16
HETATM   16  C2  UNL     1      -3.605  -1.441  11.403  1.00  0.00    -0.027 C 
HETATM   17  C1  UNL     1      -2.941  -2.574  11.215  1.00  0.00     0.007 C 
ENDBRANCH  15  16
ENDBRANCH  13  15
ENDBRANCH  12  13
ENDBRANCH   8  12
BRANCH   9  18
HETATM   18  O10 UNL     1      -4.543   0.258  14.347  1.00  0.00    -0.390 OA
ATOM     19  H10 UNL     1      -3.802  -0.274  14.613  1.00  0.00     0.210 HD
ENDBRANCH   9  18
BRANCH  10  20
HETATM   20  C20 UNL     1      -5.732   1.581  16.080  1.00  0.00     0.198 C 
BRANCH  20  21
HETATM   21  O9  UNL     1      -4.891   1.060  17.061  1.00  0.00    -0.398 OA
ATOM     22  H9  UNL     1      -4.769   0.139  16.864  1.00  0.00     0.209 HD
ENDBRANCH  20  21
ENDBRANCH  10  20
ENDBRANCH   6   7
ENDBRANCH   1   6
BRANCH   2  23
HETATM   23  O4  UNL     1      -5.428   6.664  12.568  1.00  0.00    -0.314 OA
BRANCH  23  24
HETATM   24  C9  UNL     1      -6.170   7.036  11.429  1.00  0.00     0.255 C 
HETATM   25  C10 UNL     1      -7.072   8.198  11.388  1.00  0.00     0.126 C 
HETATM   26  O5  UNL     1      -6.000   6.282  10.416  1.00  0.00    -0.266 OA
ENDBRANCH  23  24
ENDBRANCH   2  23
BRANCH   5  27
HETATM   27  S1  UNL     1      -1.289   5.563  12.192  1.00  0.00    -0.159 SA
BRANCH  27  28
HETATM   28  C16 UNL     1      -1.016   3.801  11.916  1.00  0.00     0.074 C 
BRANCH  28  29
HETATM   29  C17 UNL     1      -1.141   3.417  10.447  1.00  0.00     0.006 C 
HETATM   30  C18 UNL     1      -2.186   4.386   9.878  1.00  0.00     0.006 C 
ENDBRANCH  28  29
ENDBRANCH  27  28
ENDBRANCH   5  27
BRANCH   4  31
HETATM   31  O6  UNL     1      -1.178   7.995  13.854  1.00  0.00    -0.315 OA
BRANCH  31  32
HETATM   32  C13 UNL     1      -0.982   9.212  14.512  1.00  0.00     0.255 C 
HETATM   33  C14 UNL     1       0.323   9.912  14.390  1.00  0.00     0.126 C 
HETATM   34  O7  UNL     1      -1.936   9.682  15.198  1.00  0.00    -0.266 OA
ENDBRANCH  31  32
ENDBRANCH   4  31
TORSDOF 16
ENDMDL
