MODEL 1
REMARK VINA RESULT: -7.494202264      0.000      0.000
REMARK  6 active torsions:
REMARK  status: ('A' for Active; 'I' for Inactive)
REMARK    1  A    between atoms: O1_2  and  C2_3 
REMARK    2  A    between atoms: C2_3  and  C3_5 
REMARK    3  A    between atoms: C4_7  and  C5_8 
REMARK    4  A    between atoms: C6_12  and  N2_13 
REMARK    5  A    between atoms: C7_19  and  O5_20 
REMARK    6  A    between atoms: C8_22  and  O6_23 
ROOT
HETATM    1  C3  UNL     1      27.709  24.885 103.992  1.00  0.00     0.187 C 
HETATM    2 CL1  UNL     1      28.595  26.364 103.663  1.00  0.00    -0.102 Cl
HETATM    3  C4  UNL     1      27.627  23.937 102.856  1.00  0.00     0.230 C 
HETATM    4  O4  UNL     1      26.677  24.447 102.013  1.00  0.00    -0.343 OA
HETATM    5  C7  UNL     1      25.760  25.164 102.728  1.00  0.00     0.289 C 
HETATM    6  C8  UNL     1      26.229  25.270 104.149  1.00  0.00     0.209 C 
ENDROOT
BRANCH   3   7
HETATM    7  C5  UNL     1      28.875  23.739 102.114  1.00  0.00     0.137 A 
HETATM    8  N1  UNL     1      29.791  22.799 102.493  1.00  0.00    -0.242 N 
HETATM    9  O3  UNL     1      30.777  22.839 101.681  1.00  0.00    -0.200 OA
ATOM     10  H1  UNL     1      29.703  22.170 103.291  1.00  0.00     0.196 HD
HETATM   11  C6  UNL     1      30.566  23.762 100.774  1.00  0.00     0.242 A 
HETATM   12  N3  UNL     1      29.382  24.328 101.039  1.00  0.00    -0.307 N 
ATOM     13  H3  UNL     1      28.945  25.079 100.505  1.00  0.00     0.171 HD
BRANCH  11  14
HETATM   14  N2  UNL     1      31.344  24.085  99.795  1.00  0.00    -0.364 N 
ATOM     15  H22 UNL     1      32.348  24.248  99.870  1.00  0.00     0.159 HD
ATOM     16  H21 UNL     1      31.080  24.222  98.820  1.00  0.00     0.159 HD
ENDBRANCH  11  14
ENDBRANCH   3   7
BRANCH   1  17
HETATM   17  C2  UNL     1      28.097  24.247 105.274  1.00  0.00     0.288 C 
HETATM   18  O2  UNL     1      28.439  23.048 105.284  1.00  0.00    -0.263 OA
BRANCH  17  19
HETATM   19  O1  UNL     1      28.096  24.928 106.482  1.00  0.00    -0.325 OA
HETATM   20  C1  UNL     1      27.795  24.304 107.717  1.00  0.00     0.213 C 
ENDBRANCH  17  19
ENDBRANCH   1  17
BRANCH   6  21
HETATM   21  O6  UNL     1      25.604  24.346 104.988  1.00  0.00    -0.388 OA
ATOM     22  H6  UNL     1      24.705  24.228 104.706  1.00  0.00     0.210 HD
ENDBRANCH   6  21
BRANCH   5  23
HETATM   23  O5  UNL     1      24.492  24.598 102.655  1.00  0.00    -0.369 OA
ATOM     24  H5  UNL     1      23.816  25.258 102.552  1.00  0.00     0.212 HD
ENDBRANCH   5  23
TORSDOF 6
ENDMDL
MODEL 2
REMARK VINA RESULT: -7.449753328      3.946      6.449
REMARK  6 active torsions:
REMARK  status: ('A' for Active; 'I' for Inactive)
REMARK    1  A    between atoms: O1_2  and  C2_3 
REMARK    2  A    between atoms: C2_3  and  C3_5 
REMARK    3  A    between atoms: C4_7  and  C5_8 
REMARK    4  A    between atoms: C6_12  and  N2_13 
REMARK    5  A    between atoms: C7_19  and  O5_20 
REMARK    6  A    between atoms: C8_22  and  O6_23 
ROOT
HETATM    1  C3  UNL     1      27.169  24.857 105.672  1.00  0.00     0.187 C 
HETATM    2 CL1  UNL     1      27.012  26.575 105.993  1.00  0.00    -0.102 Cl
HETATM    3  C4  UNL     1      26.591  23.970 106.709  1.00  0.00     0.230 C 
HETATM    4  O4  UNL     1      27.490  23.969 107.741  1.00  0.00    -0.343 OA
HETATM    5  C7  UNL     1      28.751  24.181 107.258  1.00  0.00     0.289 C 
HETATM    6  C8  UNL     1      28.660  24.507 105.797  1.00  0.00     0.209 C 
ENDROOT
BRANCH   3   7
HETATM    7  C5  UNL     1      25.276  24.371 107.214  1.00  0.00     0.137 A 
HETATM    8  N1  UNL     1      24.237  24.641 106.369  1.00  0.00    -0.242 N 
HETATM    9  O3  UNL     1      23.217  24.965 107.068  1.00  0.00    -0.200 OA
ATOM     10  H1  UNL     1      24.270  24.593 105.351  1.00  0.00     0.196 HD
HETATM   11  C6  UNL     1      23.522  24.924 108.342  1.00  0.00     0.242 A 
HETATM   12  N3  UNL     1      24.804  24.554 108.441  1.00  0.00    -0.307 N 
ATOM     13  H3  UNL     1      25.328  24.434 109.308  1.00  0.00     0.171 HD
BRANCH  11  14
HETATM   14  N2  UNL     1      22.743  25.188 109.338  1.00  0.00    -0.364 N 
ATOM     15  H22 UNL     1      21.933  25.807 109.304  1.00  0.00     0.159 HD
ATOM     16  H21 UNL     1      22.817  24.826 110.289  1.00  0.00     0.159 HD
ENDBRANCH  11  14
ENDBRANCH   3   7
BRANCH   1  17
HETATM   17  C2  UNL     1      26.783  24.486 104.288  1.00  0.00     0.288 C 
HETATM   18  O2  UNL     1      26.070  23.481 104.098  1.00  0.00    -0.263 OA
BRANCH  17  19
HETATM   19  O1  UNL     1      27.183  25.213 103.177  1.00  0.00    -0.325 OA
HETATM   20  C1  UNL     1      27.558  24.604 101.954  1.00  0.00     0.213 C 
ENDBRANCH  17  19
ENDBRANCH   1  17
BRANCH   6  21
HETATM   21  O6  UNL     1      28.940  23.406 104.985  1.00  0.00    -0.388 OA
ATOM     22  H6  UNL     1      28.719  22.611 105.454  1.00  0.00     0.210 HD
ENDBRANCH   6  21
BRANCH   5  23
HETATM   23  O5  UNL     1      29.579  23.087 107.482  1.00  0.00    -0.369 OA
ATOM     24  H5  UNL     1      29.875  22.696 106.668  1.00  0.00     0.212 HD
ENDBRANCH   5  23
TORSDOF 6
ENDMDL
MODEL 3
REMARK VINA RESULT: -7.347485708      1.282      1.457
REMARK  6 active torsions:
REMARK  status: ('A' for Active; 'I' for Inactive)
REMARK    1  A    between atoms: O1_2  and  C2_3 
REMARK    2  A    between atoms: C2_3  and  C3_5 
REMARK    3  A    between atoms: C4_7  and  C5_8 
REMARK    4  A    between atoms: C6_12  and  N2_13 
REMARK    5  A    between atoms: C7_19  and  O5_20 
REMARK    6  A    between atoms: C8_22  and  O6_23 
ROOT
HETATM    1  C3  UNL     1      27.921  25.154 103.900  1.00  0.00     0.187 C 
HETATM    2 CL1  UNL     1      28.468  26.821 103.957  1.00  0.00    -0.102 Cl
HETATM    3  C4  UNL     1      27.773  24.588 102.539  1.00  0.00     0.230 C 
HETATM    4  O4  UNL     1      26.603  25.102 102.047  1.00  0.00    -0.343 OA
HETATM    5  C7  UNL     1      25.741  25.358 103.076  1.00  0.00     0.289 C 
HETATM    6  C8  UNL     1      26.459  25.142 104.375  1.00  0.00     0.209 C 
ENDROOT
BRANCH   3   7
HETATM    7  C5  UNL     1      28.863  24.896 101.610  1.00  0.00     0.137 A 
HETATM    8  N1  UNL     1      28.618  25.337 100.341  1.00  0.00    -0.242 N 
HETATM    9  O3  UNL     1      29.737  25.526  99.751  1.00  0.00    -0.200 OA
ATOM     10  H1  UNL     1      27.697  25.491  99.931  1.00  0.00     0.196 HD
HETATM   11  C6  UNL     1      30.721  25.232 100.566  1.00  0.00     0.242 A 
HETATM   12  N3  UNL     1      30.183  24.839 101.727  1.00  0.00    -0.307 N 
ATOM     13  H3  UNL     1      30.699  24.546 102.556  1.00  0.00     0.171 HD
BRANCH  11  14
HETATM   14  N2  UNL     1      31.986  25.303 100.316  1.00  0.00    -0.364 N 
ATOM     15  H22 UNL     1      32.397  25.666  99.455  1.00  0.00     0.159 HD
ATOM     16  H21 UNL     1      32.750  25.013 100.926  1.00  0.00     0.159 HD
ENDBRANCH  11  14
ENDBRANCH   3   7
BRANCH   1  17
HETATM   17  C2  UNL     1      28.656  24.268 104.837  1.00  0.00     0.288 C 
HETATM   18  O2  UNL     1      29.002  23.131 104.461  1.00  0.00    -0.263 OA
BRANCH  17  19
HETATM   19  O1  UNL     1      28.981  24.648 106.130  1.00  0.00    -0.325 OA
HETATM   20  C1  UNL     1      28.818  23.792 107.247  1.00  0.00     0.213 C 
ENDBRANCH  17  19
ENDBRANCH   1  17
BRANCH   6  21
HETATM   21  O6  UNL     1      26.175  23.898 104.942  1.00  0.00    -0.388 OA
ATOM     22  H6  UNL     1      25.356  23.955 105.420  1.00  0.00     0.210 HD
ENDBRANCH   6  21
BRANCH   5  23
HETATM   23  O5  UNL     1      24.595  24.575 102.995  1.00  0.00    -0.369 OA
ATOM     24  H5  UNL     1      23.957  24.814 103.657  1.00  0.00     0.212 HD
ENDBRANCH   5  23
TORSDOF 6
ENDMDL
MODEL 4
REMARK VINA RESULT: -7.309663026      3.300      5.204
REMARK  6 active torsions:
REMARK  status: ('A' for Active; 'I' for Inactive)
REMARK    1  A    between atoms: O1_2  and  C2_3 
REMARK    2  A    between atoms: C2_3  and  C3_5 
REMARK    3  A    between atoms: C4_7  and  C5_8 
REMARK    4  A    between atoms: C6_12  and  N2_13 
REMARK    5  A    between atoms: C7_19  and  O5_20 
REMARK    6  A    between atoms: C8_22  and  O6_23 
ROOT
HETATM    1  C3  UNL     1      26.877  25.282 104.369  1.00  0.00     0.187 C 
HETATM    2 CL1  UNL     1      25.787  26.270 105.328  1.00  0.00    -0.102 Cl
HETATM    3  C4  UNL     1      28.112  24.853 105.066  1.00  0.00     0.230 C 
HETATM    4  O4  UNL     1      28.935  25.947 105.073  1.00  0.00    -0.343 OA
HETATM    5  C7  UNL     1      28.675  26.729 103.983  1.00  0.00     0.289 C 
HETATM    6  C8  UNL     1      27.467  26.190 103.277  1.00  0.00     0.209 C 
ENDROOT
BRANCH   3   7
HETATM    7  C5  UNL     1      27.924  24.382 106.441  1.00  0.00     0.137 A 
HETATM    8  N1  UNL     1      27.373  23.161 106.709  1.00  0.00    -0.242 N 
HETATM    9  O3  UNL     1      27.325  23.005 107.976  1.00  0.00    -0.200 OA
ATOM     10  H1  UNL     1      27.053  22.487 106.014  1.00  0.00     0.196 HD
HETATM   11  C6  UNL     1      27.819  24.064 108.571  1.00  0.00     0.242 A 
HETATM   12  N3  UNL     1      28.194  24.926 107.620  1.00  0.00    -0.307 N 
ATOM     13  H3  UNL     1      28.615  25.842 107.774  1.00  0.00     0.171 HD
BRANCH  11  14
HETATM   14  N2  UNL     1      27.932  24.260 109.843  1.00  0.00    -0.364 N 
ATOM     15  H22 UNL     1      28.079  23.531 110.541  1.00  0.00     0.159 HD
ATOM     16  H21 UNL     1      27.894  25.154 110.333  1.00  0.00     0.159 HD
ENDBRANCH  11  14
ENDBRANCH   3   7
BRANCH   1  17
HETATM   17  C2  UNL     1      26.186  24.183 103.649  1.00  0.00     0.288 C 
HETATM   18  O2  UNL     1      25.142  24.428 103.014  1.00  0.00    -0.263 OA
BRANCH  17  19
HETATM   19  O1  UNL     1      26.651  22.877 103.651  1.00  0.00    -0.325 OA
HETATM   20  C1  UNL     1      27.365  22.314 102.564  1.00  0.00     0.213 C 
ENDBRANCH  17  19
ENDBRANCH   1  17
BRANCH   6  21
HETATM   21  O6  UNL     1      27.801  25.410 102.168  1.00  0.00    -0.388 OA
ATOM     22  H6  UNL     1      28.191  25.965 101.504  1.00  0.00     0.210 HD
ENDBRANCH   6  21
BRANCH   5  23
HETATM   23  O5  UNL     1      29.769  26.805 103.129  1.00  0.00    -0.369 OA
ATOM     24  H5  UNL     1      29.953  27.701 102.870  1.00  0.00     0.212 HD
ENDBRANCH   5  23
TORSDOF 6
ENDMDL
MODEL 5
REMARK VINA RESULT: -7.068902649      4.553      7.000
REMARK  6 active torsions:
REMARK  status: ('A' for Active; 'I' for Inactive)
REMARK    1  A    between atoms: O1_2  and  C2_3 
REMARK    2  A    between atoms: C2_3  and  C3_5 
REMARK    3  A    between atoms: C4_7  and  C5_8 
REMARK    4  A    between atoms: C6_12  and  N2_13 
REMARK    5  A    between atoms: C7_19  and  O5_20 
REMARK    6  A    between atoms: C8_22  and  O6_23 
ROOT
HETATM    1  C3  UNL     1      26.942  24.895 106.470  1.00  0.00     0.187 C 
HETATM    2 CL1  UNL     1      27.052  26.647 106.476  1.00  0.00    -0.102 Cl
HETATM    3  C4  UNL     1      26.805  24.270 107.806  1.00  0.00     0.230 C 
HETATM    4  O4  UNL     1      28.057  24.297 108.359  1.00  0.00    -0.343 OA
HETATM    5  C7  UNL     1      29.001  24.248 107.371  1.00  0.00     0.289 C 
HETATM    6  C8  UNL     1      28.316  24.357 106.041  1.00  0.00     0.209 C 
ENDROOT
BRANCH   3   7
HETATM    7  C5  UNL     1      25.863  24.930 108.713  1.00  0.00     0.137 A 
HETATM    8  N1  UNL     1      24.542  25.070 108.393  1.00  0.00    -0.242 N 
HETATM    9  O3  UNL     1      23.953  25.677 109.352  1.00  0.00    -0.200 OA
ATOM     10  H1  UNL     1      24.100  24.746 107.534  1.00  0.00     0.196 HD
HETATM   11  C6  UNL     1      24.816  25.950 110.299  1.00  0.00     0.242 A 
HETATM   12  N3  UNL     1      26.009  25.487 109.908  1.00  0.00    -0.307 N 
ATOM     13  H3  UNL     1      26.879  25.551 110.436  1.00  0.00     0.171 HD
BRANCH  11  14
HETATM   14  N2  UNL     1      24.581  26.555 111.416  1.00  0.00    -0.364 N 
ATOM     15  H22 UNL     1      23.770  26.394 112.014  1.00  0.00     0.159 HD
ATOM     16  H21 UNL     1      25.157  27.269 111.862  1.00  0.00     0.159 HD
ENDBRANCH  11  14
ENDBRANCH   3   7
BRANCH   1  17
HETATM   17  C2  UNL     1      25.977  24.377 105.468  1.00  0.00     0.288 C 
HETATM   18  O2  UNL     1      24.911  23.859 105.854  1.00  0.00    -0.263 OA
BRANCH  17  19
HETATM   19  O1  UNL     1      26.207  24.440 104.102  1.00  0.00    -0.325 OA
HETATM   20  C1  UNL     1      25.792  25.533 103.302  1.00  0.00     0.213 C 
ENDBRANCH  17  19
ENDBRANCH   1  17
BRANCH   6  21
HETATM   21  O6  UNL     1      28.148  23.116 105.424  1.00  0.00    -0.388 OA
ATOM     22  H6  UNL     1      28.468  22.435 106.004  1.00  0.00     0.210 HD
ENDBRANCH   6  21
BRANCH   5  23
HETATM   23  O5  UNL     1      29.771  23.093 107.451  1.00  0.00    -0.369 OA
ATOM     24  H5  UNL     1      29.239  22.309 107.384  1.00  0.00     0.212 HD
ENDBRANCH   5  23
TORSDOF 6
ENDMDL
