MODEL 1
REMARK VINA RESULT: -6.616946286      0.000      0.000
REMARK  7 active torsions:
REMARK  status: ('A' for Active; 'I' for Inactive)
REMARK    1  A    between atoms: C2_2  and  C3_3 
REMARK    2  A    between atoms: C3_3  and  N1_4 
REMARK    3  A    between atoms: N1_4  and  C4_7 
REMARK    4  A    between atoms: C4_7  and  C5_8 
REMARK    5  A    between atoms: C5_8  and  C6_9 
REMARK    6  A    between atoms: C6_9  and  C7_10 
REMARK    7  A    between atoms: C7_10  and  C8_11 
ROOT
HETATM    1  C5  UNL     1      11.894  -3.716   1.289  1.00  0.00     0.027 C 
ENDROOT
BRANCH   1   2
HETATM    2  C4  UNL     1      10.485  -4.024   0.877  1.00  0.00     0.232 C 
BRANCH   2   3
HETATM    3  N1  UNL     1      10.044  -3.205  -0.231  1.00  0.00    -0.072 N 
ATOM      4  H12 UNL     1       9.680  -3.782  -0.989  1.00  0.00     0.277 HD
ATOM      5  H11 UNL     1      10.839  -2.782  -0.712  1.00  0.00     0.277 HD
BRANCH   3   6
HETATM    6  C3  UNL     1       9.090  -2.208   0.162  1.00  0.00     0.259 C 
BRANCH   6   7
HETATM    7  C2  UNL     1       8.293  -2.602   1.344  1.00  0.00    -0.010 C 
HETATM    8  C1  UNL     1       6.978  -2.590   1.270  1.00  0.00     0.008 C 
ENDBRANCH   6   7
ENDBRANCH   3   6
ENDBRANCH   2   3
ENDBRANCH   1   2
BRANCH   1   9
HETATM    9  C6  UNL     1      12.849  -3.623   0.121  1.00  0.00     0.002 C 
BRANCH   9  10
HETATM   10  C7  UNL     1      13.548  -4.937  -0.121  1.00  0.00     0.005 C 
BRANCH  10  11
HETATM   11  C8  UNL     1      15.025  -4.772  -0.337  1.00  0.00    -0.014 C 
HETATM   12  C9  UNL     1      15.803  -6.036  -0.124  1.00  0.00     0.004 C 
HETATM   13  C10 UNL     1      17.164  -5.655  -0.669  1.00  0.00     0.000 C 
HETATM   14  C11 UNL     1      16.937  -4.527  -1.654  1.00  0.00     0.000 C 
HETATM   15  C12 UNL     1      15.409  -4.380  -1.725  1.00  0.00     0.004 C 
ENDBRANCH  10  11
ENDBRANCH   9  10
ENDBRANCH   1   9
TORSDOF 7
ENDMDL
MODEL 2
REMARK VINA RESULT: -6.568030007      0.860      1.265
REMARK  7 active torsions:
REMARK  status: ('A' for Active; 'I' for Inactive)
REMARK    1  A    between atoms: C2_2  and  C3_3 
REMARK    2  A    between atoms: C3_3  and  N1_4 
REMARK    3  A    between atoms: N1_4  and  C4_7 
REMARK    4  A    between atoms: C4_7  and  C5_8 
REMARK    5  A    between atoms: C5_8  and  C6_9 
REMARK    6  A    between atoms: C6_9  and  C7_10 
REMARK    7  A    between atoms: C7_10  and  C8_11 
ROOT
HETATM    1  C5  UNL     1      10.637  -3.916   0.573  1.00  0.00     0.027 C 
ENDROOT
BRANCH   1   2
HETATM    2  C4  UNL     1      10.405  -2.742  -0.330  1.00  0.00     0.232 C 
BRANCH   2   3
HETATM    3  N1  UNL     1       9.227  -1.989   0.037  1.00  0.00    -0.072 N 
ATOM      4  H12 UNL     1       8.649  -1.791  -0.781  1.00  0.00     0.277 HD
ATOM      5  H11 UNL     1       9.470  -1.035   0.303  1.00  0.00     0.277 HD
BRANCH   3   6
HETATM    6  C3  UNL     1       8.458  -2.630   1.066  1.00  0.00     0.259 C 
BRANCH   6   7
HETATM    7  C2  UNL     1       7.127  -2.018   1.263  1.00  0.00    -0.010 C 
HETATM    8  C1  UNL     1       6.065  -2.793   1.341  1.00  0.00     0.008 C 
ENDBRANCH   6   7
ENDBRANCH   3   6
ENDBRANCH   2   3
ENDBRANCH   1   2
BRANCH   1   9
HETATM    9  C6  UNL     1      12.102  -4.179   0.842  1.00  0.00     0.002 C 
BRANCH   9  10
HETATM   10  C7  UNL     1      12.967  -3.652  -0.276  1.00  0.00     0.005 C 
BRANCH  10  11
HETATM   11  C8  UNL     1      14.359  -4.215  -0.240  1.00  0.00    -0.014 C 
HETATM   12  C9  UNL     1      14.400  -5.679   0.086  1.00  0.00     0.004 C 
HETATM   13  C10 UNL     1      15.843  -6.022  -0.221  1.00  0.00     0.000 C 
HETATM   14  C11 UNL     1      16.333  -4.990  -1.216  1.00  0.00     0.000 C 
HETATM   15  C12 UNL     1      15.089  -4.148  -1.539  1.00  0.00     0.004 C 
ENDBRANCH  10  11
ENDBRANCH   9  10
ENDBRANCH   1   9
TORSDOF 7
ENDMDL
MODEL 3
REMARK VINA RESULT: -6.561261183      0.838      1.474
REMARK  7 active torsions:
REMARK  status: ('A' for Active; 'I' for Inactive)
REMARK    1  A    between atoms: C2_2  and  C3_3 
REMARK    2  A    between atoms: C3_3  and  N1_4 
REMARK    3  A    between atoms: N1_4  and  C4_7 
REMARK    4  A    between atoms: C4_7  and  C5_8 
REMARK    5  A    between atoms: C5_8  and  C6_9 
REMARK    6  A    between atoms: C6_9  and  C7_10 
REMARK    7  A    between atoms: C7_10  and  C8_11 
ROOT
HETATM    1  C5  UNL     1      10.972  -3.882   0.733  1.00  0.00     0.027 C 
ENDROOT
BRANCH   1   2
HETATM    2  C4  UNL     1      10.091  -3.345  -0.355  1.00  0.00     0.232 C 
BRANCH   2   3
HETATM    3  N1  UNL     1       9.229  -2.281   0.109  1.00  0.00    -0.072 N 
ATOM      4  H12 UNL     1       8.653  -1.920  -0.651  1.00  0.00     0.277 HD
ATOM      5  H11 UNL     1       9.767  -1.441   0.322  1.00  0.00     0.277 HD
BRANCH   3   6
HETATM    6  C3  UNL     1       8.419  -2.672   1.227  1.00  0.00     0.259 C 
BRANCH   6   7
HETATM    7  C2  UNL     1       7.091  -2.021   1.238  1.00  0.00    -0.010 C 
HETATM    8  C1  UNL     1       6.008  -2.765   1.322  1.00  0.00     0.008 C 
ENDBRANCH   6   7
ENDBRANCH   3   6
ENDBRANCH   2   3
ENDBRANCH   1   2
BRANCH   1   9
HETATM    9  C6  UNL     1      12.444  -3.816   0.393  1.00  0.00     0.002 C 
BRANCH   9  10
HETATM   10  C7  UNL     1      13.062  -5.192   0.366  1.00  0.00     0.005 C 
BRANCH  10  11
HETATM   11  C8  UNL     1      14.307  -5.246  -0.472  1.00  0.00    -0.014 C 
HETATM   12  C9  UNL     1      14.902  -3.896  -0.743  1.00  0.00     0.004 C 
HETATM   13  C10 UNL     1      16.245  -4.266  -1.337  1.00  0.00     0.000 C 
HETATM   14  C11 UNL     1      16.578  -5.653  -0.830  1.00  0.00     0.000 C 
HETATM   15  C12 UNL     1      15.443  -5.986   0.151  1.00  0.00     0.004 C 
ENDBRANCH  10  11
ENDBRANCH   9  10
ENDBRANCH   1   9
TORSDOF 7
ENDMDL
MODEL 4
REMARK VINA RESULT: -6.315648843      1.294      1.742
REMARK  7 active torsions:
REMARK  status: ('A' for Active; 'I' for Inactive)
REMARK    1  A    between atoms: C2_2  and  C3_3 
REMARK    2  A    between atoms: C3_3  and  N1_4 
REMARK    3  A    between atoms: N1_4  and  C4_7 
REMARK    4  A    between atoms: C4_7  and  C5_8 
REMARK    5  A    between atoms: C5_8  and  C6_9 
REMARK    6  A    between atoms: C6_9  and  C7_10 
REMARK    7  A    between atoms: C7_10  and  C8_11 
ROOT
HETATM    1  C5  UNL     1      10.607  -3.882   0.369  1.00  0.00     0.027 C 
ENDROOT
BRANCH   1   2
HETATM    2  C4  UNL     1       9.974  -2.616   0.866  1.00  0.00     0.232 C 
BRANCH   2   3
HETATM    3  N1  UNL     1       8.587  -2.801   1.232  1.00  0.00    -0.072 N 
ATOM      4  H12 UNL     1       8.496  -3.017   2.225  1.00  0.00     0.277 HD
ATOM      5  H11 UNL     1       8.218  -3.667   0.839  1.00  0.00     0.277 HD
BRANCH   3   6
HETATM    6  C3  UNL     1       7.765  -1.680   0.872  1.00  0.00     0.259 C 
BRANCH   6   7
HETATM    7  C2  UNL     1       8.332  -0.875  -0.230  1.00  0.00    -0.010 C 
HETATM    8  C1  UNL     1       7.533  -0.124  -0.960  1.00  0.00     0.008 C 
ENDBRANCH   6   7
ENDBRANCH   3   6
ENDBRANCH   2   3
ENDBRANCH   1   2
BRANCH   1   9
HETATM    9  C6  UNL     1      12.050  -4.033   0.794  1.00  0.00     0.002 C 
BRANCH   9  10
HETATM   10  C7  UNL     1      12.989  -3.512  -0.265  1.00  0.00     0.005 C 
BRANCH  10  11
HETATM   11  C8  UNL     1      14.336  -4.176  -0.216  1.00  0.00    -0.014 C 
HETATM   12  C9  UNL     1      14.267  -5.636   0.123  1.00  0.00     0.004 C 
HETATM   13  C10 UNL     1      15.683  -6.087  -0.172  1.00  0.00     0.000 C 
HETATM   14  C11 UNL     1      16.253  -5.103  -1.173  1.00  0.00     0.000 C 
HETATM   15  C12 UNL     1      15.077  -4.174  -1.511  1.00  0.00     0.004 C 
ENDBRANCH  10  11
ENDBRANCH   9  10
ENDBRANCH   1   9
TORSDOF 7
ENDMDL
MODEL 5
REMARK VINA RESULT: -6.278478978      1.230      1.827
REMARK  7 active torsions:
REMARK  status: ('A' for Active; 'I' for Inactive)
REMARK    1  A    between atoms: C2_2  and  C3_3 
REMARK    2  A    between atoms: C3_3  and  N1_4 
REMARK    3  A    between atoms: N1_4  and  C4_7 
REMARK    4  A    between atoms: C4_7  and  C5_8 
REMARK    5  A    between atoms: C5_8  and  C6_9 
REMARK    6  A    between atoms: C6_9  and  C7_10 
REMARK    7  A    between atoms: C7_10  and  C8_11 
ROOT
HETATM    1  C5  UNL     1      10.992  -3.976   1.033  1.00  0.00     0.027 C 
ENDROOT
BRANCH   1   2
HETATM    2  C4  UNL     1      10.009  -2.992   0.470  1.00  0.00     0.232 C 
BRANCH   2   3
HETATM    3  N1  UNL     1       8.802  -2.906   1.261  1.00  0.00    -0.072 N 
ATOM      4  H12 UNL     1       9.017  -2.911   2.258  1.00  0.00     0.277 HD
ATOM      5  H11 UNL     1       8.265  -3.772   1.203  1.00  0.00     0.277 HD
BRANCH   3   6
HETATM    6  C3  UNL     1       7.992  -1.773   0.914  1.00  0.00     0.259 C 
BRANCH   6   7
HETATM    7  C2  UNL     1       8.494  -1.040  -0.268  1.00  0.00    -0.010 C 
HETATM    8  C1  UNL     1       7.715  -0.160  -0.861  1.00  0.00     0.008 C 
ENDBRANCH   6   7
ENDBRANCH   3   6
ENDBRANCH   2   3
ENDBRANCH   1   2
BRANCH   1   9
HETATM    9  C6  UNL     1      12.362  -3.877   0.401  1.00  0.00     0.002 C 
BRANCH   9  10
HETATM   10  C7  UNL     1      13.072  -5.207   0.423  1.00  0.00     0.005 C 
BRANCH  10  11
HETATM   11  C8  UNL     1      14.284  -5.227  -0.464  1.00  0.00    -0.014 C 
HETATM   12  C9  UNL     1      14.828  -3.860  -0.758  1.00  0.00     0.004 C 
HETATM   13  C10 UNL     1      16.157  -4.191  -1.405  1.00  0.00     0.000 C 
HETATM   14  C11 UNL     1      16.550  -5.568  -0.912  1.00  0.00     0.000 C 
HETATM   15  C12 UNL     1      15.465  -5.933   0.114  1.00  0.00     0.004 C 
ENDBRANCH  10  11
ENDBRANCH   9  10
ENDBRANCH   1   9
TORSDOF 7
ENDMDL
