MODEL 1
REMARK VINA RESULT: -9.085028747      0.000      0.000
REMARK  12 active torsions:
REMARK  status: ('A' for Active; 'I' for Inactive)
REMARK    1  A    between atoms: O1_2  and  C2_3 
REMARK    2  A    between atoms: C2_3  and  C3_4 
REMARK    3  A    between atoms: C3_4  and  C4_5 
REMARK    4  A    between atoms: C4_5  and  O2_6 
REMARK    5  A    between atoms: O2_6  and  C5_7 
REMARK    6  A    between atoms: C7_9  and  C8_10 
REMARK    7  A    between atoms: C12_20  and  N4_21 
REMARK    8  A    between atoms: N4_21  and  N5_23 
REMARK       I    between atoms: N5_23  and  C13_25 
REMARK    9  A    between atoms: C13_25  and  C14_27 
REMARK   10  A    between atoms: C14_27  and  C15_28 
REMARK   11  A    between atoms: C15_28  and  N6_29 
REMARK   12  A    between atoms: C25_41  and  O4_42 
ROOT
HETATM    1  C8  UNL     1      16.185  22.471  19.313  1.00  0.00     0.118 A 
HETATM    2  N1  UNL     1      17.221  22.411  20.218  1.00  0.00    -0.326 N 
ATOM      3  H1  UNL     1      17.280  21.626  20.866  1.00  0.00     0.169 HD
HETATM    4  C9  UNL     1      18.148  23.370  20.255  1.00  0.00     0.139 A 
HETATM    5  N2  UNL     1      19.253  23.538  21.034  1.00  0.00    -0.337 N 
ATOM      6  H2  UNL     1      19.581  22.918  21.776  1.00  0.00     0.168 HD
HETATM    7  C10 UNL     1      19.821  24.677  20.632  1.00  0.00     0.182 A 
HETATM    8  N3  UNL     1      19.122  25.230  19.637  1.00  0.00    -0.346 N 
ATOM      9  H3  UNL     1      19.343  26.101  19.156  1.00  0.00     0.167 HD
HETATM   10  C11 UNL     1      18.068  24.424  19.387  1.00  0.00     0.123 A 
HETATM   11  C12 UNL     1      17.032  24.480  18.483  1.00  0.00     0.152 A 
HETATM   12  N7  UNL     1      16.114  23.476  18.486  1.00  0.00    -0.325 N 
ATOM     13  H7  UNL     1      15.343  23.510  17.818  1.00  0.00     0.169 HD
ENDROOT
BRANCH  11  14
HETATM   14  N4  UNL     1      16.864  25.422  17.673  1.00  0.00    -0.281 N 
ATOM     15  H4  UNL     1      16.070  26.010  17.924  1.00  0.00     0.188 HD
BRANCH  14  16
HETATM   16  N5  UNL     1      17.470  25.840  16.566  1.00  0.00    -0.268 N 
HETATM   17  C13 UNL     1      17.576  25.052  15.343  1.00  0.00     0.237 C 
HETATM   18  O3  UNL     1      17.087  23.911  15.310  1.00  0.00    -0.272 OA
ATOM     19  H5  UNL     1      17.888  26.770  16.573  1.00  0.00     0.190 HD
BRANCH  17  20
HETATM   20  C14 UNL     1      18.252  25.627  14.179  1.00  0.00     0.124 C 
BRANCH  20  21
HETATM   21  C15 UNL     1      19.695  25.465  14.024  1.00  0.00     0.137 C 
BRANCH  21  22
HETATM   22  N6  UNL     1      20.592  26.219  14.821  1.00  0.00    -0.365 N 
HETATM   23  C16 UNL     1      21.104  27.391  14.321  1.00  0.00     0.097 A 
HETATM   24  C17 UNL     1      22.006  28.141  15.006  1.00  0.00    -0.046 A 
HETATM   25  C18 UNL     1      22.524  29.402  14.415  1.00  0.00     0.049 C 
HETATM   26  C19 UNL     1      22.434  27.732  16.241  1.00  0.00     0.016 A 
HETATM   27  C20 UNL     1      21.935  26.560  16.761  1.00  0.00    -0.046 A 
HETATM   28  C21 UNL     1      22.389  26.114  18.094  1.00  0.00     0.049 C 
HETATM   29  C22 UNL     1      21.008  25.822  16.016  1.00  0.00     0.097 A 
ENDBRANCH  21  22
ENDBRANCH  20  21
ENDBRANCH  17  20
ENDBRANCH  14  16
ENDBRANCH  11  14
BRANCH   1  30
HETATM   30  C7  UNL     1      15.180  21.378  19.340  1.00  0.00     0.011 A 
HETATM   31  C6  UNL     1      14.281  21.252  18.304  1.00  0.00     0.054 A 
HETATM   32  C5  UNL     1      13.310  20.237  18.251  1.00  0.00     0.102 A 
HETATM   33  C25 UNL     1      13.312  19.341  19.341  1.00  0.00     0.101 A 
HETATM   34  C24 UNL     1      14.194  19.442  20.385  1.00  0.00     0.040 A 
HETATM   35  C23 UNL     1      15.130  20.475  20.370  1.00  0.00     0.018 A 
BRANCH  32  36
HETATM   36  O2  UNL     1      12.460  20.081  17.318  1.00  0.00    -0.348 OA
BRANCH  36  37
HETATM   37  C4  UNL     1      11.592  19.921  16.350  1.00  0.00     0.178 C 
BRANCH  37  38
HETATM   38  C3  UNL     1      11.877  20.476  15.004  1.00  0.00     0.053 C 
BRANCH  38  39
HETATM   39  C2  UNL     1      13.254  20.667  14.540  1.00  0.00     0.169 C 
BRANCH  39  40
HETATM   40  O1  UNL     1      13.979  21.762  14.749  1.00  0.00    -0.396 OA
HETATM   41  C1  UNL     1      13.437  22.945  15.069  1.00  0.00     0.201 C 
ENDBRANCH  39  40
ENDBRANCH  38  39
ENDBRANCH  37  38
ENDBRANCH  36  37
ENDBRANCH  32  36
BRANCH  33  42
HETATM   42  O4  UNL     1      12.363  18.335  19.307  1.00  0.00    -0.353 OA
HETATM   43  C26 UNL     1      12.419  17.338  20.310  1.00  0.00     0.210 C 
ENDBRANCH  33  42
ENDBRANCH   1  30
TORSDOF 12
ENDMDL
MODEL 2
REMARK VINA RESULT: -9.077599564      0.046      1.382
REMARK  12 active torsions:
REMARK  status: ('A' for Active; 'I' for Inactive)
REMARK    1  A    between atoms: O1_2  and  C2_3 
REMARK    2  A    between atoms: C2_3  and  C3_4 
REMARK    3  A    between atoms: C3_4  and  C4_5 
REMARK    4  A    between atoms: C4_5  and  O2_6 
REMARK    5  A    between atoms: O2_6  and  C5_7 
REMARK    6  A    between atoms: C7_9  and  C8_10 
REMARK    7  A    between atoms: C12_20  and  N4_21 
REMARK    8  A    between atoms: N4_21  and  N5_23 
REMARK       I    between atoms: N5_23  and  C13_25 
REMARK    9  A    between atoms: C13_25  and  C14_27 
REMARK   10  A    between atoms: C14_27  and  C15_28 
REMARK   11  A    between atoms: C15_28  and  N6_29 
REMARK   12  A    between atoms: C25_41  and  O4_42 
ROOT
HETATM    1  C8  UNL     1      16.192  22.446  19.333  1.00  0.00     0.118 A 
HETATM    2  N1  UNL     1      17.225  22.393  20.242  1.00  0.00    -0.326 N 
ATOM      3  H1  UNL     1      17.286  21.608  20.891  1.00  0.00     0.169 HD
HETATM    4  C9  UNL     1      18.147  23.356  20.281  1.00  0.00     0.139 A 
HETATM    5  N2  UNL     1      19.249  23.530  21.064  1.00  0.00    -0.337 N 
ATOM      6  H2  UNL     1      19.577  22.913  21.807  1.00  0.00     0.168 HD
HETATM    7  C10 UNL     1      19.813  24.671  20.663  1.00  0.00     0.182 A 
HETATM    8  N3  UNL     1      19.114  25.220  19.665  1.00  0.00    -0.346 N 
ATOM      9  H3  UNL     1      19.333  26.092  19.183  1.00  0.00     0.167 HD
HETATM   10  C11 UNL     1      18.065  24.409  19.412  1.00  0.00     0.123 A 
HETATM   11  C12 UNL     1      17.032  24.459  18.504  1.00  0.00     0.152 A 
HETATM   12  N7  UNL     1      16.119  23.450  18.505  1.00  0.00    -0.325 N 
ATOM     13  H7  UNL     1      15.350  23.480  17.835  1.00  0.00     0.169 HD
ENDROOT
BRANCH  11  14
HETATM   14  N4  UNL     1      16.863  25.399  17.693  1.00  0.00    -0.281 N 
ATOM     15  H4  UNL     1      16.056  25.976  17.933  1.00  0.00     0.188 HD
BRANCH  14  16
HETATM   16  N5  UNL     1      17.478  25.826  16.594  1.00  0.00    -0.268 N 
HETATM   17  C13 UNL     1      17.586  25.053  15.362  1.00  0.00     0.237 C 
HETATM   18  O3  UNL     1      17.089  23.917  15.312  1.00  0.00    -0.272 OA
ATOM     19  H5  UNL     1      17.903  26.754  16.615  1.00  0.00     0.190 HD
BRANCH  17  20
HETATM   20  C14 UNL     1      18.273  25.638  14.210  1.00  0.00     0.124 C 
BRANCH  20  21
HETATM   21  C15 UNL     1      19.707  25.423  14.033  1.00  0.00     0.137 C 
BRANCH  21  22
HETATM   22  N6  UNL     1      20.644  26.216  14.740  1.00  0.00    -0.365 N 
HETATM   23  C16 UNL     1      21.041  25.822  15.994  1.00  0.00     0.097 A 
HETATM   24  C17 UNL     1      21.897  26.557  16.750  1.00  0.00    -0.046 A 
HETATM   25  C18 UNL     1      22.292  26.080  18.101  1.00  0.00     0.049 C 
HETATM   26  C19 UNL     1      22.394  27.737  16.264  1.00  0.00     0.016 A 
HETATM   27  C20 UNL     1      22.010  28.152  15.010  1.00  0.00    -0.046 A 
HETATM   28  C21 UNL     1      22.544  29.421  14.477  1.00  0.00     0.049 C 
HETATM   29  C22 UNL     1      21.125  27.360  14.270  1.00  0.00     0.097 A 
ENDBRANCH  21  22
ENDBRANCH  20  21
ENDBRANCH  17  20
ENDBRANCH  14  16
ENDBRANCH  11  14
BRANCH   1  30
HETATM   30  C7  UNL     1      15.192  21.349  19.358  1.00  0.00     0.011 A 
HETATM   31  C6  UNL     1      14.286  21.227  18.328  1.00  0.00     0.054 A 
HETATM   32  C5  UNL     1      13.320  20.209  18.272  1.00  0.00     0.102 A 
HETATM   33  C25 UNL     1      13.334  19.304  19.355  1.00  0.00     0.101 A 
HETATM   34  C24 UNL     1      14.222  19.400  20.394  1.00  0.00     0.040 A 
HETATM   35  C23 UNL     1      15.153  20.437  20.381  1.00  0.00     0.018 A 
BRANCH  32  36
HETATM   36  O2  UNL     1      12.464  20.056  17.344  1.00  0.00    -0.348 OA
BRANCH  36  37
HETATM   37  C4  UNL     1      11.584  19.910  16.385  1.00  0.00     0.178 C 
BRANCH  37  38
HETATM   38  C3  UNL     1      11.869  20.451  15.033  1.00  0.00     0.053 C 
BRANCH  38  39
HETATM   39  C2  UNL     1      13.245  20.634  14.566  1.00  0.00     0.169 C 
BRANCH  39  40
HETATM   40  O1  UNL     1      13.968  21.736  14.752  1.00  0.00    -0.396 OA
HETATM   41  C1  UNL     1      13.426  22.916  15.083  1.00  0.00     0.201 C 
ENDBRANCH  39  40
ENDBRANCH  38  39
ENDBRANCH  37  38
ENDBRANCH  36  37
ENDBRANCH  32  36
BRANCH  33  42
HETATM   42  O4  UNL     1      12.389  18.294  19.319  1.00  0.00    -0.353 OA
HETATM   43  C26 UNL     1      12.374  17.362  20.385  1.00  0.00     0.210 C 
ENDBRANCH  33  42
ENDBRANCH   1  30
TORSDOF 12
ENDMDL
MODEL 3
REMARK VINA RESULT: -9.065892468      2.070      3.795
REMARK  12 active torsions:
REMARK  status: ('A' for Active; 'I' for Inactive)
REMARK    1  A    between atoms: O1_2  and  C2_3 
REMARK    2  A    between atoms: C2_3  and  C3_4 
REMARK    3  A    between atoms: C3_4  and  C4_5 
REMARK    4  A    between atoms: C4_5  and  O2_6 
REMARK    5  A    between atoms: O2_6  and  C5_7 
REMARK    6  A    between atoms: C7_9  and  C8_10 
REMARK    7  A    between atoms: C12_20  and  N4_21 
REMARK    8  A    between atoms: N4_21  and  N5_23 
REMARK       I    between atoms: N5_23  and  C13_25 
REMARK    9  A    between atoms: C13_25  and  C14_27 
REMARK   10  A    between atoms: C14_27  and  C15_28 
REMARK   11  A    between atoms: C15_28  and  N6_29 
REMARK   12  A    between atoms: C25_41  and  O4_42 
ROOT
HETATM    1  C8  UNL     1      15.657  22.202  18.930  1.00  0.00     0.118 A 
HETATM    2  N1  UNL     1      15.350  22.599  17.648  1.00  0.00    -0.326 N 
ATOM      3  H1  UNL     1      14.630  22.102  17.124  1.00  0.00     0.169 HD
HETATM    4  C9  UNL     1      15.985  23.629  17.085  1.00  0.00     0.139 A 
HETATM    5  N2  UNL     1      15.865  24.212  15.859  1.00  0.00    -0.337 N 
ATOM      6  H2  UNL     1      15.228  23.940  15.110  1.00  0.00     0.168 HD
HETATM    7  C10 UNL     1      16.749  25.212  15.836  1.00  0.00     0.182 A 
HETATM    8  N3  UNL     1      17.417  25.281  16.991  1.00  0.00    -0.346 N 
ATOM      9  H3  UNL     1      18.145  25.955  17.227  1.00  0.00     0.167 HD
HETATM   10  C11 UNL     1      16.951  24.296  17.787  1.00  0.00     0.123 A 
HETATM   11  C12 UNL     1      17.255  23.896  19.069  1.00  0.00     0.152 A 
HETATM   12  N7  UNL     1      16.576  22.841  19.596  1.00  0.00    -0.325 N 
ATOM     13  H7  UNL     1      16.796  22.539  20.546  1.00  0.00     0.169 HD
ENDROOT
BRANCH  11  14
HETATM   14  N4  UNL     1      18.144  24.429  19.772  1.00  0.00    -0.281 N 
ATOM     15  H4  UNL     1      18.063  24.172  20.756  1.00  0.00     0.188 HD
BRANCH  14  16
HETATM   16  N5  UNL     1      19.168  25.247  19.548  1.00  0.00    -0.268 N 
HETATM   17  C13 UNL     1      20.467  24.815  19.046  1.00  0.00     0.237 C 
HETATM   18  O3  UNL     1      20.660  23.611  18.815  1.00  0.00    -0.272 OA
ATOM     19  H5  UNL     1      19.036  26.240  19.740  1.00  0.00     0.190 HD
BRANCH  17  20
HETATM   20  C14 UNL     1      21.514  25.813  18.819  1.00  0.00     0.124 C 
BRANCH  20  21
HETATM   21  C15 UNL     1      21.153  27.149  18.349  1.00  0.00     0.137 C 
BRANCH  21  22
HETATM   22  N6  UNL     1      21.229  27.469  16.971  1.00  0.00    -0.365 N 
HETATM   23  C16 UNL     1      22.286  28.220  16.518  1.00  0.00     0.097 A 
HETATM   24  C17 UNL     1      22.399  28.608  15.221  1.00  0.00    -0.046 A 
HETATM   25  C18 UNL     1      23.566  29.419  14.788  1.00  0.00     0.049 C 
HETATM   26  C19 UNL     1      21.436  28.248  14.316  1.00  0.00     0.016 A 
HETATM   27  C20 UNL     1      20.368  27.496  14.748  1.00  0.00    -0.046 A 
HETATM   28  C21 UNL     1      19.327  27.101  13.777  1.00  0.00     0.049 C 
HETATM   29  C22 UNL     1      20.296  27.122  16.094  1.00  0.00     0.097 A 
ENDBRANCH  21  22
ENDBRANCH  20  21
ENDBRANCH  17  20
ENDBRANCH  14  16
ENDBRANCH  11  14
BRANCH   1  30
HETATM   30  C7  UNL     1      14.922  21.037  19.486  1.00  0.00     0.011 A 
HETATM   31  C6  UNL     1      13.841  20.524  18.804  1.00  0.00     0.054 A 
HETATM   32  C5  UNL     1      13.104  19.416  19.258  1.00  0.00     0.102 A 
HETATM   33  C25 UNL     1      13.546  18.854  20.474  1.00  0.00     0.101 A 
HETATM   34  C24 UNL     1      14.617  19.343  21.175  1.00  0.00     0.040 A 
HETATM   35  C23 UNL     1      15.301  20.445  20.662  1.00  0.00     0.018 A 
BRANCH  32  36
HETATM   36  O2  UNL     1      12.100  18.908  18.664  1.00  0.00    -0.348 OA
BRANCH  36  37
HETATM   37  C4  UNL     1      11.065  18.394  18.049  1.00  0.00     0.178 C 
BRANCH  37  38
HETATM   38  C3  UNL     1      10.864  16.924  18.043  1.00  0.00     0.053 C 
BRANCH  38  39
HETATM   39  C2  UNL     1      10.126  16.266  16.962  1.00  0.00     0.169 C 
BRANCH  39  40
HETATM   40  O1  UNL     1      10.379  15.042  16.507  1.00  0.00    -0.396 OA
HETATM   41  C1  UNL     1       9.630  13.977  16.825  1.00  0.00     0.201 C 
ENDBRANCH  39  40
ENDBRANCH  38  39
ENDBRANCH  37  38
ENDBRANCH  36  37
ENDBRANCH  32  36
BRANCH  33  42
HETATM   42  O4  UNL     1      12.832  17.763  20.937  1.00  0.00    -0.353 OA
HETATM   43  C26 UNL     1      13.055  17.343  22.271  1.00  0.00     0.210 C 
ENDBRANCH  33  42
ENDBRANCH   1  30
TORSDOF 12
ENDMDL
MODEL 4
REMARK VINA RESULT: -9.043277127      2.151      3.783
REMARK  12 active torsions:
REMARK  status: ('A' for Active; 'I' for Inactive)
REMARK    1  A    between atoms: O1_2  and  C2_3 
REMARK    2  A    between atoms: C2_3  and  C3_4 
REMARK    3  A    between atoms: C3_4  and  C4_5 
REMARK    4  A    between atoms: C4_5  and  O2_6 
REMARK    5  A    between atoms: O2_6  and  C5_7 
REMARK    6  A    between atoms: C7_9  and  C8_10 
REMARK    7  A    between atoms: C12_20  and  N4_21 
REMARK    8  A    between atoms: N4_21  and  N5_23 
REMARK       I    between atoms: N5_23  and  C13_25 
REMARK    9  A    between atoms: C13_25  and  C14_27 
REMARK   10  A    between atoms: C14_27  and  C15_28 
REMARK   11  A    between atoms: C15_28  and  N6_29 
REMARK   12  A    between atoms: C25_41  and  O4_42 
ROOT
HETATM    1  C8  UNL     1      15.630  21.811  18.650  1.00  0.00     0.118 A 
HETATM    2  N1  UNL     1      15.609  21.797  17.273  1.00  0.00    -0.326 N 
ATOM      3  H1  UNL     1      15.051  21.096  16.784  1.00  0.00     0.169 HD
HETATM    4  C9  UNL     1      16.311  22.689  16.573  1.00  0.00     0.139 A 
HETATM    5  N2  UNL     1      16.451  22.888  15.232  1.00  0.00    -0.337 N 
ATOM      6  H2  UNL     1      16.016  22.348  14.483  1.00  0.00     0.168 HD
HETATM    7  C10 UNL     1      17.272  23.931  15.095  1.00  0.00     0.182 A 
HETATM    8  N3  UNL     1      17.653  24.394  16.289  1.00  0.00    -0.346 N 
ATOM      9  H3  UNL     1      18.277  25.183  16.459  1.00  0.00     0.167 HD
HETATM   10  C11 UNL     1      17.060  23.628  17.228  1.00  0.00     0.123 A 
HETATM   11  C12 UNL     1      17.078  23.640  18.604  1.00  0.00     0.152 A 
HETATM   12  N7  UNL     1      16.343  22.708  19.270  1.00  0.00    -0.325 N 
ATOM     13  H7  UNL     1      16.351  22.712  20.290  1.00  0.00     0.169 HD
ENDROOT
BRANCH  11  14
HETATM   14  N4  UNL     1      17.757  24.443  19.285  1.00  0.00    -0.281 N 
ATOM     15  H4  UNL     1      17.386  24.561  20.227  1.00  0.00     0.188 HD
BRANCH  14  16
HETATM   16  N5  UNL     1      18.845  25.179  19.077  1.00  0.00    -0.268 N 
HETATM   17  C13 UNL     1      20.189  24.630  18.931  1.00  0.00     0.237 C 
HETATM   18  O3  UNL     1      20.357  23.403  19.012  1.00  0.00    -0.272 OA
ATOM     19  H5  UNL     1      18.733  26.191  19.017  1.00  0.00     0.190 HD
BRANCH  17  20
HETATM   20  C14 UNL     1      21.309  25.540  18.686  1.00  0.00     0.124 C 
BRANCH  20  21
HETATM   21  C15 UNL     1      21.050  26.946  18.385  1.00  0.00     0.137 C 
BRANCH  21  22
HETATM   22  N6  UNL     1      21.114  27.418  17.051  1.00  0.00    -0.365 N 
HETATM   23  C16 UNL     1      20.116  27.074  16.173  1.00  0.00     0.097 A 
HETATM   24  C17 UNL     1      20.135  27.447  14.867  1.00  0.00    -0.046 A 
HETATM   25  C18 UNL     1      19.026  27.046  13.963  1.00  0.00     0.049 C 
HETATM   26  C19 UNL     1      21.178  28.195  14.387  1.00  0.00     0.016 A 
HETATM   27  C20 UNL     1      22.190  28.551  15.250  1.00  0.00    -0.046 A 
HETATM   28  C21 UNL     1      23.316  29.360  14.742  1.00  0.00     0.049 C 
HETATM   29  C22 UNL     1      22.124  28.141  16.586  1.00  0.00     0.097 A 
ENDBRANCH  21  22
ENDBRANCH  20  21
ENDBRANCH  17  20
ENDBRANCH  14  16
ENDBRANCH  11  14
BRANCH   1  30
HETATM   30  C7  UNL     1      14.838  20.777  19.363  1.00  0.00     0.011 A 
HETATM   31  C6  UNL     1      13.758  20.194  18.739  1.00  0.00     0.054 A 
HETATM   32  C5  UNL     1      12.969  19.199  19.342  1.00  0.00     0.102 A 
HETATM   33  C25 UNL     1      13.357  18.829  20.647  1.00  0.00     0.101 A 
HETATM   34  C24 UNL     1      14.426  19.392  21.294  1.00  0.00     0.040 A 
HETATM   35  C23 UNL     1      15.163  20.373  20.632  1.00  0.00     0.018 A 
BRANCH  32  36
HETATM   36  O2  UNL     1      11.963  18.633  18.807  1.00  0.00    -0.348 OA
BRANCH  36  37
HETATM   37  C4  UNL     1      10.923  18.053  18.264  1.00  0.00     0.178 C 
BRANCH  37  38
HETATM   38  C3  UNL     1      10.860  16.572  18.185  1.00  0.00     0.053 C 
BRANCH  38  39
HETATM   39  C2  UNL     1      10.025  15.903  17.184  1.00  0.00     0.169 C 
BRANCH  39  40
HETATM   40  O1  UNL     1      10.481  15.355  16.061  1.00  0.00    -0.396 OA
HETATM   41  C1  UNL     1      10.110  15.774  14.843  1.00  0.00     0.201 C 
ENDBRANCH  39  40
ENDBRANCH  38  39
ENDBRANCH  37  38
ENDBRANCH  36  37
ENDBRANCH  32  36
BRANCH  33  42
HETATM   42  O4  UNL     1      12.591  17.852  21.258  1.00  0.00    -0.353 OA
HETATM   43  C26 UNL     1      13.091  17.265  22.446  1.00  0.00     0.210 C 
ENDBRANCH  33  42
ENDBRANCH   1  30
TORSDOF 12
ENDMDL
MODEL 5
REMARK VINA RESULT: -8.960144598      1.291      1.895
REMARK  12 active torsions:
REMARK  status: ('A' for Active; 'I' for Inactive)
REMARK    1  A    between atoms: O1_2  and  C2_3 
REMARK    2  A    between atoms: C2_3  and  C3_4 
REMARK    3  A    between atoms: C3_4  and  C4_5 
REMARK    4  A    between atoms: C4_5  and  O2_6 
REMARK    5  A    between atoms: O2_6  and  C5_7 
REMARK    6  A    between atoms: C7_9  and  C8_10 
REMARK    7  A    between atoms: C12_20  and  N4_21 
REMARK    8  A    between atoms: N4_21  and  N5_23 
REMARK       I    between atoms: N5_23  and  C13_25 
REMARK    9  A    between atoms: C13_25  and  C14_27 
REMARK   10  A    between atoms: C14_27  and  C15_28 
REMARK   11  A    between atoms: C15_28  and  N6_29 
REMARK   12  A    between atoms: C25_41  and  O4_42 
ROOT
HETATM    1  C8  UNL     1      16.846  22.049  18.864  1.00  0.00     0.118 A 
HETATM    2  N1  UNL     1      17.189  22.761  19.991  1.00  0.00    -0.326 N 
ATOM      3  H1  UNL     1      16.607  22.695  20.826  1.00  0.00     0.169 HD
HETATM    4  C9  UNL     1      18.275  23.536  20.002  1.00  0.00     0.139 A 
HETATM    5  N2  UNL     1      18.824  24.320  20.972  1.00  0.00    -0.337 N 
ATOM      6  H2  UNL     1      18.471  24.461  21.920  1.00  0.00     0.168 HD
HETATM    7  C10 UNL     1      19.916  24.867  20.434  1.00  0.00     0.182 A 
HETATM    8  N3  UNL     1      20.075  24.461  19.171  1.00  0.00    -0.346 N 
ATOM      9  H3  UNL     1      20.830  24.733  18.541  1.00  0.00     0.167 HD
HETATM   10  C11 UNL     1      19.055  23.625  18.882  1.00  0.00     0.123 A 
HETATM   11  C12 UNL     1      18.710  22.912  17.757  1.00  0.00     0.152 A 
HETATM   12  N7  UNL     1      17.593  22.136  17.800  1.00  0.00    -0.325 N 
ATOM     13  H7  UNL     1      17.332  21.603  16.970  1.00  0.00     0.169 HD
ENDROOT
BRANCH  11  14
HETATM   14  N4  UNL     1      19.349  22.958  16.681  1.00  0.00    -0.281 N 
ATOM     15  H4  UNL     1      19.794  22.067  16.458  1.00  0.00     0.188 HD
BRANCH  14  16
HETATM   16  N5  UNL     1      19.588  23.885  15.758  1.00  0.00    -0.268 N 
HETATM   17  C13 UNL     1      18.552  24.546  14.973  1.00  0.00     0.237 C 
HETATM   18  O3  UNL     1      17.364  24.233  15.149  1.00  0.00    -0.272 OA
ATOM     19  H5  UNL     1      20.559  24.150  15.588  1.00  0.00     0.190 HD
BRANCH  17  20
HETATM   20  C14 UNL     1      18.936  25.567  13.997  1.00  0.00     0.124 C 
BRANCH  20  21
HETATM   21  C15 UNL     1      19.052  26.962  14.415  1.00  0.00     0.137 C 
BRANCH  21  22
HETATM   22  N6  UNL     1      20.269  27.453  14.949  1.00  0.00    -0.365 N 
HETATM   23  C16 UNL     1      20.583  27.175  16.257  1.00  0.00     0.097 A 
HETATM   24  C17 UNL     1      21.707  27.653  16.852  1.00  0.00    -0.046 A 
HETATM   25  C18 UNL     1      21.996  27.318  18.270  1.00  0.00     0.049 C 
HETATM   26  C19 UNL     1      22.571  28.443  16.141  1.00  0.00     0.016 A 
HETATM   27  C20 UNL     1      22.275  28.735  14.829  1.00  0.00    -0.046 A 
HETATM   28  C21 UNL     1      23.204  29.583  14.055  1.00  0.00     0.049 C 
HETATM   29  C22 UNL     1      21.105  28.219  14.261  1.00  0.00     0.097 A 
ENDBRANCH  21  22
ENDBRANCH  20  21
ENDBRANCH  17  20
ENDBRANCH  14  16
ENDBRANCH  11  14
BRANCH   1  30
HETATM   30  C7  UNL     1      15.614  21.221  18.918  1.00  0.00     0.011 A 
HETATM   31  C6  UNL     1      14.776  21.173  17.825  1.00  0.00     0.054 A 
HETATM   32  C5  UNL     1      13.601  20.403  17.794  1.00  0.00     0.102 A 
HETATM   33  C25 UNL     1      13.327  19.672  18.969  1.00  0.00     0.101 A 
HETATM   34  C24 UNL     1      14.141  19.701  20.071  1.00  0.00     0.040 A 
HETATM   35  C23 UNL     1      15.291  20.488  20.029  1.00  0.00     0.018 A 
BRANCH  32  36
HETATM   36  O2  UNL     1      12.797  20.328  16.811  1.00  0.00    -0.348 OA
BRANCH  36  37
HETATM   37  C4  UNL     1      11.963  20.254  15.804  1.00  0.00     0.178 C 
BRANCH  37  38
HETATM   38  C3  UNL     1      12.402  20.668  14.449  1.00  0.00     0.053 C 
BRANCH  38  39
HETATM   39  C2  UNL     1      13.570  20.053  13.812  1.00  0.00     0.169 C 
BRANCH  39  40
HETATM   40  O1  UNL     1      14.682  20.703  13.480  1.00  0.00    -0.396 OA
HETATM   41  C1  UNL     1      15.095  21.811  14.112  1.00  0.00     0.201 C 
ENDBRANCH  39  40
ENDBRANCH  38  39
ENDBRANCH  37  38
ENDBRANCH  36  37
ENDBRANCH  32  36
BRANCH  33  42
HETATM   42  O4  UNL     1      12.173  18.908  18.958  1.00  0.00    -0.353 OA
HETATM   43  C26 UNL     1      11.854  18.172  20.124  1.00  0.00     0.210 C 
ENDBRANCH  33  42
ENDBRANCH   1  30
TORSDOF 12
ENDMDL
