MODEL 1
REMARK VINA RESULT: -9.134645236      0.000      0.000
REMARK  12 active torsions:
REMARK  status: ('A' for Active; 'I' for Inactive)
REMARK    1  A    between atoms: C4_5  and  N1_6 
REMARK       I    between atoms: N1_6  and  C5_8 
REMARK    2  A    between atoms: C5_8  and  C6_10 
REMARK    3  A    between atoms: C6_10  and  N2_11 
REMARK    4  A    between atoms: C9_14  and  C10_15 
REMARK    5  A    between atoms: C10_15  and  C11_16 
REMARK    6  A    between atoms: C11_16  and  N3_17 
REMARK       I    between atoms: N3_17  and  C12_19 
REMARK    7  A    between atoms: C12_19  and  C13_21 
REMARK    8  A    between atoms: C13_21  and  C14_22 
REMARK    9  A    between atoms: C22_30  and  C23_31 
REMARK   10  A    between atoms: C23_31  and  O4_33 
REMARK   11  A    between atoms: O4_33  and  C24_34 
REMARK   12  A    between atoms: C24_34  and  C25_35 
ROOT
HETATM    1  N2  UNL     1      10.573  20.120  19.452  1.00  0.00     0.097 N 
HETATM    2  C7  UNL     1       9.419  20.151  18.625  1.00  0.00     0.273 C 
HETATM    3  C8  UNL     1       8.802  18.786  18.514  1.00  0.00     0.035 C 
HETATM    4  C9  UNL     1       8.652  18.166  19.861  1.00  0.00    -0.010 C 
HETATM    5  C20 UNL     1       8.887  19.173  20.937  1.00  0.00     0.035 C 
HETATM    6  C21 UNL     1      10.302  19.692  20.803  1.00  0.00     0.273 C 
ENDROOT
BRANCH   1   7
HETATM    7  C6  UNL     1      11.401  21.275  19.457  1.00  0.00     0.374 C 
BRANCH   7   8
HETATM    8  C5  UNL     1      11.919  21.709  18.151  1.00  0.00     0.251 C 
HETATM    9  N1  UNL     1      12.992  20.997  17.575  1.00  0.00    -0.319 N 
ATOM     10  H1  UNL     1      13.410  20.196  18.048  1.00  0.00     0.169 HD
HETATM   11  O1  UNL     1      11.429  22.678  17.561  1.00  0.00    -0.271 OA
BRANCH   9  12
HETATM   12  C4  UNL     1      13.476  21.443  16.293  1.00  0.00     0.093 A 
HETATM   13  S1  UNL     1      12.883  20.905  14.759  1.00  0.00    -0.083 SA
HETATM   14  C3  UNL     1      13.889  21.820  13.753  1.00  0.00     0.059 A 
HETATM   15  C2  UNL     1      14.664  22.526  14.624  1.00  0.00    -0.036 A 
HETATM   16  C1  UNL     1      15.716  23.485  14.071  1.00  0.00     0.050 C 
HETATM   17  C22 UNL     1      14.453  22.333  15.946  1.00  0.00     0.079 A 
BRANCH  17  18
HETATM   18  C23 UNL     1      15.255  23.068  16.978  1.00  0.00     0.297 C 
HETATM   19  O3  UNL     1      16.510  23.136  16.925  1.00  0.00    -0.259 OA
BRANCH  18  20
HETATM   20  O4  UNL     1      14.679  23.712  18.045  1.00  0.00    -0.308 OA
BRANCH  20  21
HETATM   21  C24 UNL     1      15.143  23.753  19.351  1.00  0.00     0.278 C 
BRANCH  21  22
HETATM   22  C25 UNL     1      15.913  24.933  19.732  1.00  0.00     0.255 C 
HETATM   23  N4  UNL     1      17.135  24.809  20.444  1.00  0.00    -0.060 NA
HETATM   24  O5  UNL     1      15.518  26.089  19.440  1.00  0.00    -0.274 OA
ENDBRANCH  21  22
ENDBRANCH  20  21
ENDBRANCH  18  20
ENDBRANCH  17  18
ENDBRANCH   9  12
ENDBRANCH   7   8
ENDBRANCH   1   7
BRANCH   4  25
HETATM   25  C10 UNL     1       7.346  17.420  20.066  1.00  0.00     0.024 C 
BRANCH  25  26
HETATM   26  C11 UNL     1       7.437  15.953  19.856  1.00  0.00     0.123 C 
BRANCH  26  27
HETATM   27  N3  UNL     1       7.950  15.696  18.517  1.00  0.00    -0.361 N 
HETATM   28  C12 UNL     1       7.040  15.668  17.400  1.00  0.00     0.217 C 
HETATM   29  O2  UNL     1       5.835  15.868  17.642  1.00  0.00    -0.274 OA
ATOM     30  H3  UNL     1       8.947  15.537  18.371  1.00  0.00     0.162 HD
BRANCH  28  31
HETATM   31  C13 UNL     1       7.592  15.406  16.062  1.00  0.00     0.107 C 
BRANCH  31  32
HETATM   32  C14 UNL     1       8.404  16.498  15.461  1.00  0.00    -0.006 C 
HETATM   33  C15 UNL     1       9.028  16.000  14.162  1.00  0.00     0.005 C 
HETATM   34  C16 UNL     1      10.268  16.860  13.950  1.00  0.00     0.000 C 
HETATM   35  C17 UNL     1       9.985  18.297  14.353  1.00  0.00     0.000 C 
HETATM   36  C18 UNL     1       8.509  18.621  14.260  1.00  0.00     0.000 C 
HETATM   37  C19 UNL     1       7.666  17.760  15.181  1.00  0.00     0.005 C 
ENDBRANCH  31  32
ENDBRANCH  28  31
ENDBRANCH  26  27
ENDBRANCH  25  26
ENDBRANCH   4  25
TORSDOF 12
ENDMDL
MODEL 2
REMARK VINA RESULT: -8.943309088      1.489      1.863
REMARK  12 active torsions:
REMARK  status: ('A' for Active; 'I' for Inactive)
REMARK    1  A    between atoms: C4_5  and  N1_6 
REMARK       I    between atoms: N1_6  and  C5_8 
REMARK    2  A    between atoms: C5_8  and  C6_10 
REMARK    3  A    between atoms: C6_10  and  N2_11 
REMARK    4  A    between atoms: C9_14  and  C10_15 
REMARK    5  A    between atoms: C10_15  and  C11_16 
REMARK    6  A    between atoms: C11_16  and  N3_17 
REMARK       I    between atoms: N3_17  and  C12_19 
REMARK    7  A    between atoms: C12_19  and  C13_21 
REMARK    8  A    between atoms: C13_21  and  C14_22 
REMARK    9  A    between atoms: C22_30  and  C23_31 
REMARK   10  A    between atoms: C23_31  and  O4_33 
REMARK   11  A    between atoms: O4_33  and  C24_34 
REMARK   12  A    between atoms: C24_34  and  C25_35 
ROOT
HETATM    1  N2  UNL     1      11.791  20.290  18.608  1.00  0.00     0.097 N 
HETATM    2  C7  UNL     1      11.163  21.126  19.567  1.00  0.00     0.273 C 
HETATM    3  C8  UNL     1       9.678  20.899  19.587  1.00  0.00     0.035 C 
HETATM    4  C9  UNL     1       9.370  19.443  19.656  1.00  0.00    -0.010 C 
HETATM    5  C20 UNL     1      10.598  18.655  19.969  1.00  0.00     0.035 C 
HETATM    6  C21 UNL     1      11.604  18.881  18.861  1.00  0.00     0.273 C 
ENDROOT
BRANCH   1   7
HETATM    7  C6  UNL     1      13.151  20.560  18.301  1.00  0.00     0.374 C 
BRANCH   7   8
HETATM    8  C5  UNL     1      13.399  21.347  17.084  1.00  0.00     0.251 C 
HETATM    9  N1  UNL     1      14.415  20.929  16.198  1.00  0.00    -0.319 N 
ATOM     10  H1  UNL     1      14.975  20.099  16.391  1.00  0.00     0.169 HD
HETATM   11  O1  UNL     1      12.734  22.358  16.831  1.00  0.00    -0.271 OA
BRANCH   9  12
HETATM   12  C4  UNL     1      14.632  21.718  15.013  1.00  0.00     0.093 A 
HETATM   13  S1  UNL     1      13.702  21.609  13.556  1.00  0.00    -0.083 SA
HETATM   14  C3  UNL     1      14.508  22.784  12.643  1.00  0.00     0.059 A 
HETATM   15  C2  UNL     1      15.480  23.238  13.483  1.00  0.00    -0.036 A 
HETATM   16  C1  UNL     1      16.430  24.330  12.996  1.00  0.00     0.050 C 
HETATM   17  C22 UNL     1      15.549  22.686  14.716  1.00  0.00     0.079 A 
BRANCH  17  18
HETATM   18  C23 UNL     1      16.584  23.124  15.709  1.00  0.00     0.297 C 
HETATM   19  O3  UNL     1      17.808  23.171  15.423  1.00  0.00    -0.259 OA
BRANCH  18  20
HETATM   20  O4  UNL     1      16.269  23.503  16.991  1.00  0.00    -0.308 OA
BRANCH  20  21
HETATM   21  C24 UNL     1      17.139  23.962  17.969  1.00  0.00     0.278 C 
BRANCH  21  22
HETATM   22  C25 UNL     1      16.529  24.552  19.156  1.00  0.00     0.255 C 
HETATM   23  N4  UNL     1      17.322  24.944  20.267  1.00  0.00    -0.060 NA
HETATM   24  O5  UNL     1      15.288  24.729  19.230  1.00  0.00    -0.274 OA
ENDBRANCH  21  22
ENDBRANCH  20  21
ENDBRANCH  18  20
ENDBRANCH  17  18
ENDBRANCH   9  12
ENDBRANCH   7   8
ENDBRANCH   1   7
BRANCH   4  25
HETATM   25  C10 UNL     1       8.223  19.088  20.585  1.00  0.00     0.024 C 
BRANCH  25  26
HETATM   26  C11 UNL     1       7.157  18.265  19.959  1.00  0.00     0.123 C 
BRANCH  26  27
HETATM   27  N3  UNL     1       7.280  18.351  18.511  1.00  0.00    -0.361 N 
HETATM   28  C12 UNL     1       7.603  17.169  17.752  1.00  0.00     0.217 C 
HETATM   29  O2  UNL     1       7.765  16.111  18.390  1.00  0.00    -0.274 OA
ATOM     30  H3  UNL     1       7.139  19.242  18.035  1.00  0.00     0.162 HD
BRANCH  28  31
HETATM   31  C13 UNL     1       7.719  17.291  16.292  1.00  0.00     0.107 C 
BRANCH  31  32
HETATM   32  C14 UNL     1       9.062  17.658  15.767  1.00  0.00    -0.006 C 
HETATM   33  C15 UNL     1       9.114  17.359  14.273  1.00  0.00     0.005 C 
HETATM   34  C16 UNL     1      10.588  17.151  13.951  1.00  0.00     0.000 C 
HETATM   35  C17 UNL     1      11.441  18.138  14.731  1.00  0.00     0.000 C 
HETATM   36  C18 UNL     1      10.658  19.381  15.098  1.00  0.00     0.000 C 
HETATM   37  C19 UNL     1       9.465  19.075  15.983  1.00  0.00     0.005 C 
ENDBRANCH  31  32
ENDBRANCH  28  31
ENDBRANCH  26  27
ENDBRANCH  25  26
ENDBRANCH   4  25
TORSDOF 12
ENDMDL
MODEL 3
REMARK VINA RESULT: -8.915692552      2.391      9.511
REMARK  12 active torsions:
REMARK  status: ('A' for Active; 'I' for Inactive)
REMARK    1  A    between atoms: C4_5  and  N1_6 
REMARK       I    between atoms: N1_6  and  C5_8 
REMARK    2  A    between atoms: C5_8  and  C6_10 
REMARK    3  A    between atoms: C6_10  and  N2_11 
REMARK    4  A    between atoms: C9_14  and  C10_15 
REMARK    5  A    between atoms: C10_15  and  C11_16 
REMARK    6  A    between atoms: C11_16  and  N3_17 
REMARK       I    between atoms: N3_17  and  C12_19 
REMARK    7  A    between atoms: C12_19  and  C13_21 
REMARK    8  A    between atoms: C13_21  and  C14_22 
REMARK    9  A    between atoms: C22_30  and  C23_31 
REMARK   10  A    between atoms: C23_31  and  O4_33 
REMARK   11  A    between atoms: O4_33  and  C24_34 
REMARK   12  A    between atoms: C24_34  and  C25_35 
ROOT
HETATM    1  N2  UNL     1      12.138  20.811  16.444  1.00  0.00     0.097 N 
HETATM    2  C7  UNL     1      12.320  20.459  15.081  1.00  0.00     0.273 C 
HETATM    3  C8  UNL     1      13.395  21.298  14.450  1.00  0.00     0.035 C 
HETATM    4  C9  UNL     1      14.612  21.325  15.309  1.00  0.00    -0.010 C 
HETATM    5  C20 UNL     1      14.522  20.300  16.390  1.00  0.00     0.035 C 
HETATM    6  C21 UNL     1      13.320  20.622  17.251  1.00  0.00     0.273 C 
ENDROOT
BRANCH   1   7
HETATM    7  C6  UNL     1      10.998  20.281  17.106  1.00  0.00     0.374 C 
BRANCH   7   8
HETATM    8  C5  UNL     1      10.186  19.327  16.337  1.00  0.00     0.251 C 
HETATM    9  N1  UNL     1      10.571  17.970  16.313  1.00  0.00    -0.319 N 
ATOM     10  H1  UNL     1      11.397  17.646  16.816  1.00  0.00     0.169 HD
HETATM   11  O1  UNL     1       9.181  19.697  15.719  1.00  0.00    -0.271 OA
BRANCH   9  12
HETATM   12  C4  UNL     1       9.753  17.058  15.554  1.00  0.00     0.093 A 
HETATM   13  S1  UNL     1       9.958  16.695  13.874  1.00  0.00    -0.083 SA
HETATM   14  C3  UNL     1       8.685  15.596  13.687  1.00  0.00     0.059 A 
HETATM   15  C2  UNL     1       8.127  15.531  14.928  1.00  0.00    -0.036 A 
HETATM   16  C1  UNL     1       6.923  14.618  15.153  1.00  0.00     0.050 C 
HETATM   17  C22 UNL     1       8.679  16.290  15.903  1.00  0.00     0.079 A 
BRANCH  17  18
HETATM   18  C23 UNL     1       8.134  16.280  17.300  1.00  0.00     0.297 C 
HETATM   19  O3  UNL     1       8.085  15.230  17.991  1.00  0.00    -0.259 OA
BRANCH  18  20
HETATM   20  O4  UNL     1       7.656  17.409  17.917  1.00  0.00    -0.308 OA
BRANCH  20  21
HETATM   21  C24 UNL     1       7.711  17.715  19.269  1.00  0.00     0.278 C 
BRANCH  21  22
HETATM   22  C25 UNL     1       8.554  18.845  19.647  1.00  0.00     0.255 C 
HETATM   23  N4  UNL     1       9.719  18.656  20.435  1.00  0.00    -0.060 NA
HETATM   24  O5  UNL     1       8.272  20.014  19.286  1.00  0.00    -0.274 OA
ENDBRANCH  21  22
ENDBRANCH  20  21
ENDBRANCH  18  20
ENDBRANCH  17  18
ENDBRANCH   9  12
ENDBRANCH   7   8
ENDBRANCH   1   7
BRANCH   4  25
HETATM   25  C10 UNL     1      15.921  21.222  14.546  1.00  0.00     0.024 C 
BRANCH  25  26
HETATM   26  C11 UNL     1      16.801  22.411  14.672  1.00  0.00     0.123 C 
BRANCH  26  27
HETATM   27  N3  UNL     1      17.026  22.687  16.084  1.00  0.00    -0.361 N 
HETATM   28  C12 UNL     1      17.546  23.970  16.485  1.00  0.00     0.217 C 
HETATM   29  O2  UNL     1      17.782  24.795  15.582  1.00  0.00    -0.274 OA
ATOM     30  H3  UNL     1      16.817  21.977  16.786  1.00  0.00     0.162 HD
BRANCH  28  31
HETATM   31  C13 UNL     1      17.760  24.215  17.918  1.00  0.00     0.107 C 
BRANCH  31  32
HETATM   32  C14 UNL     1      16.575  24.676  18.691  1.00  0.00    -0.006 C 
HETATM   33  C15 UNL     1      15.546  23.552  18.746  1.00  0.00     0.005 C 
HETATM   34  C16 UNL     1      14.204  24.241  18.961  1.00  0.00     0.000 C 
HETATM   35  C17 UNL     1      14.359  25.406  19.923  1.00  0.00     0.000 C 
HETATM   36  C18 UNL     1      15.549  25.216  20.840  1.00  0.00     0.000 C 
HETATM   37  C19 UNL     1      16.859  25.129  20.080  1.00  0.00     0.005 C 
ENDBRANCH  31  32
ENDBRANCH  28  31
ENDBRANCH  26  27
ENDBRANCH  25  26
ENDBRANCH   4  25
TORSDOF 12
ENDMDL
MODEL 4
REMARK VINA RESULT: -8.865702765      2.412     10.008
REMARK  12 active torsions:
REMARK  status: ('A' for Active; 'I' for Inactive)
REMARK    1  A    between atoms: C4_5  and  N1_6 
REMARK       I    between atoms: N1_6  and  C5_8 
REMARK    2  A    between atoms: C5_8  and  C6_10 
REMARK    3  A    between atoms: C6_10  and  N2_11 
REMARK    4  A    between atoms: C9_14  and  C10_15 
REMARK    5  A    between atoms: C10_15  and  C11_16 
REMARK    6  A    between atoms: C11_16  and  N3_17 
REMARK       I    between atoms: N3_17  and  C12_19 
REMARK    7  A    between atoms: C12_19  and  C13_21 
REMARK    8  A    between atoms: C13_21  and  C14_22 
REMARK    9  A    between atoms: C22_30  and  C23_31 
REMARK   10  A    between atoms: C23_31  and  O4_33 
REMARK   11  A    between atoms: O4_33  and  C24_34 
REMARK   12  A    between atoms: C24_34  and  C25_35 
ROOT
HETATM    1  N2  UNL     1      13.016  20.760  15.092  1.00  0.00     0.097 N 
HETATM    2  C7  UNL     1      13.226  21.929  15.869  1.00  0.00     0.273 C 
HETATM    3  C8  UNL     1      14.661  22.369  15.799  1.00  0.00     0.035 C 
HETATM    4  C9  UNL     1      15.132  22.404  14.386  1.00  0.00    -0.010 C 
HETATM    5  C20 UNL     1      13.984  22.272  13.441  1.00  0.00     0.035 C 
HETATM    6  C21 UNL     1      13.313  20.939  13.690  1.00  0.00     0.273 C 
ENDROOT
BRANCH   1   7
HETATM    7  C6  UNL     1      11.775  20.087  15.251  1.00  0.00     0.374 C 
BRANCH   7   8
HETATM    8  C5  UNL     1      11.419  19.698  16.623  1.00  0.00     0.251 C 
HETATM    9  N1  UNL     1      10.196  20.149  17.162  1.00  0.00    -0.319 N 
ATOM     10  H1  UNL     1       9.564  20.737  16.619  1.00  0.00     0.169 HD
HETATM   11  O1  UNL     1      12.170  18.987  17.300  1.00  0.00    -0.271 OA
BRANCH   9  12
HETATM   12  C4  UNL     1       9.872  19.749  18.507  1.00  0.00     0.093 A 
HETATM   13  S1  UNL     1      10.404  20.553  19.945  1.00  0.00    -0.083 SA
HETATM   14  C3  UNL     1       9.666  19.554  21.093  1.00  0.00     0.059 A 
HETATM   15  C2  UNL     1       9.020  18.617  20.342  1.00  0.00    -0.036 A 
HETATM   16  C1  UNL     1       8.223  17.522  21.047  1.00  0.00     0.050 C 
HETATM   17  C22 UNL     1       9.125  18.714  18.997  1.00  0.00     0.079 A 
BRANCH  17  18
HETATM   18  C23 UNL     1       8.447  17.732  18.090  1.00  0.00     0.297 C 
HETATM   19  O3  UNL     1       7.212  17.500  18.158  1.00  0.00    -0.259 OA
BRANCH  18  20
HETATM   20  O4  UNL     1       9.121  17.022  17.128  1.00  0.00    -0.308 OA
BRANCH  20  21
HETATM   21  C24 UNL     1       8.678  16.705  15.852  1.00  0.00     0.278 C 
BRANCH  21  22
HETATM   22  C25 UNL     1       8.952  17.684  14.806  1.00  0.00     0.255 C 
HETATM   23  N4  UNL     1       9.790  17.364  13.706  1.00  0.00    -0.060 NA
HETATM   24  O5  UNL     1       8.454  18.837  14.849  1.00  0.00    -0.274 OA
ENDBRANCH  21  22
ENDBRANCH  20  21
ENDBRANCH  18  20
ENDBRANCH  17  18
ENDBRANCH   9  12
ENDBRANCH   7   8
ENDBRANCH   1   7
BRANCH   4  25
HETATM   25  C10 UNL     1      16.005  23.598  14.046  1.00  0.00     0.024 C 
BRANCH  25  26
HETATM   26  C11 UNL     1      17.296  23.644  14.779  1.00  0.00     0.123 C 
BRANCH  26  27
HETATM   27  N3  UNL     1      17.201  24.632  15.845  1.00  0.00    -0.361 N 
HETATM   28  C12 UNL     1      17.887  24.403  17.091  1.00  0.00     0.217 C 
HETATM   29  O2  UNL     1      18.541  23.348  17.195  1.00  0.00    -0.274 OA
ATOM     30  H3  UNL     1      16.651  25.481  15.711  1.00  0.00     0.162 HD
BRANCH  28  31
HETATM   31  C13 UNL     1      17.770  25.421  18.145  1.00  0.00     0.107 C 
BRANCH  31  32
HETATM   32  C14 UNL     1      16.573  25.324  19.023  1.00  0.00    -0.006 C 
HETATM   33  C15 UNL     1      15.914  23.964  18.822  1.00  0.00     0.005 C 
HETATM   34  C16 UNL     1      14.455  24.157  19.214  1.00  0.00     0.000 C 
HETATM   35  C17 UNL     1      14.352  25.068  20.426  1.00  0.00     0.000 C 
HETATM   36  C18 UNL     1      15.621  25.039  21.253  1.00  0.00     0.000 C 
HETATM   37  C19 UNL     1      16.832  25.518  20.476  1.00  0.00     0.005 C 
ENDBRANCH  31  32
ENDBRANCH  28  31
ENDBRANCH  26  27
ENDBRANCH  25  26
ENDBRANCH   4  25
TORSDOF 12
ENDMDL
MODEL 5
REMARK VINA RESULT: -8.863461197      2.789      9.939
REMARK  12 active torsions:
REMARK  status: ('A' for Active; 'I' for Inactive)
REMARK    1  A    between atoms: C4_5  and  N1_6 
REMARK       I    between atoms: N1_6  and  C5_8 
REMARK    2  A    between atoms: C5_8  and  C6_10 
REMARK    3  A    between atoms: C6_10  and  N2_11 
REMARK    4  A    between atoms: C9_14  and  C10_15 
REMARK    5  A    between atoms: C10_15  and  C11_16 
REMARK    6  A    between atoms: C11_16  and  N3_17 
REMARK       I    between atoms: N3_17  and  C12_19 
REMARK    7  A    between atoms: C12_19  and  C13_21 
REMARK    8  A    between atoms: C13_21  and  C14_22 
REMARK    9  A    between atoms: C22_30  and  C23_31 
REMARK   10  A    between atoms: C23_31  and  O4_33 
REMARK   11  A    between atoms: O4_33  and  C24_34 
REMARK   12  A    between atoms: C24_34  and  C25_35 
ROOT
HETATM    1  N2  UNL     1      12.181  20.070  17.443  1.00  0.00     0.097 N 
HETATM    2  C7  UNL     1      11.989  19.711  16.084  1.00  0.00     0.273 C 
HETATM    3  C8  UNL     1      12.406  20.828  15.170  1.00  0.00     0.035 C 
HETATM    4  C9  UNL     1      13.753  21.341  15.548  1.00  0.00    -0.010 C 
HETATM    5  C20 UNL     1      14.413  20.428  16.526  1.00  0.00     0.035 C 
HETATM    6  C21 UNL     1      13.556  20.365  17.772  1.00  0.00     0.273 C 
ENDROOT
BRANCH   1   7
HETATM    7  C6  UNL     1      11.611  19.220  18.428  1.00  0.00     0.374 C 
BRANCH   7   8
HETATM    8  C5  UNL     1      10.193  18.875  18.245  1.00  0.00     0.251 C 
HETATM    9  N1  UNL     1       9.850  17.537  17.958  1.00  0.00    -0.319 N 
ATOM     10  H1  UNL     1      10.565  16.815  17.874  1.00  0.00     0.169 HD
HETATM   11  O1  UNL     1       9.310  19.735  18.340  1.00  0.00    -0.271 OA
BRANCH   9  12
HETATM   12  C4  UNL     1       8.453  17.229  17.788  1.00  0.00     0.093 A 
HETATM   13  S1  UNL     1       7.382  16.718  19.048  1.00  0.00    -0.083 SA
HETATM   14  C3  UNL     1       5.967  16.546  18.136  1.00  0.00     0.059 A 
HETATM   15  C2  UNL     1       6.351  16.888  16.874  1.00  0.00    -0.036 A 
HETATM   16  C1  UNL     1       5.318  16.853  15.749  1.00  0.00     0.050 C 
HETATM   17  C22 UNL     1       7.643  17.244  16.687  1.00  0.00     0.079 A 
BRANCH  17  18
HETATM   18  C23 UNL     1       8.155  17.639  15.335  1.00  0.00     0.297 C 
HETATM   19  O3  UNL     1       7.547  18.463  14.605  1.00  0.00    -0.259 OA
BRANCH  18  20
HETATM   20  O4  UNL     1       9.315  17.132  14.803  1.00  0.00    -0.308 OA
BRANCH  20  21
HETATM   21  C24 UNL     1       9.443  16.048  13.948  1.00  0.00     0.278 C 
BRANCH  21  22
HETATM   22  C25 UNL     1       8.369  15.061  13.982  1.00  0.00     0.255 C 
HETATM   23  N4  UNL     1       8.162  14.245  15.125  1.00  0.00    -0.060 NA
HETATM   24  O5  UNL     1       7.599  14.906  13.002  1.00  0.00    -0.274 OA
ENDBRANCH  21  22
ENDBRANCH  20  21
ENDBRANCH  18  20
ENDBRANCH  17  18
ENDBRANCH   9  12
ENDBRANCH   7   8
ENDBRANCH   1   7
BRANCH   4  25
HETATM   25  C10 UNL     1      14.658  21.653  14.370  1.00  0.00     0.024 C 
BRANCH  25  26
HETATM   26  C11 UNL     1      15.157  23.051  14.331  1.00  0.00     0.123 C 
BRANCH  26  27
HETATM   27  N3  UNL     1      15.609  23.431  15.663  1.00  0.00    -0.361 N 
HETATM   28  C12 UNL     1      17.015  23.394  15.975  1.00  0.00     0.217 C 
HETATM   29  O2  UNL     1      17.789  23.029  15.070  1.00  0.00    -0.274 OA
ATOM     30  H3  UNL     1      14.934  23.722  16.370  1.00  0.00     0.162 HD
BRANCH  28  31
HETATM   31  C13 UNL     1      17.436  23.784  17.328  1.00  0.00     0.107 C 
BRANCH  31  32
HETATM   32  C14 UNL     1      16.407  24.450  18.171  1.00  0.00    -0.006 C 
HETATM   33  C15 UNL     1      15.497  23.389  18.782  1.00  0.00     0.005 C 
HETATM   34  C16 UNL     1      14.181  24.100  19.072  1.00  0.00     0.000 C 
HETATM   35  C17 UNL     1      14.447  25.505  19.588  1.00  0.00     0.000 C 
HETATM   36  C18 UNL     1      15.812  25.612  20.234  1.00  0.00     0.000 C 
HETATM   37  C19 UNL     1      16.938  25.308  19.265  1.00  0.00     0.005 C 
ENDBRANCH  31  32
ENDBRANCH  28  31
ENDBRANCH  26  27
ENDBRANCH  25  26
ENDBRANCH   4  25
TORSDOF 12
ENDMDL
