MODEL 1
REMARK VINA RESULT: -7.103288652      0.000      0.000
REMARK  0 active torsions:
REMARK  status: ('A' for Active; 'I' for Inactive)
ROOT
HETATM    1  N1  UNL     1       3.856  31.895  15.490  1.00  0.00    -0.191 NA
HETATM    2  C1  UNL     1       3.526  30.918  14.963  1.00  0.00     0.100 C 
HETATM    3  C2  UNL     1       3.131  29.683  14.307  1.00  0.00     0.055 A 
HETATM    4  C3  UNL     1       1.818  29.398  14.030  1.00  0.00     0.023 A 
HETATM    5  C4  UNL     1       1.451  28.216  13.404  1.00  0.00     0.002 A 
HETATM    6  C5  UNL     1       2.402  27.286  13.038  1.00  0.00     0.012 A 
HETATM    7  C6  UNL     1       3.726  27.552  13.306  1.00  0.00    -0.025 A 
HETATM    8  C7  UNL     1       4.679  26.622  12.940  1.00  0.00     0.012 A 
HETATM    9  C8  UNL     1       5.998  26.914  13.221  1.00  0.00     0.001 A 
HETATM   10  C9  UNL     1       6.362  28.104  13.851  1.00  0.00     0.001 A 
HETATM   11  C10 UNL     1       5.397  29.013  14.205  1.00  0.00     0.014 A 
HETATM   12  C11 UNL     1       4.081  28.741  13.935  1.00  0.00    -0.005 A 
ENDROOT
TORSDOF 0
ENDMDL
MODEL 2
REMARK VINA RESULT: -6.952741850      2.285      3.402
REMARK  0 active torsions:
REMARK  status: ('A' for Active; 'I' for Inactive)
ROOT
HETATM    1  N1  UNL     1       3.433  30.777  15.385  1.00  0.00    -0.191 NA
HETATM    2  C1  UNL     1       4.013  29.816  15.100  1.00  0.00     0.100 C 
HETATM    3  C2  UNL     1       4.723  28.597  14.751  1.00  0.00     0.055 A 
HETATM    4  C3  UNL     1       5.759  28.596  13.851  1.00  0.00     0.023 A 
HETATM    5  C4  UNL     1       6.431  27.427  13.523  1.00  0.00     0.002 A 
HETATM    6  C5  UNL     1       6.076  26.224  14.097  1.00  0.00     0.012 A 
HETATM    7  C6  UNL     1       5.040  26.203  15.003  1.00  0.00    -0.025 A 
HETATM    8  C7  UNL     1       4.683  24.999  15.578  1.00  0.00     0.012 A 
HETATM    9  C8  UNL     1       3.641  25.006  16.482  1.00  0.00     0.001 A 
HETATM   10  C9  UNL     1       2.968  26.184  16.807  1.00  0.00     0.001 A 
HETATM   11  C10 UNL     1       3.341  27.367  16.224  1.00  0.00     0.014 A 
HETATM   12  C11 UNL     1       4.374  27.382  15.323  1.00  0.00    -0.005 A 
ENDROOT
TORSDOF 0
ENDMDL
MODEL 3
REMARK VINA RESULT: -6.832009689      1.291      1.518
REMARK  0 active torsions:
REMARK  status: ('A' for Active; 'I' for Inactive)
ROOT
HETATM    1  N1  UNL     1       1.539  30.430  15.896  1.00  0.00    -0.191 NA
HETATM    2  C1  UNL     1       1.945  29.822  14.998  1.00  0.00     0.100 C 
HETATM    3  C2  UNL     1       2.472  29.053  13.883  1.00  0.00     0.055 A 
HETATM    4  C3  UNL     1       1.689  28.697  12.814  1.00  0.00     0.023 A 
HETATM    5  C4  UNL     1       2.201  27.962  11.755  1.00  0.00     0.002 A 
HETATM    6  C5  UNL     1       3.522  27.565  11.745  1.00  0.00     0.012 A 
HETATM    7  C6  UNL     1       4.326  27.912  12.807  1.00  0.00    -0.025 A 
HETATM    8  C7  UNL     1       5.649  27.515  12.799  1.00  0.00     0.012 A 
HETATM    9  C8  UNL     1       6.432  27.875  13.876  1.00  0.00     0.001 A 
HETATM   10  C9  UNL     1       5.912  28.613  14.939  1.00  0.00     0.001 A 
HETATM   11  C10 UNL     1       4.595  28.997  14.925  1.00  0.00     0.014 A 
HETATM   12  C11 UNL     1       3.800  28.649  13.864  1.00  0.00    -0.005 A 
ENDROOT
TORSDOF 0
ENDMDL
MODEL 4
REMARK VINA RESULT: -6.805999804      2.917      4.640
REMARK  0 active torsions:
REMARK  status: ('A' for Active; 'I' for Inactive)
ROOT
HETATM    1  N1  UNL     1       4.295  24.114  16.411  1.00  0.00    -0.191 NA
HETATM    2  C1  UNL     1       4.625  25.060  15.830  1.00  0.00     0.100 C 
HETATM    3  C2  UNL     1       5.029  26.260  15.117  1.00  0.00     0.055 A 
HETATM    4  C3  UNL     1       6.024  26.240  14.173  1.00  0.00     0.023 A 
HETATM    5  C4  UNL     1       6.404  27.391  13.497  1.00  0.00     0.002 A 
HETATM    6  C5  UNL     1       5.787  28.597  13.757  1.00  0.00     0.012 A 
HETATM    7  C6  UNL     1       4.785  28.640  14.700  1.00  0.00    -0.025 A 
HETATM    8  C7  UNL     1       4.167  29.847  14.962  1.00  0.00     0.012 A 
HETATM    9  C8  UNL     1       3.167  29.861  15.912  1.00  0.00     0.001 A 
HETATM   10  C9  UNL     1       2.790  28.701  16.589  1.00  0.00     0.001 A 
HETATM   11  C10 UNL     1       3.419  27.514  16.312  1.00  0.00     0.014 A 
HETATM   12  C11 UNL     1       4.414  27.478  15.371  1.00  0.00    -0.005 A 
ENDROOT
TORSDOF 0
ENDMDL
MODEL 5
REMARK VINA RESULT: -6.802346350      2.348      3.337
REMARK  0 active torsions:
REMARK  status: ('A' for Active; 'I' for Inactive)
ROOT
HETATM    1  N1  UNL     1       1.606  24.688  13.551  1.00  0.00    -0.191 NA
HETATM    2  C1  UNL     1       1.986  25.777  13.654  1.00  0.00     0.100 C 
HETATM    3  C2  UNL     1       2.482  27.138  13.774  1.00  0.00     0.055 A 
HETATM    4  C3  UNL     1       1.635  28.207  13.927  1.00  0.00     0.023 A 
HETATM    5  C4  UNL     1       2.119  29.502  14.040  1.00  0.00     0.002 A 
HETATM    6  C5  UNL     1       3.474  29.755  14.003  1.00  0.00     0.012 A 
HETATM    7  C6  UNL     1       4.342  28.698  13.851  1.00  0.00    -0.025 A 
HETATM    8  C7  UNL     1       5.699  28.950  13.814  1.00  0.00     0.012 A 
HETATM    9  C8  UNL     1       6.546  27.871  13.660  1.00  0.00     0.001 A 
HETATM   10  C9  UNL     1       6.055  26.571  13.545  1.00  0.00     0.001 A 
HETATM   11  C10 UNL     1       4.702  26.345  13.586  1.00  0.00     0.014 A 
HETATM   12  C11 UNL     1       3.844  27.403  13.738  1.00  0.00    -0.005 A 
ENDROOT
TORSDOF 0
ENDMDL
