MODEL 1
REMARK VINA RESULT: -7.063740467      0.000      0.000
REMARK  7 active torsions:
REMARK  status: ('A' for Active; 'I' for Inactive)
REMARK    1  A    between atoms: O1_2  and  C2_3 
REMARK    2  A    between atoms: C2_3  and  O2_4 
REMARK    3  A    between atoms: O2_4  and  C3_5 
REMARK    4  A    between atoms: C9_12  and  C10_13 
REMARK    5  A    between atoms: C10_13  and  O3_14 
REMARK    6  A    between atoms: C13_21  and  O4_22 
REMARK    7  A    between atoms: C16_25  and  O5_26 
ROOT
HETATM    1  C3  UNL     1     -16.066   3.957  10.437  1.00  0.00     0.162 C 
HETATM    2  C4  UNL     1     -15.860   4.443   9.002  1.00  0.00     0.044 C 
HETATM    3  C5  UNL     1     -15.018   5.650   8.877  1.00  0.00     0.020 C 
HETATM    4  C6  UNL     1     -15.322   6.775   9.829  1.00  0.00     0.023 C 
HETATM    5  C7  UNL     1     -14.285   7.800   9.337  1.00  0.00     0.061 C 
HETATM    6  S1  UNL     1     -14.124   9.185  10.453  1.00  0.00    -0.092 SA
HETATM    7  C8  UNL     1     -13.046   6.899   9.343  1.00  0.00     0.049 C 
HETATM    8  C9  UNL     1     -13.562   5.509   9.000  1.00  0.00     0.056 C 
HETATM    9  N1  UNL     1     -13.068   4.595   9.977  1.00  0.00    -0.375 N 
ATOM     10  H1  UNL     1     -12.137   4.846  10.312  1.00  0.00     0.160 HD
HETATM   11  C11 UNL     1     -13.562   3.428  10.588  1.00  0.00     0.082 A 
HETATM   12  C12 UNL     1     -12.586   2.539  10.983  1.00  0.00     0.176 A 
HETATM   13  F1  UNL     1     -11.291   2.879  10.770  1.00  0.00    -0.201 F 
HETATM   14  C13 UNL     1     -12.913   1.341  11.579  1.00  0.00     0.111 A 
HETATM   15  C15 UNL     1     -14.243   1.063  11.765  1.00  0.00     0.077 A 
HETATM   16  C16 UNL     1     -15.253   1.949  11.373  1.00  0.00     0.082 A 
HETATM   17  C18 UNL     1     -14.925   3.134  10.784  1.00  0.00     0.034 A 
ENDROOT
BRANCH   1  18
HETATM   18  O2  UNL     1     -17.273   3.302  10.448  1.00  0.00    -0.357 OA
BRANCH  18  19
HETATM   19  C2  UNL     1     -18.340   4.125  10.871  1.00  0.00     0.337 C 
BRANCH  19  20
HETATM   20  O1  UNL     1     -18.195   4.487  12.213  1.00  0.00    -0.372 OA
HETATM   21  C1  UNL     1     -18.990   3.697  13.034  1.00  0.00     0.204 C 
ENDBRANCH  19  20
ENDBRANCH  18  19
ENDBRANCH   1  18
BRANCH  16  22
HETATM   22  O5  UNL     1     -16.560   1.580  11.600  1.00  0.00    -0.355 OA
HETATM   23  C17 UNL     1     -16.904   0.583  12.544  1.00  0.00     0.210 C 
ENDBRANCH  16  22
BRANCH   8  24
HETATM   24  C10 UNL     1     -13.000   5.088   7.655  1.00  0.00     0.195 C 
BRANCH  24  25
HETATM   25  O3  UNL     1     -13.822   5.636   6.680  1.00  0.00    -0.398 OA
ATOM     26  H3  UNL     1     -13.818   5.038   5.941  1.00  0.00     0.209 HD
ENDBRANCH  24  25
ENDBRANCH   8  24
BRANCH  14  27
HETATM   27  O4  UNL     1     -11.913   0.435  11.982  1.00  0.00    -0.353 OA
HETATM   28  C14 UNL     1     -11.777   0.164  13.363  1.00  0.00     0.210 C 
ENDBRANCH  14  27
TORSDOF 7
ENDMDL
MODEL 2
REMARK VINA RESULT: -6.496145746      2.353      4.628
REMARK  7 active torsions:
REMARK  status: ('A' for Active; 'I' for Inactive)
REMARK    1  A    between atoms: O1_2  and  C2_3 
REMARK    2  A    between atoms: C2_3  and  O2_4 
REMARK    3  A    between atoms: O2_4  and  C3_5 
REMARK    4  A    between atoms: C9_12  and  C10_13 
REMARK    5  A    between atoms: C10_13  and  O3_14 
REMARK    6  A    between atoms: C13_21  and  O4_22 
REMARK    7  A    between atoms: C16_25  and  O5_26 
ROOT
HETATM    1  C3  UNL     1     -13.970   2.791  10.120  1.00  0.00     0.162 C 
HETATM    2  C4  UNL     1     -13.067   3.973  10.475  1.00  0.00     0.044 C 
HETATM    3  C5  UNL     1     -13.086   5.075   9.492  1.00  0.00     0.020 C 
HETATM    4  C6  UNL     1     -12.975   4.679   8.045  1.00  0.00     0.023 C 
HETATM    5  C7  UNL     1     -12.986   6.078   7.405  1.00  0.00     0.061 C 
HETATM    6  S1  UNL     1     -13.189   6.008   5.632  1.00  0.00    -0.092 SA
HETATM    7  C8  UNL     1     -14.220   6.647   8.111  1.00  0.00     0.049 C 
HETATM    8  C9  UNL     1     -14.229   5.996   9.486  1.00  0.00     0.056 C 
HETATM    9  N1  UNL     1     -15.524   5.442   9.711  1.00  0.00    -0.375 N 
ATOM     10  H1  UNL     1     -16.266   5.995   9.283  1.00  0.00     0.160 HD
HETATM   11  C11 UNL     1     -16.018   4.310  10.385  1.00  0.00     0.082 A 
HETATM   12  C12 UNL     1     -17.295   4.461  10.882  1.00  0.00     0.176 A 
HETATM   13  F1  UNL     1     -17.931   5.636  10.658  1.00  0.00    -0.201 F 
HETATM   14  C13 UNL     1     -17.910   3.447  11.583  1.00  0.00     0.111 A 
HETATM   15  C15 UNL     1     -17.208   2.284  11.771  1.00  0.00     0.077 A 
HETATM   16  C16 UNL     1     -15.911   2.106  11.276  1.00  0.00     0.082 A 
HETATM   17  C18 UNL     1     -15.306   3.112  10.581  1.00  0.00     0.034 A 
ENDROOT
BRANCH   1  18
HETATM   18  O2  UNL     1     -13.405   1.689  10.715  1.00  0.00    -0.357 OA
BRANCH  18  19
HETATM   19  C2  UNL     1     -12.189   1.982  11.369  1.00  0.00     0.337 C 
BRANCH  19  20
HETATM   20  O1  UNL     1     -12.112   1.332  12.604  1.00  0.00    -0.372 OA
HETATM   21  C1  UNL     1     -11.740   0.003  12.449  1.00  0.00     0.204 C 
ENDBRANCH  19  20
ENDBRANCH  18  19
ENDBRANCH   1  18
BRANCH  16  22
HETATM   22  O5  UNL     1     -15.286   0.903  11.517  1.00  0.00    -0.355 OA
HETATM   23  C17 UNL     1     -15.476   0.189  12.725  1.00  0.00     0.210 C 
ENDBRANCH  16  22
BRANCH   8  24
HETATM   24  C10 UNL     1     -13.999   7.061  10.542  1.00  0.00     0.195 C 
BRANCH  24  25
HETATM   25  O3  UNL     1     -12.698   7.521  10.382  1.00  0.00    -0.398 OA
ATOM     26  H3  UNL     1     -12.258   6.915   9.796  1.00  0.00     0.209 HD
ENDBRANCH  24  25
ENDBRANCH   8  24
BRANCH  14  27
HETATM   27  O4  UNL     1     -19.214   3.603  12.090  1.00  0.00    -0.353 OA
HETATM   28  C14 UNL     1     -19.363   3.947  13.453  1.00  0.00     0.210 C 
ENDBRANCH  14  27
TORSDOF 7
ENDMDL
MODEL 3
REMARK VINA RESULT: -6.258023529      2.515      4.676
REMARK  7 active torsions:
REMARK  status: ('A' for Active; 'I' for Inactive)
REMARK    1  A    between atoms: O1_2  and  C2_3 
REMARK    2  A    between atoms: C2_3  and  O2_4 
REMARK    3  A    between atoms: O2_4  and  C3_5 
REMARK    4  A    between atoms: C9_12  and  C10_13 
REMARK    5  A    between atoms: C10_13  and  O3_14 
REMARK    6  A    between atoms: C13_21  and  O4_22 
REMARK    7  A    between atoms: C16_25  and  O5_26 
ROOT
HETATM    1  C3  UNL     1     -14.837   3.883   9.321  1.00  0.00     0.162 C 
HETATM    2  C4  UNL     1     -13.644   4.782   9.645  1.00  0.00     0.044 C 
HETATM    3  C5  UNL     1     -13.637   6.075   8.931  1.00  0.00     0.020 C 
HETATM    4  C6  UNL     1     -13.936   6.022   7.457  1.00  0.00     0.023 C 
HETATM    5  C7  UNL     1     -13.783   7.516   7.121  1.00  0.00     0.061 C 
HETATM    6  S1  UNL     1     -14.381   7.904   5.484  1.00  0.00    -0.092 SA
HETATM    7  C8  UNL     1     -14.678   8.095   8.221  1.00  0.00     0.049 C 
HETATM    8  C9  UNL     1     -14.526   7.145   9.400  1.00  0.00     0.056 C 
HETATM    9  N1  UNL     1     -15.828   6.773   9.847  1.00  0.00    -0.375 N 
ATOM     10  H1  UNL     1     -16.508   7.526   9.742  1.00  0.00     0.160 HD
HETATM   11  C11 UNL     1     -16.396   5.610  10.399  1.00  0.00     0.082 A 
HETATM   12  C12 UNL     1     -17.469   5.844  11.232  1.00  0.00     0.176 A 
HETATM   13  F1  UNL     1     -17.867   7.128  11.411  1.00  0.00    -0.201 F 
HETATM   14  C13 UNL     1     -18.119   4.808  11.863  1.00  0.00     0.111 A 
HETATM   15  C15 UNL     1     -17.664   3.535  11.635  1.00  0.00     0.077 A 
HETATM   16  C16 UNL     1     -16.578   3.270  10.793  1.00  0.00     0.082 A 
HETATM   17  C18 UNL     1     -15.936   4.299  10.169  1.00  0.00     0.034 A 
ENDROOT
BRANCH   1  18
HETATM   18  O2  UNL     1     -14.409   2.594   9.525  1.00  0.00    -0.357 OA
BRANCH  18  19
HETATM   19  C2  UNL     1     -13.022   2.511   9.778  1.00  0.00     0.337 C 
BRANCH  19  20
HETATM   20  O1  UNL     1     -12.691   1.291  10.375  1.00  0.00    -0.372 OA
HETATM   21  C1  UNL     1     -12.537   1.431  11.748  1.00  0.00     0.204 C 
ENDBRANCH  19  20
ENDBRANCH  18  19
ENDBRANCH   1  18
BRANCH  16  22
HETATM   22  O5  UNL     1     -16.193   1.959  10.627  1.00  0.00    -0.355 OA
HETATM   23  C17 UNL     1     -16.296   1.010  11.673  1.00  0.00     0.210 C 
ENDBRANCH  16  22
BRANCH   8  24
HETATM   24  C10 UNL     1     -13.843   7.875  10.542  1.00  0.00     0.195 C 
BRANCH  24  25
HETATM   25  O3  UNL     1     -12.474   7.776  10.329  1.00  0.00    -0.398 OA
ATOM     26  H3  UNL     1     -12.143   7.126  10.938  1.00  0.00     0.209 HD
ENDBRANCH  24  25
ENDBRANCH   8  24
BRANCH  14  27
HETATM   27  O4  UNL     1     -19.215   5.051  12.714  1.00  0.00    -0.353 OA
HETATM   28  C14 UNL     1     -19.570   4.047  13.645  1.00  0.00     0.210 C 
ENDBRANCH  14  27
TORSDOF 7
ENDMDL
MODEL 4
REMARK VINA RESULT: -6.243778727      3.381      5.773
REMARK  7 active torsions:
REMARK  status: ('A' for Active; 'I' for Inactive)
REMARK    1  A    between atoms: O1_2  and  C2_3 
REMARK    2  A    between atoms: C2_3  and  O2_4 
REMARK    3  A    between atoms: O2_4  and  C3_5 
REMARK    4  A    between atoms: C9_12  and  C10_13 
REMARK    5  A    between atoms: C10_13  and  O3_14 
REMARK    6  A    between atoms: C13_21  and  O4_22 
REMARK    7  A    between atoms: C16_25  and  O5_26 
ROOT
HETATM    1  C3  UNL     1     -14.896   6.533   8.568  1.00  0.00     0.162 C 
HETATM    2  C4  UNL     1     -13.937   7.612   9.070  1.00  0.00     0.044 C 
HETATM    3  C5  UNL     1     -14.412   8.996   8.872  1.00  0.00     0.020 C 
HETATM    4  C6  UNL     1     -14.981   9.316   7.517  1.00  0.00     0.023 C 
HETATM    5  C7  UNL     1     -15.293  10.808   7.727  1.00  0.00     0.061 C 
HETATM    6  S1  UNL     1     -16.292  11.482   6.408  1.00  0.00    -0.092 SA
HETATM    7  C8  UNL     1     -16.063  10.702   9.046  1.00  0.00     0.049 C 
HETATM    8  C9  UNL     1     -15.432   9.529   9.783  1.00  0.00     0.056 C 
HETATM    9  N1  UNL     1     -16.474   8.647  10.196  1.00  0.00    -0.375 N 
ATOM     10  H1  UNL     1     -17.332   9.142  10.439  1.00  0.00     0.160 HD
HETATM   11  C11 UNL     1     -16.596   7.253  10.347  1.00  0.00     0.082 A 
HETATM   12  C12 UNL     1     -17.499   6.866  11.314  1.00  0.00     0.176 A 
HETATM   13  F1  UNL     1     -18.171   7.835  11.982  1.00  0.00    -0.201 F 
HETATM   14  C13 UNL     1     -17.715   5.535  11.592  1.00  0.00     0.111 A 
HETATM   15  C15 UNL     1     -17.002   4.608  10.877  1.00  0.00     0.077 A 
HETATM   16  C16 UNL     1     -16.080   4.976   9.889  1.00  0.00     0.082 A 
HETATM   17  C18 UNL     1     -15.869   6.295   9.615  1.00  0.00     0.034 A 
ENDROOT
BRANCH   1  18
HETATM   18  O2  UNL     1     -14.116   5.447   8.250  1.00  0.00    -0.357 OA
BRANCH  18  19
HETATM   19  C2  UNL     1     -13.152   5.737   7.260  1.00  0.00     0.337 C 
BRANCH  19  20
HETATM   20  O1  UNL     1     -13.754   5.940   6.014  1.00  0.00    -0.372 OA
HETATM   21  C1  UNL     1     -13.052   6.877   5.266  1.00  0.00     0.204 C 
ENDBRANCH  19  20
ENDBRANCH  18  19
ENDBRANCH   1  18
BRANCH  16  22
HETATM   22  O5  UNL     1     -15.410   3.973   9.225  1.00  0.00    -0.355 OA
HETATM   23  C17 UNL     1     -15.798   2.616   9.331  1.00  0.00     0.210 C 
ENDBRANCH  16  22
BRANCH   8  24
HETATM   24  C10 UNL     1     -14.744  10.040  11.035  1.00  0.00     0.195 C 
BRANCH  24  25
HETATM   25  O3  UNL     1     -15.739  10.477  11.899  1.00  0.00    -0.398 OA
ATOM     26  H3  UNL     1     -15.794   9.844  12.605  1.00  0.00     0.209 HD
ENDBRANCH  24  25
ENDBRANCH   8  24
BRANCH  14  27
HETATM   27  O4  UNL     1     -18.639   5.142  12.581  1.00  0.00    -0.353 OA
HETATM   28  C14 UNL     1     -18.846   3.759  12.786  1.00  0.00     0.210 C 
ENDBRANCH  14  27
TORSDOF 7
ENDMDL
MODEL 5
REMARK VINA RESULT: -6.170688584      3.187      6.994
REMARK  7 active torsions:
REMARK  status: ('A' for Active; 'I' for Inactive)
REMARK    1  A    between atoms: O1_2  and  C2_3 
REMARK    2  A    between atoms: C2_3  and  O2_4 
REMARK    3  A    between atoms: O2_4  and  C3_5 
REMARK    4  A    between atoms: C9_12  and  C10_13 
REMARK    5  A    between atoms: C10_13  and  O3_14 
REMARK    6  A    between atoms: C13_21  and  O4_22 
REMARK    7  A    between atoms: C16_25  and  O5_26 
ROOT
HETATM    1  C3  UNL     1     -13.536   6.503   9.227  1.00  0.00     0.162 C 
HETATM    2  C4  UNL     1     -13.928   5.299   8.370  1.00  0.00     0.044 C 
HETATM    3  C5  UNL     1     -14.026   4.024   9.110  1.00  0.00     0.020 C 
HETATM    4  C6  UNL     1     -12.897   3.716  10.055  1.00  0.00     0.023 C 
HETATM    5  C7  UNL     1     -13.362   2.336  10.552  1.00  0.00     0.061 C 
HETATM    6  S1  UNL     1     -12.416   1.770  11.957  1.00  0.00    -0.092 SA
HETATM    7  C8  UNL     1     -14.802   2.697  10.927  1.00  0.00     0.049 C 
HETATM    8  C9  UNL     1     -15.213   3.778   9.937  1.00  0.00     0.056 C 
HETATM    9  N1  UNL     1     -15.747   4.878  10.670  1.00  0.00    -0.375 N 
ATOM     10  H1  UNL     1     -16.248   4.583  11.509  1.00  0.00     0.160 HD
HETATM   11  C11 UNL     1     -15.745   6.276  10.509  1.00  0.00     0.082 A 
HETATM   12  C12 UNL     1     -16.842   6.910  11.053  1.00  0.00     0.176 A 
HETATM   13  F1  UNL     1     -17.768   6.149  11.685  1.00  0.00    -0.201 F 
HETATM   14  C13 UNL     1     -16.993   8.275  10.959  1.00  0.00     0.111 A 
HETATM   15  C15 UNL     1     -16.016   8.983  10.306  1.00  0.00     0.077 A 
HETATM   16  C16 UNL     1     -14.893   8.363   9.746  1.00  0.00     0.082 A 
HETATM   17  C18 UNL     1     -14.746   7.010   9.842  1.00  0.00     0.034 A 
ENDROOT
BRANCH   1  18
HETATM   18  O2  UNL     1     -12.906   7.383   8.382  1.00  0.00    -0.357 OA
BRANCH  18  19
HETATM   19  C2  UNL     1     -11.856   6.786   7.651  1.00  0.00     0.337 C 
BRANCH  19  20
HETATM   20  O1  UNL     1     -10.650   7.460   7.861  1.00  0.00    -0.372 OA
HETATM   21  C1  UNL     1     -10.368   8.322   6.808  1.00  0.00     0.204 C 
ENDBRANCH  19  20
ENDBRANCH  18  19
ENDBRANCH   1  18
BRANCH  16  22
HETATM   22  O5  UNL     1     -13.967   9.157   9.109  1.00  0.00    -0.355 OA
HETATM   23  C17 UNL     1     -13.811  10.528   9.427  1.00  0.00     0.210 C 
ENDBRANCH  16  22
BRANCH   8  24
HETATM   24  C10 UNL     1     -16.320   3.242   9.047  1.00  0.00     0.195 C 
BRANCH  24  25
HETATM   25  O3  UNL     1     -15.957   1.954   8.676  1.00  0.00    -0.398 OA
ATOM     26  H3  UNL     1     -16.072   1.892   7.735  1.00  0.00     0.209 HD
ENDBRANCH  24  25
ENDBRANCH   8  24
BRANCH  14  27
HETATM   27  O4  UNL     1     -18.115   8.920  11.516  1.00  0.00    -0.353 OA
HETATM   28  C14 UNL     1     -18.473  10.189  11.007  1.00  0.00     0.210 C 
ENDBRANCH  14  27
TORSDOF 7
ENDMDL
