MODEL 1
REMARK VINA RESULT: -8.034379087      0.000      0.000
REMARK  9 active torsions:
REMARK  status: ('A' for Active; 'I' for Inactive)
REMARK    1  A    between atoms: C2_2  and  N1_3 
REMARK    2  A    between atoms: N1_3  and  C3_5 
REMARK    3  A    between atoms: C4_8  and  O1_9 
REMARK    4  A    between atoms: O1_9  and  C5_10 
REMARK    5  A    between atoms: C5_10  and  C6_11 
REMARK    6  A    between atoms: C6_11  and  C7_12 
REMARK    7  A    between atoms: C7_12  and  N3_13 
REMARK    8  A    between atoms: C12_23  and  N6_24 
REMARK    9  A    between atoms: N6_24  and  C13_26 
ROOT
HETATM    1  C3  UNL     1      -9.274  -7.808  -7.418  1.00  0.00     0.695 A 
HETATM    2  N2  UNL     1      -8.111  -7.185  -7.211  1.00  0.00    -0.154 N 
ATOM      3  H2  UNL     1      -7.890  -6.913  -6.254  1.00  0.00     0.188 HD
HETATM    4  C4  UNL     1      -7.215  -6.889  -8.152  1.00  0.00     0.252 A 
HETATM    5  N5  UNL     1      -7.539  -7.263  -9.429  1.00  0.00    -0.154 N 
ATOM      6  H5  UNL     1      -6.897  -7.064 -10.196  1.00  0.00     0.188 HD
HETATM    7  C12 UNL     1      -8.701  -7.891  -9.674  1.00  0.00     0.695 A 
HETATM    8  N7  UNL     1      -9.581  -8.170  -8.672  1.00  0.00    -0.022 N 
ATOM      9  H7  UNL     1     -10.460  -8.647  -8.872  1.00  0.00     0.203 HD
ENDROOT
BRANCH   4  10
HETATM   10  O1  UNL     1      -6.025  -6.259  -7.984  1.00  0.00    -0.321 OA
BRANCH  10  11
HETATM   11  C5  UNL     1      -4.895  -6.264  -8.811  1.00  0.00     0.180 C 
BRANCH  11  12
HETATM   12  C6  UNL     1      -3.750  -6.895  -8.104  1.00  0.00     0.057 C 
BRANCH  12  13
HETATM   13  C7  UNL     1      -2.731  -5.889  -7.612  1.00  0.00     0.274 C 
BRANCH  13  14
HETATM   14  N3  UNL     1      -2.569  -5.915  -6.175  1.00  0.00     0.091 N 
HETATM   15  C8  UNL     1      -3.269  -7.068  -5.665  1.00  0.00     0.300 C 
HETATM   16  C9  UNL     1      -3.170  -7.206  -4.169  1.00  0.00     0.262 C 
HETATM   17  N4  UNL     1      -3.247  -5.968  -3.471  1.00  0.00    -0.072 N 
HETATM   18  C10 UNL     1      -3.718  -4.865  -4.272  1.00  0.00     0.262 C 
ATOM     19  H42 UNL     1      -3.817  -6.067  -2.630  1.00  0.00     0.277 HD
ATOM     20  H41 UNL     1      -2.347  -5.742  -3.046  1.00  0.00     0.277 HD
HETATM   21  C11 UNL     1      -2.961  -4.686  -5.546  1.00  0.00     0.300 C 
ENDBRANCH  13  14
ENDBRANCH  12  13
ENDBRANCH  11  12
ENDBRANCH  10  11
ENDBRANCH   4  10
BRANCH   1  22
HETATM   22  N1  UNL     1     -10.054  -8.038  -6.425  1.00  0.00    -0.226 N 
ATOM     23  H1  UNL     1      -9.890  -7.506  -5.570  1.00  0.00     0.177 HD
BRANCH  22  24
HETATM   24  C2  UNL     1     -11.138  -8.981  -6.414  1.00  0.00     0.133 C 
HETATM   25  C1  UNL     1     -10.732 -10.302  -5.801  1.00  0.00     0.027 C 
ENDBRANCH  22  24
ENDBRANCH   1  22
BRANCH   7  26
HETATM   26  N6  UNL     1      -9.067  -8.271 -10.852  1.00  0.00    -0.226 N 
ATOM     27  H6  UNL     1      -8.644  -7.865 -11.687  1.00  0.00     0.177 HD
BRANCH  26  28
HETATM   28  C13 UNL     1     -10.088  -9.282 -10.956  1.00  0.00     0.133 C 
HETATM   29  C14 UNL     1     -11.460  -8.645 -11.022  1.00  0.00     0.027 C 
ENDBRANCH  26  28
ENDBRANCH   7  26
TORSDOF 9
ENDMDL
MODEL 2
REMARK VINA RESULT: -7.890562692      0.770      3.019
REMARK  9 active torsions:
REMARK  status: ('A' for Active; 'I' for Inactive)
REMARK    1  A    between atoms: C2_2  and  N1_3 
REMARK    2  A    between atoms: N1_3  and  C3_5 
REMARK    3  A    between atoms: C4_8  and  O1_9 
REMARK    4  A    between atoms: O1_9  and  C5_10 
REMARK    5  A    between atoms: C5_10  and  C6_11 
REMARK    6  A    between atoms: C6_11  and  C7_12 
REMARK    7  A    between atoms: C7_12  and  N3_13 
REMARK    8  A    between atoms: C12_23  and  N6_24 
REMARK    9  A    between atoms: N6_24  and  C13_26 
ROOT
HETATM    1  C3  UNL     1      -9.607  -8.061  -9.622  1.00  0.00     0.695 A 
HETATM    2  N2  UNL     1      -8.421  -7.447  -9.618  1.00  0.00    -0.154 N 
ATOM      3  H2  UNL     1      -7.990  -7.258 -10.522  1.00  0.00     0.188 HD
HETATM    4  C4  UNL     1      -7.754  -7.061  -8.531  1.00  0.00     0.252 A 
HETATM    5  N5  UNL     1      -8.355  -7.330  -7.330  1.00  0.00    -0.154 N 
ATOM      6  H5  UNL     1      -7.896  -7.061  -6.460  1.00  0.00     0.188 HD
HETATM    7  C12 UNL     1      -9.548  -7.946  -7.296  1.00  0.00     0.695 A 
HETATM    8  N7  UNL     1     -10.187  -8.319  -8.440  1.00  0.00    -0.022 N 
ATOM      9  H7  UNL     1     -11.092  -8.787  -8.399  1.00  0.00     0.203 HD
ENDROOT
BRANCH   4  10
HETATM   10  O1  UNL     1      -6.550  -6.437  -8.484  1.00  0.00    -0.321 OA
BRANCH  10  11
HETATM   11  C5  UNL     1      -5.394  -6.684  -9.234  1.00  0.00     0.180 C 
BRANCH  11  12
HETATM   12  C6  UNL     1      -4.220  -6.813  -8.330  1.00  0.00     0.057 C 
BRANCH  12  13
HETATM   13  C7  UNL     1      -3.786  -5.492  -7.731  1.00  0.00     0.274 C 
BRANCH  13  14
HETATM   14  N3  UNL     1      -3.995  -5.433  -6.301  1.00  0.00     0.091 N 
HETATM   15  C8  UNL     1      -2.977  -4.584  -5.733  1.00  0.00     0.300 C 
HETATM   16  C9  UNL     1      -3.092  -4.440  -4.238  1.00  0.00     0.262 C 
HETATM   17  N4  UNL     1      -3.461  -5.643  -3.572  1.00  0.00    -0.072 N 
HETATM   18  C10 UNL     1      -3.346  -6.829  -4.385  1.00  0.00     0.262 C 
ATOM     19  H42 UNL     1      -2.929  -5.749  -2.708  1.00  0.00     0.277 HD
ATOM     20  H41 UNL     1      -4.403  -5.563  -3.188  1.00  0.00     0.277 HD
HETATM   21  C11 UNL     1      -4.061  -6.730  -5.690  1.00  0.00     0.300 C 
ENDBRANCH  13  14
ENDBRANCH  12  13
ENDBRANCH  11  12
ENDBRANCH  10  11
ENDBRANCH   4  10
BRANCH   1  22
HETATM   22  N1  UNL     1     -10.150  -8.383 -10.739  1.00  0.00    -0.226 N 
ATOM     23  H1  UNL     1      -9.671  -8.091 -11.591  1.00  0.00     0.177 HD
BRANCH  22  24
HETATM   24  C2  UNL     1     -11.374  -9.119 -10.893  1.00  0.00     0.133 C 
HETATM   25  C1  UNL     1     -12.574  -8.324 -10.431  1.00  0.00     0.027 C 
ENDBRANCH  22  24
ENDBRANCH   1  22
BRANCH   7  26
HETATM   26  N6  UNL     1     -10.169  -8.228  -6.200  1.00  0.00    -0.226 N 
ATOM     27  H6  UNL     1      -9.950  -7.737  -5.333  1.00  0.00     0.177 HD
BRANCH  26  28
HETATM   28  C13 UNL     1     -11.180  -9.254  -6.234  1.00  0.00     0.133 C 
HETATM   29  C14 UNL     1     -10.718 -10.477  -5.469  1.00  0.00     0.027 C 
ENDBRANCH  26  28
ENDBRANCH   7  26
TORSDOF 9
ENDMDL
MODEL 3
REMARK VINA RESULT: -7.882734566      0.599      1.167
REMARK  9 active torsions:
REMARK  status: ('A' for Active; 'I' for Inactive)
REMARK    1  A    between atoms: C2_2  and  N1_3 
REMARK    2  A    between atoms: N1_3  and  C3_5 
REMARK    3  A    between atoms: C4_8  and  O1_9 
REMARK    4  A    between atoms: O1_9  and  C5_10 
REMARK    5  A    between atoms: C5_10  and  C6_11 
REMARK    6  A    between atoms: C6_11  and  C7_12 
REMARK    7  A    between atoms: C7_12  and  N3_13 
REMARK    8  A    between atoms: C12_23  and  N6_24 
REMARK    9  A    between atoms: N6_24  and  C13_26 
ROOT
HETATM    1  C3  UNL     1      -9.471  -7.900  -7.371  1.00  0.00     0.695 A 
HETATM    2  N2  UNL     1      -8.288  -7.284  -7.321  1.00  0.00    -0.154 N 
ATOM      3  H2  UNL     1      -7.938  -7.019  -6.401  1.00  0.00     0.188 HD
HETATM    4  C4  UNL     1      -7.527  -6.986  -8.374  1.00  0.00     0.252 A 
HETATM    5  N5  UNL     1      -8.023  -7.352  -9.597  1.00  0.00    -0.154 N 
ATOM      6  H5  UNL     1      -7.490  -7.152 -10.443  1.00  0.00     0.188 HD
HETATM    7  C12 UNL     1      -9.211  -7.974  -9.685  1.00  0.00     0.695 A 
HETATM    8  N7  UNL     1      -9.948  -8.254  -8.573  1.00  0.00    -0.022 N 
ATOM      9  H7  UNL     1     -10.849  -8.726  -8.655  1.00  0.00     0.203 HD
ENDROOT
BRANCH   4  10
HETATM   10  O1  UNL     1      -6.322  -6.363  -8.366  1.00  0.00    -0.321 OA
BRANCH  10  11
HETATM   11  C5  UNL     1      -5.170  -6.651  -9.108  1.00  0.00     0.180 C 
BRANCH  11  12
HETATM   12  C6  UNL     1      -3.989  -6.724  -8.207  1.00  0.00     0.057 C 
BRANCH  12  13
HETATM   13  C7  UNL     1      -3.651  -5.395  -7.566  1.00  0.00     0.274 C 
BRANCH  13  14
HETATM   14  N3  UNL     1      -3.895  -5.385  -6.141  1.00  0.00     0.091 N 
HETATM   15  C8  UNL     1      -2.925  -4.512  -5.525  1.00  0.00     0.300 C 
HETATM   16  C9  UNL     1      -3.080  -4.416  -4.030  1.00  0.00     0.262 C 
HETATM   17  N4  UNL     1      -3.414  -5.651  -3.407  1.00  0.00    -0.072 N 
HETATM   18  C10 UNL     1      -3.231  -6.808  -4.248  1.00  0.00     0.262 C 
ATOM     19  H42 UNL     1      -2.898  -5.760  -2.533  1.00  0.00     0.277 HD
ATOM     20  H41 UNL     1      -4.367  -5.621  -3.043  1.00  0.00     0.277 HD
HETATM   21  C11 UNL     1      -3.920  -6.701  -5.568  1.00  0.00     0.300 C 
ENDBRANCH  13  14
ENDBRANCH  12  13
ENDBRANCH  11  12
ENDBRANCH  10  11
ENDBRANCH   4  10
BRANCH   1  22
HETATM   22  N1  UNL     1     -10.110  -8.132  -6.283  1.00  0.00    -0.226 N 
ATOM     23  H1  UNL     1      -9.815  -7.622  -5.450  1.00  0.00     0.177 HD
BRANCH  22  24
HETATM   24  C2  UNL     1     -11.207  -9.049  -6.135  1.00  0.00     0.133 C 
HETATM   25  C1  UNL     1     -10.748 -10.408  -5.657  1.00  0.00     0.027 C 
ENDBRANCH  22  24
ENDBRANCH   1  22
BRANCH   7  26
HETATM   26  N6  UNL     1      -9.735  -8.345 -10.803  1.00  0.00    -0.226 N 
ATOM     27  H6  UNL     1      -9.432  -7.933 -11.686  1.00  0.00     0.177 HD
BRANCH  26  28
HETATM   28  C13 UNL     1     -10.760  -9.357 -10.774  1.00  0.00     0.133 C 
HETATM   29  C14 UNL     1     -12.134  -8.721 -10.807  1.00  0.00     0.027 C 
ENDBRANCH  26  28
ENDBRANCH   7  26
TORSDOF 9
ENDMDL
MODEL 4
REMARK VINA RESULT: -7.878454300      1.070      1.188
REMARK  9 active torsions:
REMARK  status: ('A' for Active; 'I' for Inactive)
REMARK    1  A    between atoms: C2_2  and  N1_3 
REMARK    2  A    between atoms: N1_3  and  C3_5 
REMARK    3  A    between atoms: C4_8  and  O1_9 
REMARK    4  A    between atoms: O1_9  and  C5_10 
REMARK    5  A    between atoms: C5_10  and  C6_11 
REMARK    6  A    between atoms: C6_11  and  C7_12 
REMARK    7  A    between atoms: C7_12  and  N3_13 
REMARK    8  A    between atoms: C12_23  and  N6_24 
REMARK    9  A    between atoms: N6_24  and  C13_26 
ROOT
HETATM    1  C3  UNL     1      -9.191  -7.710  -7.408  1.00  0.00     0.695 A 
HETATM    2  N2  UNL     1      -8.019  -7.124  -7.153  1.00  0.00    -0.154 N 
ATOM      3  H2  UNL     1      -7.822  -6.873  -6.185  1.00  0.00     0.188 HD
HETATM    4  C4  UNL     1      -7.084  -6.840  -8.059  1.00  0.00     0.252 A 
HETATM    5  N5  UNL     1      -7.375  -7.185  -9.352  1.00  0.00    -0.154 N 
ATOM      6  H5  UNL     1      -6.703  -6.993 -10.094  1.00  0.00     0.188 HD
HETATM    7  C12 UNL     1      -8.546  -7.776  -9.645  1.00  0.00     0.695 A 
HETATM    8  N7  UNL     1      -9.466  -8.045  -8.677  1.00  0.00    -0.022 N 
ATOM      9  H7  UNL     1     -10.351  -8.493  -8.914  1.00  0.00     0.203 HD
ENDROOT
BRANCH   4  10
HETATM   10  O1  UNL     1      -5.883  -6.247  -7.842  1.00  0.00    -0.321 OA
BRANCH  10  11
HETATM   11  C5  UNL     1      -4.727  -6.272  -8.632  1.00  0.00     0.180 C 
BRANCH  11  12
HETATM   12  C6  UNL     1      -3.702  -5.357  -8.063  1.00  0.00     0.057 C 
BRANCH  12  13
HETATM   13  C7  UNL     1      -3.623  -5.423  -6.553  1.00  0.00     0.274 C 
BRANCH  13  14
HETATM   14  N3  UNL     1      -2.687  -6.421  -6.086  1.00  0.00     0.091 N 
HETATM   15  C8  UNL     1      -3.327  -7.184  -5.043  1.00  0.00     0.300 C 
HETATM   16  C9  UNL     1      -2.446  -8.265  -4.474  1.00  0.00     0.262 C 
HETATM   17  N4  UNL     1      -1.083  -7.880  -4.332  1.00  0.00    -0.072 N 
HETATM   18  C10 UNL     1      -0.853  -6.461  -4.448  1.00  0.00     0.262 C 
ATOM     19  H42 UNL     1      -0.702  -8.232  -3.454  1.00  0.00     0.277 HD
ATOM     20  H41 UNL     1      -0.497  -8.391  -4.993  1.00  0.00     0.277 HD
HETATM   21  C11 UNL     1      -1.425  -5.863  -5.690  1.00  0.00     0.300 C 
ENDBRANCH  13  14
ENDBRANCH  12  13
ENDBRANCH  11  12
ENDBRANCH  10  11
ENDBRANCH   4  10
BRANCH   1  22
HETATM   22  N1  UNL     1     -10.010  -7.932  -6.445  1.00  0.00    -0.226 N 
ATOM     23  H1  UNL     1      -9.883  -7.390  -5.590  1.00  0.00     0.177 HD
BRANCH  22  24
HETATM   24  C2  UNL     1     -11.090  -8.879  -6.467  1.00  0.00     0.133 C 
HETATM   25  C1  UNL     1     -10.721 -10.175  -5.780  1.00  0.00     0.027 C 
ENDBRANCH  22  24
ENDBRANCH   1  22
BRANCH   7  26
HETATM   26  N6  UNL     1      -8.883  -8.127 -10.840  1.00  0.00    -0.226 N 
ATOM     27  H6  UNL     1      -8.499  -7.648 -11.654  1.00  0.00     0.177 HD
BRANCH  26  28
HETATM   28  C13 UNL     1      -9.816  -9.214 -10.994  1.00  0.00     0.133 C 
HETATM   29  C14 UNL     1     -11.237  -8.692 -11.026  1.00  0.00     0.027 C 
ENDBRANCH  26  28
ENDBRANCH   7  26
TORSDOF 9
ENDMDL
MODEL 5
REMARK VINA RESULT: -7.861988467      0.289      2.765
REMARK  9 active torsions:
REMARK  status: ('A' for Active; 'I' for Inactive)
REMARK    1  A    between atoms: C2_2  and  N1_3 
REMARK    2  A    between atoms: N1_3  and  C3_5 
REMARK    3  A    between atoms: C4_8  and  O1_9 
REMARK    4  A    between atoms: O1_9  and  C5_10 
REMARK    5  A    between atoms: C5_10  and  C6_11 
REMARK    6  A    between atoms: C6_11  and  C7_12 
REMARK    7  A    between atoms: C7_12  and  N3_13 
REMARK    8  A    between atoms: C12_23  and  N6_24 
REMARK    9  A    between atoms: N6_24  and  C13_26 
ROOT
HETATM    1  C3  UNL     1      -9.139  -7.962  -9.636  1.00  0.00     0.695 A 
HETATM    2  N2  UNL     1      -7.962  -7.348  -9.493  1.00  0.00    -0.154 N 
ATOM      3  H2  UNL     1      -7.422  -7.170 -10.339  1.00  0.00     0.188 HD
HETATM    4  C4  UNL     1      -7.434  -6.949  -8.336  1.00  0.00     0.252 A 
HETATM    5  N5  UNL     1      -8.180  -7.202  -7.216  1.00  0.00    -0.154 N 
ATOM      6  H5  UNL     1      -7.831  -6.923  -6.299  1.00  0.00     0.188 HD
HETATM    7  C12 UNL     1      -9.369  -7.819  -7.322  1.00  0.00     0.695 A 
HETATM    8  N7  UNL     1      -9.861  -8.206  -8.532  1.00  0.00    -0.022 N 
ATOM      9  H7  UNL     1     -10.765  -8.674  -8.598  1.00  0.00     0.203 HD
ENDROOT
BRANCH   4  10
HETATM   10  O1  UNL     1      -6.245  -6.323  -8.149  1.00  0.00    -0.321 OA
BRANCH  10  11
HETATM   11  C5  UNL     1      -5.070  -6.407  -8.906  1.00  0.00     0.180 C 
BRANCH  11  12
HETATM   12  C6  UNL     1      -3.966  -6.956  -8.074  1.00  0.00     0.057 C 
BRANCH  12  13
HETATM   13  C7  UNL     1      -2.975  -5.900  -7.634  1.00  0.00     0.274 C 
BRANCH  13  14
HETATM   14  N3  UNL     1      -2.709  -5.942  -6.214  1.00  0.00     0.091 N 
HETATM   15  C8  UNL     1      -3.391  -7.086  -5.662  1.00  0.00     0.300 C 
HETATM   16  C9  UNL     1      -3.185  -7.240  -4.178  1.00  0.00     0.262 C 
HETATM   17  N4  UNL     1      -3.186  -6.007  -3.467  1.00  0.00    -0.072 N 
HETATM   18  C10 UNL     1      -3.694  -4.888  -4.223  1.00  0.00     0.262 C 
ATOM     19  H42 UNL     1      -3.694  -6.103  -2.588  1.00  0.00     0.277 HD
ATOM     20  H41 UNL     1      -2.253  -5.802  -3.108  1.00  0.00     0.277 HD
HETATM   21  C11 UNL     1      -3.029  -4.712  -5.547  1.00  0.00     0.300 C 
ENDBRANCH  13  14
ENDBRANCH  12  13
ENDBRANCH  11  12
ENDBRANCH  10  11
ENDBRANCH   4  10
BRANCH   1  22
HETATM   22  N1  UNL     1      -9.540  -8.298 -10.807  1.00  0.00    -0.226 N 
ATOM     23  H1  UNL     1      -9.057  -7.880 -11.603  1.00  0.00     0.177 HD
BRANCH  22  24
HETATM   24  C2  UNL     1     -10.610  -9.211 -11.096  1.00  0.00     0.133 C 
HETATM   25  C1  UNL     1     -11.961  -8.632 -10.739  1.00  0.00     0.027 C 
ENDBRANCH  22  24
ENDBRANCH   1  22
BRANCH   7  26
HETATM   26  N6  UNL     1     -10.120  -8.088  -6.308  1.00  0.00    -0.226 N 
ATOM     27  H6  UNL     1     -10.010  -7.586  -5.427  1.00  0.00     0.177 HD
BRANCH  26  28
HETATM   28  C13 UNL     1     -11.120  -9.115  -6.454  1.00  0.00     0.133 C 
HETATM   29  C14 UNL     1     -10.763 -10.324  -5.615  1.00  0.00     0.027 C 
ENDBRANCH  26  28
ENDBRANCH   7  26
TORSDOF 9
ENDMDL
