MODEL 1
REMARK VINA RESULT: -7.353212001      0.000      0.000
REMARK  6 active torsions:
REMARK  status: ('A' for Active; 'I' for Inactive)
REMARK    1  A    between atoms: C2_2  and  C3_3 
REMARK    2  A    between atoms: C7_10  and  C8_11 
REMARK    3  A    between atoms: C8_11  and  C9_12 
REMARK    4  A    between atoms: C9_12  and  C10_13 
REMARK    5  A    between atoms: C10_13  and  N2_14 
REMARK    6  A    between atoms: C16_29  and  C17_30 
ROOT
HETATM    1  C3  UNL     1      -2.047 -24.727  -1.250  1.00  0.00     0.026 C 
HETATM    2  C4  UNL     1      -2.927 -23.646  -1.839  1.00  0.00     0.019 C 
HETATM    3  C5  UNL     1      -3.907 -24.258  -2.791  1.00  0.00     0.103 C 
HETATM    4  C6  UNL     1      -4.492 -23.242  -3.692  1.00  0.00     0.218 C 
HETATM    5  O1  UNL     1      -4.130 -22.049  -3.563  1.00  0.00    -0.274 OA
HETATM    6  N1  UNL     1      -5.438 -23.580  -4.684  1.00  0.00    -0.348 N 
ATOM      7  H1  UNL     1      -5.435 -23.069  -5.568  1.00  0.00     0.163 HD
HETATM    8  C7  UNL     1      -6.414 -24.633  -4.481  1.00  0.00     0.176 C 
HETATM    9  C12 UNL     1      -7.735 -24.088  -4.082  1.00  0.00     0.240 C 
HETATM   10  O2  UNL     1      -8.166 -23.060  -4.668  1.00  0.00    -0.271 OA
HETATM   11  N5  UNL     1      -8.544 -24.665  -3.073  1.00  0.00    -0.359 N 
ATOM     12  H5  UNL     1      -9.524 -24.390  -2.998  1.00  0.00     0.162 HD
HETATM   13  C13 UNL     1      -8.006 -25.639  -2.147  1.00  0.00     0.124 C 
HETATM   14  C14 UNL     1      -8.837 -25.743  -0.896  1.00  0.00     0.047 C 
HETATM   15  C15 UNL     1      -7.898 -26.136   0.249  1.00  0.00     0.235 C 
HETATM   16  N6  UNL     1      -6.978 -25.015   0.403  1.00  0.00    -0.062 N 
ATOM     17  H61 UNL     1      -7.334 -24.322   1.061  1.00  0.00     0.278 HD
ATOM     18  H62 UNL     1      -6.950 -24.433  -0.434  1.00  0.00     0.278 HD
HETATM   19  C16 UNL     1      -5.656 -25.483   0.778  1.00  0.00     0.276 C 
HETATM   20  C19 UNL     1      -4.768 -24.326   0.937  1.00  0.00     0.250 C 
HETATM   21  O3  UNL     1      -5.275 -23.205   1.199  1.00  0.00    -0.271 OA
HETATM   22  N7  UNL     1      -3.346 -24.382   0.815  1.00  0.00    -0.354 N 
HETATM   23  C20 UNL     1      -2.515 -23.438   1.552  1.00  0.00     0.152 C 
HETATM   24  C21 UNL     1      -2.671 -25.347  -0.019  1.00  0.00     0.133 C 
ENDROOT
BRANCH   8  25
HETATM   25  C8  UNL     1      -6.515 -25.549  -5.675  1.00  0.00     0.036 C 
BRANCH  25  26
HETATM   26  C9  UNL     1      -5.953 -26.921  -5.400  1.00  0.00     0.022 C 
BRANCH  26  27
HETATM   27  C10 UNL     1      -7.062 -27.916  -5.766  1.00  0.00     0.122 C 
BRANCH  27  28
HETATM   28  N2  UNL     1      -8.263 -27.663  -5.029  1.00  0.00    -0.367 N 
HETATM   29  C11 UNL     1      -9.345 -27.202  -5.497  1.00  0.00     0.196 C 
HETATM   30  N3  UNL     1      -9.467 -26.877  -6.871  1.00  0.00    -0.067 NA
HETATM   31  N4  UNL     1     -10.454 -27.007  -4.633  1.00  0.00    -0.067 NA
ATOM     32  H2  UNL     1      -8.245 -27.875  -4.032  1.00  0.00     0.161 HD
ENDBRANCH  27  28
ENDBRANCH  26  27
ENDBRANCH  25  26
ENDBRANCH   8  25
BRANCH   1  33
HETATM   33  C2  UNL     1      -0.679 -24.237  -0.994  1.00  0.00    -0.031 C 
HETATM   34  C1  UNL     1       0.241 -25.048  -0.522  1.00  0.00     0.007 C 
ENDBRANCH   1  33
BRANCH  19  35
HETATM   35  C17 UNL     1      -5.722 -26.326   2.044  1.00  0.00     0.038 C 
HETATM   36  C18 UNL     1      -6.231 -25.565   3.224  1.00  0.00     0.007 C 
ENDBRANCH  19  35
TORSDOF 6
ENDMDL
MODEL 2
REMARK VINA RESULT: -7.187841609      2.574      4.489
REMARK  6 active torsions:
REMARK  status: ('A' for Active; 'I' for Inactive)
REMARK    1  A    between atoms: C2_2  and  C3_3 
REMARK    2  A    between atoms: C7_10  and  C8_11 
REMARK    3  A    between atoms: C8_11  and  C9_12 
REMARK    4  A    between atoms: C9_12  and  C10_13 
REMARK    5  A    between atoms: C10_13  and  N2_14 
REMARK    6  A    between atoms: C16_29  and  C17_30 
ROOT
HETATM    1  C3  UNL     1      -2.231 -27.728   0.292  1.00  0.00     0.026 C 
HETATM    2  C4  UNL     1      -2.646 -26.880  -0.891  1.00  0.00     0.019 C 
HETATM    3  C5  UNL     1      -3.979 -26.255  -0.618  1.00  0.00     0.103 C 
HETATM    4  C6  UNL     1      -4.616 -25.775  -1.863  1.00  0.00     0.218 C 
HETATM    5  O1  UNL     1      -4.003 -25.929  -2.946  1.00  0.00    -0.274 OA
HETATM    6  N1  UNL     1      -5.885 -25.155  -1.862  1.00  0.00    -0.348 N 
ATOM      7  H1  UNL     1      -6.511 -25.304  -2.654  1.00  0.00     0.163 HD
HETATM    8  C7  UNL     1      -6.321 -24.312  -0.766  1.00  0.00     0.176 C 
HETATM    9  C12 UNL     1      -6.145 -22.871  -1.078  1.00  0.00     0.240 C 
HETATM   10  O2  UNL     1      -6.451 -22.461  -2.229  1.00  0.00    -0.271 OA
HETATM   11  N5  UNL     1      -5.650 -21.927  -0.147  1.00  0.00    -0.359 N 
ATOM     12  H5  UNL     1      -5.762 -20.931  -0.336  1.00  0.00     0.162 HD
HETATM   13  C13 UNL     1      -4.989 -22.350   1.070  1.00  0.00     0.124 C 
HETATM   14  C14 UNL     1      -4.126 -21.260   1.648  1.00  0.00     0.047 C 
HETATM   15  C15 UNL     1      -2.964 -21.935   2.384  1.00  0.00     0.235 C 
HETATM   16  N6  UNL     1      -2.199 -22.629   1.354  1.00  0.00    -0.062 N 
ATOM     17  H61 UNL     1      -1.473 -22.032   0.956  1.00  0.00     0.278 HD
ATOM     18  H62 UNL     1      -2.752 -22.781   0.511  1.00  0.00     0.278 HD
HETATM   19  C16 UNL     1      -1.650 -23.870   1.869  1.00  0.00     0.276 C 
HETATM   20  C19 UNL     1      -0.877 -24.527   0.809  1.00  0.00     0.250 C 
HETATM   21  O3  UNL     1      -0.409 -23.824  -0.123  1.00  0.00    -0.271 OA
HETATM   22  N7  UNL     1      -0.613 -25.930   0.759  1.00  0.00    -0.354 N 
HETATM   23  C20 UNL     1       0.595 -26.419   0.106  1.00  0.00     0.152 C 
HETATM   24  C21 UNL     1      -1.498 -26.912   1.335  1.00  0.00     0.133 C 
ENDROOT
BRANCH   8  25
HETATM   25  C8  UNL     1      -7.730 -24.631  -0.333  1.00  0.00     0.036 C 
BRANCH  25  26
HETATM   26  C9  UNL     1      -8.422 -25.584  -1.275  1.00  0.00     0.022 C 
BRANCH  26  27
HETATM   27  C10 UNL     1      -9.293 -24.717  -2.193  1.00  0.00     0.122 C 
BRANCH  27  28
HETATM   28  N2  UNL     1      -9.795 -25.466  -3.306  1.00  0.00    -0.367 N 
HETATM   29  C11 UNL     1      -9.196 -25.671  -4.401  1.00  0.00     0.196 C 
HETATM   30  N3  UNL     1      -7.900 -25.146  -4.634  1.00  0.00    -0.067 NA
HETATM   31  N4  UNL     1      -9.830 -26.438  -5.413  1.00  0.00    -0.067 NA
ATOM     32  H2  UNL     1     -10.725 -25.872  -3.205  1.00  0.00     0.161 HD
ENDBRANCH  27  28
ENDBRANCH  26  27
ENDBRANCH  25  26
ENDBRANCH   8  25
BRANCH   1  33
HETATM   33  C2  UNL     1      -1.459 -28.913  -0.131  1.00  0.00    -0.031 C 
HETATM   34  C1  UNL     1      -1.210 -29.883   0.720  1.00  0.00     0.007 C 
ENDBRANCH   1  33
BRANCH  19  35
HETATM   35  C17 UNL     1      -0.807 -23.612   3.110  1.00  0.00     0.038 C 
HETATM   36  C18 UNL     1       0.524 -23.010   2.794  1.00  0.00     0.007 C 
ENDBRANCH  19  35
TORSDOF 6
ENDMDL
MODEL 3
REMARK VINA RESULT: -7.144605794      3.455      4.744
REMARK  6 active torsions:
REMARK  status: ('A' for Active; 'I' for Inactive)
REMARK    1  A    between atoms: C2_2  and  C3_3 
REMARK    2  A    between atoms: C7_10  and  C8_11 
REMARK    3  A    between atoms: C8_11  and  C9_12 
REMARK    4  A    between atoms: C9_12  and  C10_13 
REMARK    5  A    between atoms: C10_13  and  N2_14 
REMARK    6  A    between atoms: C16_29  and  C17_30 
ROOT
HETATM    1  C3  UNL     1      -2.408 -24.597  -1.370  1.00  0.00     0.026 C 
HETATM    2  C4  UNL     1      -2.828 -23.461  -2.278  1.00  0.00     0.019 C 
HETATM    3  C5  UNL     1      -3.048 -23.980  -3.664  1.00  0.00     0.103 C 
HETATM    4  C6  UNL     1      -3.044 -22.885  -4.658  1.00  0.00     0.218 C 
HETATM    5  O1  UNL     1      -2.874 -21.711  -4.254  1.00  0.00    -0.274 OA
HETATM    6  N1  UNL     1      -3.225 -23.128  -6.038  1.00  0.00    -0.348 N 
ATOM      7  H1  UNL     1      -2.732 -22.544  -6.714  1.00  0.00     0.163 HD
HETATM    8  C7  UNL     1      -4.094 -24.185  -6.519  1.00  0.00     0.176 C 
HETATM    9  C12 UNL     1      -5.423 -23.663  -6.922  1.00  0.00     0.240 C 
HETATM   10  O2  UNL     1      -5.477 -22.585  -7.570  1.00  0.00    -0.271 OA
HETATM   11  N5  UNL     1      -6.642 -24.316  -6.617  1.00  0.00    -0.359 N 
ATOM     12  H5  UNL     1      -7.494 -24.038  -7.105  1.00  0.00     0.162 HD
HETATM   13  C13 UNL     1      -6.700 -25.370  -5.627  1.00  0.00     0.124 C 
HETATM   14  C14 UNL     1      -8.097 -25.572  -5.104  1.00  0.00     0.047 C 
HETATM   15  C15 UNL     1      -7.980 -26.071  -3.660  1.00  0.00     0.235 C 
HETATM   16  N6  UNL     1      -7.367 -24.976  -2.916  1.00  0.00    -0.062 N 
ATOM     17  H61 UNL     1      -8.067 -24.338  -2.538  1.00  0.00     0.278 HD
ATOM     18  H62 UNL     1      -6.883 -24.325  -3.535  1.00  0.00     0.278 HD
HETATM   19  C16 UNL     1      -6.489 -25.486  -1.880  1.00  0.00     0.276 C 
HETATM   20  C19 UNL     1      -5.906 -24.357  -1.148  1.00  0.00     0.250 C 
HETATM   21  O3  UNL     1      -6.517 -23.257  -1.146  1.00  0.00    -0.271 OA
HETATM   22  N7  UNL     1      -4.676 -24.416  -0.425  1.00  0.00    -0.354 N 
HETATM   23  C20 UNL     1      -4.466 -23.546   0.726  1.00  0.00     0.152 C 
HETATM   24  C21 UNL     1      -3.604 -25.313  -0.781  1.00  0.00     0.133 C 
ENDROOT
BRANCH   8  25
HETATM   25  C8  UNL     1      -3.445 -24.995  -7.614  1.00  0.00     0.036 C 
BRANCH  25  26
HETATM   26  C9  UNL     1      -3.862 -24.542  -8.991  1.00  0.00     0.022 C 
BRANCH  26  27
HETATM   27  C10 UNL     1      -2.902 -23.409  -9.375  1.00  0.00     0.122 C 
BRANCH  27  28
HETATM   28  N2  UNL     1      -3.480 -22.534 -10.350  1.00  0.00    -0.367 N 
HETATM   29  C11 UNL     1      -2.875 -21.985 -11.317  1.00  0.00     0.196 C 
HETATM   30  N3  UNL     1      -1.491 -22.202 -11.529  1.00  0.00    -0.067 NA
HETATM   31  N4  UNL     1      -3.593 -21.140 -12.202  1.00  0.00    -0.067 NA
ATOM     32  H2  UNL     1      -4.476 -22.335 -10.257  1.00  0.00     0.161 HD
ENDBRANCH  27  28
ENDBRANCH  26  27
ENDBRANCH  25  26
ENDBRANCH   8  25
BRANCH   1  33
HETATM   33  C2  UNL     1      -1.463 -24.144  -0.331  1.00  0.00    -0.031 C 
HETATM   34  C1  UNL     1      -0.169 -24.305  -0.492  1.00  0.00     0.007 C 
ENDBRANCH   1  33
BRANCH  19  35
HETATM   35  C17 UNL     1      -7.241 -26.434  -0.955  1.00  0.00     0.038 C 
HETATM   36  C18 UNL     1      -8.026 -25.720   0.096  1.00  0.00     0.007 C 
ENDBRANCH  19  35
TORSDOF 6
ENDMDL
MODEL 4
REMARK VINA RESULT: -7.018316080      1.288      1.426
REMARK  6 active torsions:
REMARK  status: ('A' for Active; 'I' for Inactive)
REMARK    1  A    between atoms: C2_2  and  C3_3 
REMARK    2  A    between atoms: C7_10  and  C8_11 
REMARK    3  A    between atoms: C8_11  and  C9_12 
REMARK    4  A    between atoms: C9_12  and  C10_13 
REMARK    5  A    between atoms: C10_13  and  N2_14 
REMARK    6  A    between atoms: C16_29  and  C17_30 
ROOT
HETATM    1  C3  UNL     1      -2.339 -24.647  -0.731  1.00  0.00     0.026 C 
HETATM    2  C4  UNL     1      -2.697 -23.746  -1.893  1.00  0.00     0.019 C 
HETATM    3  C5  UNL     1      -3.510 -24.511  -2.891  1.00  0.00     0.103 C 
HETATM    4  C6  UNL     1      -3.528 -23.834  -4.206  1.00  0.00     0.218 C 
HETATM    5  O1  UNL     1      -2.903 -22.755  -4.331  1.00  0.00    -0.274 OA
HETATM    6  N1  UNL     1      -4.224 -24.370  -5.312  1.00  0.00    -0.348 N 
ATOM      7  H1  UNL     1      -3.842 -24.241  -6.249  1.00  0.00     0.163 HD
HETATM    8  C7  UNL     1      -5.467 -25.099  -5.150  1.00  0.00     0.176 C 
HETATM    9  C12 UNL     1      -6.646 -24.241  -5.429  1.00  0.00     0.240 C 
HETATM   10  O2  UNL     1      -6.604 -23.459  -6.415  1.00  0.00    -0.271 OA
HETATM   11  N5  UNL     1      -7.824 -24.256  -4.643  1.00  0.00    -0.359 N 
ATOM     12  H5  UNL     1      -8.673 -23.822  -5.005  1.00  0.00     0.162 HD
HETATM   13  C13 UNL     1      -7.844 -24.877  -3.335  1.00  0.00     0.124 C 
HETATM   14  C14 UNL     1      -8.980 -24.365  -2.489  1.00  0.00     0.047 C 
HETATM   15  C15 UNL     1      -8.531 -24.437  -1.026  1.00  0.00     0.235 C 
HETATM   16  N6  UNL     1      -7.418 -23.502  -0.912  1.00  0.00    -0.062 N 
ATOM     17  H61 UNL     1      -7.735 -22.564  -0.668  1.00  0.00     0.278 HD
ATOM     18  H62 UNL     1      -7.005 -23.293  -1.821  1.00  0.00     0.278 HD
HETATM   19  C16 UNL     1      -6.427 -23.994   0.028  1.00  0.00     0.276 C 
HETATM   20  C19 UNL     1      -5.334 -23.020   0.125  1.00  0.00     0.250 C 
HETATM   21  O3  UNL     1      -5.567 -21.819  -0.167  1.00  0.00    -0.271 OA
HETATM   22  N7  UNL     1      -4.004 -23.342   0.533  1.00  0.00    -0.354 N 
HETATM   23  C20 UNL     1      -3.180 -22.333   1.186  1.00  0.00     0.152 C 
HETATM   24  C21 UNL     1      -3.419 -24.645   0.330  1.00  0.00     0.133 C 
ENDROOT
BRANCH   8  25
HETATM   25  C8  UNL     1      -5.486 -26.371  -5.960  1.00  0.00     0.036 C 
BRANCH  25  26
HETATM   26  C9  UNL     1      -5.861 -27.576  -5.134  1.00  0.00     0.022 C 
BRANCH  26  27
HETATM   27  C10 UNL     1      -7.044 -28.235  -5.854  1.00  0.00     0.122 C 
BRANCH  27  28
HETATM   28  N2  UNL     1      -8.279 -27.997  -5.168  1.00  0.00    -0.367 N 
HETATM   29  C11 UNL     1      -9.222 -27.251  -5.561  1.00  0.00     0.196 C 
HETATM   30  N3  UNL     1      -9.133 -26.546  -6.787  1.00  0.00    -0.067 NA
HETATM   31  N4  UNL     1     -10.389 -27.119  -4.764  1.00  0.00    -0.067 NA
ATOM     32  H2  UNL     1      -8.410 -28.475  -4.277  1.00  0.00     0.161 HD
ENDBRANCH  27  28
ENDBRANCH  26  27
ENDBRANCH  25  26
ENDBRANCH   8  25
BRANCH   1  33
HETATM   33  C2  UNL     1      -1.012 -24.319  -0.174  1.00  0.00    -0.031 C 
HETATM   34  C1  UNL     1       0.076 -24.533  -0.879  1.00  0.00     0.007 C 
ENDBRANCH   1  33
BRANCH  19  35
HETATM   35  C17 UNL     1      -7.062 -24.272   1.384  1.00  0.00     0.038 C 
HETATM   36  C18 UNL     1      -6.637 -25.580   1.967  1.00  0.00     0.007 C 
ENDBRANCH  19  35
TORSDOF 6
ENDMDL
MODEL 5
REMARK VINA RESULT: -6.954428696      2.407      5.307
REMARK  6 active torsions:
REMARK  status: ('A' for Active; 'I' for Inactive)
REMARK    1  A    between atoms: C2_2  and  C3_3 
REMARK    2  A    between atoms: C7_10  and  C8_11 
REMARK    3  A    between atoms: C8_11  and  C9_12 
REMARK    4  A    between atoms: C9_12  and  C10_13 
REMARK    5  A    between atoms: C10_13  and  N2_14 
REMARK    6  A    between atoms: C16_29  and  C17_30 
ROOT
HETATM    1  C3  UNL     1      -5.960 -23.738   1.169  1.00  0.00     0.026 C 
HETATM    2  C4  UNL     1      -6.725 -24.964   0.721  1.00  0.00     0.019 C 
HETATM    3  C5  UNL     1      -7.503 -24.648  -0.518  1.00  0.00     0.103 C 
HETATM    4  C6  UNL     1      -8.570 -25.643  -0.756  1.00  0.00     0.218 C 
HETATM    5  O1  UNL     1      -8.695 -26.591   0.055  1.00  0.00    -0.274 OA
HETATM    6  N1  UNL     1      -9.443 -25.552  -1.862  1.00  0.00    -0.348 N 
ATOM      7  H1  UNL     1     -10.411 -25.859  -1.758  1.00  0.00     0.163 HD
HETATM    8  C7  UNL     1      -9.000 -25.035  -3.143  1.00  0.00     0.176 C 
HETATM    9  C12 UNL     1      -8.676 -26.128  -4.094  1.00  0.00     0.240 C 
HETATM   10  O2  UNL     1      -9.443 -27.125  -4.151  1.00  0.00    -0.271 OA
HETATM   11  N5  UNL     1      -7.546 -26.108  -4.947  1.00  0.00    -0.359 N 
ATOM     12  H5  UNL     1      -7.496 -26.765  -5.726  1.00  0.00     0.162 HD
HETATM   13  C13 UNL     1      -6.461 -25.174  -4.732  1.00  0.00     0.124 C 
HETATM   14  C14 UNL     1      -5.189 -25.630  -5.395  1.00  0.00     0.047 C 
HETATM   15  C15 UNL     1      -4.019 -25.093  -4.563  1.00  0.00     0.235 C 
HETATM   16  N6  UNL     1      -4.123 -25.755  -3.268  1.00  0.00    -0.062 N 
ATOM     17  H61 UNL     1      -3.607 -26.634  -3.250  1.00  0.00     0.278 HD
ATOM     18  H62 UNL     1      -5.061 -26.124  -3.107  1.00  0.00     0.278 HD
HETATM   19  C16 UNL     1      -3.705 -24.865  -2.201  1.00  0.00     0.276 C 
HETATM   20  C19 UNL     1      -3.811 -25.572  -0.920  1.00  0.00     0.250 C 
HETATM   21  O3  UNL     1      -3.763 -26.829  -0.917  1.00  0.00    -0.271 OA
HETATM   22  N7  UNL     1      -3.965 -24.926   0.345  1.00  0.00    -0.354 N 
HETATM   23  C20 UNL     1      -3.460 -25.565   1.554  1.00  0.00     0.152 C 
HETATM   24  C21 UNL     1      -4.610 -23.644   0.493  1.00  0.00     0.133 C 
ENDROOT
BRANCH   8  25
HETATM   25  C8  UNL     1      -9.983 -24.049  -3.724  1.00  0.00     0.036 C 
BRANCH  25  26
HETATM   26  C9  UNL     1      -9.403 -22.662  -3.849  1.00  0.00     0.022 C 
BRANCH  26  27
HETATM   27  C10 UNL     1      -8.641 -22.399  -2.545  1.00  0.00     0.122 C 
BRANCH  27  28
HETATM   28  N2  UNL     1      -7.256 -22.130  -2.788  1.00  0.00    -0.367 N 
HETATM   29  C11 UNL     1      -6.466 -21.511  -2.016  1.00  0.00     0.196 C 
HETATM   30  N3  UNL     1      -6.913 -21.002  -0.771  1.00  0.00    -0.067 NA
HETATM   31  N4  UNL     1      -5.113 -21.324  -2.402  1.00  0.00    -0.067 NA
ATOM     32  H2  UNL     1      -6.868 -22.469  -3.668  1.00  0.00     0.161 HD
ENDBRANCH  27  28
ENDBRANCH  26  27
ENDBRANCH  25  26
ENDBRANCH   8  25
BRANCH   1  33
HETATM   33  C2  UNL     1      -5.852 -23.669   2.639  1.00  0.00    -0.031 C 
HETATM   34  C1  UNL     1      -5.415 -22.576   3.224  1.00  0.00     0.007 C 
ENDBRANCH   1  33
BRANCH  19  35
HETATM   35  C17 UNL     1      -2.295 -24.350  -2.450  1.00  0.00     0.038 C 
HETATM   36  C18 UNL     1      -1.341 -24.715  -1.359  1.00  0.00     0.007 C 
ENDBRANCH  19  35
TORSDOF 6
ENDMDL
