MODEL 1
REMARK VINA RESULT: -8.764962684      0.000      0.000
REMARK  8 active torsions:
REMARK  status: ('A' for Active; 'I' for Inactive)
REMARK    1  A    between atoms: C2_2  and  C3_3 
REMARK    2  A    between atoms: C3_3  and  C4_4 
REMARK    3  A    between atoms: C4_4  and  C5_5 
REMARK    4  A    between atoms: C6_8  and  O1_9 
REMARK    5  A    between atoms: C7_11  and  C8_12 
REMARK    6  A    between atoms: N2_13  and  N3_15 
REMARK    7  A    between atoms: C11_24  and  C12_25 
REMARK    8  A    between atoms: C12_25  and  C13_26 
ROOT
HETATM    1  C5  UNL     1      -4.497 -24.781  -1.153  1.00  0.00     0.175 C 
HETATM    2  N1  UNL     1      -5.165 -25.494  -2.203  1.00  0.00    -0.359 N 
ATOM      3  H1  UNL     1      -5.748 -26.255  -1.855  1.00  0.00     0.162 HD
HETATM    4  C6  UNL     1      -5.195 -25.382  -3.581  1.00  0.00     0.140 C 
HETATM    5  C7  UNL     1      -5.510 -24.281  -4.477  1.00  0.00     0.199 C 
HETATM    6  N6  UNL     1      -6.863 -24.170  -4.957  1.00  0.00    -0.342 N 
ATOM      7  H6  UNL     1      -6.945 -23.803  -5.905  1.00  0.00     0.163 HD
HETATM    8  C10 UNL     1      -8.088 -24.480  -4.345  1.00  0.00     0.245 C 
HETATM    9  O2  UNL     1      -8.925 -23.540  -4.240  1.00  0.00    -0.271 OA
HETATM   10  C11 UNL     1      -8.553 -25.775  -3.794  1.00  0.00     0.200 C 
HETATM   11  N7  UNL     1      -9.347 -25.646  -2.603  1.00  0.00    -0.344 N 
ATOM     12  H7  UNL     1     -10.331 -25.885  -2.727  1.00  0.00     0.163 HD
HETATM   13  C16 UNL     1      -9.011 -25.254  -1.312  1.00  0.00     0.220 C 
HETATM   14  O3  UNL     1      -9.383 -25.971  -0.331  1.00  0.00    -0.274 OA
HETATM   15  C17 UNL     1      -8.249 -24.067  -0.895  1.00  0.00     0.127 C 
HETATM   16  C18 UNL     1      -7.414 -24.177   0.329  1.00  0.00     0.089 C 
HETATM   17  C19 UNL     1      -7.188 -25.519   0.902  1.00  0.00     0.032 C 
HETATM   18  N8  UNL     1      -6.187 -23.365   0.229  1.00  0.00    -0.355 N 
ATOM     19  H8  UNL     1      -6.053 -22.620   0.913  1.00  0.00     0.162 HD
HETATM   20  C20 UNL     1      -5.181 -23.549  -0.750  1.00  0.00     0.240 C 
HETATM   21  O4  UNL     1      -4.815 -22.487  -1.375  1.00  0.00    -0.271 OA
ENDROOT
BRANCH   5  22
HETATM   22  C8  UNL     1      -4.612 -24.409  -5.679  1.00  0.00     0.113 C 
HETATM   23  N2  UNL     1      -5.021 -24.530  -6.873  1.00  0.00    -0.311 N 
ATOM     24  H2  UNL     1      -6.029 -24.542  -7.027  1.00  0.00     0.185 HD
BRANCH  23  25
HETATM   25  N3  UNL     1      -4.210 -24.648  -7.977  1.00  0.00    -0.277 N 
HETATM   26  C9  UNL     1      -3.952 -23.685  -8.796  1.00  0.00     0.215 C 
HETATM   27  N4  UNL     1      -3.107 -23.855  -9.924  1.00  0.00    -0.065 NA
HETATM   28  N5  UNL     1      -4.527 -22.407  -8.573  1.00  0.00    -0.065 NA
ATOM     29  H3  UNL     1      -3.784 -25.556  -8.159  1.00  0.00     0.189 HD
ENDBRANCH  23  25
ENDBRANCH   5  22
BRANCH   4  30
HETATM   30  O1  UNL     1      -4.877 -26.484  -4.194  1.00  0.00    -0.348 OA
ATOM     31  H1  UNL     1      -5.556 -26.797  -4.781  1.00  0.00     0.219 HD
ENDBRANCH   4  30
BRANCH   1  32
HETATM   32  C4  UNL     1      -3.023 -24.578  -1.431  1.00  0.00     0.035 C 
BRANCH  32  33
HETATM   33  C3  UNL     1      -2.295 -25.890  -1.370  1.00  0.00     0.002 C 
BRANCH  33  34
HETATM   34  C2  UNL     1      -1.013 -25.833  -0.559  1.00  0.00    -0.004 C 
HETATM   35  C1  UNL     1      -0.297 -24.562  -1.011  1.00  0.00     0.005 C 
ENDBRANCH  33  34
ENDBRANCH  32  33
ENDBRANCH   1  32
BRANCH  10  36
HETATM   36  C12 UNL     1      -9.211 -26.464  -4.935  1.00  0.00     0.010 C 
BRANCH  36  37
HETATM   37  C13 UNL     1      -8.475 -27.031  -6.052  1.00  0.00    -0.089 C 
HETATM   38  C14 UNL     1      -7.483 -28.115  -5.680  1.00  0.00     0.042 C 
HETATM   39  C15 UNL     1      -9.213 -27.316  -7.327  1.00  0.00     0.042 C 
ENDBRANCH  36  37
ENDBRANCH  10  36
TORSDOF 8
ENDMDL
MODEL 2
REMARK VINA RESULT: -8.310902620      1.289      1.506
REMARK  8 active torsions:
REMARK  status: ('A' for Active; 'I' for Inactive)
REMARK    1  A    between atoms: C2_2  and  C3_3 
REMARK    2  A    between atoms: C3_3  and  C4_4 
REMARK    3  A    between atoms: C4_4  and  C5_5 
REMARK    4  A    between atoms: C6_8  and  O1_9 
REMARK    5  A    between atoms: C7_11  and  C8_12 
REMARK    6  A    between atoms: N2_13  and  N3_15 
REMARK    7  A    between atoms: C11_24  and  C12_25 
REMARK    8  A    between atoms: C12_25  and  C13_26 
ROOT
HETATM    1  C5  UNL     1      -3.648 -24.635  -0.526  1.00  0.00     0.175 C 
HETATM    2  N1  UNL     1      -4.434 -25.158  -1.607  1.00  0.00    -0.359 N 
ATOM      3  H1  UNL     1      -4.908 -26.028  -1.364  1.00  0.00     0.162 HD
HETATM    4  C6  UNL     1      -4.691 -24.749  -2.902  1.00  0.00     0.140 C 
HETATM    5  C7  UNL     1      -5.211 -23.511  -3.463  1.00  0.00     0.199 C 
HETATM    6  N6  UNL     1      -6.627 -23.425  -3.705  1.00  0.00    -0.342 N 
ATOM      7  H6  UNL     1      -6.883 -22.868  -4.520  1.00  0.00     0.163 HD
HETATM    8  C10 UNL     1      -7.717 -23.975  -3.013  1.00  0.00     0.245 C 
HETATM    9  O2  UNL     1      -8.581 -23.164  -2.574  1.00  0.00    -0.271 OA
HETATM   10  C11 UNL     1      -8.011 -25.398  -2.717  1.00  0.00     0.200 C 
HETATM   11  N7  UNL     1      -8.609 -25.609  -1.427  1.00  0.00    -0.344 N 
ATOM     12  H7  UNL     1      -9.585 -25.906  -1.461  1.00  0.00     0.163 HD
HETATM   13  C16 UNL     1      -8.094 -25.481  -0.142  1.00  0.00     0.220 C 
HETATM   14  O3  UNL     1      -8.260 -26.428   0.689  1.00  0.00    -0.274 OA
HETATM   15  C17 UNL     1      -7.346 -24.349   0.425  1.00  0.00     0.127 C 
HETATM   16  C18 UNL     1      -6.320 -24.647   1.458  1.00  0.00     0.089 C 
HETATM   17  C19 UNL     1      -5.926 -26.055   1.665  1.00  0.00     0.032 C 
HETATM   18  N8  UNL     1      -5.174 -23.722   1.374  1.00  0.00    -0.355 N 
ATOM     19  H8  UNL     1      -4.976 -23.136   2.186  1.00  0.00     0.162 HD
HETATM   20  C20 UNL     1      -4.330 -23.591   0.246  1.00  0.00     0.240 C 
HETATM   21  O4  UNL     1      -4.132 -22.387  -0.162  1.00  0.00    -0.271 OA
ENDROOT
BRANCH   5  22
HETATM   22  C8  UNL     1      -4.512 -23.287  -4.777  1.00  0.00     0.113 C 
HETATM   23  N2  UNL     1      -5.042 -23.470  -5.915  1.00  0.00    -0.311 N 
ATOM     24  H2  UNL     1      -6.010 -23.792  -5.938  1.00  0.00     0.185 HD
BRANCH  23  25
HETATM   25  N3  UNL     1      -4.413 -23.268  -7.121  1.00  0.00    -0.277 N 
HETATM   26  C9  UNL     1      -5.027 -23.108  -8.245  1.00  0.00     0.215 C 
HETATM   27  N4  UNL     1      -4.334 -22.903  -9.466  1.00  0.00    -0.065 NA
HETATM   28  N5  UNL     1      -6.446 -23.135  -8.273  1.00  0.00    -0.065 NA
ATOM     29  H3  UNL     1      -3.394 -23.244  -7.127  1.00  0.00     0.189 HD
ENDBRANCH  23  25
ENDBRANCH   5  22
BRANCH   4  30
HETATM   30  O1  UNL     1      -4.413 -25.654  -3.793  1.00  0.00    -0.348 OA
ATOM     31  H1  UNL     1      -3.927 -26.391  -3.441  1.00  0.00     0.219 HD
ENDBRANCH   4  30
BRANCH   1  32
HETATM   32  C4  UNL     1      -2.254 -24.238  -0.958  1.00  0.00     0.035 C 
BRANCH  32  33
HETATM   33  C3  UNL     1      -1.391 -25.457  -1.120  1.00  0.00     0.002 C 
BRANCH  33  34
HETATM   34  C2  UNL     1      -0.120 -25.414  -0.293  1.00  0.00    -0.004 C 
HETATM   35  C1  UNL     1       0.760 -24.350  -0.945  1.00  0.00     0.005 C 
ENDBRANCH  33  34
ENDBRANCH  32  33
ENDBRANCH   1  32
BRANCH  10  36
HETATM   36  C12 UNL     1      -8.803 -25.878  -3.879  1.00  0.00     0.010 C 
BRANCH  36  37
HETATM   37  C13 UNL     1      -8.279 -26.802  -4.870  1.00  0.00    -0.089 C 
HETATM   38  C14 UNL     1      -9.229 -27.131  -6.004  1.00  0.00     0.042 C 
HETATM   39  C15 UNL     1      -6.856 -26.644  -5.318  1.00  0.00     0.042 C 
ENDBRANCH  36  37
ENDBRANCH  10  36
TORSDOF 8
ENDMDL
MODEL 3
REMARK VINA RESULT: -8.137635799      2.723      4.377
REMARK  8 active torsions:
REMARK  status: ('A' for Active; 'I' for Inactive)
REMARK    1  A    between atoms: C2_2  and  C3_3 
REMARK    2  A    between atoms: C3_3  and  C4_4 
REMARK    3  A    between atoms: C4_4  and  C5_5 
REMARK    4  A    between atoms: C6_8  and  O1_9 
REMARK    5  A    between atoms: C7_11  and  C8_12 
REMARK    6  A    between atoms: N2_13  and  N3_15 
REMARK    7  A    between atoms: C11_24  and  C12_25 
REMARK    8  A    between atoms: C12_25  and  C13_26 
ROOT
HETATM    1  C5  UNL     1      -3.388 -25.580  -0.576  1.00  0.00     0.175 C 
HETATM    2  N1  UNL     1      -4.790 -25.404  -0.826  1.00  0.00    -0.359 N 
ATOM      3  H1  UNL     1      -5.335 -25.307   0.031  1.00  0.00     0.162 HD
HETATM    4  C6  UNL     1      -5.568 -25.337  -1.967  1.00  0.00     0.140 C 
HETATM    5  C7  UNL     1      -5.513 -24.498  -3.154  1.00  0.00     0.199 C 
HETATM    6  N6  UNL     1      -6.308 -23.299  -3.168  1.00  0.00    -0.342 N 
ATOM      7  H6  UNL     1      -6.676 -23.046  -4.085  1.00  0.00     0.163 HD
HETATM    8  C10 UNL     1      -6.664 -22.416  -2.136  1.00  0.00     0.245 C 
HETATM    9  O2  UNL     1      -6.329 -21.206  -2.281  1.00  0.00    -0.271 OA
HETATM   10  C11 UNL     1      -7.392 -22.700  -0.876  1.00  0.00     0.200 C 
HETATM   11  N7  UNL     1      -6.918 -21.942   0.250  1.00  0.00    -0.344 N 
ATOM     12  H7  UNL     1      -7.573 -21.236   0.586  1.00  0.00     0.163 HD
HETATM   13  C16 UNL     1      -5.726 -22.003   0.963  1.00  0.00     0.220 C 
HETATM   14  O3  UNL     1      -5.766 -22.054   2.232  1.00  0.00    -0.274 OA
HETATM   15  C17 UNL     1      -4.354 -22.015   0.433  1.00  0.00     0.127 C 
HETATM   16  C18 UNL     1      -3.325 -22.766   1.199  1.00  0.00     0.089 C 
HETATM   17  C19 UNL     1      -3.776 -23.660   2.283  1.00  0.00     0.032 C 
HETATM   18  N8  UNL     1      -2.320 -23.378   0.309  1.00  0.00    -0.355 N 
ATOM     19  H8  UNL     1      -1.348 -23.088   0.420  1.00  0.00     0.162 HD
HETATM   20  C20 UNL     1      -2.611 -24.341  -0.686  1.00  0.00     0.240 C 
HETATM   21  O4  UNL     1      -2.126 -24.098  -1.852  1.00  0.00    -0.271 OA
ENDROOT
BRANCH   5  22
HETATM   22  C8  UNL     1      -5.948 -25.343  -4.321  1.00  0.00     0.113 C 
HETATM   23  N2  UNL     1      -7.140 -25.421  -4.749  1.00  0.00    -0.311 N 
ATOM     24  H2  UNL     1      -7.851 -24.872  -4.266  1.00  0.00     0.185 HD
BRANCH  23  25
HETATM   25  N3  UNL     1      -7.548 -26.190  -5.813  1.00  0.00    -0.277 N 
HETATM   26  C9  UNL     1      -8.658 -26.846  -5.854  1.00  0.00     0.215 C 
HETATM   27  N4  UNL     1      -9.037 -27.628  -6.976  1.00  0.00    -0.065 NA
HETATM   28  N5  UNL     1      -9.540 -26.793  -4.742  1.00  0.00    -0.065 NA
ATOM     29  H3  UNL     1      -6.932 -26.245  -6.624  1.00  0.00     0.189 HD
ENDBRANCH  23  25
ENDBRANCH   5  22
BRANCH   4  30
HETATM   30  O1  UNL     1      -6.543 -26.198  -1.977  1.00  0.00    -0.348 OA
ATOM     31  H1  UNL     1      -6.372 -26.953  -2.529  1.00  0.00     0.219 HD
ENDBRANCH   4  30
BRANCH   1  32
HETATM   32  C4  UNL     1      -2.794 -26.725  -1.366  1.00  0.00     0.035 C 
BRANCH  32  33
HETATM   33  C3  UNL     1      -1.614 -27.304  -0.639  1.00  0.00     0.002 C 
BRANCH  33  34
HETATM   34  C2  UNL     1      -1.999 -28.239   0.492  1.00  0.00    -0.004 C 
HETATM   35  C1  UNL     1      -1.239 -29.537   0.229  1.00  0.00     0.005 C 
ENDBRANCH  33  34
ENDBRANCH  32  33
ENDBRANCH   1  32
BRANCH  10  36
HETATM   36  C12 UNL     1      -8.829 -22.521  -1.213  1.00  0.00     0.010 C 
BRANCH  36  37
HETATM   37  C13 UNL     1      -9.617 -23.535  -1.893  1.00  0.00    -0.089 C 
HETATM   38  C14 UNL     1      -9.868 -23.269  -3.363  1.00  0.00     0.042 C 
HETATM   39  C15 UNL     1      -9.345 -24.978  -1.590  1.00  0.00     0.042 C 
ENDBRANCH  36  37
ENDBRANCH  10  36
TORSDOF 8
ENDMDL
MODEL 4
REMARK VINA RESULT: -7.799984047      2.577      3.754
REMARK  8 active torsions:
REMARK  status: ('A' for Active; 'I' for Inactive)
REMARK    1  A    between atoms: C2_2  and  C3_3 
REMARK    2  A    between atoms: C3_3  and  C4_4 
REMARK    3  A    between atoms: C4_4  and  C5_5 
REMARK    4  A    between atoms: C6_8  and  O1_9 
REMARK    5  A    between atoms: C7_11  and  C8_12 
REMARK    6  A    between atoms: N2_13  and  N3_15 
REMARK    7  A    between atoms: C11_24  and  C12_25 
REMARK    8  A    between atoms: C12_25  and  C13_26 
ROOT
HETATM    1  C5  UNL     1      -3.185 -25.714  -0.309  1.00  0.00     0.175 C 
HETATM    2  N1  UNL     1      -4.411 -25.361  -0.966  1.00  0.00    -0.359 N 
ATOM      3  H1  UNL     1      -5.235 -25.726  -0.487  1.00  0.00     0.162 HD
HETATM    4  C6  UNL     1      -4.727 -24.638  -2.101  1.00  0.00     0.140 C 
HETATM    5  C7  UNL     1      -4.405 -23.287  -2.535  1.00  0.00     0.199 C 
HETATM    6  N6  UNL     1      -5.348 -22.242  -2.236  1.00  0.00    -0.342 N 
ATOM      7  H6  UNL     1      -5.403 -21.508  -2.942  1.00  0.00     0.163 HD
HETATM    8  C10 UNL     1      -6.206 -22.058  -1.140  1.00  0.00     0.245 C 
HETATM    9  O2  UNL     1      -6.069 -20.987  -0.483  1.00  0.00    -0.271 OA
HETATM   10  C11 UNL     1      -7.272 -22.954  -0.630  1.00  0.00     0.200 C 
HETATM   11  N7  UNL     1      -7.380 -22.968   0.803  1.00  0.00    -0.344 N 
ATOM     12  H7  UNL     1      -8.229 -22.532   1.164  1.00  0.00     0.163 HD
HETATM   13  C16 UNL     1      -6.533 -23.469   1.785  1.00  0.00     0.220 C 
HETATM   14  O3  UNL     1      -7.014 -24.210   2.699  1.00  0.00    -0.274 OA
HETATM   15  C17 UNL     1      -5.085 -23.254   1.928  1.00  0.00     0.127 C 
HETATM   16  C18 UNL     1      -4.279 -24.352   2.523  1.00  0.00     0.089 C 
HETATM   17  C19 UNL     1      -4.916 -25.673   2.693  1.00  0.00     0.032 C 
HETATM   18  N8  UNL     1      -2.928 -24.421   1.935  1.00  0.00    -0.355 N 
ATOM     19  H8  UNL     1      -2.131 -24.288   2.558  1.00  0.00     0.162 HD
HETATM   20  C20 UNL     1      -2.661 -24.660   0.566  1.00  0.00     0.240 C 
HETATM   21  O4  UNL     1      -1.845 -23.838   0.008  1.00  0.00    -0.271 OA
ENDROOT
BRANCH   5  22
HETATM   22  C8  UNL     1      -4.231 -23.326  -4.030  1.00  0.00     0.113 C 
HETATM   23  N2  UNL     1      -5.182 -23.276  -4.867  1.00  0.00    -0.311 N 
ATOM     24  H2  UNL     1      -6.131 -23.204  -4.499  1.00  0.00     0.185 HD
BRANCH  23  25
HETATM   25  N3  UNL     1      -5.034 -23.311  -6.233  1.00  0.00    -0.277 N 
HETATM   26  C9  UNL     1      -5.798 -23.977  -7.032  1.00  0.00     0.215 C 
HETATM   27  N4  UNL     1      -5.605 -23.984  -8.438  1.00  0.00    -0.065 NA
HETATM   28  N5  UNL     1      -6.873 -24.734  -6.496  1.00  0.00    -0.065 NA
ATOM     29  H3  UNL     1      -4.269 -22.775  -6.642  1.00  0.00     0.189 HD
ENDBRANCH  23  25
ENDBRANCH   5  22
BRANCH   4  30
HETATM   30  O1  UNL     1      -5.458 -25.302  -2.947  1.00  0.00    -0.348 OA
ATOM     31  H1  UNL     1      -5.368 -24.995  -3.842  1.00  0.00     0.219 HD
ENDBRANCH   4  30
BRANCH   1  32
HETATM   32  C4  UNL     1      -2.148 -26.261  -1.265  1.00  0.00     0.035 C 
BRANCH  32  33
HETATM   33  C3  UNL     1      -1.275 -27.265  -0.569  1.00  0.00     0.002 C 
BRANCH  33  34
HETATM   34  C2  UNL     1      -2.044 -28.225   0.319  1.00  0.00    -0.004 C 
HETATM   35  C1  UNL     1      -1.270 -29.540   0.272  1.00  0.00     0.005 C 
ENDBRANCH  33  34
ENDBRANCH  32  33
ENDBRANCH   1  32
BRANCH  10  36
HETATM   36  C12 UNL     1      -8.499 -22.549  -1.364  1.00  0.00     0.010 C 
BRANCH  36  37
HETATM   37  C13 UNL     1      -9.328 -23.487  -2.103  1.00  0.00    -0.089 C 
HETATM   38  C14 UNL     1      -9.581 -23.113  -3.549  1.00  0.00     0.042 C 
HETATM   39  C15 UNL     1      -9.104 -24.956  -1.901  1.00  0.00     0.042 C 
ENDBRANCH  36  37
ENDBRANCH  10  36
TORSDOF 8
ENDMDL
MODEL 5
REMARK VINA RESULT: -7.794831546      2.544      6.209
REMARK  8 active torsions:
REMARK  status: ('A' for Active; 'I' for Inactive)
REMARK    1  A    between atoms: C2_2  and  C3_3 
REMARK    2  A    between atoms: C3_3  and  C4_4 
REMARK    3  A    between atoms: C4_4  and  C5_5 
REMARK    4  A    between atoms: C6_8  and  O1_9 
REMARK    5  A    between atoms: C7_11  and  C8_12 
REMARK    6  A    between atoms: N2_13  and  N3_15 
REMARK    7  A    between atoms: C11_24  and  C12_25 
REMARK    8  A    between atoms: C12_25  and  C13_26 
ROOT
HETATM    1  C5  UNL     1      -6.878 -23.453  -0.909  1.00  0.00     0.175 C 
HETATM    2  N1  UNL     1      -5.477 -23.263  -1.153  1.00  0.00    -0.359 N 
ATOM      3  H1  UNL     1      -4.986 -22.870  -0.350  1.00  0.00     0.162 HD
HETATM    4  C6  UNL     1      -4.644 -23.492  -2.232  1.00  0.00     0.140 C 
HETATM    5  C7  UNL     1      -4.360 -24.676  -3.029  1.00  0.00     0.199 C 
HETATM    6  N6  UNL     1      -3.235 -25.489  -2.649  1.00  0.00    -0.342 N 
ATOM      7  H6  UNL     1      -2.748 -25.928  -3.431  1.00  0.00     0.163 HD
HETATM    8  C10 UNL     1      -2.693 -25.783  -1.388  1.00  0.00     0.245 C 
HETATM    9  O2  UNL     1      -2.630 -27.004  -1.067  1.00  0.00    -0.271 OA
HETATM   10  C11 UNL     1      -2.171 -24.853  -0.358  1.00  0.00     0.200 C 
HETATM   11  N7  UNL     1      -2.462 -25.260   0.989  1.00  0.00    -0.344 N 
ATOM     12  H7  UNL     1      -1.645 -25.558   1.523  1.00  0.00     0.163 HD
HETATM   13  C16 UNL     1      -3.659 -25.320   1.694  1.00  0.00     0.220 C 
HETATM   14  O3  UNL     1      -3.720 -24.805   2.854  1.00  0.00    -0.274 OA
HETATM   15  C17 UNL     1      -4.931 -25.925   1.271  1.00  0.00     0.127 C 
HETATM   16  C18 UNL     1      -6.188 -25.308   1.766  1.00  0.00     0.089 C 
HETATM   17  C19 UNL     1      -6.106 -23.990   2.426  1.00  0.00     0.032 C 
HETATM   18  N8  UNL     1      -7.273 -25.401   0.770  1.00  0.00    -0.355 N 
ATOM     19  H8  UNL     1      -8.113 -25.918   1.030  1.00  0.00     0.162 HD
HETATM   20  C20 UNL     1      -7.228 -24.823  -0.521  1.00  0.00     0.240 C 
HETATM   21  O4  UNL     1      -7.537 -25.608  -1.491  1.00  0.00    -0.271 OA
ENDROOT
BRANCH   5  22
HETATM   22  C8  UNL     1      -4.131 -24.218  -4.445  1.00  0.00     0.113 C 
HETATM   23  N2  UNL     1      -5.001 -23.641  -5.165  1.00  0.00    -0.311 N 
ATOM     24  H2  UNL     1      -5.920 -23.478  -4.753  1.00  0.00     0.185 HD
BRANCH  23  25
HETATM   25  N3  UNL     1      -4.802 -23.220  -6.458  1.00  0.00    -0.277 N 
HETATM   26  C9  UNL     1      -5.581 -23.509  -7.446  1.00  0.00     0.215 C 
HETATM   27  N4  UNL     1      -5.334 -23.051  -8.766  1.00  0.00    -0.065 NA
HETATM   28  N5  UNL     1      -6.727 -24.314  -7.216  1.00  0.00    -0.065 NA
ATOM     29  H3  UNL     1      -3.986 -22.640  -6.649  1.00  0.00     0.189 HD
ENDBRANCH  23  25
ENDBRANCH   5  22
BRANCH   4  30
HETATM   30  O1  UNL     1      -3.983 -22.437  -2.606  1.00  0.00    -0.348 OA
ATOM     31  H1  UNL     1      -3.987 -22.303  -3.547  1.00  0.00     0.219 HD
ENDBRANCH   4  30
BRANCH   1  32
HETATM   32  C4  UNL     1      -7.743 -22.914  -2.028  1.00  0.00     0.035 C 
BRANCH  32  33
HETATM   33  C3  UNL     1      -9.159 -22.743  -1.557  1.00  0.00     0.002 C 
BRANCH  33  34
HETATM   34  C2  UNL     1     -10.189 -23.304  -2.519  1.00  0.00    -0.004 C 
HETATM   35  C1  UNL     1      -9.632 -23.043  -3.917  1.00  0.00     0.005 C 
ENDBRANCH  33  34
ENDBRANCH  32  33
ENDBRANCH   1  32
BRANCH  10  36
HETATM   36  C12 UNL     1      -0.731 -24.687  -0.683  1.00  0.00     0.010 C 
BRANCH  36  37
HETATM   37  C13 UNL     1       0.331 -24.894   0.287  1.00  0.00    -0.089 C 
HETATM   38  C14 UNL     1       0.841 -26.318   0.383  1.00  0.00     0.042 C 
HETATM   39  C15 UNL     1       1.420 -23.868   0.389  1.00  0.00     0.042 C 
ENDBRANCH  36  37
ENDBRANCH  10  36
TORSDOF 8
ENDMDL
