MODEL 1
REMARK VINA RESULT: -8.931931375      0.000      0.000
REMARK  6 active torsions:
REMARK  status: ('A' for Active; 'I' for Inactive)
REMARK    1  A    between atoms: O1_2  and  C2_3 
REMARK    2  A    between atoms: C4_5  and  C5_6 
REMARK    3  A    between atoms: C5_6  and  C6_7 
REMARK    4  A    between atoms: C6_7  and  C7_8 
REMARK    5  A    between atoms: C8_10  and  O3_11 
REMARK    6  A    between atoms: N1_23  and  O4_25 
ROOT
HETATM    1  C2  UNL     1      -5.770  61.545  59.847  1.00  0.00     0.079 A 
HETATM    2  C3  UNL     1      -5.878  60.291  60.391  1.00  0.00     0.044 A 
HETATM    3  C4  UNL     1      -5.625  60.090  61.752  1.00  0.00    -0.052 A 
HETATM    4  C12 UNL     1      -5.272  61.141  62.529  1.00  0.00     0.045 A 
HETATM    5  C13 UNL     1      -5.152  62.430  62.012  1.00  0.00     0.088 A 
HETATM    6  C14 UNL     1      -5.403  62.610  60.681  1.00  0.00     0.032 A 
HETATM    7  C15 UNL     1      -5.210  64.048  60.386  1.00  0.00     0.173 A 
HETATM    8  S1  UNL     1      -3.914  64.254  59.126  1.00  0.00    -0.078 SA
HETATM    9  C16 UNL     1      -4.830  64.641  61.669  1.00  0.00     0.163 A 
HETATM   10  N1  UNL     1      -4.576  65.905  61.805  1.00  0.00    -0.249 N 
ATOM     11  H1  UNL     1      -4.318  66.244  62.732  1.00  0.00     0.196 HD
HETATM   12  O5  UNL     1      -4.807  63.647  62.617  1.00  0.00    -0.294 OA
ENDROOT
BRANCH   3  13
HETATM   13  C5  UNL     1      -5.768  58.698  62.238  1.00  0.00     0.045 C 
BRANCH  13  14
HETATM   14  C6  UNL     1      -5.818  57.701  61.111  1.00  0.00     0.070 C 
BRANCH  14  15
HETATM   15  C7  UNL     1      -6.671  56.557  61.495  1.00  0.00     0.064 A 
HETATM   16  O2  UNL     1      -6.493  55.770  62.528  1.00  0.00    -0.291 OA
HETATM   17  C8  UNL     1      -7.437  54.866  62.560  1.00  0.00     0.206 A 
HETATM   18  C9  UNL     1      -8.280  55.071  61.491  1.00  0.00     0.100 A 
HETATM   19 CL1  UNL     1      -9.707  54.140  61.066  1.00  0.00    -0.079 Cl
HETATM   20  C10 UNL     1      -7.808  56.159  60.784  1.00  0.00    -0.006 A 
HETATM   21  C11 UNL     1      -8.356  56.772  59.567  1.00  0.00     0.052 C 
BRANCH  17  22
HETATM   22  O3  UNL     1      -7.532  53.886  63.530  1.00  0.00    -0.339 OA
ATOM     23  H3  UNL     1      -8.302  53.748  64.070  1.00  0.00     0.220 HD
ENDBRANCH  17  22
ENDBRANCH  14  15
ENDBRANCH  13  14
ENDBRANCH   3  13
BRANCH   1  24
HETATM   24  O1  UNL     1      -6.008  61.809  58.507  1.00  0.00    -0.355 OA
HETATM   25  C1  UNL     1      -6.136  60.743  57.586  1.00  0.00     0.210 C 
ENDBRANCH   1  24
BRANCH  10  26
HETATM   26  O4  UNL     1      -4.631  66.801  60.795  1.00  0.00    -0.288 OA
ATOM     27  H4  UNL     1      -4.446  67.728  60.895  1.00  0.00     0.244 HD
ENDBRANCH  10  26
TORSDOF 6
ENDMDL
MODEL 2
REMARK VINA RESULT: -8.850575909      1.975      3.196
REMARK  6 active torsions:
REMARK  status: ('A' for Active; 'I' for Inactive)
REMARK    1  A    between atoms: O1_2  and  C2_3 
REMARK    2  A    between atoms: C4_5  and  C5_6 
REMARK    3  A    between atoms: C5_6  and  C6_7 
REMARK    4  A    between atoms: C6_7  and  C7_8 
REMARK    5  A    between atoms: C8_10  and  O3_11 
REMARK    6  A    between atoms: N1_23  and  O4_25 
ROOT
HETATM    1  C2  UNL     1      -4.358  63.334  61.558  1.00  0.00     0.079 A 
HETATM    2  C3  UNL     1      -5.029  62.173  61.270  1.00  0.00     0.044 A 
HETATM    3  C4  UNL     1      -5.405  61.885  59.954  1.00  0.00    -0.052 A 
HETATM    4  C12 UNL     1      -5.103  62.759  58.966  1.00  0.00     0.045 A 
HETATM    5  C13 UNL     1      -4.422  63.949  59.219  1.00  0.00     0.088 A 
HETATM    6  C14 UNL     1      -4.062  64.216  60.510  1.00  0.00     0.032 A 
HETATM    7  C15 UNL     1      -3.362  65.520  60.511  1.00  0.00     0.173 A 
HETATM    8  S1  UNL     1      -4.238  66.695  61.589  1.00  0.00    -0.078 SA
HETATM    9  C16 UNL     1      -3.370  65.946  59.110  1.00  0.00     0.163 A 
HETATM   10  N1  UNL     1      -2.838  67.062  58.718  1.00  0.00    -0.249 N 
ATOM     11  H1  UNL     1      -2.884  67.289  57.725  1.00  0.00     0.196 HD
HETATM   12  O5  UNL     1      -4.010  64.985  58.368  1.00  0.00    -0.294 OA
ENDROOT
BRANCH   3  13
HETATM   13  C5  UNL     1      -6.127  60.607  59.752  1.00  0.00     0.045 C 
BRANCH  13  14
HETATM   14  C6  UNL     1      -5.239  59.409  59.968  1.00  0.00     0.070 C 
BRANCH  14  15
HETATM   15  C7  UNL     1      -6.003  58.339  60.643  1.00  0.00     0.064 A 
HETATM   16  O2  UNL     1      -5.926  58.013  61.910  1.00  0.00    -0.291 OA
HETATM   17  C8  UNL     1      -6.742  57.022  62.159  1.00  0.00     0.206 A 
HETATM   18  C9  UNL     1      -7.388  56.679  60.993  1.00  0.00     0.100 A 
HETATM   19 CL1  UNL     1      -8.585  55.414  60.772  1.00  0.00    -0.079 Cl
HETATM   20  C10 UNL     1      -6.929  57.515  59.995  1.00  0.00    -0.006 A 
HETATM   21  C11 UNL     1      -7.311  57.549  58.577  1.00  0.00     0.052 C 
BRANCH  17  22
HETATM   22  O3  UNL     1      -6.895  56.447  63.406  1.00  0.00    -0.339 OA
ATOM     23  H3  UNL     1      -7.223  56.913  64.167  1.00  0.00     0.220 HD
ENDBRANCH  17  22
ENDBRANCH  14  15
ENDBRANCH  13  14
ENDBRANCH   3  13
BRANCH   1  24
HETATM   24  O1  UNL     1      -3.959  63.677  62.840  1.00  0.00    -0.355 OA
HETATM   25  C1  UNL     1      -4.370  62.894  63.945  1.00  0.00     0.210 C 
ENDBRANCH   1  24
BRANCH  10  26
HETATM   26  O4  UNL     1      -2.228  67.941  59.542  1.00  0.00    -0.288 OA
ATOM     27  H4  UNL     1      -2.687  68.523  60.136  1.00  0.00     0.244 HD
ENDBRANCH  10  26
TORSDOF 6
ENDMDL
MODEL 3
REMARK VINA RESULT: -8.849652524      1.421      2.633
REMARK  6 active torsions:
REMARK  status: ('A' for Active; 'I' for Inactive)
REMARK    1  A    between atoms: O1_2  and  C2_3 
REMARK    2  A    between atoms: C4_5  and  C5_6 
REMARK    3  A    between atoms: C5_6  and  C6_7 
REMARK    4  A    between atoms: C6_7  and  C7_8 
REMARK    5  A    between atoms: C8_10  and  O3_11 
REMARK    6  A    between atoms: N1_23  and  O4_25 
ROOT
HETATM    1  C2  UNL     1      -4.521  62.223  62.254  1.00  0.00     0.079 A 
HETATM    2  C3  UNL     1      -5.143  61.043  62.570  1.00  0.00     0.044 A 
HETATM    3  C4  UNL     1      -5.838  60.330  61.589  1.00  0.00    -0.052 A 
HETATM    4  C12 UNL     1      -5.894  60.810  60.325  1.00  0.00     0.045 A 
HETATM    5  C13 UNL     1      -5.275  62.006  59.965  1.00  0.00     0.088 A 
HETATM    6  C14 UNL     1      -4.599  62.692  60.935  1.00  0.00     0.032 A 
HETATM    7  C15 UNL     1      -4.039  63.909  60.305  1.00  0.00     0.173 A 
HETATM    8  S1  UNL     1      -4.684  65.392  61.139  1.00  0.00    -0.078 SA
HETATM    9  C16 UNL     1      -4.467  63.833  58.907  1.00  0.00     0.163 A 
HETATM   10  N1  UNL     1      -4.159  64.741  58.035  1.00  0.00    -0.249 N 
ATOM     11  H1  UNL     1      -4.494  64.617  57.079  1.00  0.00     0.196 HD
HETATM   12  O5  UNL     1      -5.200  62.685  58.740  1.00  0.00    -0.294 OA
ENDROOT
BRANCH   3  13
HETATM   13  C5  UNL     1      -6.476  59.069  62.036  1.00  0.00     0.045 C 
BRANCH  13  14
HETATM   14  C6  UNL     1      -5.885  57.859  61.360  1.00  0.00     0.070 C 
BRANCH  14  15
HETATM   15  C7  UNL     1      -6.702  56.667  61.670  1.00  0.00     0.064 A 
HETATM   16  O2  UNL     1      -6.533  55.855  62.684  1.00  0.00    -0.291 OA
HETATM   17  C8  UNL     1      -7.437  54.910  62.646  1.00  0.00     0.206 A 
HETATM   18  C9  UNL     1      -8.242  55.114  61.548  1.00  0.00     0.100 A 
HETATM   19 CL1  UNL     1      -9.606  54.137  61.032  1.00  0.00    -0.079 Cl
HETATM   20  C10 UNL     1      -7.789  56.245  60.897  1.00  0.00    -0.006 A 
HETATM   21  C11 UNL     1      -8.312  56.874  59.678  1.00  0.00     0.052 C 
BRANCH  17  22
HETATM   22  O3  UNL     1      -7.528  53.895  63.579  1.00  0.00    -0.339 OA
ATOM     23  H3  UNL     1      -8.157  53.184  63.528  1.00  0.00     0.220 HD
ENDBRANCH  17  22
ENDBRANCH  14  15
ENDBRANCH  13  14
ENDBRANCH   3  13
BRANCH   1  24
HETATM   24  O1  UNL     1      -3.816  62.977  63.180  1.00  0.00    -0.355 OA
HETATM   25  C1  UNL     1      -4.213  62.984  64.538  1.00  0.00     0.210 C 
ENDBRANCH   1  24
BRANCH  10  26
HETATM   26  O4  UNL     1      -3.424  65.840  58.311  1.00  0.00    -0.288 OA
ATOM     27  H4  UNL     1      -3.792  66.678  58.566  1.00  0.00     0.244 HD
ENDBRANCH  10  26
TORSDOF 6
ENDMDL
MODEL 4
REMARK VINA RESULT: -8.825215956      4.504      8.414
REMARK  6 active torsions:
REMARK  status: ('A' for Active; 'I' for Inactive)
REMARK    1  A    between atoms: O1_2  and  C2_3 
REMARK    2  A    between atoms: C4_5  and  C5_6 
REMARK    3  A    between atoms: C5_6  and  C6_7 
REMARK    4  A    between atoms: C6_7  and  C7_8 
REMARK    5  A    between atoms: C8_10  and  O3_11 
REMARK    6  A    between atoms: N1_23  and  O4_25 
ROOT
HETATM    1  C2  UNL     1      -6.155  58.615  63.029  1.00  0.00     0.079 A 
HETATM    2  C3  UNL     1      -5.706  59.513  62.094  1.00  0.00     0.044 A 
HETATM    3  C4  UNL     1      -5.555  59.123  60.760  1.00  0.00    -0.052 A 
HETATM    4  C12 UNL     1      -5.854  57.854  60.395  1.00  0.00     0.045 A 
HETATM    5  C13 UNL     1      -6.313  56.913  61.316  1.00  0.00     0.088 A 
HETATM    6  C14 UNL     1      -6.455  57.310  62.616  1.00  0.00     0.032 A 
HETATM    7  C15 UNL     1      -6.950  56.143  63.381  1.00  0.00     0.173 A 
HETATM    8  S1  UNL     1      -5.775  55.725  64.706  1.00  0.00    -0.078 SA
HETATM    9  C16 UNL     1      -7.066  55.072  62.389  1.00  0.00     0.163 A 
HETATM   10  N1  UNL     1      -7.476  53.881  62.695  1.00  0.00    -0.249 N 
ATOM     11  H1  UNL     1      -7.530  53.188  61.948  1.00  0.00     0.196 HD
HETATM   12  O5  UNL     1      -6.678  55.568  61.169  1.00  0.00    -0.294 OA
ENDROOT
BRANCH   3  13
HETATM   13  C5  UNL     1      -5.061  60.168  59.832  1.00  0.00     0.045 C 
BRANCH  13  14
HETATM   14  C6  UNL     1      -6.101  61.221  59.553  1.00  0.00     0.070 C 
BRANCH  14  15
HETATM   15  C7  UNL     1      -5.475  62.559  59.587  1.00  0.00     0.064 A 
HETATM   16  O2  UNL     1      -4.868  63.156  58.590  1.00  0.00    -0.291 OA
HETATM   17  C8  UNL     1      -4.435  64.328  58.978  1.00  0.00     0.206 A 
HETATM   18  C9  UNL     1      -4.777  64.510  60.299  1.00  0.00     0.100 A 
HETATM   19 CL1  UNL     1      -4.437  65.908  61.304  1.00  0.00    -0.079 Cl
HETATM   20  C10 UNL     1      -5.451  63.380  60.719  1.00  0.00    -0.006 A 
HETATM   21  C11 UNL     1      -6.019  63.088  62.042  1.00  0.00     0.052 C 
BRANCH  17  22
HETATM   22  O3  UNL     1      -3.752  65.205  58.157  1.00  0.00    -0.339 OA
ATOM     23  H3  UNL     1      -3.166  65.881  58.477  1.00  0.00     0.220 HD
ENDBRANCH  17  22
ENDBRANCH  14  15
ENDBRANCH  13  14
ENDBRANCH   3  13
BRANCH   1  24
HETATM   24  O1  UNL     1      -6.326  58.940  64.365  1.00  0.00    -0.355 OA
HETATM   25  C1  UNL     1      -6.132  60.271  64.803  1.00  0.00     0.210 C 
ENDBRANCH   1  24
BRANCH  10  26
HETATM   26  O4  UNL     1      -7.836  53.499  63.940  1.00  0.00    -0.288 OA
ATOM     27  H4  UNL     1      -8.597  53.832  64.400  1.00  0.00     0.244 HD
ENDBRANCH  10  26
TORSDOF 6
ENDMDL
MODEL 5
REMARK VINA RESULT: -8.779776148      4.646      8.592
REMARK  6 active torsions:
REMARK  status: ('A' for Active; 'I' for Inactive)
REMARK    1  A    between atoms: O1_2  and  C2_3 
REMARK    2  A    between atoms: C4_5  and  C5_6 
REMARK    3  A    between atoms: C5_6  and  C6_7 
REMARK    4  A    between atoms: C6_7  and  C7_8 
REMARK    5  A    between atoms: C8_10  and  O3_11 
REMARK    6  A    between atoms: N1_23  and  O4_25 
ROOT
HETATM    1  C2  UNL     1      -6.613  59.928  62.129  1.00  0.00     0.079 A 
HETATM    2  C3  UNL     1      -5.931  60.991  61.596  1.00  0.00     0.044 A 
HETATM    3  C4  UNL     1      -5.639  61.025  60.229  1.00  0.00    -0.052 A 
HETATM    4  C12 UNL     1      -6.033  60.002  59.435  1.00  0.00     0.045 A 
HETATM    5  C13 UNL     1      -6.728  58.904  59.940  1.00  0.00     0.088 A 
HETATM    6  C14 UNL     1      -7.006  58.886  61.278  1.00  0.00     0.032 A 
HETATM    7  C15 UNL     1      -7.742  57.632  61.557  1.00  0.00     0.173 A 
HETATM    8  S1  UNL     1      -6.827  56.634  62.772  1.00  0.00    -0.078 SA
HETATM    9  C16 UNL     1      -7.842  56.964  60.259  1.00  0.00     0.163 A 
HETATM   10  N1  UNL     1      -8.431  55.819  60.108  1.00  0.00    -0.249 N 
ATOM     11  H1  UNL     1      -8.460  55.417  59.171  1.00  0.00     0.196 HD
HETATM   12  O5  UNL     1      -7.227  57.752  59.317  1.00  0.00    -0.294 OA
ENDROOT
BRANCH   3  13
HETATM   13  C5  UNL     1      -4.896  62.217  59.755  1.00  0.00     0.045 C 
BRANCH  13  14
HETATM   14  C6  UNL     1      -5.775  63.436  59.658  1.00  0.00     0.070 C 
BRANCH  14  15
HETATM   15  C7  UNL     1      -5.056  64.611  60.193  1.00  0.00     0.064 A 
HETATM   16  O2  UNL     1      -5.329  65.245  61.308  1.00  0.00    -0.291 OA
HETATM   17  C8  UNL     1      -4.490  66.236  61.466  1.00  0.00     0.206 A 
HETATM   18  C9  UNL     1      -3.621  66.253  60.399  1.00  0.00     0.100 A 
HETATM   19 CL1  UNL     1      -2.302  67.377  60.118  1.00  0.00    -0.079 Cl
HETATM   20  C10 UNL     1      -3.964  65.212  59.559  1.00  0.00    -0.006 A 
HETATM   21  C11 UNL     1      -3.341  64.813  58.290  1.00  0.00     0.052 C 
BRANCH  17  22
HETATM   22  O3  UNL     1      -4.513  67.097  62.547  1.00  0.00    -0.339 OA
ATOM     23  H3  UNL     1      -4.714  68.023  62.481  1.00  0.00     0.220 HD
ENDBRANCH  17  22
ENDBRANCH  14  15
ENDBRANCH  13  14
ENDBRANCH   3  13
BRANCH   1  24
HETATM   24  O1  UNL     1      -6.933  59.835  63.474  1.00  0.00    -0.355 OA
HETATM   25  C1  UNL     1      -5.989  60.216  64.457  1.00  0.00     0.210 C 
ENDBRANCH   1  24
BRANCH  10  26
HETATM   26  O4  UNL     1      -9.008  55.125  61.114  1.00  0.00    -0.288 OA
ATOM     27  H4  UNL     1      -9.719  54.506  60.995  1.00  0.00     0.244 HD
ENDBRANCH  10  26
TORSDOF 6
ENDMDL
