MODEL 1
REMARK VINA RESULT: -6.525809216      0.000      0.000
REMARK  13 active torsions:
REMARK  status: ('A' for Active; 'I' for Inactive)
REMARK    1  A    between atoms: O1_2  and  C2_3 
REMARK    2  A    between atoms: C2_3  and  C4_5 
REMARK    3  A    between atoms: C4_5  and  C5_6 
REMARK    4  A    between atoms: C5_6  and  O3_8 
REMARK    5  A    between atoms: O3_8  and  C6_9 
REMARK    6  A    between atoms: C8_11  and  C9_12 
REMARK    7  A    between atoms: C9_12  and  C11_14 
REMARK    8  A    between atoms: C11_14  and  C12_15 
REMARK    9  A    between atoms: C12_15  and  C13_16 
REMARK   10  A    between atoms: C13_16  and  C14_17 
REMARK   11  A    between atoms: C17_20  and  O4_21 
REMARK   12  A    between atoms: C18_23  and  O5_24 
REMARK   13  A    between atoms: C27_34  and  O6_35 
ROOT
HETATM    1  C6  UNL     1      27.781   4.022  -1.032  1.00  0.00     0.143 C 
HETATM    2  C7  UNL     1      28.328   4.300  -2.389  1.00  0.00     0.041 C 
HETATM    3  C8  UNL     1      29.613   3.453  -2.465  1.00  0.00     0.029 C 
HETATM    4  C17 UNL     1      30.107   3.295  -1.108  1.00  0.00     0.098 C 
HETATM    5  C18 UNL     1      31.477   3.696  -0.731  1.00  0.00     0.154 C 
HETATM    6  C19 UNL     1      31.576   4.346   0.664  1.00  0.00     0.040 C 
HETATM    7  C20 UNL     1      30.676   5.542   0.588  1.00  0.00     0.002 C 
HETATM    8  C21 UNL     1      29.272   5.060   0.550  1.00  0.00     0.004 C 
HETATM    9  C22 UNL     1      28.656   4.932   1.946  1.00  0.00     0.007 C 
HETATM   10  C23 UNL     1      28.873   6.117   2.821  1.00  0.00     0.010 C 
HETATM   11  C24 UNL     1      29.753   7.187   2.267  1.00  0.00     0.030 C 
HETATM   12  C25 UNL     1      30.378   7.902   3.419  1.00  0.00    -0.019 A 
HETATM   13  C26 UNL     1      30.284   8.942   4.319  1.00  0.00     0.074 A 
HETATM   14  C27 UNL     1      31.388   8.892   5.131  1.00  0.00     0.183 A 
HETATM   15  O7  UNL     1      32.106   7.875   4.736  1.00  0.00    -0.292 OA
HETATM   16  C28 UNL     1      31.554   7.256   3.727  1.00  0.00     0.063 A 
HETATM   17  C29 UNL     1      31.748   6.095   2.789  1.00  0.00     0.075 C 
HETATM   18  C30 UNL     1      30.947   6.581   1.604  1.00  0.00    -0.026 C 
HETATM   19  C31 UNL     1      31.735   7.756   1.003  1.00  0.00     0.016 C 
HETATM   20  C32 UNL     1      29.004   3.787  -0.171  1.00  0.00     0.021 C 
HETATM   21  C33 UNL     1      28.561   2.682   0.797  1.00  0.00     0.021 C 
ENDROOT
BRANCH   1  22
HETATM   22  O3  UNL     1      26.852   2.943  -1.009  1.00  0.00    -0.315 OA
BRANCH  22  23
HETATM   23  C5  UNL     1      25.824   2.840  -1.933  1.00  0.00     0.261 C 
HETATM   24  O2  UNL     1      24.927   3.758  -1.781  1.00  0.00    -0.265 OA
BRANCH  23  25
HETATM   25  C4  UNL     1      25.693   1.839  -2.996  1.00  0.00     0.142 C 
BRANCH  25  26
HETATM   26  C2  UNL     1      26.785   1.781  -4.005  1.00  0.00     0.126 C 
HETATM   27  C3  UNL     1      26.539   2.622  -5.234  1.00  0.00     0.040 C 
BRANCH  26  28
HETATM   28  O1  UNL     1      26.890   0.418  -4.388  1.00  0.00    -0.391 OA
HETATM   29  C1  UNL     1      28.189   0.106  -4.786  1.00  0.00     0.202 C 
ENDBRANCH  26  28
ENDBRANCH  25  26
ENDBRANCH  23  25
ENDBRANCH  22  23
ENDBRANCH   1  22
BRANCH   3  30
HETATM   30  C9  UNL     1      30.375   3.971  -3.603  1.00  0.00    -0.012 C 
HETATM   31  C10 UNL     1      30.471   3.128  -4.834  1.00  0.00     0.010 C 
BRANCH  30  32
HETATM   32  C11 UNL     1      30.179   5.439  -3.906  1.00  0.00     0.005 C 
BRANCH  32  33
HETATM   33  C12 UNL     1      31.361   6.259  -3.501  1.00  0.00     0.001 C 
BRANCH  33  34
HETATM   34  C13 UNL     1      30.914   7.390  -2.595  1.00  0.00     0.004 C 
BRANCH  34  35
HETATM   35  C14 UNL     1      29.482   7.786  -2.849  1.00  0.00    -0.023 C 
HETATM   36  C15 UNL     1      28.840   8.044  -1.493  1.00  0.00     0.009 C 
HETATM   37  C16 UNL     1      29.388   9.100  -3.600  1.00  0.00     0.009 C 
ENDBRANCH  34  35
ENDBRANCH  33  34
ENDBRANCH  32  33
ENDBRANCH  30  32
ENDBRANCH   3  30
BRANCH   4  38
HETATM   38  O4  UNL     1      30.124   1.878  -0.857  1.00  0.00    -0.386 OA
ATOM     39  H4  UNL     1      30.507   1.771   0.006  1.00  0.00     0.210 HD
ENDBRANCH   4  38
BRANCH   5  40
HETATM   40  O5  UNL     1      32.387   2.615  -0.580  1.00  0.00    -0.392 OA
ATOM     41  H5  UNL     1      33.268   2.796  -0.883  1.00  0.00     0.210 HD
ENDBRANCH   5  40
BRANCH  14  42
HETATM   42  O6  UNL     1      31.633   9.788   6.164  1.00  0.00    -0.341 OA
ATOM     43  H6  UNL     1      32.098   9.565   6.961  1.00  0.00     0.220 HD
ENDBRANCH  14  42
TORSDOF 13
ENDMDL
MODEL 2
REMARK VINA RESULT: -6.288771822      3.240      6.063
REMARK  13 active torsions:
REMARK  status: ('A' for Active; 'I' for Inactive)
REMARK    1  A    between atoms: O1_2  and  C2_3 
REMARK    2  A    between atoms: C2_3  and  C4_5 
REMARK    3  A    between atoms: C4_5  and  C5_6 
REMARK    4  A    between atoms: C5_6  and  O3_8 
REMARK    5  A    between atoms: O3_8  and  C6_9 
REMARK    6  A    between atoms: C8_11  and  C9_12 
REMARK    7  A    between atoms: C9_12  and  C11_14 
REMARK    8  A    between atoms: C11_14  and  C12_15 
REMARK    9  A    between atoms: C12_15  and  C13_16 
REMARK   10  A    between atoms: C13_16  and  C14_17 
REMARK   11  A    between atoms: C17_20  and  O4_21 
REMARK   12  A    between atoms: C18_23  and  O5_24 
REMARK   13  A    between atoms: C27_34  and  O6_35 
ROOT
HETATM    1  C6  UNL     1      27.369   3.734  -3.010  1.00  0.00     0.143 C 
HETATM    2  C7  UNL     1      27.201   4.213  -4.410  1.00  0.00     0.041 C 
HETATM    3  C8  UNL     1      27.062   2.923  -5.241  1.00  0.00     0.029 C 
HETATM    4  C17 UNL     1      27.772   1.873  -4.533  1.00  0.00     0.098 C 
HETATM    5  C18 UNL     1      28.847   1.094  -5.177  1.00  0.00     0.154 C 
HETATM    6  C19 UNL     1      30.033   0.774  -4.245  1.00  0.00     0.040 C 
HETATM    7  C20 UNL     1      30.540   2.114  -3.807  1.00  0.00     0.002 C 
HETATM    8  C21 UNL     1      29.543   2.704  -2.879  1.00  0.00     0.004 C 
HETATM    9  C22 UNL     1      29.816   2.342  -1.415  1.00  0.00     0.007 C 
HETATM   10  C23 UNL     1      31.230   2.530  -0.993  1.00  0.00     0.010 C 
HETATM   11  C24 UNL     1      32.189   2.915  -2.070  1.00  0.00     0.030 C 
HETATM   12  C25 UNL     1      33.542   2.425  -1.669  1.00  0.00    -0.019 A 
HETATM   13  C26 UNL     1      34.721   2.704  -1.013  1.00  0.00     0.074 A 
HETATM   14  C27 UNL     1      35.530   1.601  -1.121  1.00  0.00     0.183 A 
HETATM   15  O7  UNL     1      34.867   0.709  -1.808  1.00  0.00    -0.292 OA
HETATM   16  C28 UNL     1      33.687   1.146  -2.157  1.00  0.00     0.063 A 
HETATM   17  C29 UNL     1      32.438   0.747  -2.897  1.00  0.00     0.075 C 
HETATM   18  C30 UNL     1      31.930   2.111  -3.302  1.00  0.00    -0.026 C 
HETATM   19  C31 UNL     1      32.909   2.640  -4.362  1.00  0.00     0.016 C 
HETATM   20  C32 UNL     1      28.108   2.419  -3.144  1.00  0.00     0.021 C 
HETATM   21  C33 UNL     1      27.499   1.545  -2.040  1.00  0.00     0.021 C 
ENDROOT
BRANCH   1  22
HETATM   22  O3  UNL     1      26.140   3.627  -2.299  1.00  0.00    -0.315 OA
BRANCH  22  23
HETATM   23  C5  UNL     1      26.036   3.965  -0.959  1.00  0.00     0.261 C 
HETATM   24  O2  UNL     1      24.868   3.706  -0.471  1.00  0.00    -0.265 OA
BRANCH  23  25
HETATM   25  C4  UNL     1      27.082   4.552  -0.115  1.00  0.00     0.142 C 
BRANCH  25  26
HETATM   26  C2  UNL     1      27.095   4.151   1.318  1.00  0.00     0.126 C 
HETATM   27  C3  UNL     1      27.521   5.247   2.265  1.00  0.00     0.040 C 
BRANCH  26  28
HETATM   28  O1  UNL     1      28.012   3.072   1.413  1.00  0.00    -0.391 OA
HETATM   29  C1  UNL     1      29.194   3.471   2.035  1.00  0.00     0.202 C 
ENDBRANCH  26  28
ENDBRANCH  25  26
ENDBRANCH  23  25
ENDBRANCH  22  23
ENDBRANCH   1  22
BRANCH   3  30
HETATM   30  C9  UNL     1      27.273   3.314  -6.637  1.00  0.00    -0.012 C 
HETATM   31  C10 UNL     1      26.073   3.507  -7.509  1.00  0.00     0.010 C 
BRANCH  30  32
HETATM   32  C11 UNL     1      28.345   4.355  -6.868  1.00  0.00     0.005 C 
BRANCH  32  33
HETATM   33  C12 UNL     1      29.680   3.737  -7.133  1.00  0.00     0.001 C 
BRANCH  33  34
HETATM   34  C13 UNL     1      30.777   4.630  -6.586  1.00  0.00     0.004 C 
BRANCH  34  35
HETATM   35  C14 UNL     1      30.220   5.812  -5.833  1.00  0.00    -0.023 C 
HETATM   36  C15 UNL     1      30.813   5.772  -4.432  1.00  0.00     0.009 C 
HETATM   37  C16 UNL     1      30.680   7.127  -6.432  1.00  0.00     0.009 C 
ENDBRANCH  34  35
ENDBRANCH  33  34
ENDBRANCH  32  33
ENDBRANCH  30  32
ENDBRANCH   3  30
BRANCH   4  38
HETATM   38  O4  UNL     1      26.792   0.859  -4.244  1.00  0.00    -0.386 OA
ATOM     39  H4  UNL     1      27.192   0.286  -3.600  1.00  0.00     0.210 HD
ENDBRANCH   4  38
BRANCH   5  40
HETATM   40  O5  UNL     1      28.467  -0.218  -5.574  1.00  0.00    -0.392 OA
ATOM     41  H5  UNL     1      27.868  -0.652  -4.979  1.00  0.00     0.210 HD
ENDBRANCH   5  40
BRANCH  14  42
HETATM   42  O6  UNL     1      36.804   1.517  -0.576  1.00  0.00    -0.341 OA
ATOM     43  H6  UNL     1      37.603   1.558  -1.087  1.00  0.00     0.220 HD
ENDBRANCH  14  42
TORSDOF 13
ENDMDL
MODEL 3
REMARK VINA RESULT: -6.236558197      2.897      4.188
REMARK  13 active torsions:
REMARK  status: ('A' for Active; 'I' for Inactive)
REMARK    1  A    between atoms: O1_2  and  C2_3 
REMARK    2  A    between atoms: C2_3  and  C4_5 
REMARK    3  A    between atoms: C4_5  and  C5_6 
REMARK    4  A    between atoms: C5_6  and  O3_8 
REMARK    5  A    between atoms: O3_8  and  C6_9 
REMARK    6  A    between atoms: C8_11  and  C9_12 
REMARK    7  A    between atoms: C9_12  and  C11_14 
REMARK    8  A    between atoms: C11_14  and  C12_15 
REMARK    9  A    between atoms: C12_15  and  C13_16 
REMARK   10  A    between atoms: C13_16  and  C14_17 
REMARK   11  A    between atoms: C17_20  and  O4_21 
REMARK   12  A    between atoms: C18_23  and  O5_24 
REMARK   13  A    between atoms: C27_34  and  O6_35 
ROOT
HETATM    1  C6  UNL     1      27.941   2.839  -3.858  1.00  0.00     0.143 C 
HETATM    2  C7  UNL     1      28.358   3.758  -4.953  1.00  0.00     0.041 C 
HETATM    3  C8  UNL     1      29.436   2.971  -5.723  1.00  0.00     0.029 C 
HETATM    4  C17 UNL     1      30.056   2.054  -4.782  1.00  0.00     0.098 C 
HETATM    5  C18 UNL     1      31.513   2.052  -4.547  1.00  0.00     0.154 C 
HETATM    6  C19 UNL     1      31.908   1.825  -3.074  1.00  0.00     0.040 C 
HETATM    7  C20 UNL     1      31.253   2.948  -2.330  1.00  0.00     0.002 C 
HETATM    8  C21 UNL     1      29.789   2.701  -2.318  1.00  0.00     0.004 C 
HETATM    9  C22 UNL     1      29.339   1.892  -1.098  1.00  0.00     0.007 C 
HETATM   10  C23 UNL     1      29.887   2.382   0.196  1.00  0.00     0.010 C 
HETATM   11  C24 UNL     1      30.880   3.492   0.107  1.00  0.00     0.030 C 
HETATM   12  C25 UNL     1      31.770   3.401   1.304  1.00  0.00    -0.019 A 
HETATM   13  C26 UNL     1      31.990   3.786   2.608  1.00  0.00     0.074 A 
HETATM   14  C27 UNL     1      33.157   3.197   3.026  1.00  0.00     0.183 A 
HETATM   15  O7  UNL     1      33.611   2.496   2.021  1.00  0.00    -0.292 OA
HETATM   16  C28 UNL     1      32.828   2.583   0.979  1.00  0.00     0.063 A 
HETATM   17  C29 UNL     1      32.677   2.108  -0.442  1.00  0.00     0.075 C 
HETATM   18  C30 UNL     1      31.843   3.234  -1.006  1.00  0.00    -0.026 C 
HETATM   19  C31 UNL     1      32.762   4.466  -1.059  1.00  0.00     0.016 C 
HETATM   20  C32 UNL     1      29.193   2.058  -3.520  1.00  0.00     0.021 C 
HETATM   21  C33 UNL     1      28.669   0.652  -3.198  1.00  0.00     0.021 C 
ENDROOT
BRANCH   1  22
HETATM   22  O3  UNL     1      26.831   2.016  -4.203  1.00  0.00    -0.315 OA
BRANCH  22  23
HETATM   23  C5  UNL     1      25.717   1.907  -3.387  1.00  0.00     0.261 C 
HETATM   24  O2  UNL     1      24.643   1.630  -4.049  1.00  0.00    -0.265 OA
BRANCH  23  25
HETATM   25  C4  UNL     1      25.673   2.069  -1.930  1.00  0.00     0.142 C 
BRANCH  25  26
HETATM   26  C2  UNL     1      25.347   3.426  -1.413  1.00  0.00     0.126 C 
HETATM   27  C3  UNL     1      26.553   4.257  -1.046  1.00  0.00     0.040 C 
BRANCH  26  28
HETATM   28  O1  UNL     1      24.553   3.222  -0.255  1.00  0.00    -0.391 OA
HETATM   29  C1  UNL     1      25.303   2.658   0.776  1.00  0.00     0.202 C 
ENDBRANCH  26  28
ENDBRANCH  25  26
ENDBRANCH  23  25
ENDBRANCH  22  23
ENDBRANCH   1  22
BRANCH   3  30
HETATM   30  C9  UNL     1      30.136   3.950  -6.558  1.00  0.00    -0.012 C 
HETATM   31  C10 UNL     1      29.907   3.914  -8.035  1.00  0.00     0.010 C 
BRANCH  30  32
HETATM   32  C11 UNL     1      30.197   5.356  -6.003  1.00  0.00     0.005 C 
BRANCH  32  33
HETATM   33  C12 UNL     1      31.530   5.664  -5.402  1.00  0.00     0.001 C 
BRANCH  33  34
HETATM   34  C13 UNL     1      31.350   6.153  -3.978  1.00  0.00     0.004 C 
BRANCH  34  35
HETATM   35  C14 UNL     1      29.981   6.742  -3.751  1.00  0.00    -0.023 C 
HETATM   36  C15 UNL     1      29.519   6.287  -2.374  1.00  0.00     0.009 C 
HETATM   37  C16 UNL     1      30.024   8.256  -3.686  1.00  0.00     0.009 C 
ENDBRANCH  34  35
ENDBRANCH  33  34
ENDBRANCH  32  33
ENDBRANCH  30  32
ENDBRANCH   3  30
BRANCH   4  38
HETATM   38  O4  UNL     1      29.831   0.735  -5.312  1.00  0.00    -0.386 OA
ATOM     39  H4  UNL     1      30.242   0.135  -4.701  1.00  0.00     0.210 HD
ENDBRANCH   4  38
BRANCH   5  40
HETATM   40  O5  UNL     1      32.209   0.982  -5.173  1.00  0.00    -0.392 OA
ATOM     41  H5  UNL     1      33.132   1.148  -5.326  1.00  0.00     0.210 HD
ENDBRANCH   5  40
BRANCH  14  42
HETATM   42  O6  UNL     1      33.696   3.358   4.296  1.00  0.00    -0.341 OA
ATOM     43  H6  UNL     1      33.736   2.668   4.946  1.00  0.00     0.220 HD
ENDBRANCH  14  42
TORSDOF 13
ENDMDL
MODEL 4
REMARK VINA RESULT: -6.170140058      1.329      2.133
REMARK  13 active torsions:
REMARK  status: ('A' for Active; 'I' for Inactive)
REMARK    1  A    between atoms: O1_2  and  C2_3 
REMARK    2  A    between atoms: C2_3  and  C4_5 
REMARK    3  A    between atoms: C4_5  and  C5_6 
REMARK    4  A    between atoms: C5_6  and  O3_8 
REMARK    5  A    between atoms: O3_8  and  C6_9 
REMARK    6  A    between atoms: C8_11  and  C9_12 
REMARK    7  A    between atoms: C9_12  and  C11_14 
REMARK    8  A    between atoms: C11_14  and  C12_15 
REMARK    9  A    between atoms: C12_15  and  C13_16 
REMARK   10  A    between atoms: C13_16  and  C14_17 
REMARK   11  A    between atoms: C17_20  and  O4_21 
REMARK   12  A    between atoms: C18_23  and  O5_24 
REMARK   13  A    between atoms: C27_34  and  O6_35 
ROOT
HETATM    1  C6  UNL     1      27.709   4.245  -0.599  1.00  0.00     0.143 C 
HETATM    2  C7  UNL     1      28.225   4.476  -1.977  1.00  0.00     0.041 C 
HETATM    3  C8  UNL     1      29.473   3.578  -2.074  1.00  0.00     0.029 C 
HETATM    4  C17 UNL     1      30.002   3.426  -0.729  1.00  0.00     0.098 C 
HETATM    5  C18 UNL     1      31.397   3.780  -0.401  1.00  0.00     0.154 C 
HETATM    6  C19 UNL     1      31.563   4.451   0.977  1.00  0.00     0.040 C 
HETATM    7  C20 UNL     1      30.709   5.679   0.904  1.00  0.00     0.002 C 
HETATM    8  C21 UNL     1      29.287   5.253   0.917  1.00  0.00     0.004 C 
HETATM    9  C22 UNL     1      28.709   5.175   2.334  1.00  0.00     0.007 C 
HETATM   10  C23 UNL     1      28.998   6.366   3.178  1.00  0.00     0.010 C 
HETATM   11  C24 UNL     1      29.901   7.390   2.577  1.00  0.00     0.030 C 
HETATM   12  C25 UNL     1      30.589   8.102   3.696  1.00  0.00    -0.019 A 
HETATM   13  C26 UNL     1      30.562   9.161   4.577  1.00  0.00     0.074 A 
HETATM   14  C27 UNL     1      31.688   9.083   5.358  1.00  0.00     0.183 A 
HETATM   15  O7  UNL     1      32.354   8.031   4.961  1.00  0.00    -0.292 OA
HETATM   16  C28 UNL     1      31.747   7.416   3.981  1.00  0.00     0.063 A 
HETATM   17  C29 UNL     1      31.868   6.230   3.061  1.00  0.00     0.075 C 
HETATM   18  C30 UNL     1      31.051   6.725   1.891  1.00  0.00    -0.026 C 
HETATM   19  C31 UNL     1      31.865   7.858   1.244  1.00  0.00     0.016 C 
HETATM   20  C32 UNL     1      28.947   3.979   0.230  1.00  0.00     0.021 C 
HETATM   21  C33 UNL     1      28.491   2.909   1.233  1.00  0.00     0.021 C 
ENDROOT
BRANCH   1  22
HETATM   22  O3  UNL     1      26.740   3.204  -0.526  1.00  0.00    -0.315 OA
BRANCH  22  23
HETATM   23  C5  UNL     1      25.758   3.048  -1.492  1.00  0.00     0.261 C 
HETATM   24  O2  UNL     1      24.876   3.992  -1.459  1.00  0.00    -0.265 OA
BRANCH  23  25
HETATM   25  C4  UNL     1      25.656   1.968  -2.479  1.00  0.00     0.142 C 
BRANCH  25  26
HETATM   26  C2  UNL     1      26.637   1.984  -3.598  1.00  0.00     0.126 C 
HETATM   27  C3  UNL     1      26.014   1.880  -4.969  1.00  0.00     0.040 C 
BRANCH  26  28
HETATM   28  O1  UNL     1      27.487   0.867  -3.387  1.00  0.00    -0.391 OA
HETATM   29  C1  UNL     1      28.294   0.633  -4.499  1.00  0.00     0.202 C 
ENDBRANCH  26  28
ENDBRANCH  25  26
ENDBRANCH  23  25
ENDBRANCH  22  23
ENDBRANCH   1  22
BRANCH   3  30
HETATM   30  C9  UNL     1      30.219   4.044  -3.244  1.00  0.00    -0.012 C 
HETATM   31  C10 UNL     1      31.174   3.098  -3.899  1.00  0.00     0.010 C 
BRANCH  30  32
HETATM   32  C11 UNL     1      29.429   4.868  -4.236  1.00  0.00     0.005 C 
BRANCH  32  33
HETATM   33  C12 UNL     1      29.176   4.125  -5.508  1.00  0.00     0.001 C 
BRANCH  33  34
HETATM   34  C13 UNL     1      29.570   4.987  -6.693  1.00  0.00     0.004 C 
BRANCH  34  35
HETATM   35  C14 UNL     1      28.929   4.514  -7.973  1.00  0.00    -0.023 C 
HETATM   36  C15 UNL     1      27.532   4.025  -7.622  1.00  0.00     0.009 C 
HETATM   37  C16 UNL     1      28.727   5.653  -8.953  1.00  0.00     0.009 C 
ENDBRANCH  34  35
ENDBRANCH  33  34
ENDBRANCH  32  33
ENDBRANCH  30  32
ENDBRANCH   3  30
BRANCH   4  38
HETATM   38  O4  UNL     1      29.972   2.014  -0.451  1.00  0.00    -0.386 OA
ATOM     39  H4  UNL     1      30.698   1.849   0.139  1.00  0.00     0.210 HD
ENDBRANCH   4  38
BRANCH   5  40
HETATM   40  O5  UNL     1      32.268   2.666  -0.256  1.00  0.00    -0.392 OA
ATOM     41  H5  UNL     1      32.965   2.624  -0.900  1.00  0.00     0.210 HD
ENDBRANCH   5  40
BRANCH  14  42
HETATM   42  O6  UNL     1      31.999   9.988   6.364  1.00  0.00    -0.341 OA
ATOM     43  H6  UNL     1      31.502  10.778   6.538  1.00  0.00     0.220 HD
ENDBRANCH  14  42
TORSDOF 13
ENDMDL
MODEL 5
REMARK VINA RESULT: -6.155635178      2.919      5.973
REMARK  13 active torsions:
REMARK  status: ('A' for Active; 'I' for Inactive)
REMARK    1  A    between atoms: O1_2  and  C2_3 
REMARK    2  A    between atoms: C2_3  and  C4_5 
REMARK    3  A    between atoms: C4_5  and  C5_6 
REMARK    4  A    between atoms: C5_6  and  O3_8 
REMARK    5  A    between atoms: O3_8  and  C6_9 
REMARK    6  A    between atoms: C8_11  and  C9_12 
REMARK    7  A    between atoms: C9_12  and  C11_14 
REMARK    8  A    between atoms: C11_14  and  C12_15 
REMARK    9  A    between atoms: C12_15  and  C13_16 
REMARK   10  A    between atoms: C13_16  and  C14_17 
REMARK   11  A    between atoms: C17_20  and  O4_21 
REMARK   12  A    between atoms: C18_23  and  O5_24 
REMARK   13  A    between atoms: C27_34  and  O6_35 
ROOT
HETATM    1  C6  UNL     1      28.167   3.373  -2.490  1.00  0.00     0.143 C 
HETATM    2  C7  UNL     1      27.993   4.751  -1.952  1.00  0.00     0.041 C 
HETATM    3  C8  UNL     1      28.706   5.654  -2.976  1.00  0.00     0.029 C 
HETATM    4  C17 UNL     1      29.747   4.859  -3.604  1.00  0.00     0.098 C 
HETATM    5  C18 UNL     1      31.159   5.289  -3.599  1.00  0.00     0.154 C 
HETATM    6  C19 UNL     1      32.163   4.136  -3.402  1.00  0.00     0.040 C 
HETATM    7  C20 UNL     1      31.790   3.532  -2.083  1.00  0.00     0.002 C 
HETATM    8  C21 UNL     1      30.499   2.818  -2.251  1.00  0.00     0.004 C 
HETATM    9  C22 UNL     1      30.687   1.350  -2.646  1.00  0.00     0.007 C 
HETATM   10  C23 UNL     1      31.688   0.619  -1.822  1.00  0.00     0.010 C 
HETATM   11  C24 UNL     1      32.444   1.438  -0.832  1.00  0.00     0.030 C 
HETATM   12  C25 UNL     1      33.763   0.775  -0.606  1.00  0.00    -0.019 A 
HETATM   13  C26 UNL     1      34.483  -0.137   0.135  1.00  0.00     0.074 A 
HETATM   14  C27 UNL     1      35.764  -0.155  -0.356  1.00  0.00     0.183 A 
HETATM   15  O7  UNL     1      35.807   0.703  -1.340  1.00  0.00    -0.292 OA
HETATM   16  C28 UNL     1      34.651   1.281  -1.529  1.00  0.00     0.063 A 
HETATM   17  C29 UNL     1      33.952   2.296  -2.393  1.00  0.00     0.075 C 
HETATM   18  C30 UNL     1      32.860   2.736  -1.446  1.00  0.00    -0.026 C 
HETATM   19  C31 UNL     1      33.553   3.528  -0.325  1.00  0.00     0.016 C 
HETATM   20  C32 UNL     1      29.509   3.406  -3.191  1.00  0.00     0.021 C 
HETATM   21  C33 UNL     1      29.301   2.506  -4.418  1.00  0.00     0.021 C 
ENDROOT
BRANCH   1  22
HETATM   22  O3  UNL     1      27.095   2.955  -3.330  1.00  0.00    -0.315 OA
BRANCH  22  23
HETATM   23  C5  UNL     1      26.058   2.167  -2.857  1.00  0.00     0.261 C 
HETATM   24  O2  UNL     1      25.749   1.213  -3.672  1.00  0.00    -0.265 OA
BRANCH  23  25
HETATM   25  C4  UNL     1      25.339   2.326  -1.588  1.00  0.00     0.142 C 
BRANCH  25  26
HETATM   26  C2  UNL     1      26.045   1.886  -0.355  1.00  0.00     0.126 C 
HETATM   27  C3  UNL     1      25.337   0.793   0.409  1.00  0.00     0.040 C 
BRANCH  26  28
HETATM   28  O1  UNL     1      26.147   3.037   0.468  1.00  0.00    -0.391 OA
HETATM   29  C1  UNL     1      24.984   3.804   0.406  1.00  0.00     0.202 C 
ENDBRANCH  26  28
ENDBRANCH  25  26
ENDBRANCH  23  25
ENDBRANCH  22  23
ENDBRANCH   1  22
BRANCH   3  30
HETATM   30  C9  UNL     1      28.891   6.949  -2.316  1.00  0.00    -0.012 C 
HETATM   31  C10 UNL     1      28.088   8.113  -2.801  1.00  0.00     0.010 C 
BRANCH  30  32
HETATM   32  C11 UNL     1      29.016   6.901  -0.810  1.00  0.00     0.005 C 
BRANCH  32  33
HETATM   33  C12 UNL     1      30.436   7.017  -0.360  1.00  0.00     0.001 C 
BRANCH  33  34
HETATM   34  C13 UNL     1      30.803   5.818   0.493  1.00  0.00     0.004 C 
BRANCH  34  35
HETATM   35  C14 UNL     1      29.602   5.232   1.191  1.00  0.00    -0.023 C 
HETATM   36  C15 UNL     1      29.770   3.719   1.179  1.00  0.00     0.009 C 
HETATM   37  C16 UNL     1      29.555   5.625   2.654  1.00  0.00     0.009 C 
ENDBRANCH  34  35
ENDBRANCH  33  34
ENDBRANCH  32  33
ENDBRANCH  30  32
ENDBRANCH   3  30
BRANCH   4  38
HETATM   38  O4  UNL     1      29.438   4.842  -5.009  1.00  0.00    -0.386 OA
ATOM     39  H4  UNL     1      29.133   3.962  -5.198  1.00  0.00     0.210 HD
ENDBRANCH   4  38
BRANCH   5  40
HETATM   40  O5  UNL     1      31.616   5.824  -4.835  1.00  0.00    -0.392 OA
ATOM     41  H5  UNL     1      30.934   5.955  -5.484  1.00  0.00     0.210 HD
ENDBRANCH   5  40
BRANCH  14  42
HETATM   42  O6  UNL     1      36.776  -0.962   0.147  1.00  0.00    -0.341 OA
ATOM     43  H6  UNL     1      37.582  -0.630   0.523  1.00  0.00     0.220 HD
ENDBRANCH  14  42
TORSDOF 13
ENDMDL
