MODEL 1
REMARK VINA RESULT: -6.811487788      0.000      0.000
REMARK  7 active torsions:
REMARK  status: ('A' for Active; 'I' for Inactive)
REMARK    1  A    between atoms: N1_1  and  C1_4 
REMARK    2  A    between atoms: N4_14  and  C6_15 
REMARK    3  A    between atoms: C6_15  and  N5_16 
REMARK       I    between atoms: N5_16  and  C7_18 
REMARK    4  A    between atoms: C7_18  and  C8_20 
REMARK    5  A    between atoms: C8_20  and  N6_21 
REMARK    6  A    between atoms: C8_20  and  N7_25 
REMARK    7  A    between atoms: N7_25  and  N8_26 
ROOT
HETATM    1  C1  UNL     1       1.888   0.385  -1.047  1.00  0.00     0.680 A 
HETATM    2  N2  UNL     1       2.103   1.699  -0.858  1.00  0.00    -0.154 N 
ATOM      3  H2  UNL     1       2.955   2.111  -1.236  1.00  0.00     0.187 HD
HETATM    4  C2  UNL     1       1.242   2.496  -0.192  1.00  0.00     0.290 A 
HETATM    5  O1  UNL     1       1.447   3.720  -0.022  1.00  0.00    -0.265 OA
HETATM    6  C3  UNL     1       0.093   1.926   0.315  1.00  0.00     0.155 A 
HETATM    7  C4  UNL     1      -0.109   0.564   0.109  1.00  0.00     0.155 A 
HETATM    8  N3  UNL     1      -1.285   0.290   0.699  1.00  0.00    -0.336 N 
ATOM      9  H3  UNL     1      -1.724  -0.630   0.729  1.00  0.00     0.168 HD
HETATM   10  C5  UNL     1      -1.804   1.418   1.251  1.00  0.00     0.191 A 
HETATM   11  N4  UNL     1      -0.953   2.430   1.014  1.00  0.00    -0.296 N 
HETATM   12  N9  UNL     1       0.778  -0.197  -0.564  1.00  0.00    -0.174 N 
ATOM     13  H9  UNL     1       0.611  -1.194  -0.703  1.00  0.00     0.186 HD
ENDROOT
BRANCH  11  14
HETATM   14  C6  UNL     1      -1.047   3.799   1.411  1.00  0.00     0.192 C 
BRANCH  14  15
HETATM   15  N5  UNL     1      -1.482   4.008   2.756  1.00  0.00    -0.320 N 
HETATM   16  C7  UNL     1      -1.881   5.236   3.331  1.00  0.00     0.270 C 
HETATM   17  O2  UNL     1      -1.882   6.277   2.663  1.00  0.00    -0.269 OA
ATOM     18  H5  UNL     1      -1.506   3.189   3.363  1.00  0.00     0.169 HD
BRANCH  16  19
HETATM   19  C8  UNL     1      -2.310   5.304   4.751  1.00  0.00     0.386 C 
BRANCH  19  20
HETATM   20  N6  UNL     1      -1.189   5.804   5.512  1.00  0.00    -0.051 N 
ATOM     21  H63 UNL     1      -0.669   6.533   5.024  1.00  0.00     0.276 HD
ATOM     22  H62 UNL     1      -1.472   6.361   6.319  1.00  0.00     0.276 HD
ATOM     23  H61 UNL     1      -0.612   5.002   5.763  1.00  0.00     0.276 HD
ENDBRANCH  19  20
BRANCH  19  24
HETATM   24  N7  UNL     1      -2.722   3.987   5.177  1.00  0.00    -0.105 NA
BRANCH  24  25
HETATM   25  N8  UNL     1      -4.088   3.968   5.411  1.00  0.00    -0.346 N 
ATOM     26  H82 UNL     1      -4.742   4.655   5.037  1.00  0.00     0.172 HD
ATOM     27  H81 UNL     1      -4.330   3.174   6.005  1.00  0.00     0.172 HD
ENDBRANCH  24  25
ENDBRANCH  19  24
ENDBRANCH  16  19
ENDBRANCH  14  15
ENDBRANCH  11  14
BRANCH   1  28
HETATM   28  N1  UNL     1       2.777  -0.303  -1.703  1.00  0.00    -0.234 N 
ATOM     29  H12 UNL     1       3.674   0.107  -1.962  1.00  0.00     0.174 HD
ATOM     30  H11 UNL     1       2.558  -1.266  -1.956  1.00  0.00     0.174 HD
ENDBRANCH   1  28
TORSDOF 7
ENDMDL
MODEL 2
REMARK VINA RESULT: -6.732765692      3.114      7.565
REMARK  7 active torsions:
REMARK  status: ('A' for Active; 'I' for Inactive)
REMARK    1  A    between atoms: N1_1  and  C1_4 
REMARK    2  A    between atoms: N4_14  and  C6_15 
REMARK    3  A    between atoms: C6_15  and  N5_16 
REMARK       I    between atoms: N5_16  and  C7_18 
REMARK    4  A    between atoms: C7_18  and  C8_20 
REMARK    5  A    between atoms: C8_20  and  N6_21 
REMARK    6  A    between atoms: C8_20  and  N7_25 
REMARK    7  A    between atoms: N7_25  and  N8_26 
ROOT
HETATM    1  C1  UNL     1      -4.450   2.174   8.293  1.00  0.00     0.680 A 
HETATM    2  N2  UNL     1      -4.601   2.060   6.963  1.00  0.00    -0.154 N 
ATOM      3  H2  UNL     1      -5.003   1.200   6.590  1.00  0.00     0.187 HD
HETATM    4  C2  UNL     1      -4.245   3.032   6.097  1.00  0.00     0.290 A 
HETATM    5  O1  UNL     1      -4.390   2.920   4.858  1.00  0.00    -0.265 OA
HETATM    6  C3  UNL     1      -3.701   4.189   6.613  1.00  0.00     0.155 A 
HETATM    7  C4  UNL     1      -3.553   4.285   7.994  1.00  0.00     0.155 A 
HETATM    8  N3  UNL     1      -3.010   5.496   8.205  1.00  0.00    -0.336 N 
ATOM      9  H3  UNL     1      -2.772   5.879   9.121  1.00  0.00     0.168 HD
HETATM   10  C5  UNL     1      -2.824   6.137   7.022  1.00  0.00     0.191 A 
HETATM   11  N4  UNL     1      -3.250   5.330   6.037  1.00  0.00    -0.296 N 
HETATM   12  N9  UNL     1      -3.923   3.289   8.824  1.00  0.00    -0.174 N 
ATOM     13  H9  UNL     1      -3.805   3.380   9.833  1.00  0.00     0.186 HD
ENDROOT
BRANCH  11  14
HETATM   14  C6  UNL     1      -3.241   5.548   4.625  1.00  0.00     0.192 C 
BRANCH  14  15
HETATM   15  N5  UNL     1      -2.379   4.680   3.886  1.00  0.00    -0.320 N 
HETATM   16  C7  UNL     1      -1.616   5.019   2.746  1.00  0.00     0.270 C 
HETATM   17  O2  UNL     1      -1.646   6.167   2.284  1.00  0.00    -0.269 OA
ATOM     18  H5  UNL     1      -2.307   3.717   4.215  1.00  0.00     0.169 HD
BRANCH  16  19
HETATM   19  C8  UNL     1      -0.761   4.007   2.077  1.00  0.00     0.386 C 
BRANCH  19  20
HETATM   20  N6  UNL     1       0.313   4.719   1.425  1.00  0.00    -0.051 N 
ATOM     21  H63 UNL     1       0.360   5.702   1.692  1.00  0.00     0.276 HD
ATOM     22  H62 UNL     1       1.236   4.446   1.762  1.00  0.00     0.276 HD
ATOM     23  H61 UNL     1       0.198   4.584   0.421  1.00  0.00     0.276 HD
ENDBRANCH  19  20
BRANCH  19  24
HETATM   24  N7  UNL     1      -1.570   3.256   1.147  1.00  0.00    -0.105 NA
BRANCH  24  25
HETATM   25  N8  UNL     1      -1.738   1.958   1.603  1.00  0.00    -0.346 N 
ATOM     26  H82 UNL     1      -2.639   1.553   1.856  1.00  0.00     0.172 HD
ATOM     27  H81 UNL     1      -0.837   1.481   1.644  1.00  0.00     0.172 HD
ENDBRANCH  24  25
ENDBRANCH  19  24
ENDBRANCH  16  19
ENDBRANCH  14  15
ENDBRANCH  11  14
BRANCH   1  28
HETATM   28  N1  UNL     1      -4.823   1.181   9.049  1.00  0.00    -0.234 N 
ATOM     29  H12 UNL     1      -4.574   0.220   8.818  1.00  0.00     0.174 HD
ATOM     30  H11 UNL     1      -5.376   1.384   9.882  1.00  0.00     0.174 HD
ENDBRANCH   1  28
TORSDOF 7
ENDMDL
MODEL 3
REMARK VINA RESULT: -6.606384933      1.208      1.694
REMARK  7 active torsions:
REMARK  status: ('A' for Active; 'I' for Inactive)
REMARK    1  A    between atoms: N1_1  and  C1_4 
REMARK    2  A    between atoms: N4_14  and  C6_15 
REMARK    3  A    between atoms: C6_15  and  N5_16 
REMARK       I    between atoms: N5_16  and  C7_18 
REMARK    4  A    between atoms: C7_18  and  C8_20 
REMARK    5  A    between atoms: C8_20  and  N6_21 
REMARK    6  A    between atoms: C8_20  and  N7_25 
REMARK    7  A    between atoms: N7_25  and  N8_26 
ROOT
HETATM    1  C1  UNL     1       3.156   0.629  -1.645  1.00  0.00     0.680 A 
HETATM    2  N2  UNL     1       3.115   1.902  -1.216  1.00  0.00    -0.154 N 
ATOM      3  H2  UNL     1       3.925   2.498  -1.382  1.00  0.00     0.187 HD
HETATM    4  C2  UNL     1       2.049   2.427  -0.575  1.00  0.00     0.290 A 
HETATM    5  O1  UNL     1       2.016   3.615  -0.179  1.00  0.00    -0.265 OA
HETATM    6  C3  UNL     1       0.961   1.610  -0.355  1.00  0.00     0.155 A 
HETATM    7  C4  UNL     1       1.025   0.294  -0.808  1.00  0.00     0.155 A 
HETATM    8  N3  UNL     1      -0.152  -0.254  -0.463  1.00  0.00    -0.336 N 
ATOM      9  H3  UNL     1      -0.425  -1.219  -0.652  1.00  0.00     0.168 HD
HETATM   10  C5  UNL     1      -0.926   0.664   0.173  1.00  0.00     0.191 A 
HETATM   11  N4  UNL     1      -0.239   1.816   0.241  1.00  0.00    -0.296 N 
HETATM   12  N9  UNL     1       2.111  -0.190  -1.445  1.00  0.00    -0.174 N 
ATOM     13  H9  UNL     1       2.138  -1.157  -1.768  1.00  0.00     0.186 HD
ENDROOT
BRANCH  11  14
HETATM   14  C6  UNL     1      -0.619   3.059   0.834  1.00  0.00     0.192 C 
BRANCH  14  15
HETATM   15  N5  UNL     1      -0.986   2.983   2.213  1.00  0.00    -0.320 N 
HETATM   16  C7  UNL     1      -0.925   4.029   3.160  1.00  0.00     0.270 C 
HETATM   17  O2  UNL     1      -0.526   5.155   2.835  1.00  0.00    -0.269 OA
ATOM     18  H5  UNL     1      -1.325   2.081   2.548  1.00  0.00     0.169 HD
BRANCH  16  19
HETATM   19  C8  UNL     1      -1.340   3.804   4.567  1.00  0.00     0.386 C 
BRANCH  19  20
HETATM   20  N6  UNL     1      -2.727   4.190   4.672  1.00  0.00    -0.051 N 
ATOM     21  H63 UNL     1      -2.902   5.140   4.344  1.00  0.00     0.276 HD
ATOM     22  H62 UNL     1      -3.328   3.707   4.003  1.00  0.00     0.276 HD
ATOM     23  H61 UNL     1      -3.009   4.044   5.640  1.00  0.00     0.276 HD
ENDBRANCH  19  20
BRANCH  19  24
HETATM   24  N7  UNL     1      -0.484   4.579   5.435  1.00  0.00    -0.105 NA
BRANCH  24  25
HETATM   25  N8  UNL     1      -1.136   5.732   5.841  1.00  0.00    -0.346 N 
ATOM     26  H82 UNL     1      -2.054   6.020   5.502  1.00  0.00     0.172 HD
ATOM     27  H81 UNL     1      -0.565   6.238   6.518  1.00  0.00     0.172 HD
ENDBRANCH  24  25
ENDBRANCH  19  24
ENDBRANCH  16  19
ENDBRANCH  14  15
ENDBRANCH  11  14
BRANCH   1  28
HETATM   28  N1  UNL     1       4.229   0.212  -2.254  1.00  0.00    -0.234 N 
ATOM     29  H12 UNL     1       5.089   0.028  -1.739  1.00  0.00     0.174 HD
ATOM     30  H11 UNL     1       4.194   0.075  -3.264  1.00  0.00     0.174 HD
ENDBRANCH   1  28
TORSDOF 7
ENDMDL
MODEL 4
REMARK VINA RESULT: -6.446419057      1.245      1.328
REMARK  7 active torsions:
REMARK  status: ('A' for Active; 'I' for Inactive)
REMARK    1  A    between atoms: N1_1  and  C1_4 
REMARK    2  A    between atoms: N4_14  and  C6_15 
REMARK    3  A    between atoms: C6_15  and  N5_16 
REMARK       I    between atoms: N5_16  and  C7_18 
REMARK    4  A    between atoms: C7_18  and  C8_20 
REMARK    5  A    between atoms: C8_20  and  N6_21 
REMARK    6  A    between atoms: C8_20  and  N7_25 
REMARK    7  A    between atoms: N7_25  and  N8_26 
ROOT
HETATM    1  C1  UNL     1       3.022   0.576  -1.564  1.00  0.00     0.680 A 
HETATM    2  N2  UNL     1       3.023   1.862  -1.172  1.00  0.00    -0.154 N 
ATOM      3  H2  UNL     1       3.848   2.429  -1.366  1.00  0.00     0.187 HD
HETATM    4  C2  UNL     1       1.982   2.436  -0.534  1.00  0.00     0.290 A 
HETATM    5  O1  UNL     1       1.988   3.635  -0.173  1.00  0.00    -0.265 OA
HETATM    6  C3  UNL     1       0.873   1.658  -0.276  1.00  0.00     0.155 A 
HETATM    7  C4  UNL     1       0.894   0.328  -0.690  1.00  0.00     0.155 A 
HETATM    8  N3  UNL     1      -0.294  -0.175  -0.315  1.00  0.00    -0.336 N 
ATOM      9  H3  UNL     1      -0.598  -1.136  -0.472  1.00  0.00     0.168 HD
HETATM   10  C5  UNL     1      -1.033   0.783   0.304  1.00  0.00     0.191 A 
HETATM   11  N4  UNL     1      -0.312   1.916   0.329  1.00  0.00    -0.296 N 
HETATM   12  N9  UNL     1       1.956  -0.205  -1.326  1.00  0.00    -0.174 N 
ATOM     13  H9  UNL     1       1.951  -1.182  -1.621  1.00  0.00     0.186 HD
ENDROOT
BRANCH  11  14
HETATM   14  C6  UNL     1      -0.649   3.187   0.889  1.00  0.00     0.192 C 
BRANCH  14  15
HETATM   15  N5  UNL     1      -0.981   3.164   2.278  1.00  0.00    -0.320 N 
HETATM   16  C7  UNL     1      -0.936   4.257   3.173  1.00  0.00     0.270 C 
HETATM   17  O2  UNL     1      -0.583   5.378   2.787  1.00  0.00    -0.269 OA
ATOM     18  H5  UNL     1      -1.283   2.269   2.663  1.00  0.00     0.169 HD
BRANCH  16  19
HETATM   19  C8  UNL     1      -1.312   4.085   4.599  1.00  0.00     0.386 C 
BRANCH  19  20
HETATM   20  N6  UNL     1      -0.370   3.158   5.181  1.00  0.00    -0.051 N 
ATOM     21  H63 UNL     1       0.291   2.781   4.501  1.00  0.00     0.276 HD
ATOM     22  H62 UNL     1       0.311   3.610   5.791  1.00  0.00     0.276 HD
ATOM     23  H61 UNL     1      -0.911   2.434   5.654  1.00  0.00     0.276 HD
ENDBRANCH  19  20
BRANCH  19  24
HETATM   24  N7  UNL     1      -2.672   3.605   4.667  1.00  0.00    -0.105 NA
BRANCH  24  25
HETATM   25  N8  UNL     1      -3.511   4.613   5.116  1.00  0.00    -0.346 N 
ATOM     26  H82 UNL     1      -3.792   4.733   6.088  1.00  0.00     0.172 HD
ATOM     27  H81 UNL     1      -3.795   5.205   4.335  1.00  0.00     0.172 HD
ENDBRANCH  24  25
ENDBRANCH  19  24
ENDBRANCH  16  19
ENDBRANCH  14  15
ENDBRANCH  11  14
BRANCH   1  28
HETATM   28  N1  UNL     1       4.074   0.111  -2.173  1.00  0.00    -0.234 N 
ATOM     29  H12 UNL     1       4.701   0.728  -2.689  1.00  0.00     0.174 HD
ATOM     30  H11 UNL     1       4.261  -0.891  -2.128  1.00  0.00     0.174 HD
ENDBRANCH   1  28
TORSDOF 7
ENDMDL
MODEL 5
REMARK VINA RESULT: -6.337304034      2.122      7.372
REMARK  7 active torsions:
REMARK  status: ('A' for Active; 'I' for Inactive)
REMARK    1  A    between atoms: N1_1  and  C1_4 
REMARK    2  A    between atoms: N4_14  and  C6_15 
REMARK    3  A    between atoms: C6_15  and  N5_16 
REMARK       I    between atoms: N5_16  and  C7_18 
REMARK    4  A    between atoms: C7_18  and  C8_20 
REMARK    5  A    between atoms: C8_20  and  N6_21 
REMARK    6  A    between atoms: C8_20  and  N7_25 
REMARK    7  A    between atoms: N7_25  and  N8_26 
ROOT
HETATM    1  C1  UNL     1      -3.114   5.801   7.339  1.00  0.00     0.680 A 
HETATM    2  N2  UNL     1      -3.778   5.934   6.177  1.00  0.00    -0.154 N 
ATOM      3  H2  UNL     1      -4.678   6.412   6.184  1.00  0.00     0.187 HD
HETATM    4  C2  UNL     1      -3.306   5.465   5.004  1.00  0.00     0.290 A 
HETATM    5  O1  UNL     1      -3.928   5.594   3.924  1.00  0.00    -0.265 OA
HETATM    6  C3  UNL     1      -2.088   4.818   5.009  1.00  0.00     0.155 A 
HETATM    7  C4  UNL     1      -1.418   4.690   6.223  1.00  0.00     0.155 A 
HETATM    8  N3  UNL     1      -0.283   4.034   5.931  1.00  0.00    -0.336 N 
ATOM      9  H3  UNL     1       0.436   3.778   6.608  1.00  0.00     0.168 HD
HETATM   10  C5  UNL     1      -0.232   3.759   4.601  1.00  0.00     0.191 A 
HETATM   11  N4  UNL     1      -1.347   4.243   4.030  1.00  0.00    -0.296 N 
HETATM   12  N9  UNL     1      -1.926   5.176   7.374  1.00  0.00    -0.174 N 
ATOM     13  H9  UNL     1      -1.419   5.071   8.253  1.00  0.00     0.186 HD
ENDROOT
BRANCH  11  14
HETATM   14  C6  UNL     1      -1.760   4.183   2.664  1.00  0.00     0.192 C 
BRANCH  14  15
HETATM   15  N5  UNL     1      -0.938   3.374   1.820  1.00  0.00    -0.320 N 
HETATM   16  C7  UNL     1      -1.308   2.163   1.193  1.00  0.00     0.270 C 
HETATM   17  O2  UNL     1      -2.443   1.694   1.343  1.00  0.00    -0.269 OA
ATOM     18  H5  UNL     1       0.012   3.704   1.653  1.00  0.00     0.169 HD
BRANCH  16  19
HETATM   19  C8  UNL     1      -0.344   1.425   0.340  1.00  0.00     0.386 C 
BRANCH  19  20
HETATM   20  N6  UNL     1       0.194   0.347   1.136  1.00  0.00    -0.051 N 
ATOM     21  H63 UNL     1       0.024   0.465   2.134  1.00  0.00     0.276 HD
ATOM     22  H62 UNL     1      -0.316  -0.529   1.018  1.00  0.00     0.276 HD
ATOM     23  H61 UNL     1       1.184   0.267   0.906  1.00  0.00     0.276 HD
ENDBRANCH  19  20
BRANCH  19  24
HETATM   24  N7  UNL     1       0.678   2.343  -0.108  1.00  0.00    -0.105 NA
BRANCH  24  25
HETATM   25  N8  UNL     1       1.657   1.659  -0.811  1.00  0.00    -0.346 N 
ATOM     26  H82 UNL     1       2.273   2.089  -1.500  1.00  0.00     0.172 HD
ATOM     27  H81 UNL     1       1.664   0.676  -0.535  1.00  0.00     0.172 HD
ENDBRANCH  24  25
ENDBRANCH  19  24
ENDBRANCH  16  19
ENDBRANCH  14  15
ENDBRANCH  11  14
BRANCH   1  28
HETATM   28  N1  UNL     1      -3.650   6.287   8.421  1.00  0.00    -0.234 N 
ATOM     29  H12 UNL     1      -4.661   6.387   8.509  1.00  0.00     0.174 HD
ATOM     30  H11 UNL     1      -3.036   6.571   9.184  1.00  0.00     0.174 HD
ENDBRANCH   1  28
TORSDOF 7
ENDMDL
