MODEL 1
REMARK VINA RESULT: -7.546619860      0.000      0.000
REMARK  4 active torsions:
REMARK  status: ('A' for Active; 'I' for Inactive)
REMARK    1  A    between atoms: C5_8  and  C6_9 
REMARK       I    between atoms: C6_9  and  N2_11 
REMARK    2  A    between atoms: N2_11  and  C7_13 
REMARK    3  A    between atoms: C7_13  and  C8_14 
REMARK    4  A    between atoms: C8_14  and  N3_15 
ROOT
HETATM    1  C8  UNL     1     -21.249  -4.604  10.446  1.00  0.00     0.044 C 
HETATM    2  C14 UNL     1     -21.750  -3.221  10.746  1.00  0.00     0.032 C 
HETATM    3  C15 UNL     1     -20.682  -2.230  11.042  1.00  0.00     0.002 C 
HETATM    4  C16 UNL     1     -19.506  -2.739  11.794  1.00  0.00     0.000 C 
HETATM    5  C17 UNL     1     -19.069  -4.135  11.412  1.00  0.00     0.002 C 
HETATM    6  C18 UNL     1     -20.308  -5.011  11.534  1.00  0.00     0.032 C 
ENDROOT
BRANCH   1   7
HETATM    7  C7  UNL     1     -22.429  -5.541  10.449  1.00  0.00     0.153 C 
BRANCH   7   8
HETATM    8  N2  UNL     1     -23.257  -5.397  11.652  1.00  0.00    -0.354 N 
HETATM    9  C6  UNL     1     -23.959  -6.531  12.103  1.00  0.00     0.256 C 
HETATM   10  O2  UNL     1     -23.836  -7.642  11.440  1.00  0.00    -0.268 OA
ATOM     11  H2  UNL     1     -23.322  -4.505  12.144  1.00  0.00     0.162 HD
BRANCH   9  12
HETATM   12  C5  UNL     1     -24.817  -6.596  13.248  1.00  0.00     0.087 A 
HETATM   13  C2  UNL     1     -26.228  -6.530  13.186  1.00  0.00     0.047 A 
HETATM   14  C1  UNL     1     -27.060  -6.399  11.971  1.00  0.00     0.071 C 
HETATM   15  N1  UNL     1     -26.610  -6.614  14.466  1.00  0.00    -0.265 N 
HETATM   16  O1  UNL     1     -25.609  -6.719  15.246  1.00  0.00    -0.242 OA
ATOM     17  H1  UNL     1     -27.582  -6.597  14.777  1.00  0.00     0.194 HD
HETATM   18  C3  UNL     1     -24.458  -6.715  14.566  1.00  0.00     0.090 A 
HETATM   19  C4  UNL     1     -23.128  -6.823  15.219  1.00  0.00     0.080 C 
ENDBRANCH   9  12
ENDBRANCH   7   8
ENDBRANCH   1   7
BRANCH   1  20
HETATM   20  N3  UNL     1     -20.594  -4.610   9.154  1.00  0.00    -0.395 N 
HETATM   21  C9  UNL     1     -20.075  -5.873   8.753  1.00  0.00     0.118 C 
HETATM   22  C10 UNL     1     -20.908  -6.505   7.628  1.00  0.00     0.027 C 
HETATM   23  C11 UNL     1     -20.596  -5.677   6.384  1.00  0.00     0.081 C 
HETATM   24  C12 UNL     1     -20.624  -4.252   6.822  1.00  0.00     0.144 C 
HETATM   25  O3  UNL     1     -20.117  -3.438   6.075  1.00  0.00    -0.296 OA
HETATM   26  C13 UNL     1     -21.259  -3.887   8.128  1.00  0.00     0.196 C 
ENDBRANCH   1  20
TORSDOF 4
ENDMDL
MODEL 2
REMARK VINA RESULT: -7.526917800      1.460      2.225
REMARK  4 active torsions:
REMARK  status: ('A' for Active; 'I' for Inactive)
REMARK    1  A    between atoms: C5_8  and  C6_9 
REMARK       I    between atoms: C6_9  and  N2_11 
REMARK    2  A    between atoms: N2_11  and  C7_13 
REMARK    3  A    between atoms: C7_13  and  C8_14 
REMARK    4  A    between atoms: C8_14  and  N3_15 
ROOT
HETATM    1  C8  UNL     1     -20.665  -4.329  11.348  1.00  0.00     0.044 C 
HETATM    2  C14 UNL     1     -21.340  -3.060  10.913  1.00  0.00     0.032 C 
HETATM    3  C15 UNL     1     -20.578  -1.821  11.222  1.00  0.00     0.002 C 
HETATM    4  C16 UNL     1     -19.816  -1.820  12.497  1.00  0.00     0.000 C 
HETATM    5  C17 UNL     1     -19.163  -3.139  12.843  1.00  0.00     0.002 C 
HETATM    6  C18 UNL     1     -20.268  -4.185  12.782  1.00  0.00     0.032 C 
ENDROOT
BRANCH   1   7
HETATM    7  C7  UNL     1     -21.662  -5.454  11.232  1.00  0.00     0.153 C 
BRANCH   7   8
HETATM    8  N2  UNL     1     -22.681  -5.412  12.287  1.00  0.00    -0.354 N 
HETATM    9  C6  UNL     1     -23.648  -6.435  12.302  1.00  0.00     0.256 C 
HETATM   10  O2  UNL     1     -23.589  -7.360  11.392  1.00  0.00    -0.268 OA
ATOM     11  H2  UNL     1     -22.688  -4.668  12.985  1.00  0.00     0.162 HD
BRANCH   9  12
HETATM   12  C5  UNL     1     -24.721  -6.571  13.242  1.00  0.00     0.087 A 
HETATM   13  C2  UNL     1     -24.540  -6.772  14.629  1.00  0.00     0.047 A 
HETATM   14  C1  UNL     1     -23.255  -6.865  15.354  1.00  0.00     0.071 C 
HETATM   15  N1  UNL     1     -25.787  -6.855  15.108  1.00  0.00    -0.265 N 
HETATM   16  O1  UNL     1     -26.652  -6.727  14.182  1.00  0.00    -0.242 OA
ATOM     17  H1  UNL     1     -26.015  -7.001  16.091  1.00  0.00     0.194 HD
HETATM   18  C3  UNL     1     -26.070  -6.548  12.992  1.00  0.00     0.090 A 
HETATM   19  C4  UNL     1     -26.835  -6.372  11.731  1.00  0.00     0.080 C 
ENDBRANCH   9  12
ENDBRANCH   7   8
ENDBRANCH   1   7
BRANCH   1  20
HETATM   20  N3  UNL     1     -19.513  -4.577  10.506  1.00  0.00    -0.395 N 
HETATM   21  C9  UNL     1     -18.971  -5.888  10.605  1.00  0.00     0.118 C 
HETATM   22  C10 UNL     1     -19.274  -6.731   9.357  1.00  0.00     0.027 C 
HETATM   23  C11 UNL     1     -18.385  -6.152   8.258  1.00  0.00     0.081 C 
HETATM   24  C12 UNL     1     -18.491  -4.671   8.381  1.00  0.00     0.144 C 
HETATM   25  O3  UNL     1     -17.647  -4.010   7.808  1.00  0.00    -0.296 OA
HETATM   26  C13 UNL     1     -19.603  -4.068   9.182  1.00  0.00     0.196 C 
ENDBRANCH   1  20
TORSDOF 4
ENDMDL
MODEL 3
REMARK VINA RESULT: -7.486114188      0.498      1.689
REMARK  4 active torsions:
REMARK  status: ('A' for Active; 'I' for Inactive)
REMARK    1  A    between atoms: C5_8  and  C6_9 
REMARK       I    between atoms: C6_9  and  N2_11 
REMARK    2  A    between atoms: N2_11  and  C7_13 
REMARK    3  A    between atoms: C7_13  and  C8_14 
REMARK    4  A    between atoms: C8_14  and  N3_15 
ROOT
HETATM    1  C8  UNL     1     -20.971  -4.559  10.681  1.00  0.00     0.044 C 
HETATM    2  C14 UNL     1     -21.682  -3.298  11.077  1.00  0.00     0.032 C 
HETATM    3  C15 UNL     1     -20.791  -2.124  11.270  1.00  0.00     0.002 C 
HETATM    4  C16 UNL     1     -19.457  -2.403  11.862  1.00  0.00     0.000 C 
HETATM    5  C17 UNL     1     -18.815  -3.690  11.392  1.00  0.00     0.002 C 
HETATM    6  C18 UNL     1     -19.844  -4.786  11.637  1.00  0.00     0.032 C 
ENDROOT
BRANCH   1   7
HETATM    7  C7  UNL     1     -21.944  -5.704  10.800  1.00  0.00     0.153 C 
BRANCH   7   8
HETATM    8  N2  UNL     1     -22.874  -5.535  11.922  1.00  0.00    -0.354 N 
HETATM    9  C6  UNL     1     -23.793  -6.573  12.172  1.00  0.00     0.256 C 
HETATM   10  O2  UNL     1     -23.769  -7.621  11.405  1.00  0.00    -0.268 OA
ATOM     11  H2  UNL     1     -22.855  -4.696  12.502  1.00  0.00     0.162 HD
BRANCH   9  12
HETATM   12  C5  UNL     1     -24.778  -6.600  13.211  1.00  0.00     0.087 A 
HETATM   13  C2  UNL     1     -24.476  -6.715  14.587  1.00  0.00     0.047 A 
HETATM   14  C1  UNL     1     -23.134  -6.815  15.198  1.00  0.00     0.071 C 
HETATM   15  N1  UNL     1     -25.676  -6.711  15.182  1.00  0.00    -0.265 N 
HETATM   16  O1  UNL     1     -26.617  -6.609  14.330  1.00  0.00    -0.242 OA
ATOM     17  H1  UNL     1     -25.817  -6.782  16.189  1.00  0.00     0.194 HD
HETATM   18  C3  UNL     1     -26.142  -6.534  13.083  1.00  0.00     0.090 A 
HETATM   19  C4  UNL     1     -27.014  -6.410  11.887  1.00  0.00     0.080 C 
ENDBRANCH   9  12
ENDBRANCH   7   8
ENDBRANCH   1   7
BRANCH   1  20
HETATM   20  N3  UNL     1     -20.489  -4.436   9.321  1.00  0.00    -0.395 N 
HETATM   21  C9  UNL     1     -19.803  -5.579   8.823  1.00  0.00     0.118 C 
HETATM   22  C10 UNL     1     -20.640  -6.345   7.787  1.00  0.00     0.027 C 
HETATM   23  C11 UNL     1     -20.639  -5.464   6.540  1.00  0.00     0.081 C 
HETATM   24  C12 UNL     1     -20.871  -4.072   7.021  1.00  0.00     0.144 C 
HETATM   25  O3  UNL     1     -20.616  -3.173   6.243  1.00  0.00    -0.296 OA
HETATM   26  C13 UNL     1     -21.396  -3.839   8.404  1.00  0.00     0.196 C 
ENDBRANCH   1  20
TORSDOF 4
ENDMDL
MODEL 4
REMARK VINA RESULT: -7.456508642      1.540      2.595
REMARK  4 active torsions:
REMARK  status: ('A' for Active; 'I' for Inactive)
REMARK    1  A    between atoms: C5_8  and  C6_9 
REMARK       I    between atoms: C6_9  and  N2_11 
REMARK    2  A    between atoms: N2_11  and  C7_13 
REMARK    3  A    between atoms: C7_13  and  C8_14 
REMARK    4  A    between atoms: C8_14  and  N3_15 
ROOT
HETATM    1  C8  UNL     1     -21.342  -5.626  10.608  1.00  0.00     0.044 C 
HETATM    2  C14 UNL     1     -20.925  -5.822  12.037  1.00  0.00     0.032 C 
HETATM    3  C15 UNL     1     -19.546  -6.351  12.208  1.00  0.00     0.002 C 
HETATM    4  C16 UNL     1     -19.091  -7.336  11.193  1.00  0.00     0.000 C 
HETATM    5  C17 UNL     1     -19.552  -7.047   9.782  1.00  0.00     0.002 C 
HETATM    6  C18 UNL     1     -21.064  -6.889   9.858  1.00  0.00     0.032 C 
ENDROOT
BRANCH   1   7
HETATM    7  C7  UNL     1     -22.827  -5.365  10.585  1.00  0.00     0.153 C 
BRANCH   7   8
HETATM    8  N2  UNL     1     -23.409  -5.315  11.930  1.00  0.00    -0.354 N 
HETATM    9  C6  UNL     1     -24.114  -6.448  12.380  1.00  0.00     0.256 C 
HETATM   10  O2  UNL     1     -24.210  -7.475  11.590  1.00  0.00    -0.268 OA
ATOM     11  H2  UNL     1     -23.307  -4.489  12.519  1.00  0.00     0.162 HD
BRANCH   9  12
HETATM   12  C5  UNL     1     -24.754  -6.596  13.653  1.00  0.00     0.087 A 
HETATM   13  C2  UNL     1     -26.152  -6.518  13.851  1.00  0.00     0.047 A 
HETATM   14  C1  UNL     1     -27.185  -6.289  12.820  1.00  0.00     0.071 C 
HETATM   15  N1  UNL     1     -26.301  -6.699  15.170  1.00  0.00    -0.265 N 
HETATM   16  O1  UNL     1     -25.178  -6.870  15.746  1.00  0.00    -0.242 OA
ATOM     17  H1  UNL     1     -27.200  -6.700  15.651  1.00  0.00     0.194 HD
HETATM   18  C3  UNL     1     -24.168  -6.819  14.873  1.00  0.00     0.090 A 
HETATM   19  C4  UNL     1     -22.745  -6.984  15.265  1.00  0.00     0.080 C 
ENDBRANCH   9  12
ENDBRANCH   7   8
ENDBRANCH   1   7
BRANCH   1  20
HETATM   20  N3  UNL     1     -20.617  -4.508  10.042  1.00  0.00    -0.395 N 
HETATM   21  C9  UNL     1     -21.001  -4.155   8.718  1.00  0.00     0.118 C 
HETATM   22  C10 UNL     1     -21.797  -2.842   8.681  1.00  0.00     0.027 C 
HETATM   23  C11 UNL     1     -20.774  -1.745   8.968  1.00  0.00     0.081 C 
HETATM   24  C12 UNL     1     -19.937  -2.249  10.094  1.00  0.00     0.144 C 
HETATM   25  O3  UNL     1     -18.882  -1.677  10.292  1.00  0.00    -0.296 OA
HETATM   26  C13 UNL     1     -20.412  -3.407  10.916  1.00  0.00     0.196 C 
ENDBRANCH   1  20
TORSDOF 4
ENDMDL
MODEL 5
REMARK VINA RESULT: -7.334008473      1.392      1.470
REMARK  4 active torsions:
REMARK  status: ('A' for Active; 'I' for Inactive)
REMARK    1  A    between atoms: C5_8  and  C6_9 
REMARK       I    between atoms: C6_9  and  N2_11 
REMARK    2  A    between atoms: N2_11  and  C7_13 
REMARK    3  A    between atoms: C7_13  and  C8_14 
REMARK    4  A    between atoms: C8_14  and  N3_15 
ROOT
HETATM    1  C8  UNL     1     -20.655  -4.275  11.264  1.00  0.00     0.044 C 
HETATM    2  C14 UNL     1     -21.311  -2.999  10.821  1.00  0.00     0.032 C 
HETATM    3  C15 UNL     1     -20.531  -1.770  11.121  1.00  0.00     0.002 C 
HETATM    4  C16 UNL     1     -19.769  -1.772  12.396  1.00  0.00     0.000 C 
HETATM    5  C17 UNL     1     -19.135  -3.098  12.750  1.00  0.00     0.002 C 
HETATM    6  C18 UNL     1     -20.255  -4.127  12.696  1.00  0.00     0.032 C 
ENDROOT
BRANCH   1   7
HETATM    7  C7  UNL     1     -21.669  -5.385  11.155  1.00  0.00     0.153 C 
BRANCH   7   8
HETATM    8  N2  UNL     1     -22.639  -5.369  12.255  1.00  0.00    -0.354 N 
HETATM    9  C6  UNL     1     -23.593  -6.404  12.301  1.00  0.00     0.256 C 
HETATM   10  O2  UNL     1     -23.565  -7.316  11.377  1.00  0.00    -0.268 OA
ATOM     11  H2  UNL     1     -22.623  -4.634  12.962  1.00  0.00     0.162 HD
BRANCH   9  12
HETATM   12  C5  UNL     1     -24.621  -6.565  13.286  1.00  0.00     0.087 A 
HETATM   13  C2  UNL     1     -26.005  -6.504  13.004  1.00  0.00     0.047 A 
HETATM   14  C1  UNL     1     -26.636  -6.282  11.686  1.00  0.00     0.071 C 
HETATM   15  N1  UNL     1     -26.584  -6.692  14.197  1.00  0.00    -0.265 N 
HETATM   16  O1  UNL     1     -25.717  -6.852  15.116  1.00  0.00    -0.242 OA
ATOM     17  H1  UNL     1     -27.593  -6.705  14.349  1.00  0.00     0.194 HD
HETATM   18  C3  UNL     1     -24.474  -6.786  14.631  1.00  0.00     0.090 A 
HETATM   19  C4  UNL     1     -23.262  -6.936  15.478  1.00  0.00     0.080 C 
ENDBRANCH   9  12
ENDBRANCH   7   8
ENDBRANCH   1   7
BRANCH   1  20
HETATM   20  N3  UNL     1     -19.508  -4.545  10.423  1.00  0.00    -0.395 N 
HETATM   21  C9  UNL     1     -18.964  -5.854  10.555  1.00  0.00     0.118 C 
HETATM   22  C10 UNL     1     -19.273  -6.730   9.332  1.00  0.00     0.027 C 
HETATM   23  C11 UNL     1     -18.389  -6.182   8.213  1.00  0.00     0.081 C 
HETATM   24  C12 UNL     1     -18.496  -4.698   8.296  1.00  0.00     0.144 C 
HETATM   25  O3  UNL     1     -17.654  -4.053   7.701  1.00  0.00    -0.296 OA
HETATM   26  C13 UNL     1     -19.604  -4.073   9.086  1.00  0.00     0.196 C 
ENDBRANCH   1  20
TORSDOF 4
ENDMDL
