MODEL 1
REMARK VINA RESULT: -8.185496444      0.000      0.000
REMARK  14 active torsions:
REMARK  status: ('A' for Active; 'I' for Inactive)
REMARK    1  A    between atoms: C2_2  and  C4_4 
REMARK    2  A    between atoms: C4_4  and  C5_5 
REMARK    3  A    between atoms: C5_5  and  C6_6 
REMARK    4  A    between atoms: C8_9  and  C9_10 
REMARK    5  A    between atoms: C8_9  and  C14_17 
REMARK    6  A    between atoms: C10_11  and  C11_12 
REMARK    7  A    between atoms: C11_12  and  O3_14 
REMARK    8  A    between atoms: O3_14  and  C12_15 
REMARK    9  A    between atoms: C14_17  and  C15_18 
REMARK   10  A    between atoms: C17_22  and  C18_23 
REMARK   11  A    between atoms: C17_22  and  O6_25 
REMARK   12  A    between atoms: O6_25  and  C20_26 
REMARK   13  A    between atoms: C20_26  and  C21_27 
REMARK       I    between atoms: C21_27  and  N1_29 
REMARK   14  A    between atoms: N1_29  and  C22_31 
ROOT
HETATM    1  C6  UNL     1      18.761  31.119  14.604  1.00  0.00     0.170 C 
HETATM    2  C7  UNL     1      18.826  32.679  14.498  1.00  0.00     0.293 C 
HETATM    3  O1  UNL     1      19.367  33.252  15.598  1.00  0.00    -0.344 OA
HETATM    4  C8  UNL     1      20.655  32.912  15.798  1.00  0.00     0.094 C 
HETATM    5  C16 UNL     1      21.059  31.525  15.553  1.00  0.00     0.083 C 
HETATM    6  C17 UNL     1      20.178  30.685  14.608  1.00  0.00     0.092 C 
HETATM    7  O8  UNL     1      17.437  33.001  14.419  1.00  0.00    -0.323 OA
HETATM    8  C28 UNL     1      16.948  33.304  15.680  1.00  0.00     0.177 C 
HETATM    9  C29 UNL     1      15.453  33.112  15.657  1.00  0.00     0.080 C 
HETATM   10  C30 UNL     1      17.168  34.748  16.074  1.00  0.00     0.080 C 
HETATM   11  O9  UNL     1      17.449  32.516  16.699  1.00  0.00    -0.236 OA
HETATM   12  S1  UNL     1      17.956  30.993  16.204  1.00  0.00     0.284 S 
HETATM   13  O10 UNL     1      16.793  30.048  16.201  1.00  0.00    -0.197 OA
HETATM   14  O11 UNL     1      18.893  30.467  17.240  1.00  0.00    -0.197 OA
ENDROOT
BRANCH   6  15
HETATM   15  C18 UNL     1      20.985  30.627  13.381  1.00  0.00     0.036 C 
HETATM   16  C19 UNL     1      20.604  31.228  12.106  1.00  0.00     0.008 C 
ENDBRANCH   6  15
BRANCH   6  17
HETATM   17  O6  UNL     1      20.112  29.370  15.112  1.00  0.00    -0.369 OA
BRANCH  17  18
HETATM   18  C20 UNL     1      21.174  28.580  15.013  1.00  0.00     0.271 C 
BRANCH  18  19
HETATM   19  C21 UNL     1      21.072  27.804  13.727  1.00  0.00     0.241 C 
HETATM   20  O7  UNL     1      19.989  27.303  13.395  1.00  0.00    -0.271 OA
HETATM   21  N1  UNL     1      22.215  27.642  12.888  1.00  0.00    -0.355 N 
ATOM     22  H1  UNL     1      23.106  28.057  13.159  1.00  0.00     0.162 HD
BRANCH  21  23
HETATM   23  C22 UNL     1      22.118  26.893  11.654  1.00  0.00     0.084 C 
HETATM   24  C23 UNL     1      22.946  25.636  11.818  1.00  0.00     0.025 C 
HETATM   25  C24 UNL     1      24.413  26.009  11.822  1.00  0.00     0.002 C 
HETATM   26  C25 UNL     1      24.725  26.552  10.431  1.00  0.00     0.000 C 
HETATM   27  C26 UNL     1      24.011  27.872  10.310  1.00  0.00     0.002 C 
HETATM   28  C27 UNL     1      22.529  27.733  10.479  1.00  0.00     0.025 C 
ENDBRANCH  21  23
ENDBRANCH  18  19
ENDBRANCH  17  18
ENDBRANCH   6  17
BRANCH   1  29
HETATM   29  C5  UNL     1      17.846  30.722  13.528  1.00  0.00     0.040 C 
BRANCH  29  30
HETATM   30  C4  UNL     1      17.341  29.321  13.432  1.00  0.00     0.035 C 
BRANCH  30  31
HETATM   31  C2  UNL     1      17.334  28.933  11.978  1.00  0.00    -0.093 C 
HETATM   32  C1  UNL     1      18.386  28.585  11.272  1.00  0.00     0.014 C 
HETATM   33  C3  UNL     1      16.004  28.943  11.313  1.00  0.00     0.042 C 
ENDBRANCH  30  31
ENDBRANCH  29  30
ENDBRANCH   1  29
BRANCH   4  34
HETATM   34  C9  UNL     1      21.059  33.309  17.237  1.00  0.00     0.018 C 
HETATM   35  C10 UNL     1      20.797  34.517  17.629  1.00  0.00     0.081 C 
BRANCH  35  36
HETATM   36  C11 UNL     1      21.163  34.931  18.978  1.00  0.00     0.282 C 
HETATM   37  O2  UNL     1      20.287  35.073  19.861  1.00  0.00    -0.260 OA
BRANCH  36  38
HETATM   38  O3  UNL     1      22.484  35.181  19.332  1.00  0.00    -0.319 OA
BRANCH  38  39
HETATM   39  C12 UNL     1      22.907  36.256  20.111  1.00  0.00     0.174 C 
HETATM   40  C13 UNL     1      23.822  35.777  21.203  1.00  0.00     0.034 C 
ENDBRANCH  38  39
ENDBRANCH  36  38
ENDBRANCH  35  36
ENDBRANCH   4  34
BRANCH   4  41
HETATM   41  C14 UNL     1      21.550  33.860  14.998  1.00  0.00     0.155 C 
BRANCH  41  42
HETATM   42  C15 UNL     1      22.893  33.330  14.739  1.00  0.00     0.175 C 
HETATM   43  O4  UNL     1      23.172  32.804  13.649  1.00  0.00    -0.648 OA
HETATM   44  O5  UNL     1      23.845  33.420  15.718  1.00  0.00    -0.648 OA
ENDBRANCH  41  42
ENDBRANCH   4  41
TORSDOF 14
ENDMDL
MODEL 2
REMARK VINA RESULT: -7.935978966      2.507      5.269
REMARK  14 active torsions:
REMARK  status: ('A' for Active; 'I' for Inactive)
REMARK    1  A    between atoms: C2_2  and  C4_4 
REMARK    2  A    between atoms: C4_4  and  C5_5 
REMARK    3  A    between atoms: C5_5  and  C6_6 
REMARK    4  A    between atoms: C8_9  and  C9_10 
REMARK    5  A    between atoms: C8_9  and  C14_17 
REMARK    6  A    between atoms: C10_11  and  C11_12 
REMARK    7  A    between atoms: C11_12  and  O3_14 
REMARK    8  A    between atoms: O3_14  and  C12_15 
REMARK    9  A    between atoms: C14_17  and  C15_18 
REMARK   10  A    between atoms: C17_22  and  C18_23 
REMARK   11  A    between atoms: C17_22  and  O6_25 
REMARK   12  A    between atoms: O6_25  and  C20_26 
REMARK   13  A    between atoms: C20_26  and  C21_27 
REMARK       I    between atoms: C21_27  and  N1_29 
REMARK   14  A    between atoms: N1_29  and  C22_31 
ROOT
HETATM    1  C6  UNL     1      20.219  30.049  14.061  1.00  0.00     0.170 C 
HETATM    2  C7  UNL     1      20.571  30.802  15.387  1.00  0.00     0.293 C 
HETATM    3  O1  UNL     1      20.040  32.046  15.434  1.00  0.00    -0.344 OA
HETATM    4  C8  UNL     1      18.692  32.050  15.436  1.00  0.00     0.094 C 
HETATM    5  C16 UNL     1      17.988  31.102  14.570  1.00  0.00     0.083 C 
HETATM    6  C17 UNL     1      18.754  29.839  14.128  1.00  0.00     0.092 C 
HETATM    7  O8  UNL     1      21.992  30.888  15.278  1.00  0.00    -0.323 OA
HETATM    8  C28 UNL     1      22.353  32.106  14.722  1.00  0.00     0.177 C 
HETATM    9  C29 UNL     1      23.736  31.960  14.142  1.00  0.00     0.080 C 
HETATM   10  C30 UNL     1      22.453  33.219  15.741  1.00  0.00     0.080 C 
HETATM   11  O9  UNL     1      21.523  32.546  13.708  1.00  0.00    -0.236 OA
HETATM   12  S1  UNL     1      20.722  31.315  12.893  1.00  0.00     0.284 S 
HETATM   13  O10 UNL     1      21.593  30.785  11.794  1.00  0.00    -0.197 OA
HETATM   14  O11 UNL     1      19.542  31.918  12.208  1.00  0.00    -0.197 OA
ENDROOT
BRANCH   6  15
HETATM   15  C18 UNL     1      18.147  28.787  14.956  1.00  0.00     0.036 C 
HETATM   16  C19 UNL     1      17.792  27.454  14.477  1.00  0.00     0.008 C 
ENDBRANCH   6  15
BRANCH   6  17
HETATM   17  O6  UNL     1      18.408  29.554  12.791  1.00  0.00    -0.369 OA
BRANCH  17  18
HETATM   18  C20 UNL     1      17.180  29.822  12.365  1.00  0.00     0.271 C 
BRANCH  18  19
HETATM   19  C21 UNL     1      16.769  28.749  11.392  1.00  0.00     0.241 C 
HETATM   20  O7  UNL     1      15.610  28.724  10.955  1.00  0.00    -0.271 OA
HETATM   21  N1  UNL     1      17.706  27.759  10.968  1.00  0.00    -0.355 N 
ATOM     22  H1  UNL     1      18.662  27.781  11.324  1.00  0.00     0.162 HD
BRANCH  21  23
HETATM   23  C22 UNL     1      17.311  26.726  10.035  1.00  0.00     0.084 C 
HETATM   24  C23 UNL     1      17.460  25.395  10.740  1.00  0.00     0.025 C 
HETATM   25  C24 UNL     1      18.933  25.090  10.911  1.00  0.00     0.002 C 
HETATM   26  C25 UNL     1      19.501  24.901   9.507  1.00  0.00     0.000 C 
HETATM   27  C26 UNL     1      19.479  26.253   8.844  1.00  0.00     0.002 C 
HETATM   28  C27 UNL     1      18.097  26.821   8.759  1.00  0.00     0.025 C 
ENDBRANCH  21  23
ENDBRANCH  18  19
ENDBRANCH  17  18
ENDBRANCH   6  17
BRANCH   1  29
HETATM   29  C5  UNL     1      21.150  28.915  14.033  1.00  0.00     0.040 C 
BRANCH  29  30
HETATM   30  C4  UNL     1      20.953  27.788  13.075  1.00  0.00     0.035 C 
BRANCH  30  31
HETATM   31  C2  UNL     1      22.299  27.423  12.510  1.00  0.00    -0.093 C 
HETATM   32  C1  UNL     1      23.408  28.110  12.666  1.00  0.00     0.014 C 
HETATM   33  C3  UNL     1      22.350  26.164  11.721  1.00  0.00     0.042 C 
ENDBRANCH  30  31
ENDBRANCH  29  30
ENDBRANCH   1  29
BRANCH   4  34
HETATM   34  C9  UNL     1      18.197  33.481  15.126  1.00  0.00     0.018 C 
HETATM   35  C10 UNL     1      16.919  33.672  15.018  1.00  0.00     0.081 C 
BRANCH  35  36
HETATM   36  C11 UNL     1      16.411  35.007  14.724  1.00  0.00     0.282 C 
HETATM   37  O2  UNL     1      16.324  35.409  13.542  1.00  0.00    -0.260 OA
BRANCH  36  38
HETATM   38  O3  UNL     1      16.009  35.873  15.734  1.00  0.00    -0.319 OA
BRANCH  38  39
HETATM   39  C12 UNL     1      16.875  36.551  16.589  1.00  0.00     0.174 C 
HETATM   40  C13 UNL     1      16.154  36.948  17.848  1.00  0.00     0.034 C 
ENDBRANCH  38  39
ENDBRANCH  36  38
ENDBRANCH  35  36
ENDBRANCH   4  34
BRANCH   4  41
HETATM   41  C14 UNL     1      18.196  31.902  16.876  1.00  0.00     0.155 C 
BRANCH  41  42
HETATM   42  C15 UNL     1      18.268  33.142  17.657  1.00  0.00     0.175 C 
HETATM   43  O4  UNL     1      17.267  33.584  18.245  1.00  0.00    -0.648 OA
HETATM   44  O5  UNL     1      19.458  33.813  17.733  1.00  0.00    -0.648 OA
ENDBRANCH  41  42
ENDBRANCH   4  41
TORSDOF 14
ENDMDL
MODEL 3
REMARK VINA RESULT: -7.701466348      2.894      5.856
REMARK  14 active torsions:
REMARK  status: ('A' for Active; 'I' for Inactive)
REMARK    1  A    between atoms: C2_2  and  C4_4 
REMARK    2  A    between atoms: C4_4  and  C5_5 
REMARK    3  A    between atoms: C5_5  and  C6_6 
REMARK    4  A    between atoms: C8_9  and  C9_10 
REMARK    5  A    between atoms: C8_9  and  C14_17 
REMARK    6  A    between atoms: C10_11  and  C11_12 
REMARK    7  A    between atoms: C11_12  and  O3_14 
REMARK    8  A    between atoms: O3_14  and  C12_15 
REMARK    9  A    between atoms: C14_17  and  C15_18 
REMARK   10  A    between atoms: C17_22  and  C18_23 
REMARK   11  A    between atoms: C17_22  and  O6_25 
REMARK   12  A    between atoms: O6_25  and  C20_26 
REMARK   13  A    between atoms: C20_26  and  C21_27 
REMARK       I    between atoms: C21_27  and  N1_29 
REMARK   14  A    between atoms: N1_29  and  C22_31 
ROOT
HETATM    1  C6  UNL     1      20.057  29.446  13.189  1.00  0.00     0.170 C 
HETATM    2  C7  UNL     1      20.095  30.017  14.645  1.00  0.00     0.293 C 
HETATM    3  O1  UNL     1      19.570  31.261  14.730  1.00  0.00    -0.344 OA
HETATM    4  C8  UNL     1      18.258  31.307  14.425  1.00  0.00     0.094 C 
HETATM    5  C16 UNL     1      17.771  30.499  13.306  1.00  0.00     0.083 C 
HETATM    6  C17 UNL     1      18.615  29.277  12.892  1.00  0.00     0.092 C 
HETATM    7  O8  UNL     1      21.503  30.070  14.876  1.00  0.00    -0.323 OA
HETATM    8  C28 UNL     1      21.985  31.335  14.579  1.00  0.00     0.177 C 
HETATM    9  C29 UNL     1      23.465  31.219  14.316  1.00  0.00     0.080 C 
HETATM   10  C30 UNL     1      21.850  32.309  15.729  1.00  0.00     0.080 C 
HETATM   11  O9  UNL     1      21.412  31.925  13.468  1.00  0.00    -0.236 OA
HETATM   12  S1  UNL     1      20.818  30.832  12.339  1.00  0.00     0.284 S 
HETATM   13  O10 UNL     1      21.918  30.416  11.410  1.00  0.00    -0.197 OA
HETATM   14  O11 UNL     1      19.829  31.553  11.487  1.00  0.00    -0.197 OA
ENDROOT
BRANCH   6  15
HETATM   15  C18 UNL     1      17.831  28.150  13.416  1.00  0.00     0.036 C 
HETATM   16  C19 UNL     1      18.025  27.544  14.731  1.00  0.00     0.008 C 
ENDBRANCH   6  15
BRANCH   6  17
HETATM   17  O6  UNL     1      18.585  29.171  11.486  1.00  0.00    -0.369 OA
BRANCH  17  18
HETATM   18  C20 UNL     1      17.600  28.499  10.903  1.00  0.00     0.271 C 
BRANCH  18  19
HETATM   19  C21 UNL     1      18.191  27.311  10.191  1.00  0.00     0.241 C 
HETATM   20  O7  UNL     1      18.797  26.445  10.835  1.00  0.00    -0.271 OA
HETATM   21  N1  UNL     1      18.056  27.177   8.776  1.00  0.00    -0.355 N 
ATOM     22  H1  UNL     1      17.554  27.888   8.245  1.00  0.00     0.162 HD
BRANCH  21  23
HETATM   23  C22 UNL     1      18.626  26.038   8.090  1.00  0.00     0.084 C 
HETATM   24  C23 UNL     1      18.804  26.423   6.637  1.00  0.00     0.025 C 
HETATM   25  C24 UNL     1      17.444  26.512   5.980  1.00  0.00     0.002 C 
HETATM   26  C25 UNL     1      16.868  25.099   5.984  1.00  0.00     0.000 C 
HETATM   27  C26 UNL     1      16.562  24.758   7.418  1.00  0.00     0.002 C 
HETATM   28  C27 UNL     1      17.782  24.812   8.286  1.00  0.00     0.025 C 
ENDBRANCH  21  23
ENDBRANCH  18  19
ENDBRANCH  17  18
ENDBRANCH   6  17
BRANCH   1  29
HETATM   29  C5  UNL     1      20.967  28.295  13.228  1.00  0.00     0.040 C 
BRANCH  29  30
HETATM   30  C4  UNL     1      21.252  27.505  11.995  1.00  0.00     0.035 C 
BRANCH  30  31
HETATM   31  C2  UNL     1      22.692  27.074  12.047  1.00  0.00    -0.093 C 
HETATM   32  C1  UNL     1      23.688  27.785  12.526  1.00  0.00     0.014 C 
HETATM   33  C3  UNL     1      22.981  25.717  11.514  1.00  0.00     0.042 C 
ENDBRANCH  30  31
ENDBRANCH  29  30
ENDBRANCH   1  29
BRANCH   4  34
HETATM   34  C9  UNL     1      17.852  32.782  14.197  1.00  0.00     0.018 C 
HETATM   35  C10 UNL     1      16.909  33.273  14.940  1.00  0.00     0.081 C 
BRANCH  35  36
HETATM   36  C11 UNL     1      16.495  34.659  14.755  1.00  0.00     0.282 C 
HETATM   37  O2  UNL     1      16.331  35.127  13.606  1.00  0.00    -0.260 OA
BRANCH  36  38
HETATM   38  O3  UNL     1      16.269  35.503  15.836  1.00  0.00    -0.319 OA
BRANCH  38  39
HETATM   39  C12 UNL     1      16.130  35.082  17.157  1.00  0.00     0.174 C 
HETATM   40  C13 UNL     1      14.680  35.089  17.553  1.00  0.00     0.034 C 
ENDBRANCH  38  39
ENDBRANCH  36  38
ENDBRANCH  35  36
ENDBRANCH   4  34
BRANCH   4  41
HETATM   41  C14 UNL     1      17.444  30.997  15.682  1.00  0.00     0.155 C 
BRANCH  41  42
HETATM   42  C15 UNL     1      18.202  31.140  16.930  1.00  0.00     0.175 C 
HETATM   43  O4  UNL     1      18.735  30.157  17.470  1.00  0.00    -0.648 OA
HETATM   44  O5  UNL     1      18.317  32.379  17.500  1.00  0.00    -0.648 OA
ENDBRANCH  41  42
ENDBRANCH   4  41
TORSDOF 14
ENDMDL
MODEL 4
REMARK VINA RESULT: -7.559615258      2.906      5.744
REMARK  14 active torsions:
REMARK  status: ('A' for Active; 'I' for Inactive)
REMARK    1  A    between atoms: C2_2  and  C4_4 
REMARK    2  A    between atoms: C4_4  and  C5_5 
REMARK    3  A    between atoms: C5_5  and  C6_6 
REMARK    4  A    between atoms: C8_9  and  C9_10 
REMARK    5  A    between atoms: C8_9  and  C14_17 
REMARK    6  A    between atoms: C10_11  and  C11_12 
REMARK    7  A    between atoms: C11_12  and  O3_14 
REMARK    8  A    between atoms: O3_14  and  C12_15 
REMARK    9  A    between atoms: C14_17  and  C15_18 
REMARK   10  A    between atoms: C17_22  and  C18_23 
REMARK   11  A    between atoms: C17_22  and  O6_25 
REMARK   12  A    between atoms: O6_25  and  C20_26 
REMARK   13  A    between atoms: C20_26  and  C21_27 
REMARK       I    between atoms: C21_27  and  N1_29 
REMARK   14  A    between atoms: N1_29  and  C22_31 
ROOT
HETATM    1  C6  UNL     1      20.513  29.561  13.349  1.00  0.00     0.170 C 
HETATM    2  C7  UNL     1      20.446  30.196  14.778  1.00  0.00     0.293 C 
HETATM    3  O1  UNL     1      19.736  31.348  14.802  1.00  0.00    -0.344 OA
HETATM    4  C8  UNL     1      18.437  31.181  14.487  1.00  0.00     0.094 C 
HETATM    5  C16 UNL     1      18.093  30.258  13.403  1.00  0.00     0.083 C 
HETATM    6  C17 UNL     1      19.119  29.162  13.051  1.00  0.00     0.092 C 
HETATM    7  O8  UNL     1      21.826  30.473  15.015  1.00  0.00    -0.323 OA
HETATM    8  C28 UNL     1      22.114  31.782  14.663  1.00  0.00     0.177 C 
HETATM    9  C29 UNL     1      23.598  31.881  14.415  1.00  0.00     0.080 C 
HETATM   10  C30 UNL     1      21.818  32.774  15.766  1.00  0.00     0.080 C 
HETATM   11  O9  UNL     1      21.473  32.228  13.522  1.00  0.00    -0.236 OA
HETATM   12  S1  UNL     1      21.067  31.008  12.441  1.00  0.00     0.284 S 
HETATM   13  O10 UNL     1      22.229  30.723  11.539  1.00  0.00    -0.197 OA
HETATM   14  O11 UNL     1      19.991  31.531  11.550  1.00  0.00    -0.197 OA
ENDROOT
BRANCH   6  15
HETATM   15  C18 UNL     1      18.508  27.953  13.622  1.00  0.00     0.036 C 
HETATM   16  C19 UNL     1      17.071  27.736  13.765  1.00  0.00     0.008 C 
ENDBRANCH   6  15
BRANCH   6  17
HETATM   17  O6  UNL     1      19.124  28.991  11.651  1.00  0.00    -0.369 OA
BRANCH  17  18
HETATM   18  C20 UNL     1      19.296  27.776  11.144  1.00  0.00     0.271 C 
BRANCH  18  19
HETATM   19  C21 UNL     1      18.307  27.583  10.025  1.00  0.00     0.241 C 
HETATM   20  O7  UNL     1      17.161  28.042  10.130  1.00  0.00    -0.271 OA
HETATM   21  N1  UNL     1      18.682  26.876   8.842  1.00  0.00    -0.355 N 
ATOM     22  H1  UNL     1      19.626  26.502   8.754  1.00  0.00     0.162 HD
BRANCH  21  23
HETATM   23  C22 UNL     1      17.731  26.688   7.768  1.00  0.00     0.084 C 
HETATM   24  C23 UNL     1      17.310  25.234   7.783  1.00  0.00     0.025 C 
HETATM   25  C24 UNL     1      18.466  24.381   7.306  1.00  0.00     0.002 C 
HETATM   26  C25 UNL     1      18.700  24.748   5.843  1.00  0.00     0.000 C 
HETATM   27  C26 UNL     1      19.247  26.152   5.829  1.00  0.00     0.002 C 
HETATM   28  C27 UNL     1      18.305  27.133   6.454  1.00  0.00     0.025 C 
ENDBRANCH  21  23
ENDBRANCH  18  19
ENDBRANCH  17  18
ENDBRANCH   6  17
BRANCH   1  29
HETATM   29  C5  UNL     1      21.587  28.566  13.446  1.00  0.00     0.040 C 
BRANCH  29  30
HETATM   30  C4  UNL     1      22.700  28.543  12.454  1.00  0.00     0.035 C 
BRANCH  30  31
HETATM   31  C2  UNL     1      23.013  27.104  12.145  1.00  0.00    -0.093 C 
HETATM   32  C1  UNL     1      22.131  26.137  12.026  1.00  0.00     0.014 C 
HETATM   33  C3  UNL     1      24.451  26.781  11.951  1.00  0.00     0.042 C 
ENDBRANCH  30  31
ENDBRANCH  29  30
ENDBRANCH   1  29
BRANCH   4  34
HETATM   34  C9  UNL     1      17.814  32.564  14.189  1.00  0.00     0.018 C 
HETATM   35  C10 UNL     1      17.125  33.135  15.128  1.00  0.00     0.081 C 
BRANCH  35  36
HETATM   36  C11 UNL     1      16.520  34.439  14.886  1.00  0.00     0.282 C 
HETATM   37  O2  UNL     1      16.339  34.851  13.718  1.00  0.00    -0.260 OA
BRANCH  36  38
HETATM   38  O3  UNL     1      16.125  35.265  15.932  1.00  0.00    -0.319 OA
BRANCH  38  39
HETATM   39  C12 UNL     1      15.957  34.851  17.251  1.00  0.00     0.174 C 
HETATM   40  C13 UNL     1      14.506  34.928  17.638  1.00  0.00     0.034 C 
ENDBRANCH  38  39
ENDBRANCH  36  38
ENDBRANCH  35  36
ENDBRANCH   4  34
BRANCH   4  41
HETATM   41  C14 UNL     1      17.663  30.806  15.751  1.00  0.00     0.155 C 
BRANCH  41  42
HETATM   42  C15 UNL     1      18.427  30.987  16.990  1.00  0.00     0.175 C 
HETATM   43  O4  UNL     1      19.053  30.043  17.499  1.00  0.00    -0.648 OA
HETATM   44  O5  UNL     1      18.445  32.219  17.588  1.00  0.00    -0.648 OA
ENDBRANCH  41  42
ENDBRANCH   4  41
TORSDOF 14
ENDMDL
MODEL 5
REMARK VINA RESULT: -7.462580339      1.034      1.682
REMARK  14 active torsions:
REMARK  status: ('A' for Active; 'I' for Inactive)
REMARK    1  A    between atoms: C2_2  and  C4_4 
REMARK    2  A    between atoms: C4_4  and  C5_5 
REMARK    3  A    between atoms: C5_5  and  C6_6 
REMARK    4  A    between atoms: C8_9  and  C9_10 
REMARK    5  A    between atoms: C8_9  and  C14_17 
REMARK    6  A    between atoms: C10_11  and  C11_12 
REMARK    7  A    between atoms: C11_12  and  O3_14 
REMARK    8  A    between atoms: O3_14  and  C12_15 
REMARK    9  A    between atoms: C14_17  and  C15_18 
REMARK   10  A    between atoms: C17_22  and  C18_23 
REMARK   11  A    between atoms: C17_22  and  O6_25 
REMARK   12  A    between atoms: O6_25  and  C20_26 
REMARK   13  A    between atoms: C20_26  and  C21_27 
REMARK       I    between atoms: C21_27  and  N1_29 
REMARK   14  A    between atoms: N1_29  and  C22_31 
ROOT
HETATM    1  C6  UNL     1      18.697  31.152  14.589  1.00  0.00     0.170 C 
HETATM    2  C7  UNL     1      18.782  32.713  14.514  1.00  0.00     0.293 C 
HETATM    3  O1  UNL     1      19.341  33.257  15.620  1.00  0.00    -0.344 OA
HETATM    4  C8  UNL     1      20.627  32.895  15.800  1.00  0.00     0.094 C 
HETATM    5  C16 UNL     1      21.009  31.508  15.525  1.00  0.00     0.083 C 
HETATM    6  C17 UNL     1      20.107  30.699  14.570  1.00  0.00     0.092 C 
HETATM    7  O8  UNL     1      17.398  33.056  14.454  1.00  0.00    -0.323 OA
HETATM    8  C28 UNL     1      16.924  33.340  15.726  1.00  0.00     0.177 C 
HETATM    9  C29 UNL     1      15.426  33.171  15.712  1.00  0.00     0.080 C 
HETATM   10  C30 UNL     1      17.169  34.773  16.146  1.00  0.00     0.080 C 
HETATM   11  O9  UNL     1      17.424  32.525  16.724  1.00  0.00    -0.236 OA
HETATM   12  S1  UNL     1      17.905  31.006  16.194  1.00  0.00     0.284 S 
HETATM   13  O10 UNL     1      16.728  30.077  16.183  1.00  0.00    -0.197 OA
HETATM   14  O11 UNL     1      18.843  30.446  17.210  1.00  0.00    -0.197 OA
ENDROOT
BRANCH   6  15
HETATM   15  C18 UNL     1      20.902  30.654  13.335  1.00  0.00     0.036 C 
HETATM   16  C19 UNL     1      20.666  31.494  12.164  1.00  0.00     0.008 C 
ENDBRANCH   6  15
BRANCH   6  17
HETATM   17  O6  UNL     1      20.027  29.375  15.049  1.00  0.00    -0.369 OA
BRANCH  17  18
HETATM   18  C20 UNL     1      21.143  28.685  15.246  1.00  0.00     0.271 C 
BRANCH  18  19
HETATM   19  C21 UNL     1      21.672  28.243  13.907  1.00  0.00     0.241 C 
HETATM   20  O7  UNL     1      22.818  28.562  13.561  1.00  0.00    -0.271 OA
HETATM   21  N1  UNL     1      20.861  27.458  13.032  1.00  0.00    -0.355 N 
ATOM     22  H1  UNL     1      19.919  27.192  13.318  1.00  0.00     0.162 HD
BRANCH  21  23
HETATM   23  C22 UNL     1      21.367  27.037  11.744  1.00  0.00     0.084 C 
HETATM   24  C23 UNL     1      20.242  27.183  10.742  1.00  0.00     0.025 C 
HETATM   25  C24 UNL     1      19.200  26.119  11.013  1.00  0.00     0.002 C 
HETATM   26  C25 UNL     1      19.865  24.778  10.720  1.00  0.00     0.000 C 
HETATM   27  C26 UNL     1      20.898  24.562  11.794  1.00  0.00     0.002 C 
HETATM   28  C27 UNL     1      21.930  25.647  11.814  1.00  0.00     0.025 C 
ENDBRANCH  21  23
ENDBRANCH  18  19
ENDBRANCH  17  18
ENDBRANCH   6  17
BRANCH   1  29
HETATM   29  C5  UNL     1      17.766  30.790  13.514  1.00  0.00     0.040 C 
BRANCH  29  30
HETATM   30  C4  UNL     1      18.192  29.886  12.406  1.00  0.00     0.035 C 
BRANCH  30  31
HETATM   31  C2  UNL     1      17.163  28.797  12.278  1.00  0.00    -0.093 C 
HETATM   32  C1  UNL     1      16.255  28.708  11.332  1.00  0.00     0.014 C 
HETATM   33  C3  UNL     1      17.208  27.738  13.321  1.00  0.00     0.042 C 
ENDBRANCH  30  31
ENDBRANCH  29  30
ENDBRANCH   1  29
BRANCH   4  34
HETATM   34  C9  UNL     1      21.049  33.257  17.243  1.00  0.00     0.018 C 
HETATM   35  C10 UNL     1      20.757  34.442  17.682  1.00  0.00     0.081 C 
BRANCH  35  36
HETATM   36  C11 UNL     1      21.138  34.823  19.036  1.00  0.00     0.282 C 
HETATM   37  O2  UNL     1      20.272  34.954  19.930  1.00  0.00    -0.260 OA
BRANCH  36  38
HETATM   38  O3  UNL     1      22.465  35.052  19.384  1.00  0.00    -0.319 OA
BRANCH  38  39
HETATM   39  C12 UNL     1      22.923  36.177  20.067  1.00  0.00     0.174 C 
HETATM   40  C13 UNL     1      23.831  35.765  21.192  1.00  0.00     0.034 C 
ENDBRANCH  38  39
ENDBRANCH  36  38
ENDBRANCH  35  36
ENDBRANCH   4  34
BRANCH   4  41
HETATM   41  C14 UNL     1      21.527  33.846  15.012  1.00  0.00     0.155 C 
BRANCH  41  42
HETATM   42  C15 UNL     1      22.886  33.336  14.798  1.00  0.00     0.175 C 
HETATM   43  O4  UNL     1      23.215  32.828  13.714  1.00  0.00    -0.648 OA
HETATM   44  O5  UNL     1      23.798  33.425  15.816  1.00  0.00    -0.648 OA
ENDBRANCH  41  42
ENDBRANCH   4  41
TORSDOF 14
ENDMDL
