MODEL 1
REMARK VINA RESULT: -8.702164251      0.000      0.000
REMARK  6 active torsions:
REMARK  status: ('A' for Active; 'I' for Inactive)
REMARK       I    between atoms: C2_2  and  N1_4 
REMARK    1  A    between atoms: N1_4  and  N2_6 
REMARK    2  A    between atoms: N2_6  and  C3_8 
REMARK    3  A    between atoms: C4_11  and  N4_12 
REMARK    4  A    between atoms: N4_12  and  N6_15 
REMARK       I    between atoms: N7_17  and  C6_19 
REMARK       I    between atoms: C6_19  and  N8_20 
REMARK       I    between atoms: C6_19  and  N9_24 
REMARK    5  A    between atoms: C7_32  and  C8_33 
REMARK    6  A    between atoms: C11_39  and  N13_40 
ROOT
HETATM    1  N4  UNL     1      44.144 -12.456 -11.012  1.00  0.00     0.000 N 
HETATM    2  C5  UNL     1      43.491 -12.069 -12.185  1.00  0.00     0.222 C 
HETATM    3  N5  UNL     1      42.946 -11.766 -13.169  1.00  0.00    -0.169 NA
ENDROOT
BRANCH   1   4
HETATM    4  C4  UNL     1      45.020 -13.562 -11.068  1.00  0.00     0.730 A 
HETATM    5  N3  UNL     1      45.673 -14.037  -9.991  1.00  0.00    -0.169 N 
HETATM    6  C3  UNL     1      46.506 -15.088 -10.041  1.00  0.00     0.165 A 
ATOM      7  H3  UNL     1      45.527 -13.576  -9.093  1.00  0.00     0.186 HD
HETATM    8  C7  UNL     1      46.718 -15.726 -11.245  1.00  0.00     0.111 A 
HETATM    9  N11 UNL     1      46.071 -15.257 -12.322  1.00  0.00    -0.282 N 
HETATM   10  N10 UNL     1      45.264 -14.225 -12.221  1.00  0.00    -0.129 N 
ATOM     11  H11 UNL     1      46.205 -15.706 -13.228  1.00  0.00     0.187 HD
ATOM     12  H10 UNL     1      44.792 -13.904 -13.066  1.00  0.00     0.205 HD
BRANCH   6  13
HETATM   13  N2  UNL     1      47.128 -15.535  -9.000  1.00  0.00    -0.281 N 
ATOM     14  H2  UNL     1      46.934 -16.492  -8.705  1.00  0.00     0.188 HD
BRANCH  13  15
HETATM   15  N1  UNL     1      48.038 -14.803  -8.259  1.00  0.00    -0.269 N 
HETATM   16  C2  UNL     1      47.552 -14.022  -7.173  1.00  0.00     0.232 C 
HETATM   17  C1  UNL     1      48.456 -13.204  -6.321  1.00  0.00     0.119 C 
HETATM   18  O1  UNL     1      46.333 -13.990  -6.883  1.00  0.00    -0.272 OA
ATOM     19  H1  UNL     1      49.032 -14.821  -8.486  1.00  0.00     0.190 HD
ENDBRANCH  13  15
ENDBRANCH   6  13
BRANCH   8  20
HETATM   20  C8  UNL     1      47.622 -16.871 -11.318  1.00  0.00     0.073 A 
HETATM   21  C9  UNL     1      48.848 -16.879 -11.939  1.00  0.00     0.045 A 
HETATM   22  C10 UNL     1      49.548 -15.788 -12.666  1.00  0.00     0.071 C 
HETATM   23  N12 UNL     1      49.328 -18.123 -11.762  1.00  0.00    -0.263 N 
HETATM   24  O2  UNL     1      48.472 -18.832 -11.085  1.00  0.00    -0.219 OA
ATOM     25  H12 UNL     1      50.227 -18.459 -12.106  1.00  0.00     0.194 HD
HETATM   26  C11 UNL     1      47.412 -18.123 -10.786  1.00  0.00     0.178 A 
BRANCH  26  27
HETATM   27  N13 UNL     1      46.362 -18.534 -10.111  1.00  0.00    -0.377 N 
ATOM     28 2H13 UNL     1      45.762 -17.963  -9.516  1.00  0.00     0.158 HD
ATOM     29 1H13 UNL     1      45.984 -19.480 -10.076  1.00  0.00     0.158 HD
ENDBRANCH  26  27
ENDBRANCH   8  20
ENDBRANCH   1   4
BRANCH   1  30
HETATM   30  N6  UNL     1      43.952 -11.787  -9.812  1.00  0.00    -0.213 N 
HETATM   31  N7  UNL     1      42.840 -11.705  -9.240  1.00  0.00    -0.268 N 
HETATM   32  C6  UNL     1      41.662 -12.315  -9.803  1.00  0.00     0.495 C 
ATOM     33  H7  UNL     1      42.767 -11.196  -8.358  1.00  0.00     0.185 HD
HETATM   34  N8  UNL     1      41.397 -13.533  -9.035  1.00  0.00    -0.032 N 
HETATM   35  N9  UNL     1      40.489 -11.455  -9.590  1.00  0.00    -0.032 N 
ATOM     36  H83 UNL     1      42.196 -14.165  -9.000  1.00  0.00     0.279 HD
ATOM     37  H82 UNL     1      41.318 -13.365  -8.033  1.00  0.00     0.279 HD
ATOM     38  H81 UNL     1      40.562 -13.964  -9.435  1.00  0.00     0.279 HD
ATOM     39  H93 UNL     1      40.362 -11.223  -8.604  1.00  0.00     0.279 HD
ATOM     40  H92 UNL     1      40.638 -10.512  -9.949  1.00  0.00     0.279 HD
ATOM     41  H91 UNL     1      39.655 -11.887  -9.989  1.00  0.00     0.279 HD
ATOM     42  H6  UNL     1      44.757 -11.341  -9.374  1.00  0.00     0.210 HD
ENDBRANCH   1  30
TORSDOF 6
ENDMDL
MODEL 2
REMARK VINA RESULT: -8.515929412      3.485      4.546
REMARK  6 active torsions:
REMARK  status: ('A' for Active; 'I' for Inactive)
REMARK       I    between atoms: C2_2  and  N1_4 
REMARK    1  A    between atoms: N1_4  and  N2_6 
REMARK    2  A    between atoms: N2_6  and  C3_8 
REMARK    3  A    between atoms: C4_11  and  N4_12 
REMARK    4  A    between atoms: N4_12  and  N6_15 
REMARK       I    between atoms: N7_17  and  C6_19 
REMARK       I    between atoms: C6_19  and  N8_20 
REMARK       I    between atoms: C6_19  and  N9_24 
REMARK    5  A    between atoms: C7_32  and  C8_33 
REMARK    6  A    between atoms: C11_39  and  N13_40 
ROOT
HETATM    1  N4  UNL     1      44.158 -11.628 -10.530  1.00  0.00     0.000 N 
HETATM    2  C5  UNL     1      43.379 -11.825 -11.672  1.00  0.00     0.222 C 
HETATM    3  N5  UNL     1      42.744 -11.999 -12.634  1.00  0.00    -0.169 NA
ENDROOT
BRANCH   1   4
HETATM    4  C4  UNL     1      45.551 -11.465 -10.691  1.00  0.00     0.730 A 
HETATM    5  N3  UNL     1      46.459 -12.202 -10.024  1.00  0.00    -0.169 N 
HETATM    6  C3  UNL     1      47.784 -12.049 -10.175  1.00  0.00     0.165 A 
ATOM      7  H3  UNL     1      46.124 -12.912  -9.373  1.00  0.00     0.186 HD
HETATM    8  C7  UNL     1      48.259 -11.096 -11.050  1.00  0.00     0.111 A 
HETATM    9  N11 UNL     1      47.360 -10.358 -11.717  1.00  0.00    -0.282 N 
HETATM   10  N10 UNL     1      46.072 -10.546 -11.536  1.00  0.00    -0.129 N 
ATOM     11  H11 UNL     1      47.678  -9.644 -12.372  1.00  0.00     0.187 HD
ATOM     12  H10 UNL     1      45.425  -9.963 -12.065  1.00  0.00     0.205 HD
BRANCH   6  13
HETATM   13  N2  UNL     1      48.646 -12.764  -9.529  1.00  0.00    -0.281 N 
ATOM     14  H2  UNL     1      49.032 -13.583  -9.998  1.00  0.00     0.188 HD
BRANCH  13  15
HETATM   15  N1  UNL     1      49.080 -12.491  -8.244  1.00  0.00    -0.269 N 
HETATM   16  C2  UNL     1      48.424 -13.136  -7.158  1.00  0.00     0.232 C 
HETATM   17  C1  UNL     1      48.822 -12.906  -5.744  1.00  0.00     0.119 C 
HETATM   18  O1  UNL     1      47.476 -13.934  -7.347  1.00  0.00    -0.272 OA
ATOM     19  H1  UNL     1      49.850 -11.844  -8.079  1.00  0.00     0.190 HD
ENDBRANCH  13  15
ENDBRANCH   6  13
BRANCH   8  20
HETATM   20  C8  UNL     1      49.698 -10.917 -11.227  1.00  0.00     0.073 A 
HETATM   21  C9  UNL     1      50.494 -11.653 -12.071  1.00  0.00     0.045 A 
HETATM   22  C10 UNL     1      50.130 -12.771 -12.981  1.00  0.00     0.071 C 
HETATM   23  N12 UNL     1      51.733 -11.153 -11.916  1.00  0.00    -0.263 N 
HETATM   24  O2  UNL     1      51.712 -10.184 -11.047  1.00  0.00    -0.219 OA
ATOM     25  H12 UNL     1      52.565 -11.484 -12.406  1.00  0.00     0.194 HD
HETATM   26  C11 UNL     1      50.498  -9.993 -10.593  1.00  0.00     0.178 A 
BRANCH  26  27
HETATM   27  N13 UNL     1      50.128  -9.097  -9.706  1.00  0.00    -0.377 N 
ATOM     28 2H13 UNL     1      49.535  -8.283  -9.877  1.00  0.00     0.158 HD
ATOM     29 1H13 UNL     1      50.372  -9.070  -8.717  1.00  0.00     0.158 HD
ENDBRANCH  26  27
ENDBRANCH   8  20
ENDBRANCH   1   4
BRANCH   1  30
HETATM   30  N6  UNL     1      43.600 -11.591  -9.260  1.00  0.00    -0.213 N 
HETATM   31  N7  UNL     1      43.231 -12.615  -8.640  1.00  0.00    -0.268 N 
HETATM   32  C6  UNL     1      43.365 -13.928  -9.218  1.00  0.00     0.495 C 
ATOM     33  H7  UNL     1      42.826 -12.517  -7.708  1.00  0.00     0.185 HD
HETATM   34  N8  UNL     1      44.512 -14.569  -8.571  1.00  0.00    -0.032 N 
HETATM   35  N9  UNL     1      42.205 -14.761  -8.871  1.00  0.00    -0.032 N 
ATOM     36  H83 UNL     1      45.367 -14.016  -8.632  1.00  0.00     0.279 HD
ATOM     37  H82 UNL     1      44.440 -14.586  -7.554  1.00  0.00     0.279 HD
ATOM     38  H81 UNL     1      44.607 -15.499  -8.980  1.00  0.00     0.279 HD
ATOM     39  H93 UNL     1      42.056 -14.804  -7.862  1.00  0.00     0.279 HD
ATOM     40  H92 UNL     1      41.326 -14.317  -9.136  1.00  0.00     0.279 HD
ATOM     41  H91 UNL     1      42.300 -15.691  -9.280  1.00  0.00     0.279 HD
ATOM     42  H6  UNL     1      43.486 -10.683  -8.809  1.00  0.00     0.210 HD
ENDBRANCH   1  30
TORSDOF 6
ENDMDL
MODEL 3
REMARK VINA RESULT: -8.421065819      3.118      7.412
REMARK  6 active torsions:
REMARK  status: ('A' for Active; 'I' for Inactive)
REMARK       I    between atoms: C2_2  and  N1_4 
REMARK    1  A    between atoms: N1_4  and  N2_6 
REMARK    2  A    between atoms: N2_6  and  C3_8 
REMARK    3  A    between atoms: C4_11  and  N4_12 
REMARK    4  A    between atoms: N4_12  and  N6_15 
REMARK       I    between atoms: N7_17  and  C6_19 
REMARK       I    between atoms: C6_19  and  N8_20 
REMARK       I    between atoms: C6_19  and  N9_24 
REMARK    5  A    between atoms: C7_32  and  C8_33 
REMARK    6  A    between atoms: C11_39  and  N13_40 
ROOT
HETATM    1  N4  UNL     1      47.692 -13.914  -9.827  1.00  0.00     0.000 N 
HETATM    2  C5  UNL     1      48.584 -13.413 -10.779  1.00  0.00     0.222 C 
HETATM    3  N5  UNL     1      49.320 -12.977 -11.570  1.00  0.00    -0.169 NA
ENDROOT
BRANCH   1   4
HETATM    4  C4  UNL     1      46.407 -13.335  -9.745  1.00  0.00     0.730 A 
HETATM    5  N3  UNL     1      45.945 -12.441 -10.640  1.00  0.00    -0.169 N 
HETATM    6  C3  UNL     1      44.725 -11.889 -10.564  1.00  0.00     0.165 A 
ATOM      7  H3  UNL     1      46.553 -12.171 -11.414  1.00  0.00     0.186 HD
HETATM    8  C7  UNL     1      43.886 -12.240  -9.528  1.00  0.00     0.111 A 
HETATM    9  N11 UNL     1      44.341 -13.130  -8.632  1.00  0.00    -0.282 N 
HETATM   10  N10 UNL     1      45.544 -13.643  -8.750  1.00  0.00    -0.129 N 
ATOM     11  H11 UNL     1      43.746 -13.411  -7.853  1.00  0.00     0.187 HD
ATOM     12  H10 UNL     1      45.847 -14.317  -8.047  1.00  0.00     0.205 HD
BRANCH   6  13
HETATM   13  N2  UNL     1      44.293 -11.031 -11.430  1.00  0.00    -0.281 N 
ATOM     14  H2  UNL     1      44.029 -10.105 -11.092  1.00  0.00     0.188 HD
BRANCH  13  15
HETATM   15  N1  UNL     1      44.163 -11.285 -12.783  1.00  0.00    -0.269 N 
HETATM   16  C2  UNL     1      42.896 -11.065 -13.394  1.00  0.00     0.232 C 
HETATM   17  C1  UNL     1      42.664 -11.310 -14.842  1.00  0.00     0.119 C 
HETATM   18  O1  UNL     1      41.915 -10.651 -12.734  1.00  0.00    -0.272 OA
ATOM     19  H1  UNL     1      44.956 -11.623 -13.330  1.00  0.00     0.190 HD
ENDBRANCH  13  15
ENDBRANCH   6  13
BRANCH   8  20
HETATM   20  C8  UNL     1      42.555 -11.649  -9.430  1.00  0.00     0.073 A 
HETATM   21  C9  UNL     1      41.385 -12.255  -9.822  1.00  0.00     0.045 A 
HETATM   22  C10 UNL     1      41.167 -13.598 -10.418  1.00  0.00     0.071 C 
HETATM   23  N12 UNL     1      40.416 -11.361  -9.553  1.00  0.00    -0.263 N 
HETATM   24  O2  UNL     1      40.938 -10.287  -9.036  1.00  0.00    -0.219 OA
ATOM     25  H12 UNL     1      39.421 -11.504  -9.729  1.00  0.00     0.194 HD
HETATM   26  C11 UNL     1      42.239 -10.403  -8.936  1.00  0.00     0.178 A 
BRANCH  26  27
HETATM   27  N13 UNL     1      43.069  -9.504  -8.459  1.00  0.00    -0.377 N 
ATOM     28 2H13 UNL     1      44.052  -9.649  -8.224  1.00  0.00     0.158 HD
ATOM     29 1H13 UNL     1      42.865  -8.528  -8.247  1.00  0.00     0.158 HD
ENDBRANCH  26  27
ENDBRANCH   8  20
ENDBRANCH   1   4
BRANCH   1  30
HETATM   30  N6  UNL     1      48.037 -14.952  -8.975  1.00  0.00    -0.213 N 
HETATM   31  N7  UNL     1      47.898 -16.162  -9.271  1.00  0.00    -0.268 N 
HETATM   32  C6  UNL     1      47.361 -16.562 -10.548  1.00  0.00     0.495 C 
ATOM     33  H7  UNL     1      48.171 -16.877  -8.596  1.00  0.00     0.185 HD
HETATM   34  N8  UNL     1      48.487 -17.014 -11.368  1.00  0.00    -0.032 N 
HETATM   35  N9  UNL     1      46.495 -17.739 -10.392  1.00  0.00    -0.032 N 
ATOM     36  H83 UNL     1      49.229 -16.318 -11.446  1.00  0.00     0.279 HD
ATOM     37  H82 UNL     1      49.040 -17.745 -10.920  1.00  0.00     0.279 HD
ATOM     38  H81 UNL     1      48.106 -17.297 -12.271  1.00  0.00     0.279 HD
ATOM     39  H93 UNL     1      46.977 -18.507  -9.925  1.00  0.00     0.279 HD
ATOM     40  H92 UNL     1      45.760 -17.581  -9.702  1.00  0.00     0.279 HD
ATOM     41  H91 UNL     1      46.114 -18.022 -11.295  1.00  0.00     0.279 HD
ATOM     42  H6  UNL     1      48.423 -14.719  -8.060  1.00  0.00     0.210 HD
ENDBRANCH   1  30
TORSDOF 6
ENDMDL
MODEL 4
REMARK VINA RESULT: -8.417732471      3.227      4.024
REMARK  6 active torsions:
REMARK  status: ('A' for Active; 'I' for Inactive)
REMARK       I    between atoms: C2_2  and  N1_4 
REMARK    1  A    between atoms: N1_4  and  N2_6 
REMARK    2  A    between atoms: N2_6  and  C3_8 
REMARK    3  A    between atoms: C4_11  and  N4_12 
REMARK    4  A    between atoms: N4_12  and  N6_15 
REMARK       I    between atoms: N7_17  and  C6_19 
REMARK       I    between atoms: C6_19  and  N8_20 
REMARK       I    between atoms: C6_19  and  N9_24 
REMARK    5  A    between atoms: C7_32  and  C8_33 
REMARK    6  A    between atoms: C11_39  and  N13_40 
ROOT
HETATM    1  N4  UNL     1      43.809 -11.816 -10.432  1.00  0.00     0.000 N 
HETATM    2  C5  UNL     1      42.879 -11.799 -11.475  1.00  0.00     0.222 C 
HETATM    3  N5  UNL     1      42.116 -11.795 -12.355  1.00  0.00    -0.169 NA
ENDROOT
BRANCH   1   4
HETATM    4  C4  UNL     1      45.182 -11.781 -10.761  1.00  0.00     0.730 A 
HETATM    5  N3  UNL     1      46.127 -12.409 -10.036  1.00  0.00    -0.169 N 
HETATM    6  C3  UNL     1      47.432 -12.377 -10.345  1.00  0.00     0.165 A 
ATOM      7  H3  UNL     1      45.836 -12.934  -9.211  1.00  0.00     0.186 HD
HETATM    8  C7  UNL     1      47.847 -11.674 -11.456  1.00  0.00     0.111 A 
HETATM    9  N11 UNL     1      46.910 -11.046 -12.183  1.00  0.00    -0.282 N 
HETATM   10  N10 UNL     1      45.644 -11.107 -11.839  1.00  0.00    -0.129 N 
ATOM     11  H11 UNL     1      47.184 -10.516 -13.010  1.00  0.00     0.187 HD
ATOM     12  H10 UNL     1      44.967 -10.616 -12.422  1.00  0.00     0.205 HD
BRANCH   6  13
HETATM   13  N2  UNL     1      48.330 -12.984  -9.641  1.00  0.00    -0.281 N 
ATOM     14  H2  UNL     1      48.748 -13.830 -10.029  1.00  0.00     0.188 HD
BRANCH  13  15
HETATM   15  N1  UNL     1      48.763 -12.562  -8.397  1.00  0.00    -0.269 N 
HETATM   16  C2  UNL     1      48.365 -13.311  -7.253  1.00  0.00     0.232 C 
HETATM   17  C1  UNL     1      48.783 -12.934  -5.877  1.00  0.00     0.119 C 
HETATM   18  O1  UNL     1      47.641 -14.329  -7.357  1.00  0.00    -0.272 OA
ATOM     19  H1  UNL     1      49.353 -11.736  -8.301  1.00  0.00     0.190 HD
ENDBRANCH  13  15
ENDBRANCH   6  13
BRANCH   8  20
HETATM   20  C8  UNL     1      49.264 -11.629 -11.808  1.00  0.00     0.073 A 
HETATM   21  C9  UNL     1      50.173 -10.713 -11.334  1.00  0.00     0.045 A 
HETATM   22  C10 UNL     1      49.974  -9.582 -10.391  1.00  0.00     0.071 C 
HETATM   23  N12 UNL     1      51.342 -11.043 -11.912  1.00  0.00    -0.263 N 
HETATM   24  O2  UNL     1      51.177 -12.079 -12.681  1.00  0.00    -0.219 OA
ATOM     25  H12 UNL     1      52.226 -10.553 -11.768  1.00  0.00     0.194 HD
HETATM   26  C11 UNL     1      49.930 -12.482 -12.658  1.00  0.00     0.178 A 
BRANCH  26  27
HETATM   27  N13 UNL     1      49.426 -13.498 -13.320  1.00  0.00    -0.377 N 
ATOM     28 2H13 UNL     1      49.770 -14.459 -13.312  1.00  0.00     0.158 HD
ATOM     29 1H13 UNL     1      48.618 -13.490 -13.942  1.00  0.00     0.158 HD
ENDBRANCH  26  27
ENDBRANCH   8  20
ENDBRANCH   1   4
BRANCH   1  30
HETATM   30  N6  UNL     1      43.418 -11.866  -9.102  1.00  0.00    -0.213 N 
HETATM   31  N7  UNL     1      42.956 -12.896  -8.559  1.00  0.00    -0.268 N 
HETATM   32  C6  UNL     1      42.798 -14.124  -9.297  1.00  0.00     0.495 C 
ATOM     33  H7  UNL     1      42.686 -12.865  -7.575  1.00  0.00     0.185 HD
HETATM   34  N8  UNL     1      43.887 -15.015  -8.891  1.00  0.00    -0.032 N 
HETATM   35  N9  UNL     1      41.562 -14.809  -8.891  1.00  0.00    -0.032 N 
ATOM     36  H83 UNL     1      44.810 -14.596  -9.006  1.00  0.00     0.279 HD
ATOM     37  H82 UNL     1      43.933 -15.158  -7.883  1.00  0.00     0.279 HD
ATOM     38  H81 UNL     1      43.775 -15.884  -9.414  1.00  0.00     0.279 HD
ATOM     39  H93 UNL     1      41.527 -14.965  -7.884  1.00  0.00     0.279 HD
ATOM     40  H92 UNL     1      40.746 -14.204  -8.980  1.00  0.00     0.279 HD
ATOM     41  H91 UNL     1      41.450 -15.678  -9.414  1.00  0.00     0.279 HD
ATOM     42  H6  UNL     1      43.513 -11.021  -8.539  1.00  0.00     0.210 HD
ENDBRANCH   1  30
TORSDOF 6
ENDMDL
MODEL 5
REMARK VINA RESULT: -8.416520444      3.377      4.629
REMARK  6 active torsions:
REMARK  status: ('A' for Active; 'I' for Inactive)
REMARK       I    between atoms: C2_2  and  N1_4 
REMARK    1  A    between atoms: N1_4  and  N2_6 
REMARK    2  A    between atoms: N2_6  and  C3_8 
REMARK    3  A    between atoms: C4_11  and  N4_12 
REMARK    4  A    between atoms: N4_12  and  N6_15 
REMARK       I    between atoms: N7_17  and  C6_19 
REMARK       I    between atoms: C6_19  and  N8_20 
REMARK       I    between atoms: C6_19  and  N9_24 
REMARK    5  A    between atoms: C7_32  and  C8_33 
REMARK    6  A    between atoms: C11_39  and  N13_40 
ROOT
HETATM    1  N4  UNL     1      43.369 -11.612 -10.397  1.00  0.00     0.000 N 
HETATM    2  C5  UNL     1      42.399 -11.639 -11.401  1.00  0.00     0.222 C 
HETATM    3  N5  UNL     1      41.602 -11.670 -12.251  1.00  0.00    -0.169 NA
ENDROOT
BRANCH   1   4
HETATM    4  C4  UNL     1      44.725 -11.519 -10.779  1.00  0.00     0.730 A 
HETATM    5  N3  UNL     1      45.449 -12.580 -11.184  1.00  0.00    -0.169 N 
HETATM    6  C3  UNL     1      46.738 -12.494 -11.548  1.00  0.00     0.165 A 
ATOM      7  H3  UNL     1      44.996 -13.493 -11.215  1.00  0.00     0.186 HD
HETATM    8  C7  UNL     1      47.371 -11.270 -11.514  1.00  0.00     0.111 A 
HETATM    9  N11 UNL     1      46.655 -10.209 -11.111  1.00  0.00    -0.282 N 
HETATM   10  N10 UNL     1      45.395 -10.344 -10.765  1.00  0.00    -0.129 N 
ATOM     11  H11 UNL     1      47.093  -9.289 -11.073  1.00  0.00     0.187 HD
ATOM     12  H10 UNL     1      44.890  -9.510 -10.467  1.00  0.00     0.205 HD
BRANCH   6  13
HETATM   13  N2  UNL     1      47.423 -13.520 -11.934  1.00  0.00    -0.281 N 
ATOM     14  H2  UNL     1      47.584 -13.635 -12.935  1.00  0.00     0.188 HD
BRANCH  13  15
HETATM   15  N1  UNL     1      47.952 -14.472 -11.082  1.00  0.00    -0.269 N 
HETATM   16  C2  UNL     1      47.117 -15.549 -10.670  1.00  0.00     0.232 C 
HETATM   17  C1  UNL     1      47.600 -16.619  -9.757  1.00  0.00     0.119 C 
HETATM   18  O1  UNL     1      45.931 -15.645 -11.063  1.00  0.00    -0.272 OA
ATOM     19  H1  UNL     1      48.916 -14.404 -10.756  1.00  0.00     0.190 HD
ENDBRANCH  13  15
ENDBRANCH   6  13
BRANCH   8  20
HETATM   20  C8  UNL     1      48.773 -11.158 -11.907  1.00  0.00     0.073 A 
HETATM   21  C9  UNL     1      49.847 -11.235 -11.052  1.00  0.00     0.045 A 
HETATM   22  C10 UNL     1      49.874 -11.438  -9.580  1.00  0.00     0.071 C 
HETATM   23  N12 UNL     1      50.932 -11.083 -11.833  1.00  0.00    -0.263 N 
HETATM   24  O2  UNL     1      50.565 -10.926 -13.072  1.00  0.00    -0.219 OA
ATOM     25  H12 UNL     1      51.898 -11.090 -11.503  1.00  0.00     0.194 HD
HETATM   26  C11 UNL     1      49.260 -10.963 -13.179  1.00  0.00     0.178 A 
BRANCH  26  27
HETATM   27  N13 UNL     1      48.564 -10.837 -14.286  1.00  0.00    -0.377 N 
ATOM     28 2H13 UNL     1      47.546 -10.841 -14.367  1.00  0.00     0.158 HD
ATOM     29 1H13 UNL     1      48.926 -10.718 -15.232  1.00  0.00     0.158 HD
ENDBRANCH  26  27
ENDBRANCH   8  20
ENDBRANCH   1   4
BRANCH   1  30
HETATM   30  N6  UNL     1      43.034 -11.675  -9.052  1.00  0.00    -0.213 N 
HETATM   31  N7  UNL     1      42.694 -12.735  -8.476  1.00  0.00    -0.268 N 
HETATM   32  C6  UNL     1      42.629 -13.986  -9.189  1.00  0.00     0.495 C 
ATOM     33  H7  UNL     1      42.458 -12.712  -7.483  1.00  0.00     0.185 HD
HETATM   34  N8  UNL     1      43.814 -14.760  -8.812  1.00  0.00    -0.032 N 
HETATM   35  N9  UNL     1      41.481 -14.779  -8.727  1.00  0.00    -0.032 N 
ATOM     36  H83 UNL     1      44.687 -14.256  -8.968  1.00  0.00     0.279 HD
ATOM     37  H82 UNL     1      43.910 -14.879  -7.804  1.00  0.00     0.279 HD
ATOM     38  H81 UNL     1      43.767 -15.645  -9.317  1.00  0.00     0.279 HD
ATOM     39  H93 UNL     1      41.498 -14.918  -7.716  1.00  0.00     0.279 HD
ATOM     40  H92 UNL     1      40.607 -14.257  -8.793  1.00  0.00     0.279 HD
ATOM     41  H91 UNL     1      41.435 -15.665  -9.232  1.00  0.00     0.279 HD
ATOM     42  H6  UNL     1      43.067 -10.815  -8.505  1.00  0.00     0.210 HD
ENDBRANCH   1  30
TORSDOF 6
ENDMDL
