MODEL 1
REMARK VINA RESULT: -5.845516401      0.000      0.000
REMARK  12 active torsions:
REMARK  status: ('A' for Active; 'I' for Inactive)
REMARK    1  A    between atoms: C2_2  and  C4_4 
REMARK    2  A    between atoms: C4_4  and  O1_5 
REMARK    3  A    between atoms: C4_4  and  C5_7 
REMARK    4  A    between atoms: C5_7  and  N1_8 
REMARK    5  A    between atoms: C5_7  and  C12_33 
REMARK    6  A    between atoms: N1_8  and  C6_10 
REMARK    7  A    between atoms: C9_20  and  N6_21 
REMARK    8  A    between atoms: N6_21  and  C10_23 
REMARK    9  A    between atoms: C10_23  and  N7_25 
REMARK   10  A    between atoms: C10_23  and  N8_29 
REMARK   11  A    between atoms: C12_33  and  O2_34 
REMARK   12  A    between atoms: C12_33  and  O3_36 
ROOT
HETATM    1  C6  UNL     1      13.497   3.685  15.286  1.00  0.00     0.150 A 
HETATM    2  N2  UNL     1      14.823   3.819  15.027  1.00  0.00    -0.316 N 
ATOM      3  H2  UNL     1      15.384   2.999  14.803  1.00  0.00     0.170 HD
HETATM    4  C7  UNL     1      15.393   5.037  15.067  1.00  0.00     0.204 A 
HETATM    5  C8  UNL     1      16.796   5.123  14.785  1.00  0.00     0.138 C 
HETATM    6  N3  UNL     1      17.934   5.208  14.570  1.00  0.00    -0.188 NA
HETATM    7  N4  UNL     1      14.638   6.108  15.365  1.00  0.00    -0.275 N 
ATOM      8  H4  UNL     1      15.072   7.030  15.395  1.00  0.00     0.189 HD
HETATM    9  N5  UNL     1      13.329   5.991  15.623  1.00  0.00    -0.281 N 
ATOM     10  H5  UNL     1      12.783   6.823  15.847  1.00  0.00     0.188 HD
HETATM   11  C9  UNL     1      12.727   4.794  15.591  1.00  0.00     0.164 A 
ENDROOT
BRANCH   1  12
HETATM   12  N1  UNL     1      12.900   2.537  15.261  1.00  0.00    -0.361 N 
ATOM     13  H1  UNL     1      12.427   2.214  14.417  1.00  0.00     0.162 HD
BRANCH  12  14
HETATM   14  C5  UNL     1      12.919   1.719  16.458  1.00  0.00     0.167 C 
BRANCH  14  15
HETATM   15  C4  UNL     1      13.839   0.530  16.299  1.00  0.00     0.149 C 
BRANCH  15  16
HETATM   16  C2  UNL     1      14.920   0.489  17.326  1.00  0.00     0.008 C 
HETATM   17  C1  UNL     1      15.909   1.622  17.200  1.00  0.00     0.012 C 
HETATM   18  C3  UNL     1      15.675  -0.802  17.397  1.00  0.00     0.012 C 
ENDBRANCH  15  16
BRANCH  15  19
HETATM   19  O1  UNL     1      13.111  -0.652  16.403  1.00  0.00    -0.393 OA
ATOM     20  H1  UNL     1      12.848  -0.908  15.527  1.00  0.00     0.210 HD
ENDBRANCH  15  19
ENDBRANCH  14  15
BRANCH  14  21
HETATM   21  C12 UNL     1      11.502   1.253  16.712  1.00  0.00     0.278 C 
BRANCH  21  22
HETATM   22  O2  UNL     1      10.925   1.906  17.795  1.00  0.00    -0.369 OA
ATOM     23  H2  UNL     1       9.975   1.882  17.761  1.00  0.00     0.212 HD
ENDBRANCH  21  22
BRANCH  21  24
HETATM   24  O3  UNL     1      10.712   1.508  15.567  1.00  0.00    -0.369 OA
ATOM     25  H3  UNL     1      10.398   0.684  15.211  1.00  0.00     0.212 HD
ENDBRANCH  21  24
ENDBRANCH  14  21
ENDBRANCH  12  14
ENDBRANCH   1  12
BRANCH  11  26
HETATM   26  N6  UNL     1      11.340   4.631  15.860  1.00  0.00    -0.317 N 
ATOM     27  H6  UNL     1      11.034   4.282  16.768  1.00  0.00     0.165 HD
BRANCH  26  28
HETATM   28  C10 UNL     1      10.361   4.961  14.846  1.00  0.00     0.355 C 
HETATM   29  C11 UNL     1       9.806   6.350  15.086  1.00  0.00     0.104 C 
BRANCH  28  30
HETATM   30  N7  UNL     1       9.226   4.049  14.887  1.00  0.00    -0.027 N 
ATOM     31  H73 UNL     1       8.895   3.821  13.950  1.00  0.00     0.279 HD
ATOM     32  H72 UNL     1       9.508   3.115  15.185  1.00  0.00     0.279 HD
ATOM     33  H71 UNL     1       8.474   4.417  15.470  1.00  0.00     0.279 HD
ENDBRANCH  28  30
BRANCH  28  34
HETATM   34  N8  UNL     1      10.980   4.976  13.535  1.00  0.00    -0.027 N 
ATOM     35  H83 UNL     1      11.767   5.623  13.493  1.00  0.00     0.279 HD
ATOM     36  H82 UNL     1      11.486   4.111  13.344  1.00  0.00     0.279 HD
ATOM     37  H81 UNL     1      10.283   5.177  12.817  1.00  0.00     0.279 HD
ENDBRANCH  28  34
ENDBRANCH  26  28
ENDBRANCH  11  26
TORSDOF 12
ENDMDL
MODEL 2
REMARK VINA RESULT: -5.794322140      2.719      5.062
REMARK  12 active torsions:
REMARK  status: ('A' for Active; 'I' for Inactive)
REMARK    1  A    between atoms: C2_2  and  C4_4 
REMARK    2  A    between atoms: C4_4  and  O1_5 
REMARK    3  A    between atoms: C4_4  and  C5_7 
REMARK    4  A    between atoms: C5_7  and  N1_8 
REMARK    5  A    between atoms: C5_7  and  C12_33 
REMARK    6  A    between atoms: N1_8  and  C6_10 
REMARK    7  A    between atoms: C9_20  and  N6_21 
REMARK    8  A    between atoms: N6_21  and  C10_23 
REMARK    9  A    between atoms: C10_23  and  N7_25 
REMARK   10  A    between atoms: C10_23  and  N8_29 
REMARK   11  A    between atoms: C12_33  and  O2_34 
REMARK   12  A    between atoms: C12_33  and  O3_36 
ROOT
HETATM    1  C6  UNL     1      13.036   4.018  15.041  1.00  0.00     0.150 A 
HETATM    2  N2  UNL     1      13.198   2.713  15.378  1.00  0.00    -0.316 N 
ATOM      3  H2  UNL     1      14.105   2.264  15.258  1.00  0.00     0.170 HD
HETATM    4  C7  UNL     1      12.160   2.015  15.871  1.00  0.00     0.204 A 
HETATM    5  C8  UNL     1      12.385   0.641  16.212  1.00  0.00     0.138 C 
HETATM    6  N3  UNL     1      12.549  -0.477  16.483  1.00  0.00    -0.188 NA
HETATM    7  N4  UNL     1      10.971   2.623  16.023  1.00  0.00    -0.275 N 
ATOM      8  H4  UNL     1      10.184   2.092  16.397  1.00  0.00     0.189 HD
HETATM    9  N5  UNL     1      10.796   3.910  15.694  1.00  0.00    -0.281 N 
ATOM     10  H5  UNL     1       9.880   4.342  15.821  1.00  0.00     0.188 HD
HETATM   11  C9  UNL     1      11.809   4.636  15.201  1.00  0.00     0.164 A 
ENDROOT
BRANCH   1  12
HETATM   12  N1  UNL     1      14.003   4.733  14.562  1.00  0.00    -0.361 N 
ATOM     13  H1  UNL     1      13.996   5.034  13.588  1.00  0.00     0.162 HD
BRANCH  12  14
HETATM   14  C5  UNL     1      15.096   5.099  15.442  1.00  0.00     0.167 C 
BRANCH  14  15
HETATM   15  C4  UNL     1      15.586   6.501  15.159  1.00  0.00     0.149 C 
BRANCH  15  16
HETATM   16  C2  UNL     1      17.056   6.657  15.364  1.00  0.00     0.008 C 
HETATM   17  C1  UNL     1      17.411   7.315  16.674  1.00  0.00     0.012 C 
HETATM   18  C3  UNL     1      17.776   7.366  14.259  1.00  0.00     0.012 C 
ENDBRANCH  15  16
BRANCH  15  19
HETATM   19  O1  UNL     1      15.304   6.847  13.840  1.00  0.00    -0.393 OA
ATOM     20  H1  UNL     1      14.370   7.005  13.776  1.00  0.00     0.210 HD
ENDBRANCH  15  19
ENDBRANCH  14  15
BRANCH  14  21
HETATM   21  C12 UNL     1      16.211   4.101  15.220  1.00  0.00     0.278 C 
BRANCH  21  22
HETATM   22  O2  UNL     1      16.225   3.109  16.194  1.00  0.00    -0.369 OA
ATOM     23  H2  UNL     1      16.693   3.383  16.975  1.00  0.00     0.212 HD
ENDBRANCH  21  22
BRANCH  21  24
HETATM   24  O3  UNL     1      16.045   3.484  13.959  1.00  0.00    -0.369 OA
ATOM     25  H3  UNL     1      15.777   2.581  14.082  1.00  0.00     0.212 HD
ENDBRANCH  21  24
ENDBRANCH  14  21
ENDBRANCH  12  14
ENDBRANCH   1  12
BRANCH  11  26
HETATM   26  N6  UNL     1      11.660   6.004  14.841  1.00  0.00    -0.317 N 
ATOM     27  H6  UNL     1      11.821   6.734  15.535  1.00  0.00     0.165 HD
BRANCH  26  28
HETATM   28  C10 UNL     1      11.280   6.362  13.492  1.00  0.00     0.355 C 
HETATM   29  C11 UNL     1      10.032   7.221  13.510  1.00  0.00     0.104 C 
BRANCH  28  30
HETATM   30  N7  UNL     1      10.959   5.182  12.700  1.00  0.00    -0.027 N 
ATOM     31  H73 UNL     1      11.718   4.941  12.062  1.00  0.00     0.279 HD
ATOM     32  H72 UNL     1      10.960   4.337  13.271  1.00  0.00     0.279 HD
ATOM     33  H71 UNL     1      10.076   5.297  12.203  1.00  0.00     0.279 HD
ENDBRANCH  28  30
BRANCH  28  34
HETATM   34  N8  UNL     1      12.324   7.150  12.867  1.00  0.00    -0.027 N 
ATOM     35  H83 UNL     1      13.231   6.995  13.306  1.00  0.00     0.279 HD
ATOM     36  H82 UNL     1      12.550   6.809  11.932  1.00  0.00     0.279 HD
ATOM     37  H81 UNL     1      12.068   8.137  12.861  1.00  0.00     0.279 HD
ENDBRANCH  28  34
ENDBRANCH  26  28
ENDBRANCH  11  26
TORSDOF 12
ENDMDL
MODEL 3
REMARK VINA RESULT: -5.581682105      2.986      5.237
REMARK  12 active torsions:
REMARK  status: ('A' for Active; 'I' for Inactive)
REMARK    1  A    between atoms: C2_2  and  C4_4 
REMARK    2  A    between atoms: C4_4  and  O1_5 
REMARK    3  A    between atoms: C4_4  and  C5_7 
REMARK    4  A    between atoms: C5_7  and  N1_8 
REMARK    5  A    between atoms: C5_7  and  C12_33 
REMARK    6  A    between atoms: N1_8  and  C6_10 
REMARK    7  A    between atoms: C9_20  and  N6_21 
REMARK    8  A    between atoms: N6_21  and  C10_23 
REMARK    9  A    between atoms: C10_23  and  N7_25 
REMARK   10  A    between atoms: C10_23  and  N8_29 
REMARK   11  A    between atoms: C12_33  and  O2_34 
REMARK   12  A    between atoms: C12_33  and  O3_36 
ROOT
HETATM    1  C6  UNL     1      12.867   4.047  15.065  1.00  0.00     0.150 A 
HETATM    2  N2  UNL     1      13.249   2.800  15.439  1.00  0.00    -0.316 N 
ATOM      3  H2  UNL     1      14.237   2.551  15.453  1.00  0.00     0.170 HD
HETATM    4  C7  UNL     1      12.320   1.893  15.793  1.00  0.00     0.204 A 
HETATM    5  C8  UNL     1      12.777   0.591  16.180  1.00  0.00     0.138 C 
HETATM    6  N3  UNL     1      13.130  -0.473  16.486  1.00  0.00    -0.188 NA
HETATM    7  N4  UNL     1      11.022   2.238  15.768  1.00  0.00    -0.275 N 
ATOM      8  H4  UNL     1      10.318   1.549  16.036  1.00  0.00     0.189 HD
HETATM    9  N5  UNL     1      10.630   3.465  15.401  1.00  0.00    -0.281 N 
ATOM     10  H5  UNL     1       9.636   3.695  15.393  1.00  0.00     0.188 HD
HETATM   11  C9  UNL     1      11.527   4.394  15.044  1.00  0.00     0.164 A 
ENDROOT
BRANCH   1  12
HETATM   12  N1  UNL     1      13.720   4.956  14.716  1.00  0.00    -0.361 N 
ATOM     13  H1  UNL     1      13.523   5.586  13.939  1.00  0.00     0.162 HD
BRANCH  12  14
HETATM   14  C5  UNL     1      14.964   5.059  15.454  1.00  0.00     0.167 C 
BRANCH  14  15
HETATM   15  C4  UNL     1      15.620   6.405  15.244  1.00  0.00     0.149 C 
BRANCH  15  16
HETATM   16  C2  UNL     1      14.688   7.549  15.472  1.00  0.00     0.008 C 
HETATM   17  C1  UNL     1      15.150   8.834  14.831  1.00  0.00     0.012 C 
HETATM   18  C3  UNL     1      14.361   7.819  16.908  1.00  0.00     0.012 C 
ENDBRANCH  15  16
BRANCH  15  19
HETATM   19  O1  UNL     1      16.694   6.553  16.118  1.00  0.00    -0.393 OA
ATOM     20  H1  UNL     1      17.233   5.774  16.048  1.00  0.00     0.210 HD
ENDBRANCH  15  19
ENDBRANCH  14  15
BRANCH  14  21
HETATM   21  C12 UNL     1      15.875   3.953  14.968  1.00  0.00     0.278 C 
BRANCH  21  22
HETATM   22  O2  UNL     1      17.076   4.447  14.472  1.00  0.00    -0.369 OA
ATOM     23  H2  UNL     1      16.941   5.136  13.832  1.00  0.00     0.212 HD
ENDBRANCH  21  22
BRANCH  21  24
HETATM   24  O3  UNL     1      16.162   3.077  16.040  1.00  0.00    -0.369 OA
ATOM     25  H3  UNL     1      16.275   3.581  16.837  1.00  0.00     0.212 HD
ENDBRANCH  21  24
ENDBRANCH  14  21
ENDBRANCH  12  14
ENDBRANCH   1  12
BRANCH  11  26
HETATM   26  N6  UNL     1      11.149   5.706  14.648  1.00  0.00    -0.317 N 
ATOM     27  H6  UNL     1      11.281   6.006  13.682  1.00  0.00     0.165 HD
BRANCH  26  28
HETATM   28  C10 UNL     1      10.575   6.618  15.614  1.00  0.00     0.355 C 
HETATM   29  C11 UNL     1      10.970   8.044  15.287  1.00  0.00     0.104 C 
BRANCH  28  30
HETATM   30  N7  UNL     1      11.072   6.349  16.958  1.00  0.00    -0.027 N 
ATOM     31  H73 UNL     1      11.148   5.348  17.135  1.00  0.00     0.279 HD
ATOM     32  H72 UNL     1      12.056   6.600  17.049  1.00  0.00     0.279 HD
ATOM     33  H71 UNL     1      10.500   6.812  17.665  1.00  0.00     0.279 HD
ENDBRANCH  28  30
BRANCH  28  34
HETATM   34  N8  UNL     1       9.128   6.560  15.565  1.00  0.00    -0.027 N 
ATOM     35  H83 UNL     1       8.790   6.281  14.644  1.00  0.00     0.279 HD
ATOM     36  H82 UNL     1       8.760   5.776  16.104  1.00  0.00     0.279 HD
ATOM     37  H81 UNL     1       8.727   7.449  15.863  1.00  0.00     0.279 HD
ENDBRANCH  28  34
ENDBRANCH  26  28
ENDBRANCH  11  26
TORSDOF 12
ENDMDL
MODEL 4
REMARK VINA RESULT: -5.525465969      2.141      5.290
REMARK  12 active torsions:
REMARK  status: ('A' for Active; 'I' for Inactive)
REMARK    1  A    between atoms: C2_2  and  C4_4 
REMARK    2  A    between atoms: C4_4  and  O1_5 
REMARK    3  A    between atoms: C4_4  and  C5_7 
REMARK    4  A    between atoms: C5_7  and  N1_8 
REMARK    5  A    between atoms: C5_7  and  C12_33 
REMARK    6  A    between atoms: N1_8  and  C6_10 
REMARK    7  A    between atoms: C9_20  and  N6_21 
REMARK    8  A    between atoms: N6_21  and  C10_23 
REMARK    9  A    between atoms: C10_23  and  N7_25 
REMARK   10  A    between atoms: C10_23  and  N8_29 
REMARK   11  A    between atoms: C12_33  and  O2_34 
REMARK   12  A    between atoms: C12_33  and  O3_36 
ROOT
HETATM    1  C6  UNL     1      13.299   4.147  15.366  1.00  0.00     0.150 A 
HETATM    2  N2  UNL     1      14.316   5.034  15.232  1.00  0.00    -0.316 N 
ATOM      3  H2  UNL     1      14.119   6.033  15.169  1.00  0.00     0.170 HD
HETATM    4  C7  UNL     1      15.586   4.594  15.180  1.00  0.00     0.204 A 
HETATM    5  C8  UNL     1      16.624   5.574  15.038  1.00  0.00     0.138 C 
HETATM    6  N3  UNL     1      17.475   6.355  14.912  1.00  0.00    -0.188 NA
HETATM    7  N4  UNL     1      15.830   3.276  15.263  1.00  0.00    -0.275 N 
ATOM      8  H4  UNL     1      16.794   2.943  15.224  1.00  0.00     0.189 HD
HETATM    9  N5  UNL     1      14.836   2.388  15.396  1.00  0.00    -0.281 N 
ATOM     10  H5  UNL     1      15.054   1.393  15.456  1.00  0.00     0.188 HD
HETATM   11  C9  UNL     1      13.558   2.790  15.452  1.00  0.00     0.164 A 
ENDROOT
BRANCH   1  12
HETATM   12  N1  UNL     1      12.060   4.518  15.421  1.00  0.00    -0.361 N 
ATOM     13  H1  UNL     1      11.491   4.315  16.242  1.00  0.00     0.162 HD
BRANCH  12  14
HETATM   14  C5  UNL     1      11.499   5.228  14.289  1.00  0.00     0.167 C 
BRANCH  14  15
HETATM   15  C4  UNL     1      10.930   6.566  14.703  1.00  0.00     0.149 C 
BRANCH  15  16
HETATM   16  C2  UNL     1      11.161   7.637  13.690  1.00  0.00     0.008 C 
HETATM   17  C1  UNL     1       9.957   7.908  12.821  1.00  0.00     0.012 C 
HETATM   18  C3  UNL     1      12.352   7.424  12.808  1.00  0.00     0.012 C 
ENDBRANCH  15  16
BRANCH  15  19
HETATM   19  O1  UNL     1       9.556   6.459  14.901  1.00  0.00    -0.393 OA
ATOM     20  H1  UNL     1       9.217   5.853  14.253  1.00  0.00     0.210 HD
ENDBRANCH  15  19
ENDBRANCH  14  15
BRANCH  14  21
HETATM   21  C12 UNL     1      10.410   4.358  13.700  1.00  0.00     0.278 C 
BRANCH  21  22
HETATM   22  O2  UNL     1      10.823   3.723  12.535  1.00  0.00    -0.369 OA
ATOM     23  H2  UNL     1      11.242   2.888  12.713  1.00  0.00     0.212 HD
ENDBRANCH  21  22
BRANCH  21  24
HETATM   24  O3  UNL     1      10.042   3.368  14.640  1.00  0.00    -0.369 OA
ATOM     25  H3  UNL     1      10.183   2.507  14.263  1.00  0.00     0.212 HD
ENDBRANCH  21  24
ENDBRANCH  14  21
ENDBRANCH  12  14
ENDBRANCH   1  12
BRANCH  11  26
HETATM   26  N6  UNL     1      12.478   1.877  15.593  1.00  0.00    -0.317 N 
ATOM     27  H6  UNL     1      11.663   1.954  14.985  1.00  0.00     0.165 HD
BRANCH  26  28
HETATM   28  C10 UNL     1      12.533   0.837  16.598  1.00  0.00     0.355 C 
HETATM   29  C11 UNL     1      11.327   0.926  17.510  1.00  0.00     0.104 C 
BRANCH  28  30
HETATM   30  N7  UNL     1      13.707   0.982  17.448  1.00  0.00    -0.027 N 
ATOM     31  H73 UNL     1      14.570   0.925  16.907  1.00  0.00     0.279 HD
ATOM     32  H72 UNL     1      13.802   1.937  17.794  1.00  0.00     0.279 HD
ATOM     33  H71 UNL     1      13.699   0.306  18.212  1.00  0.00     0.279 HD
ENDBRANCH  28  30
BRANCH  28  34
HETATM   34  N8  UNL     1      12.492  -0.470  15.972  1.00  0.00    -0.027 N 
ATOM     35  H83 UNL     1      12.974  -0.477  15.074  1.00  0.00     0.279 HD
ATOM     36  H82 UNL     1      13.079  -1.145  16.463  1.00  0.00     0.279 HD
ATOM     37  H81 UNL     1      11.528  -0.793  15.889  1.00  0.00     0.279 HD
ENDBRANCH  28  34
ENDBRANCH  26  28
ENDBRANCH  11  26
TORSDOF 12
ENDMDL
MODEL 5
REMARK VINA RESULT: -5.507322345      2.434      5.297
REMARK  12 active torsions:
REMARK  status: ('A' for Active; 'I' for Inactive)
REMARK    1  A    between atoms: C2_2  and  C4_4 
REMARK    2  A    between atoms: C4_4  and  O1_5 
REMARK    3  A    between atoms: C4_4  and  C5_7 
REMARK    4  A    between atoms: C5_7  and  N1_8 
REMARK    5  A    between atoms: C5_7  and  C12_33 
REMARK    6  A    between atoms: N1_8  and  C6_10 
REMARK    7  A    between atoms: C9_20  and  N6_21 
REMARK    8  A    between atoms: N6_21  and  C10_23 
REMARK    9  A    between atoms: C10_23  and  N7_25 
REMARK   10  A    between atoms: C10_23  and  N8_29 
REMARK   11  A    between atoms: C12_33  and  O2_34 
REMARK   12  A    between atoms: C12_33  and  O3_36 
ROOT
HETATM    1  C6  UNL     1      13.849   4.807  15.123  1.00  0.00     0.150 A 
HETATM    2  N2  UNL     1      14.158   3.524  15.437  1.00  0.00    -0.316 N 
ATOM      3  H2  UNL     1      13.416   2.838  15.573  1.00  0.00     0.170 HD
HETATM    4  C7  UNL     1      15.446   3.159  15.570  1.00  0.00     0.204 A 
HETATM    5  C8  UNL     1      15.718   1.791  15.902  1.00  0.00     0.138 C 
HETATM    6  N3  UNL     1      15.954   0.688  16.182  1.00  0.00    -0.188 NA
HETATM    7  N4  UNL     1      16.412   4.075  15.388  1.00  0.00    -0.275 N 
ATOM      8  H4  UNL     1      17.388   3.796  15.489  1.00  0.00     0.189 HD
HETATM    9  N5  UNL     1      16.122   5.345  15.078  1.00  0.00    -0.281 N 
ATOM     10  H5  UNL     1      16.879   6.017  14.947  1.00  0.00     0.188 HD
HETATM   11  C9  UNL     1      14.850   5.745  14.937  1.00  0.00     0.164 A 
ENDROOT
BRANCH   1  12
HETATM   12  N1  UNL     1      12.627   5.210  14.984  1.00  0.00    -0.361 N 
ATOM     13  H1  UNL     1      12.289   6.032  15.485  1.00  0.00     0.162 HD
BRANCH  12  14
HETATM   14  C5  UNL     1      11.748   4.467  14.103  1.00  0.00     0.167 C 
BRANCH  14  15
HETATM   15  C4  UNL     1      10.941   5.392  13.221  1.00  0.00     0.149 C 
BRANCH  15  16
HETATM   16  C2  UNL     1      11.109   6.831  13.578  1.00  0.00     0.008 C 
HETATM   17  C1  UNL     1       9.869   7.449  14.175  1.00  0.00     0.012 C 
HETATM   18  C3  UNL     1      11.593   7.705  12.462  1.00  0.00     0.012 C 
ENDBRANCH  15  16
BRANCH  15  19
HETATM   19  O1  UNL     1      11.325   5.238  11.891  1.00  0.00    -0.393 OA
ATOM     20  H1  UNL     1      12.156   4.779  11.882  1.00  0.00     0.210 HD
ENDBRANCH  15  19
ENDBRANCH  14  15
BRANCH  14  21
HETATM   21  C12 UNL     1      10.827   3.638  14.971  1.00  0.00     0.278 C 
BRANCH  21  22
HETATM   22  O2  UNL     1       9.520   3.642  14.497  1.00  0.00    -0.369 OA
ATOM     23  H2  UNL     1       9.169   4.522  14.426  1.00  0.00     0.212 HD
ENDBRANCH  21  22
BRANCH  21  24
HETATM   24  O3  UNL     1      11.286   2.301  15.000  1.00  0.00    -0.369 OA
ATOM     25  H3  UNL     1      12.013   2.231  15.609  1.00  0.00     0.212 HD
ENDBRANCH  21  24
ENDBRANCH  14  21
ENDBRANCH  12  14
ENDBRANCH   1  12
BRANCH  11  26
HETATM   26  N6  UNL     1      14.505   7.084  14.608  1.00  0.00    -0.317 N 
ATOM     27  H6  UNL     1      14.152   7.306  13.677  1.00  0.00     0.165 HD
BRANCH  26  28
HETATM   28  C10 UNL     1      14.652   8.134  15.593  1.00  0.00     0.355 C 
HETATM   29  C11 UNL     1      13.630   9.226  15.351  1.00  0.00     0.104 C 
BRANCH  28  30
HETATM   30  N7  UNL     1      15.962   8.766  15.503  1.00  0.00    -0.027 N 
ATOM     31  H73 UNL     1      16.622   8.186  14.984  1.00  0.00     0.279 HD
ATOM     32  H72 UNL     1      15.945   9.576  14.884  1.00  0.00     0.279 HD
ATOM     33  H71 UNL     1      16.322   9.008  16.426  1.00  0.00     0.279 HD
ENDBRANCH  28  30
BRANCH  28  34
HETATM   34  N8  UNL     1      14.407   7.615  16.923  1.00  0.00    -0.027 N 
ATOM     35  H83 UNL     1      13.505   7.142  16.987  1.00  0.00     0.279 HD
ATOM     36  H82 UNL     1      15.009   6.820  17.138  1.00  0.00     0.279 HD
ATOM     37  H81 UNL     1      14.496   8.358  17.616  1.00  0.00     0.279 HD
ENDBRANCH  28  34
ENDBRANCH  26  28
ENDBRANCH  11  26
TORSDOF 12
ENDMDL
