MODEL 1
REMARK VINA RESULT: -9.120138263      0.000      0.000
REMARK  5 active torsions:
REMARK  status: ('A' for Active; 'I' for Inactive)
REMARK    1  A    between atoms: S1_2  and  C1_4 
REMARK    2  A    between atoms: S1_2  and  N1_8 
REMARK    3  A    between atoms: C7_11  and  N2_12 
REMARK    4  A    between atoms: N2_12  and  C8_14 
REMARK    5  A    between atoms: C10_18  and  C11_19 
ROOT
HETATM    1  N2  UNL     1      54.688  15.743 127.969  1.00  0.00    -0.366 N 
ATOM      2  H2  UNL     1      54.898  14.915 127.412  1.00  0.00     0.162 HD
ENDROOT
BRANCH   1   3
HETATM    3  C7  UNL     1      55.633  16.174 128.948  1.00  0.00     0.085 C 
HETATM    4  C6  UNL     1      56.507  17.320 128.480  1.00  0.00     0.041 C 
HETATM    5  C5  UNL     1      57.688  17.411 129.440  1.00  0.00     0.109 C 
HETATM    6  N1  UNL     1      57.306  16.811 130.697  1.00  0.00    -0.210 NA
HETATM    7  C18 UNL     1      57.258  15.383 130.606  1.00  0.00     0.109 C 
HETATM    8  C17 UNL     1      56.564  15.023 129.303  1.00  0.00     0.041 C 
BRANCH   6   9
HETATM    9  S1  UNL     1      58.357  17.393 131.919  1.00  0.00     0.215 S 
HETATM   10  O1  UNL     1      58.828  16.232 132.739  1.00  0.00    -0.211 OA
HETATM   11  O2  UNL     1      59.559  18.059 131.297  1.00  0.00    -0.211 OA
BRANCH   9  12
HETATM   12  C1  UNL     1      57.533  18.601 132.932  1.00  0.00     0.124 C 
HETATM   13  C2  UNL     1      57.550  18.232 134.404  1.00  0.00     0.021 C 
HETATM   14  C3  UNL     1      56.089  18.610 134.473  1.00  0.00     0.003 C 
HETATM   15  C4  UNL     1      56.024  18.474 132.964  1.00  0.00     0.021 C 
ENDBRANCH   9  12
ENDBRANCH   6   9
ENDBRANCH   1   3
BRANCH   1  16
HETATM   16  C8  UNL     1      53.554  16.377 127.760  1.00  0.00     0.145 A 
HETATM   17  N3  UNL     1      52.546  16.536 128.613  1.00  0.00    -0.346 N 
HETATM   18  C9  UNL     1      51.493  17.198 128.229  1.00  0.00     0.105 A 
ATOM     19  H3  UNL     1      52.596  16.145 129.554  1.00  0.00     0.167 HD
HETATM   20  C10 UNL     1      51.489  17.699 126.949  1.00  0.00     0.006 A 
HETATM   21  S2  UNL     1      53.008  17.187 126.363  1.00  0.00    -0.057 SA
BRANCH  20  22
HETATM   22  C11 UNL     1      50.447  18.492 126.220  1.00  0.00     0.027 C 
HETATM   23  C12 UNL     1      49.666  17.609 125.317  1.00  0.00     0.010 C 
HETATM   24  C13 UNL     1      49.809  17.846 123.858  1.00  0.00     0.001 C 
HETATM   25  C14 UNL     1      51.065  18.507 123.421  1.00  0.00     0.000 C 
HETATM   26  C15 UNL     1      51.236  19.775 124.178  1.00  0.00     0.001 C 
HETATM   27  C16 UNL     1      51.022  19.722 125.640  1.00  0.00     0.010 C 
ENDBRANCH  20  22
ENDBRANCH   1  16
TORSDOF 5
ENDMDL
MODEL 2
REMARK VINA RESULT: -9.061515502      1.102      1.250
REMARK  5 active torsions:
REMARK  status: ('A' for Active; 'I' for Inactive)
REMARK    1  A    between atoms: S1_2  and  C1_4 
REMARK    2  A    between atoms: S1_2  and  N1_8 
REMARK    3  A    between atoms: C7_11  and  N2_12 
REMARK    4  A    between atoms: N2_12  and  C8_14 
REMARK    5  A    between atoms: C10_18  and  C11_19 
ROOT
HETATM    1  N2  UNL     1      54.220  15.875 128.960  1.00  0.00    -0.366 N 
ATOM      2  H2  UNL     1      54.022  14.905 129.207  1.00  0.00     0.162 HD
ENDROOT
BRANCH   1   3
HETATM    3  C7  UNL     1      55.320  16.536 129.586  1.00  0.00     0.085 C 
HETATM    4  C6  UNL     1      55.443  17.997 129.206  1.00  0.00     0.041 C 
HETATM    5  C5  UNL     1      56.836  18.458 129.619  1.00  0.00     0.109 C 
HETATM    6  N1  UNL     1      57.315  17.590 130.669  1.00  0.00    -0.210 NA
HETATM    7  C18 UNL     1      57.693  16.306 130.159  1.00  0.00     0.109 C 
HETATM    8  C17 UNL     1      56.623  15.861 129.177  1.00  0.00     0.041 C 
BRANCH   6   9
HETATM    9  S1  UNL     1      58.568  18.397 131.514  1.00  0.00     0.215 S 
HETATM   10  O1  UNL     1      59.844  17.637 131.322  1.00  0.00    -0.211 OA
HETATM   11  O2  UNL     1      58.754  19.789 130.962  1.00  0.00    -0.211 OA
BRANCH   9  12
HETATM   12  C1  UNL     1      58.165  18.548 133.239  1.00  0.00     0.124 C 
HETATM   13  C2  UNL     1      57.369  17.364 133.755  1.00  0.00     0.021 C 
HETATM   14  C3  UNL     1      56.454  18.338 134.458  1.00  0.00     0.003 C 
HETATM   15  C4  UNL     1      56.966  19.425 133.532  1.00  0.00     0.021 C 
ENDBRANCH   9  12
ENDBRANCH   6   9
ENDBRANCH   1   3
BRANCH   1  16
HETATM   16  C8  UNL     1      53.452  16.474 128.076  1.00  0.00     0.145 A 
HETATM   17  N3  UNL     1      53.705  16.671 126.784  1.00  0.00    -0.346 N 
HETATM   18  C9  UNL     1      52.822  17.290 126.055  1.00  0.00     0.105 A 
ATOM     19  H3  UNL     1      54.578  16.343 126.372  1.00  0.00     0.167 HD
HETATM   20  C10 UNL     1      51.667  17.706 126.673  1.00  0.00     0.006 A 
HETATM   21  S2  UNL     1      51.915  17.183 128.279  1.00  0.00    -0.057 SA
BRANCH  20  22
HETATM   22  C11 UNL     1      50.477  18.430 126.121  1.00  0.00     0.027 C 
HETATM   23  C12 UNL     1      49.704  17.538 125.221  1.00  0.00     0.010 C 
HETATM   24  C13 UNL     1      49.667  17.906 123.782  1.00  0.00     0.001 C 
HETATM   25  C14 UNL     1      50.793  18.740 123.289  1.00  0.00     0.000 C 
HETATM   26  C15 UNL     1      50.907  19.954 124.140  1.00  0.00     0.001 C 
HETATM   27  C16 UNL     1      50.853  19.760 125.604  1.00  0.00     0.010 C 
ENDBRANCH  20  22
ENDBRANCH   1  16
TORSDOF 5
ENDMDL
MODEL 3
REMARK VINA RESULT: -9.022629226      1.216      1.768
REMARK  5 active torsions:
REMARK  status: ('A' for Active; 'I' for Inactive)
REMARK    1  A    between atoms: S1_2  and  C1_4 
REMARK    2  A    between atoms: S1_2  and  N1_8 
REMARK    3  A    between atoms: C7_11  and  N2_12 
REMARK    4  A    between atoms: N2_12  and  C8_14 
REMARK    5  A    between atoms: C10_18  and  C11_19 
ROOT
HETATM    1  N2  UNL     1      54.561  15.338 128.287  1.00  0.00    -0.366 N 
ATOM      2  H2  UNL     1      54.433  14.331 128.181  1.00  0.00     0.162 HD
ENDROOT
BRANCH   1   3
HETATM    3  C7  UNL     1      55.578  15.815 129.168  1.00  0.00     0.085 C 
HETATM    4  C6  UNL     1      56.414  14.711 129.781  1.00  0.00     0.041 C 
HETATM    5  C5  UNL     1      57.170  15.315 130.959  1.00  0.00     0.109 C 
HETATM    6  N1  UNL     1      57.280  16.740 130.752  1.00  0.00    -0.210 NA
HETATM    7  C18 UNL     1      56.032  17.403 130.981  1.00  0.00     0.109 C 
HETATM    8  C17 UNL     1      54.939  16.580 130.320  1.00  0.00     0.041 C 
BRANCH   6   9
HETATM    9  S1  UNL     1      58.567  17.332 131.717  1.00  0.00     0.215 S 
HETATM   10  O1  UNL     1      58.671  16.488 132.949  1.00  0.00    -0.211 OA
HETATM   11  O2  UNL     1      59.869  17.238 130.960  1.00  0.00    -0.211 OA
BRANCH   9  12
HETATM   12  C1  UNL     1      58.304  19.042 132.131  1.00  0.00     0.124 C 
HETATM   13  C2  UNL     1      59.606  19.797 132.328  1.00  0.00     0.021 C 
HETATM   14  C3  UNL     1      59.010  20.417 133.570  1.00  0.00     0.003 C 
HETATM   15  C4  UNL     1      57.988  19.296 133.589  1.00  0.00     0.021 C 
ENDBRANCH   9  12
ENDBRANCH   6   9
ENDBRANCH   1   3
BRANCH   1  16
HETATM   16  C8  UNL     1      53.784  16.151 127.605  1.00  0.00     0.145 A 
HETATM   17  N3  UNL     1      54.119  16.912 126.566  1.00  0.00    -0.346 N 
HETATM   18  C9  UNL     1      53.211  17.661 126.013  1.00  0.00     0.105 A 
ATOM     19  H3  UNL     1      55.075  16.908 126.209  1.00  0.00     0.167 HD
HETATM   20  C10 UNL     1      51.943  17.619 126.543  1.00  0.00     0.006 A 
HETATM   21  S2  UNL     1      52.128  16.498 127.817  1.00  0.00    -0.057 SA
BRANCH  20  22
HETATM   22  C11 UNL     1      50.697  18.347 126.140  1.00  0.00     0.027 C 
HETATM   23  C12 UNL     1      49.880  17.505 125.230  1.00  0.00     0.010 C 
HETATM   24  C13 UNL     1      49.726  17.983 123.833  1.00  0.00     0.001 C 
HETATM   25  C14 UNL     1      50.790  18.887 123.327  1.00  0.00     0.000 C 
HETATM   26  C15 UNL     1      50.938  20.034 124.261  1.00  0.00     0.001 C 
HETATM   27  C16 UNL     1      51.000  19.724 125.705  1.00  0.00     0.010 C 
ENDBRANCH  20  22
ENDBRANCH   1  16
TORSDOF 5
ENDMDL
MODEL 4
REMARK VINA RESULT: -8.828307857      4.149      9.062
REMARK  5 active torsions:
REMARK  status: ('A' for Active; 'I' for Inactive)
REMARK    1  A    between atoms: S1_2  and  C1_4 
REMARK    2  A    between atoms: S1_2  and  N1_8 
REMARK    3  A    between atoms: C7_11  and  N2_12 
REMARK    4  A    between atoms: N2_12  and  C8_14 
REMARK    5  A    between atoms: C10_18  and  C11_19 
ROOT
HETATM    1  N2  UNL     1      51.943  17.256 129.765  1.00  0.00    -0.366 N 
ATOM      2  H2  UNL     1      51.249  16.907 130.426  1.00  0.00     0.162 HD
ENDROOT
BRANCH   1   3
HETATM    3  C7  UNL     1      51.522  17.611 128.447  1.00  0.00     0.085 C 
HETATM    4  C6  UNL     1      51.825  16.550 127.410  1.00  0.00     0.041 C 
HETATM    5  C5  UNL     1      51.687  17.202 126.039  1.00  0.00     0.109 C 
HETATM    6  N1  UNL     1      50.819  18.350 126.162  1.00  0.00    -0.210 NA
HETATM    7  C18 UNL     1      51.478  19.441 126.815  1.00  0.00     0.109 C 
HETATM    8  C17 UNL     1      52.238  18.880 128.005  1.00  0.00     0.041 C 
BRANCH   6   9
HETATM    9  S1  UNL     1      50.208  18.740 124.609  1.00  0.00     0.215 S 
HETATM   10  O1  UNL     1      49.683  17.491 123.973  1.00  0.00    -0.211 OA
HETATM   11  O2  UNL     1      49.075  19.728 124.730  1.00  0.00    -0.211 OA
BRANCH   9  12
HETATM   12  C1  UNL     1      51.473  19.487 123.607  1.00  0.00     0.124 C 
HETATM   13  C2  UNL     1      51.510  20.997 123.751  1.00  0.00     0.021 C 
HETATM   14  C3  UNL     1      51.629  21.096 122.249  1.00  0.00     0.003 C 
HETATM   15  C4  UNL     1      51.095  19.680 122.154  1.00  0.00     0.021 C 
ENDBRANCH   9  12
ENDBRANCH   6   9
ENDBRANCH   1   3
BRANCH   1  16
HETATM   16  C8  UNL     1      53.194  17.363 130.155  1.00  0.00     0.145 A 
HETATM   17  N3  UNL     1      53.667  18.076 131.174  1.00  0.00    -0.346 N 
HETATM   18  C9  UNL     1      54.946  18.064 131.413  1.00  0.00     0.105 A 
ATOM     19  H3  UNL     1      53.037  18.623 131.760  1.00  0.00     0.167 HD
HETATM   20  C10 UNL     1      55.740  17.305 130.586  1.00  0.00     0.006 A 
HETATM   21  S2  UNL     1      54.597  16.646 129.503  1.00  0.00    -0.057 SA
BRANCH  20  22
HETATM   22  C11 UNL     1      57.223  17.084 130.597  1.00  0.00     0.027 C 
HETATM   23  C12 UNL     1      57.586  16.085 131.633  1.00  0.00     0.010 C 
HETATM   24  C13 UNL     1      58.395  16.572 132.780  1.00  0.00     0.001 C 
HETATM   25  C14 UNL     1      58.296  18.023 133.083  1.00  0.00     0.000 C 
HETATM   26  C15 UNL     1      58.606  18.799 131.854  1.00  0.00     0.001 C 
HETATM   27  C16 UNL     1      57.953  18.366 130.600  1.00  0.00     0.010 C 
ENDBRANCH  20  22
ENDBRANCH   1  16
TORSDOF 5
ENDMDL
MODEL 5
REMARK VINA RESULT: -8.818488317      1.926      2.393
REMARK  5 active torsions:
REMARK  status: ('A' for Active; 'I' for Inactive)
REMARK    1  A    between atoms: S1_2  and  C1_4 
REMARK    2  A    between atoms: S1_2  and  N1_8 
REMARK    3  A    between atoms: C7_11  and  N2_12 
REMARK    4  A    between atoms: N2_12  and  C8_14 
REMARK    5  A    between atoms: C10_18  and  C11_19 
ROOT
HETATM    1  N2  UNL     1      55.520  16.894 128.329  1.00  0.00    -0.366 N 
ATOM      2  H2  UNL     1      56.215  16.397 127.772  1.00  0.00     0.162 HD
ENDROOT
BRANCH   1   3
HETATM    3  C7  UNL     1      55.884  17.368 129.625  1.00  0.00     0.085 C 
HETATM    4  C6  UNL     1      57.055  16.625 130.233  1.00  0.00     0.041 C 
HETATM    5  C5  UNL     1      57.081  16.958 131.721  1.00  0.00     0.109 C 
HETATM    6  N1  UNL     1      56.401  18.216 131.922  1.00  0.00    -0.210 NA
HETATM    7  C18 UNL     1      54.982  18.074 131.794  1.00  0.00     0.109 C 
HETATM    8  C17 UNL     1      54.709  17.202 130.580  1.00  0.00     0.041 C 
BRANCH   6   9
HETATM    9  S1  UNL     1      56.899  18.869 133.426  1.00  0.00     0.215 S 
HETATM   10  O1  UNL     1      56.185  20.166 133.647  1.00  0.00    -0.211 OA
HETATM   11  O2  UNL     1      56.537  17.926 134.547  1.00  0.00    -0.211 OA
BRANCH   9  12
HETATM   12  C1  UNL     1      58.663  19.095 133.459  1.00  0.00     0.124 C 
HETATM   13  C2  UNL     1      59.075  20.325 134.245  1.00  0.00     0.021 C 
HETATM   14  C3  UNL     1      60.033  20.667 133.129  1.00  0.00     0.003 C 
HETATM   15  C4  UNL     1      59.238  19.749 132.221  1.00  0.00     0.021 C 
ENDBRANCH   9  12
ENDBRANCH   6   9
ENDBRANCH   1   3
BRANCH   1  16
HETATM   16  C8  UNL     1      54.317  17.075 127.827  1.00  0.00     0.145 A 
HETATM   17  N3  UNL     1      53.392  16.151 127.586  1.00  0.00    -0.346 N 
HETATM   18  C9  UNL     1      52.250  16.517 127.082  1.00  0.00     0.105 A 
ATOM     19  H3  UNL     1      53.574  15.169 127.793  1.00  0.00     0.167 HD
HETATM   20  C10 UNL     1      52.068  17.855 126.826  1.00  0.00     0.006 A 
HETATM   21  S2  UNL     1      53.559  18.519 127.328  1.00  0.00    -0.057 SA
BRANCH  20  22
HETATM   22  C11 UNL     1      50.887  18.585 126.259  1.00  0.00     0.027 C 
HETATM   23  C12 UNL     1      50.002  17.643 125.529  1.00  0.00     0.010 C 
HETATM   24  C13 UNL     1      49.889  17.830 124.060  1.00  0.00     0.001 C 
HETATM   25  C14 UNL     1      51.027  18.518 123.397  1.00  0.00     0.000 C 
HETATM   26  C15 UNL     1      51.271  19.818 124.075  1.00  0.00     0.001 C 
HETATM   27  C16 UNL     1      51.307  19.811 125.554  1.00  0.00     0.010 C 
ENDBRANCH  20  22
ENDBRANCH   1  16
TORSDOF 5
ENDMDL
