MODEL 1
REMARK VINA RESULT: -7.966327134      0.000      0.000
REMARK  4 active torsions:
REMARK  status: ('A' for Active; 'I' for Inactive)
REMARK    1  A    between atoms: N1_3  and  C3_4 
REMARK    2  A    between atoms: N2_18  and  C16_19 
REMARK    3  A    between atoms: C16_19  and  C18_21 
REMARK       I    between atoms: C18_21  and  N3_23 
REMARK    4  A    between atoms: N3_23  and  C19_25 
ROOT
HETATM    1  C1  UNL     1      -1.186   3.505  13.164  1.00  0.00     0.064 C 
HETATM    2  C2  UNL     1      -1.846   3.874  12.090  1.00  0.00     0.108 A 
HETATM    3  N1  UNL     1      -1.078   4.558  11.088  1.00  0.00    -0.297 N 
HETATM    4  C9  UNL     1      -1.715   4.980   9.896  1.00  0.00     0.057 A 
HETATM    5  C10 UNL     1      -0.997   5.641   8.921  1.00  0.00     0.031 A 
HETATM    6  C11 UNL     1      -1.568   6.078   7.739  1.00  0.00     0.002 A 
HETATM    7  C12 UNL     1      -2.910   5.825   7.564  1.00  0.00     0.001 A 
HETATM    8  C13 UNL     1      -3.661   5.169   8.512  1.00  0.00     0.019 A 
HETATM    9  C14 UNL     1      -3.053   4.752   9.672  1.00  0.00     0.059 A 
HETATM   10  C15 UNL     1      -3.825   4.046  10.718  1.00  0.00     0.262 A 
HETATM   11  O1  UNL     1      -5.034   3.867  10.465  1.00  0.00    -0.267 OA
HETATM   12  N2  UNL     1      -3.226   3.604  11.931  1.00  0.00    -0.286 N 
ENDROOT
BRANCH  12  13
HETATM   13  C16 UNL     1      -4.056   2.918  12.884  1.00  0.00     0.183 C 
HETATM   14  C17 UNL     1      -3.545   1.490  13.071  1.00  0.00     0.043 C 
BRANCH  13  15
HETATM   15  C18 UNL     1      -4.126   3.631  14.187  1.00  0.00     0.245 C 
HETATM   16  O2  UNL     1      -4.310   4.864  14.194  1.00  0.00    -0.271 OA
HETATM   17  N3  UNL     1      -3.983   2.907  15.384  1.00  0.00    -0.325 N 
ATOM     18  H3  UNL     1      -3.052   2.837  15.794  1.00  0.00     0.169 HD
BRANCH  17  19
HETATM   19  C19 UNL     1      -4.959   2.326  15.994  1.00  0.00     0.037 A 
HETATM   20  C20 UNL     1      -6.187   2.917  16.143  1.00  0.00     0.046 A 
HETATM   21  C21 UNL     1      -7.192   2.236  16.811  1.00  0.00     0.090 A 
HETATM   22  N4  UNL     1      -7.030   1.009  17.330  1.00  0.00    -0.375 N 
HETATM   23  C22 UNL     1      -5.822   0.420  17.187  1.00  0.00     0.090 A 
ATOM     24  H4  UNL     1      -7.793   0.537  17.815  1.00  0.00     0.164 HD
HETATM   25  C23 UNL     1      -4.782   1.066  16.523  1.00  0.00     0.046 A 
ENDBRANCH  17  19
ENDBRANCH  13  15
ENDBRANCH  12  13
BRANCH   3  26
HETATM   26  C3  UNL     1       0.306   4.834  11.259  1.00  0.00     0.041 A 
HETATM   27  C4  UNL     1       1.316   3.984  10.877  1.00  0.00     0.030 A 
HETATM   28  C5  UNL     1       2.652   4.279  11.045  1.00  0.00     0.002 A 
HETATM   29  C6  UNL     1       3.025   5.479  11.623  1.00  0.00     0.000 A 
HETATM   30  C7  UNL     1       2.031   6.365  12.023  1.00  0.00     0.002 A 
HETATM   31  C8  UNL     1       0.710   6.040  11.840  1.00  0.00     0.030 A 
ENDBRANCH   3  26
TORSDOF 4
ENDMDL
MODEL 2
REMARK VINA RESULT: -7.845316251      3.270      6.846
REMARK  4 active torsions:
REMARK  status: ('A' for Active; 'I' for Inactive)
REMARK    1  A    between atoms: N1_3  and  C3_4 
REMARK    2  A    between atoms: N2_18  and  C16_19 
REMARK    3  A    between atoms: C16_19  and  C18_21 
REMARK       I    between atoms: C18_21  and  N3_23 
REMARK    4  A    between atoms: N3_23  and  C19_25 
ROOT
HETATM    1  C1  UNL     1      -3.570   3.974  11.160  1.00  0.00     0.064 C 
HETATM    2  C2  UNL     1      -3.096   5.145  11.515  1.00  0.00     0.108 A 
HETATM    3  N1  UNL     1      -3.216   5.474  12.907  1.00  0.00    -0.297 N 
HETATM    4  C9  UNL     1      -2.720   6.716  13.370  1.00  0.00     0.057 A 
HETATM    5  C10 UNL     1      -2.827   7.054  14.704  1.00  0.00     0.031 A 
HETATM    6  C11 UNL     1      -2.362   8.255  15.211  1.00  0.00     0.002 A 
HETATM    7  C12 UNL     1      -1.775   9.123  14.319  1.00  0.00     0.001 A 
HETATM    8  C13 UNL     1      -1.648   8.824  12.982  1.00  0.00     0.019 A 
HETATM    9  C14 UNL     1      -2.124   7.620  12.520  1.00  0.00     0.059 A 
HETATM   10  C15 UNL     1      -2.011   7.260  11.090  1.00  0.00     0.262 A 
HETATM   11  O1  UNL     1      -1.465   8.115  10.362  1.00  0.00    -0.267 OA
HETATM   12  N2  UNL     1      -2.495   6.022  10.580  1.00  0.00    -0.286 N 
ENDROOT
BRANCH  12  13
HETATM   13  C16 UNL     1      -2.331   5.759   9.177  1.00  0.00     0.183 C 
HETATM   14  C17 UNL     1      -1.605   4.428   8.988  1.00  0.00     0.043 C 
BRANCH  13  15
HETATM   15  C18 UNL     1      -3.628   5.764   8.447  1.00  0.00     0.245 C 
HETATM   16  O2  UNL     1      -4.081   4.688   8.011  1.00  0.00    -0.271 OA
HETATM   17  N3  UNL     1      -4.316   6.976   8.262  1.00  0.00    -0.325 N 
ATOM     18  H3  UNL     1      -4.152   7.493   7.399  1.00  0.00     0.169 HD
BRANCH  17  19
HETATM   19  C19 UNL     1      -5.141   7.473   9.118  1.00  0.00     0.037 A 
HETATM   20  C20 UNL     1      -6.004   6.692   9.845  1.00  0.00     0.046 A 
HETATM   21  C21 UNL     1      -6.865   7.292  10.748  1.00  0.00     0.090 A 
HETATM   22  N4  UNL     1      -6.907   8.617  10.957  1.00  0.00    -0.375 N 
HETATM   23  C22 UNL     1      -6.060   9.393  10.245  1.00  0.00     0.090 A 
ATOM     24  H4  UNL     1      -7.555   9.025  11.631  1.00  0.00     0.164 HD
HETATM   25  C23 UNL     1      -5.176   8.834   9.326  1.00  0.00     0.046 A 
ENDBRANCH  17  19
ENDBRANCH  13  15
ENDBRANCH  12  13
BRANCH   3  26
HETATM   26  C3  UNL     1      -3.829   4.592  13.838  1.00  0.00     0.041 A 
HETATM   27  C4  UNL     1      -3.152   3.630  14.551  1.00  0.00     0.030 A 
HETATM   28  C5  UNL     1      -3.768   2.792  15.456  1.00  0.00     0.002 A 
HETATM   29  C6  UNL     1      -5.129   2.899  15.679  1.00  0.00     0.000 A 
HETATM   30  C7  UNL     1      -5.847   3.861  14.976  1.00  0.00     0.002 A 
HETATM   31  C8  UNL     1      -5.202   4.679  14.083  1.00  0.00     0.030 A 
ENDBRANCH   3  26
TORSDOF 4
ENDMDL
MODEL 3
REMARK VINA RESULT: -7.832561290      4.147      7.167
REMARK  4 active torsions:
REMARK  status: ('A' for Active; 'I' for Inactive)
REMARK    1  A    between atoms: N1_3  and  C3_4 
REMARK    2  A    between atoms: N2_18  and  C16_19 
REMARK    3  A    between atoms: C16_19  and  C18_21 
REMARK       I    between atoms: C18_21  and  N3_23 
REMARK    4  A    between atoms: N3_23  and  C19_25 
ROOT
HETATM    1  C1  UNL     1      -3.236   8.565  11.376  1.00  0.00     0.064 C 
HETATM    2  C2  UNL     1      -3.372   7.275  11.579  1.00  0.00     0.108 A 
HETATM    3  N1  UNL     1      -2.659   6.740  12.704  1.00  0.00    -0.297 N 
HETATM    4  C9  UNL     1      -2.760   5.358  12.995  1.00  0.00     0.057 A 
HETATM    5  C10 UNL     1      -2.081   4.822  14.070  1.00  0.00     0.031 A 
HETATM    6  C11 UNL     1      -2.142   3.480  14.399  1.00  0.00     0.002 A 
HETATM    7  C12 UNL     1      -2.923   2.677  13.599  1.00  0.00     0.001 A 
HETATM    8  C13 UNL     1      -3.615   3.172  12.518  1.00  0.00     0.019 A 
HETATM    9  C14 UNL     1      -3.526   4.512  12.227  1.00  0.00     0.059 A 
HETATM   10  C15 UNL     1      -4.253   5.085  11.073  1.00  0.00     0.262 A 
HETATM   11  O1  UNL     1      -4.931   4.275  10.408  1.00  0.00    -0.267 OA
HETATM   12  N2  UNL     1      -4.179   6.468  10.743  1.00  0.00    -0.286 N 
ENDROOT
BRANCH  12  13
HETATM   13  C16 UNL     1      -4.929   6.933   9.608  1.00  0.00     0.183 C 
HETATM   14  C17 UNL     1      -4.512   6.147   8.365  1.00  0.00     0.043 C 
BRANCH  13  15
HETATM   15  C18 UNL     1      -6.397   6.839   9.826  1.00  0.00     0.245 C 
HETATM   16  O2  UNL     1      -6.842   6.900  10.989  1.00  0.00    -0.271 OA
HETATM   17  N3  UNL     1      -7.255   6.684   8.722  1.00  0.00    -0.325 N 
ATOM     18  H3  UNL     1      -7.521   5.737   8.451  1.00  0.00     0.169 HD
BRANCH  17  19
HETATM   19  C19 UNL     1      -7.725   7.665   8.033  1.00  0.00     0.037 A 
HETATM   20  C20 UNL     1      -6.977   8.328   7.093  1.00  0.00     0.046 A 
HETATM   21  C21 UNL     1      -7.546   9.375   6.388  1.00  0.00     0.090 A 
HETATM   22  N4  UNL     1      -8.809   9.788   6.574  1.00  0.00    -0.375 N 
HETATM   23  C22 UNL     1      -9.553   9.141   7.499  1.00  0.00     0.090 A 
ATOM     24  H4  UNL     1      -9.196  10.564   6.036  1.00  0.00     0.164 HD
HETATM   25  C23 UNL     1      -9.024   8.081   8.231  1.00  0.00     0.046 A 
ENDBRANCH  17  19
ENDBRANCH  13  15
ENDBRANCH  12  13
BRANCH   3  26
HETATM   26  C3  UNL     1      -1.841   7.556  13.534  1.00  0.00     0.041 A 
HETATM   27  C4  UNL     1      -2.221   8.025  14.770  1.00  0.00     0.030 A 
HETATM   28  C5  UNL     1      -1.406   8.807  15.560  1.00  0.00     0.002 A 
HETATM   29  C6  UNL     1      -0.142   9.153  15.116  1.00  0.00     0.000 A 
HETATM   30  C7  UNL     1       0.276   8.697  13.871  1.00  0.00     0.002 A 
HETATM   31  C8  UNL     1      -0.560   7.920  13.110  1.00  0.00     0.030 A 
ENDBRANCH   3  26
TORSDOF 4
ENDMDL
MODEL 4
REMARK VINA RESULT: -7.685014815      2.644      3.833
REMARK  4 active torsions:
REMARK  status: ('A' for Active; 'I' for Inactive)
REMARK    1  A    between atoms: N1_3  and  C3_4 
REMARK    2  A    between atoms: N2_18  and  C16_19 
REMARK    3  A    between atoms: C16_19  and  C18_21 
REMARK       I    between atoms: C18_21  and  N3_23 
REMARK    4  A    between atoms: N3_23  and  C19_25 
ROOT
HETATM    1  C1  UNL     1      -3.294   6.520  14.312  1.00  0.00     0.064 C 
HETATM    2  C2  UNL     1      -2.363   5.960  13.576  1.00  0.00     0.108 A 
HETATM    3  N1  UNL     1      -1.281   6.814  13.177  1.00  0.00    -0.297 N 
HETATM    4  C9  UNL     1      -0.232   6.282  12.389  1.00  0.00     0.057 A 
HETATM    5  C10 UNL     1       0.817   7.086  11.993  1.00  0.00     0.031 A 
HETATM    6  C11 UNL     1       1.866   6.620  11.221  1.00  0.00     0.002 A 
HETATM    7  C12 UNL     1       1.828   5.295  10.852  1.00  0.00     0.001 A 
HETATM    8  C13 UNL     1       0.800   4.460  11.226  1.00  0.00     0.019 A 
HETATM    9  C14 UNL     1      -0.222   4.965  11.993  1.00  0.00     0.059 A 
HETATM   10  C15 UNL     1      -1.348   4.102  12.415  1.00  0.00     0.262 A 
HETATM   11  O1  UNL     1      -1.291   2.917  12.028  1.00  0.00    -0.267 OA
HETATM   12  N2  UNL     1      -2.423   4.595  13.208  1.00  0.00    -0.286 N 
ENDROOT
BRANCH  12  13
HETATM   13  C16 UNL     1      -3.467   3.677  13.575  1.00  0.00     0.183 C 
HETATM   14  C17 UNL     1      -3.896   2.874  12.348  1.00  0.00     0.043 C 
BRANCH  13  15
HETATM   15  C18 UNL     1      -3.057   2.773  14.683  1.00  0.00     0.245 C 
HETATM   16  O2  UNL     1      -2.035   3.047  15.342  1.00  0.00    -0.271 OA
HETATM   17  N3  UNL     1      -3.825   1.630  14.967  1.00  0.00    -0.325 N 
ATOM     18  H3  UNL     1      -3.556   0.750  14.529  1.00  0.00     0.169 HD
BRANCH  17  19
HETATM   19  C19 UNL     1      -4.850   1.628  15.749  1.00  0.00     0.037 A 
HETATM   20  C20 UNL     1      -5.629   2.741  15.941  1.00  0.00     0.046 A 
HETATM   21  C21 UNL     1      -6.716   2.668  16.797  1.00  0.00     0.090 A 
HETATM   22  N4  UNL     1      -7.057   1.554  17.461  1.00  0.00    -0.375 N 
HETATM   23  C22 UNL     1      -6.294   0.453  17.278  1.00  0.00     0.090 A 
ATOM     24  H4  UNL     1      -7.865   1.537  18.084  1.00  0.00     0.164 HD
HETATM   25  C23 UNL     1      -5.192   0.479  16.427  1.00  0.00     0.046 A 
ENDBRANCH  17  19
ENDBRANCH  13  15
ENDBRANCH  12  13
BRANCH   3  26
HETATM   26  C3  UNL     1      -1.232   8.188  13.543  1.00  0.00     0.041 A 
HETATM   27  C4  UNL     1      -1.852   9.195  12.842  1.00  0.00     0.030 A 
HETATM   28  C5  UNL     1      -1.799  10.519  13.223  1.00  0.00     0.002 A 
HETATM   29  C6  UNL     1      -1.095  10.882  14.358  1.00  0.00     0.000 A 
HETATM   30  C7  UNL     1      -0.455   9.890  15.092  1.00  0.00     0.002 A 
HETATM   31  C8  UNL     1      -0.529   8.581  14.686  1.00  0.00     0.030 A 
ENDBRANCH   3  26
TORSDOF 4
ENDMDL
MODEL 5
REMARK VINA RESULT: -7.566282194      2.226      3.520
REMARK  4 active torsions:
REMARK  status: ('A' for Active; 'I' for Inactive)
REMARK    1  A    between atoms: N1_3  and  C3_4 
REMARK    2  A    between atoms: N2_18  and  C16_19 
REMARK    3  A    between atoms: C16_19  and  C18_21 
REMARK       I    between atoms: C18_21  and  N3_23 
REMARK    4  A    between atoms: N3_23  and  C19_25 
ROOT
HETATM    1  C1  UNL     1      -1.376   4.043  11.793  1.00  0.00     0.064 C 
HETATM    2  C2  UNL     1      -1.545   5.080  12.581  1.00  0.00     0.108 A 
HETATM    3  N1  UNL     1      -0.577   6.132  12.449  1.00  0.00    -0.297 N 
HETATM    4  C9  UNL     1      -0.696   7.288  13.257  1.00  0.00     0.057 A 
HETATM    5  C10 UNL     1       0.225   8.309  13.148  1.00  0.00     0.031 A 
HETATM    6  C11 UNL     1       0.159   9.460  13.914  1.00  0.00     0.002 A 
HETATM    7  C12 UNL     1      -0.881   9.554  14.810  1.00  0.00     0.001 A 
HETATM    8  C13 UNL     1      -1.819   8.557  14.950  1.00  0.00     0.019 A 
HETATM    9  C14 UNL     1      -1.716   7.431  14.169  1.00  0.00     0.059 A 
HETATM   10  C15 UNL     1      -2.702   6.335  14.288  1.00  0.00     0.262 A 
HETATM   11  O1  UNL     1      -3.605   6.514  15.131  1.00  0.00    -0.267 OA
HETATM   12  N2  UNL     1      -2.622   5.154  13.496  1.00  0.00    -0.286 N 
ENDROOT
BRANCH  12  13
HETATM   13  C16 UNL     1      -3.633   4.149  13.678  1.00  0.00     0.183 C 
HETATM   14  C17 UNL     1      -4.087   3.629  12.316  1.00  0.00     0.043 C 
BRANCH  13  15
HETATM   15  C18 UNL     1      -3.166   3.032  14.544  1.00  0.00     0.245 C 
HETATM   16  O2  UNL     1      -2.076   3.140  15.138  1.00  0.00    -0.271 OA
HETATM   17  N3  UNL     1      -3.960   1.878  14.675  1.00  0.00    -0.325 N 
ATOM     18  H3  UNL     1      -3.774   1.095  14.049  1.00  0.00     0.169 HD
BRANCH  17  19
HETATM   19  C19 UNL     1      -4.907   1.751  15.540  1.00  0.00     0.037 A 
HETATM   20  C20 UNL     1      -5.849   2.727  15.746  1.00  0.00     0.046 A 
HETATM   21  C21 UNL     1      -6.840   2.524  16.692  1.00  0.00     0.090 A 
HETATM   22  N4  UNL     1      -6.934   1.409  17.433  1.00  0.00    -0.375 N 
HETATM   23  C22 UNL     1      -6.009   0.443  17.236  1.00  0.00     0.090 A 
ATOM     24  H4  UNL     1      -7.678   1.294  18.121  1.00  0.00     0.164 HD
HETATM   25  C23 UNL     1      -4.994   0.602  16.295  1.00  0.00     0.046 A 
ENDBRANCH  17  19
ENDBRANCH  13  15
ENDBRANCH  12  13
BRANCH   3  26
HETATM   26  C3  UNL     1       0.508   6.045  11.533  1.00  0.00     0.041 A 
HETATM   27  C4  UNL     1       1.738   5.516  11.843  1.00  0.00     0.030 A 
HETATM   28  C5  UNL     1       2.772   5.434  10.934  1.00  0.00     0.002 A 
HETATM   29  C6  UNL     1       2.593   5.899   9.644  1.00  0.00     0.000 A 
HETATM   30  C7  UNL     1       1.362   6.441   9.294  1.00  0.00     0.002 A 
HETATM   31  C8  UNL     1       0.354   6.507  10.223  1.00  0.00     0.030 A 
ENDBRANCH   3  26
TORSDOF 4
ENDMDL
