MODEL 1
REMARK VINA RESULT: -6.089865538      0.000      0.000
REMARK  2 active torsions:
REMARK  status: ('A' for Active; 'I' for Inactive)
REMARK    1  A    between atoms: O1_2  and  C2_3 
REMARK    2  A    between atoms: N5_15  and  N6_16 
ROOT
HETATM    1  C2  UNL     1      26.410   1.388  12.566  1.00  0.00     0.168 C 
HETATM    2  C3  UNL     1      25.654   0.561  13.233  1.00  0.00     0.123 A 
HETATM    3  C4  UNL     1      25.016   1.008  14.461  1.00  0.00     0.119 A 
HETATM    4  N1  UNL     1      25.250   2.344  14.882  1.00  0.00    -0.096 NA
HETATM    5  C5  UNL     1      24.234   0.182  15.172  1.00  0.00     0.158 A 
HETATM    6  N2  UNL     1      23.633   0.679  16.371  1.00  0.00    -0.080 NA
HETATM    7  N3  UNL     1      24.021  -1.148  14.724  1.00  0.00    -0.175 N 
ATOM      8  H3  UNL     1      23.423  -1.764  15.275  1.00  0.00     0.185 HD
HETATM    9  C6  UNL     1      24.612  -1.650  13.535  1.00  0.00     0.698 A 
HETATM   10  N4  UNL     1      24.421  -2.859  13.122  1.00  0.00    -0.233 N 
ATOM     11  H41 UNL     1      24.846  -3.220  12.268  1.00  0.00     0.174 HD
ATOM     12  H42 UNL     1      23.826  -3.489  13.660  1.00  0.00     0.174 HD
HETATM   13  N5  UNL     1      25.445  -0.767  12.782  1.00  0.00    -0.089 N 
ENDROOT
BRANCH   1  14
HETATM   14  O1  UNL     1      26.638   2.713  12.987  1.00  0.00    -0.365 OA
HETATM   15  C1  UNL     1      26.706   3.699  11.950  1.00  0.00     0.209 C 
ENDBRANCH   1  14
BRANCH  13  16
HETATM   16  N6  UNL     1      26.063  -1.199  11.593  1.00  0.00    -0.324 N 
ATOM     17  H62 UNL     1      26.785  -1.919  11.611  1.00  0.00     0.178 HD
ATOM     18  H61 UNL     1      25.784  -0.784  10.704  1.00  0.00     0.178 HD
ENDBRANCH  13  16
TORSDOF 2
ENDMDL
MODEL 2
REMARK VINA RESULT: -5.857805624      1.894      3.518
REMARK  2 active torsions:
REMARK  status: ('A' for Active; 'I' for Inactive)
REMARK    1  A    between atoms: O1_2  and  C2_3 
REMARK    2  A    between atoms: N5_15  and  N6_16 
ROOT
HETATM    1  C2  UNL     1      23.896  -0.419  15.269  1.00  0.00     0.168 C 
HETATM    2  C3  UNL     1      24.635  -0.209  14.216  1.00  0.00     0.123 A 
HETATM    3  C4  UNL     1      25.353   1.049  14.086  1.00  0.00     0.119 A 
HETATM    4  N1  UNL     1      25.213   2.003  15.128  1.00  0.00    -0.096 NA
HETATM    5  C5  UNL     1      26.121   1.297  13.015  1.00  0.00     0.158 A 
HETATM    6  N2  UNL     1      26.803   2.553  12.944  1.00  0.00    -0.080 NA
HETATM    7  N3  UNL     1      26.241   0.322  11.990  1.00  0.00    -0.175 N 
ATOM      8  H3  UNL     1      26.829   0.525  11.183  1.00  0.00     0.185 HD
HETATM    9  C6  UNL     1      25.569  -0.927  12.053  1.00  0.00     0.698 A 
HETATM   10  N4  UNL     1      25.674  -1.818  11.123  1.00  0.00    -0.233 N 
ATOM     11  H41 UNL     1      25.191  -2.715  11.168  1.00  0.00     0.174 HD
ATOM     12  H42 UNL     1      26.258  -1.632  10.308  1.00  0.00     0.174 HD
HETATM   13  N5  UNL     1      24.751  -1.187  13.194  1.00  0.00    -0.089 N 
ENDROOT
BRANCH   1  14
HETATM   14  O1  UNL     1      23.760   0.530  16.301  1.00  0.00    -0.365 OA
HETATM   15  C1  UNL     1      22.419   0.914  16.627  1.00  0.00     0.209 C 
ENDBRANCH   1  14
BRANCH  13  16
HETATM   16  N6  UNL     1      24.055  -2.404  13.320  1.00  0.00    -0.324 N 
ATOM     17  H62 UNL     1      23.198  -2.573  12.795  1.00  0.00     0.178 HD
ATOM     18  H61 UNL     1      24.417  -3.125  13.946  1.00  0.00     0.178 HD
ENDBRANCH  13  16
TORSDOF 2
ENDMDL
MODEL 3
REMARK VINA RESULT: -5.117353939      2.129      4.624
REMARK  2 active torsions:
REMARK  status: ('A' for Active; 'I' for Inactive)
REMARK    1  A    between atoms: O1_2  and  C2_3 
REMARK    2  A    between atoms: N5_15  and  N6_16 
ROOT
HETATM    1  C2  UNL     1      25.088   1.249  14.817  1.00  0.00     0.168 C 
HETATM    2  C3  UNL     1      25.513   1.262  13.584  1.00  0.00     0.123 A 
HETATM    3  C4  UNL     1      25.483   0.034  12.806  1.00  0.00     0.119 A 
HETATM    4  N1  UNL     1      24.985  -1.138  13.434  1.00  0.00    -0.096 NA
HETATM    5  C5  UNL     1      25.913   0.013  11.535  1.00  0.00     0.158 A 
HETATM    6  N2  UNL     1      25.858  -1.225  10.820  1.00  0.00    -0.080 NA
HETATM    7  N3  UNL     1      26.405   1.202  10.936  1.00  0.00    -0.175 N 
ATOM      8  H3  UNL     1      26.728   1.169   9.970  1.00  0.00     0.185 HD
HETATM    9  C6  UNL     1      26.462   2.434  11.638  1.00  0.00     0.698 A 
HETATM   10  N4  UNL     1      26.908   3.520  11.098  1.00  0.00    -0.233 N 
ATOM     11  H41 UNL     1      26.950   4.405  11.602  1.00  0.00     0.174 HD
ATOM     12  H42 UNL     1      27.235   3.507  10.132  1.00  0.00     0.174 HD
HETATM   13  N5  UNL     1      26.004   2.453  12.991  1.00  0.00    -0.089 N 
ENDROOT
BRANCH   1  14
HETATM   14  O1  UNL     1      24.594   0.084  15.436  1.00  0.00    -0.365 OA
HETATM   15  C1  UNL     1      23.322   0.207  16.082  1.00  0.00     0.209 C 
ENDBRANCH   1  14
BRANCH  13  16
HETATM   16  N6  UNL     1      26.033   3.641  13.746  1.00  0.00    -0.324 N 
ATOM     17  H62 UNL     1      26.916   4.106  13.954  1.00  0.00     0.178 HD
ATOM     18  H61 UNL     1      25.158   4.039  14.087  1.00  0.00     0.178 HD
ENDBRANCH  13  16
TORSDOF 2
ENDMDL
MODEL 4
REMARK VINA RESULT: -5.103544684      3.448      5.572
REMARK  2 active torsions:
REMARK  status: ('A' for Active; 'I' for Inactive)
REMARK    1  A    between atoms: O1_2  and  C2_3 
REMARK    2  A    between atoms: N5_15  and  N6_16 
ROOT
HETATM    1  C2  UNL     1      26.590   1.975  11.339  1.00  0.00     0.168 C 
HETATM    2  C3  UNL     1      26.519   3.262  11.537  1.00  0.00     0.123 A 
HETATM    3  C4  UNL     1      26.013   3.763  12.805  1.00  0.00     0.119 A 
HETATM    4  N1  UNL     1      25.614   2.813  13.782  1.00  0.00    -0.096 NA
HETATM    5  C5  UNL     1      25.926   5.080  13.040  1.00  0.00     0.158 A 
HETATM    6  N2  UNL     1      25.420   5.513  14.307  1.00  0.00    -0.080 NA
HETATM    7  N3  UNL     1      26.334   6.005  12.043  1.00  0.00    -0.175 N 
ATOM      8  H3  UNL     1      26.262   7.003  12.237  1.00  0.00     0.185 HD
HETATM    9  C6  UNL     1      26.837   5.585  10.784  1.00  0.00     0.698 A 
HETATM   10  N4  UNL     1      27.210   6.421   9.872  1.00  0.00    -0.233 N 
ATOM     11  H41 UNL     1      27.572   6.120   8.968  1.00  0.00     0.174 HD
ATOM     12  H42 UNL     1      27.146   7.424  10.049  1.00  0.00     0.174 HD
HETATM   13  N5  UNL     1      26.927   4.181  10.537  1.00  0.00    -0.089 N 
ENDROOT
BRANCH   1  14
HETATM   14  O1  UNL     1      26.193   1.036  12.311  1.00  0.00    -0.365 OA
HETATM   15  C1  UNL     1      25.872  -0.273  11.826  1.00  0.00     0.209 C 
ENDBRANCH   1  14
BRANCH  13  16
HETATM   16  N6  UNL     1      27.417   3.695   9.309  1.00  0.00    -0.324 N 
ATOM     17  H62 UNL     1      27.862   2.780   9.250  1.00  0.00     0.178 HD
ATOM     18  H61 UNL     1      27.324   4.268   8.471  1.00  0.00     0.178 HD
ENDBRANCH  13  16
TORSDOF 2
ENDMDL
MODEL 5
REMARK VINA RESULT: -5.078481152      1.394      1.806
REMARK  2 active torsions:
REMARK  status: ('A' for Active; 'I' for Inactive)
REMARK    1  A    between atoms: O1_2  and  C2_3 
REMARK    2  A    between atoms: N5_15  and  N6_16 
ROOT
HETATM    1  C2  UNL     1      25.790  -0.248  13.351  1.00  0.00     0.168 C 
HETATM    2  C3  UNL     1      24.715  -0.566  14.017  1.00  0.00     0.123 A 
HETATM    3  C4  UNL     1      24.260   0.298  15.094  1.00  0.00     0.119 A 
HETATM    4  N1  UNL     1      25.019   1.465  15.374  1.00  0.00    -0.096 NA
HETATM    5  C5  UNL     1      23.158  -0.001  15.799  1.00  0.00     0.158 A 
HETATM    6  N2  UNL     1      22.760   0.889  16.847  1.00  0.00    -0.080 NA
HETATM    7  N3  UNL     1      22.421  -1.175  15.494  1.00  0.00    -0.175 N 
ATOM      8  H3  UNL     1      21.586  -1.388  16.039  1.00  0.00     0.185 HD
HETATM    9  C6  UNL     1      22.808  -2.062  14.456  1.00  0.00     0.698 A 
HETATM   10  N4  UNL     1      22.141  -3.132  14.174  1.00  0.00    -0.233 N 
ATOM     11  H41 UNL     1      22.419  -3.770  13.428  1.00  0.00     0.174 HD
ATOM     12  H42 UNL     1      21.303  -3.361  14.707  1.00  0.00     0.174 HD
HETATM   13  N5  UNL     1      23.982  -1.741  13.708  1.00  0.00    -0.089 N 
ENDROOT
BRANCH   1  14
HETATM   14  O1  UNL     1      26.540   0.911  13.632  1.00  0.00    -0.365 OA
HETATM   15  C1  UNL     1      26.538   1.921  12.617  1.00  0.00     0.209 C 
ENDBRANCH   1  14
BRANCH  13  16
HETATM   16  N6  UNL     1      24.424  -2.577  12.665  1.00  0.00    -0.324 N 
ATOM     17  H62 UNL     1      24.061  -2.468  11.718  1.00  0.00     0.178 HD
ATOM     18  H61 UNL     1      25.115  -3.301  12.862  1.00  0.00     0.178 HD
ENDBRANCH  13  16
TORSDOF 2
ENDMDL
