MODEL 1
REMARK VINA RESULT: -7.201976690      0.000      0.000
REMARK  2 active torsions:
REMARK  status: ('A' for Active; 'I' for Inactive)
REMARK    1  A    between atoms: C10_10  and  O1_11 
REMARK    2  A    between atoms: C14_16  and  O2_17 
ROOT
HETATM    1  C1  UNL     1      22.681  11.099  11.495  1.00  0.00     0.014 C 
HETATM    2  C2  UNL     1      23.090   9.930  11.945  1.00  0.00    -0.089 C 
HETATM    3  C3  UNL     1      23.528   9.782  13.335  1.00  0.00     0.034 C 
HETATM    4  C4  UNL     1      23.618   8.307  13.753  1.00  0.00     0.009 C 
HETATM    5  C5  UNL     1      22.430   7.606  13.181  1.00  0.00    -0.005 C 
HETATM    6  C6  UNL     1      22.443   7.575  11.665  1.00  0.00    -0.006 C 
HETATM    7  C7  UNL     1      23.110   8.749  11.044  1.00  0.00     0.038 C 
HETATM    8  C8  UNL     1      23.135   6.257  11.381  1.00  0.00     0.012 C 
HETATM    9  C9  UNL     1      22.337   5.370  12.297  1.00  0.00     0.019 C 
HETATM   10  C10 UNL     1      22.870   4.008  12.479  1.00  0.00     0.123 C 
HETATM   11  C11 UNL     1      22.267   3.452  13.747  1.00  0.00     0.044 C 
HETATM   12  C12 UNL     1      22.568   4.240  14.968  1.00  0.00    -0.012 C 
HETATM   13  C13 UNL     1      21.318   4.228  15.854  1.00  0.00     0.018 C 
HETATM   14  C14 UNL     1      23.664   3.573  15.728  1.00  0.00     0.126 C 
HETATM   15  C15 UNL     1      24.910   4.377  15.453  1.00  0.00     0.033 C 
HETATM   16  C16 UNL     1      24.453   5.632  14.712  1.00  0.00     0.008 C 
HETATM   17  C17 UNL     1      22.998   5.666  14.709  1.00  0.00     0.001 C 
HETATM   18  C18 UNL     1      22.251   6.195  13.560  1.00  0.00     0.001 C 
ENDROOT
BRANCH  10  19
HETATM   19  O1  UNL     1      22.375   3.192  11.432  1.00  0.00    -0.395 OA
ATOM     20  H1  UNL     1      22.856   2.373  11.438  1.00  0.00     0.210 HD
ENDBRANCH  10  19
BRANCH  14  21
HETATM   21  O2  UNL     1      23.400   3.477  17.101  1.00  0.00    -0.395 OA
ATOM     22  H2  UNL     1      23.569   4.285  17.570  1.00  0.00     0.210 HD
ENDBRANCH  14  21
TORSDOF 2
ENDMDL
MODEL 2
REMARK VINA RESULT: -7.098878866      2.228      4.971
REMARK  2 active torsions:
REMARK  status: ('A' for Active; 'I' for Inactive)
REMARK    1  A    between atoms: C10_10  and  O1_11 
REMARK    2  A    between atoms: C14_16  and  O2_17 
ROOT
HETATM    1  C1  UNL     1      22.755   6.467  19.372  1.00  0.00     0.014 C 
HETATM    2  C2  UNL     1      22.402   6.372  18.106  1.00  0.00    -0.089 C 
HETATM    3  C3  UNL     1      22.506   7.532  17.216  1.00  0.00     0.034 C 
HETATM    4  C4  UNL     1      22.394   7.131  15.738  1.00  0.00     0.009 C 
HETATM    5  C5  UNL     1      23.178   5.873  15.553  1.00  0.00    -0.005 C 
HETATM    6  C6  UNL     1      22.590   4.701  16.313  1.00  0.00    -0.006 C 
HETATM    7  C7  UNL     1      21.893   5.084  17.568  1.00  0.00     0.038 C 
HETATM    8  C8  UNL     1      21.680   4.075  15.275  1.00  0.00     0.012 C 
HETATM    9  C9  UNL     1      22.645   4.014  14.123  1.00  0.00     0.019 C 
HETATM   10  C10 UNL     1      22.052   3.662  12.821  1.00  0.00     0.123 C 
HETATM   11  C11 UNL     1      23.013   4.116  11.748  1.00  0.00     0.044 C 
HETATM   12  C12 UNL     1      23.298   5.572  11.754  1.00  0.00    -0.012 C 
HETATM   13  C13 UNL     1      24.777   5.763  11.404  1.00  0.00     0.018 C 
HETATM   14  C14 UNL     1      22.495   6.237  10.687  1.00  0.00     0.126 C 
HETATM   15  C15 UNL     1      21.350   6.921  11.394  1.00  0.00     0.033 C 
HETATM   16  C16 UNL     1      21.649   6.818  12.889  1.00  0.00     0.008 C 
HETATM   17  C17 UNL     1      22.987   6.271  13.058  1.00  0.00     0.001 C 
HETATM   18  C18 UNL     1      23.306   5.371  14.176  1.00  0.00     0.001 C 
ENDROOT
BRANCH  10  19
HETATM   19  O1  UNL     1      22.007   2.249  12.719  1.00  0.00    -0.395 OA
ATOM     20  H1  UNL     1      21.451   2.021  11.983  1.00  0.00     0.210 HD
ENDBRANCH  10  19
BRANCH  14  21
HETATM   21  O2  UNL     1      23.243   7.139   9.918  1.00  0.00    -0.395 OA
ATOM     22  H2  UNL     1      22.915   7.233   9.032  1.00  0.00     0.210 HD
ENDBRANCH  14  21
TORSDOF 2
ENDMDL
MODEL 3
REMARK VINA RESULT: -6.809301578      4.085      6.513
REMARK  2 active torsions:
REMARK  status: ('A' for Active; 'I' for Inactive)
REMARK    1  A    between atoms: C10_10  and  O1_11 
REMARK    2  A    between atoms: C14_16  and  O2_17 
ROOT
HETATM    1  C1  UNL     1      23.162   4.979  13.592  1.00  0.00     0.014 C 
HETATM    2  C2  UNL     1      23.131   5.168  14.896  1.00  0.00    -0.089 C 
HETATM    3  C3  UNL     1      22.508   6.370  15.457  1.00  0.00     0.034 C 
HETATM    4  C4  UNL     1      22.256   6.233  16.966  1.00  0.00     0.009 C 
HETATM    5  C5  UNL     1      21.754   4.849  17.213  1.00  0.00    -0.005 C 
HETATM    6  C6  UNL     1      22.790   3.787  16.900  1.00  0.00    -0.006 C 
HETATM    7  C7  UNL     1      23.728   4.162  15.811  1.00  0.00     0.038 C 
HETATM    8  C8  UNL     1      23.461   3.592  18.245  1.00  0.00     0.012 C 
HETATM    9  C9  UNL     1      22.233   3.435  19.100  1.00  0.00     0.019 C 
HETATM   10  C10 UNL     1      22.470   3.452  20.554  1.00  0.00     0.123 C 
HETATM   11  C11 UNL     1      21.155   3.774  21.224  1.00  0.00     0.044 C 
HETATM   12  C12 UNL     1      20.568   5.078  20.830  1.00  0.00    -0.012 C 
HETATM   13  C13 UNL     1      19.048   4.902  20.744  1.00  0.00     0.018 C 
HETATM   14  C14 UNL     1      20.843   6.084  21.895  1.00  0.00     0.126 C 
HETATM   15  C15 UNL     1      21.964   6.948  21.371  1.00  0.00     0.033 C 
HETATM   16  C16 UNL     1      22.160   6.553  19.908  1.00  0.00     0.008 C 
HETATM   17  C17 UNL     1      21.092   5.640  19.528  1.00  0.00     0.001 C 
HETATM   18  C18 UNL     1      21.333   4.535  18.588  1.00  0.00     0.001 C 
ENDROOT
BRANCH  10  19
HETATM   19  O1  UNL     1      22.796   2.136  20.968  1.00  0.00    -0.395 OA
ATOM     20  H1  UNL     1      23.715   1.984  20.781  1.00  0.00     0.210 HD
ENDBRANCH  10  19
BRANCH  14  21
HETATM   21  O2  UNL     1      19.717   6.847  22.235  1.00  0.00    -0.395 OA
ATOM     22  H2  UNL     1      19.368   6.633  23.092  1.00  0.00     0.210 HD
ENDBRANCH  14  21
TORSDOF 2
ENDMDL
MODEL 4
REMARK VINA RESULT: -6.638455903      2.973      5.025
REMARK  2 active torsions:
REMARK  status: ('A' for Active; 'I' for Inactive)
REMARK    1  A    between atoms: C10_10  and  O1_11 
REMARK    2  A    between atoms: C14_16  and  O2_17 
ROOT
HETATM    1  C1  UNL     1      23.623   5.194  11.483  1.00  0.00     0.014 C 
HETATM    2  C2  UNL     1      22.981   5.288  12.630  1.00  0.00    -0.089 C 
HETATM    3  C3  UNL     1      22.541   4.081  13.336  1.00  0.00     0.034 C 
HETATM    4  C4  UNL     1      22.145   4.381  14.789  1.00  0.00     0.009 C 
HETATM    5  C5  UNL     1      23.147   5.342  15.338  1.00  0.00    -0.005 C 
HETATM    6  C6  UNL     1      23.106   6.690  14.646  1.00  0.00    -0.006 C 
HETATM    7  C7  UNL     1      22.696   6.621  13.219  1.00  0.00     0.038 C 
HETATM    8  C8  UNL     1      22.144   7.467  15.522  1.00  0.00     0.012 C 
HETATM    9  C9  UNL     1      22.748   7.158  16.864  1.00  0.00     0.019 C 
HETATM   10  C10 UNL     1      21.939   7.563  18.028  1.00  0.00     0.123 C 
HETATM   11  C11 UNL     1      22.428   6.770  19.217  1.00  0.00     0.044 C 
HETATM   12  C12 UNL     1      22.320   5.299  19.061  1.00  0.00    -0.012 C 
HETATM   13  C13 UNL     1      23.550   4.665  19.717  1.00  0.00     0.018 C 
HETATM   14  C14 UNL     1      21.118   4.811  19.797  1.00  0.00     0.126 C 
HETATM   15  C15 UNL     1      20.068   4.541  18.747  1.00  0.00     0.033 C 
HETATM   16  C16 UNL     1      20.771   4.670  17.397  1.00  0.00     0.008 C 
HETATM   17  C17 UNL     1      22.200   4.822  17.631  1.00  0.00     0.001 C 
HETATM   18  C18 UNL     1      23.026   5.677  16.767  1.00  0.00     0.001 C 
ENDROOT
BRANCH  10  19
HETATM   19  O1  UNL     1      22.233   8.917  18.326  1.00  0.00    -0.395 OA
ATOM     20  H1  UNL     1      22.910   8.935  18.992  1.00  0.00     0.210 HD
ENDBRANCH  10  19
BRANCH  14  21
HETATM   21  O2  UNL     1      21.375   3.675  20.577  1.00  0.00    -0.395 OA
ATOM     22  H2  UNL     1      20.638   3.423  21.121  1.00  0.00     0.210 HD
ENDBRANCH  14  21
TORSDOF 2
ENDMDL
MODEL 5
REMARK VINA RESULT: -6.528840425      4.379      7.144
REMARK  2 active torsions:
REMARK  status: ('A' for Active; 'I' for Inactive)
REMARK    1  A    between atoms: C10_10  and  O1_11 
REMARK    2  A    between atoms: C14_16  and  O2_17 
ROOT
HETATM    1  C1  UNL     1      23.530   5.283  15.516  1.00  0.00     0.014 C 
HETATM    2  C2  UNL     1      22.941   6.456  15.401  1.00  0.00    -0.089 C 
HETATM    3  C3  UNL     1      22.295   7.080  16.559  1.00  0.00     0.034 C 
HETATM    4  C4  UNL     1      21.993   8.566  16.315  1.00  0.00     0.009 C 
HETATM    5  C5  UNL     1      23.171   9.152  15.608  1.00  0.00    -0.005 C 
HETATM    6  C6  UNL     1      23.371   8.570  14.223  1.00  0.00    -0.006 C 
HETATM    7  C7  UNL     1      22.926   7.158  14.092  1.00  0.00     0.038 C 
HETATM    8  C8  UNL     1      22.593   9.539  13.356  1.00  0.00     0.012 C 
HETATM    9  C9  UNL     1      23.155  10.831  13.884  1.00  0.00     0.019 C 
HETATM   10  C10 UNL     1      22.461  12.051  13.435  1.00  0.00     0.123 C 
HETATM   11  C11 UNL     1      22.816  13.155  14.404  1.00  0.00     0.044 C 
HETATM   12  C12 UNL     1      22.428  12.887  15.810  1.00  0.00    -0.012 C 
HETATM   13  C13 UNL     1      23.530  13.446  16.716  1.00  0.00     0.018 C 
HETATM   14  C14 UNL     1      21.171  13.626  16.125  1.00  0.00     0.126 C 
HETATM   15  C15 UNL     1      20.067  12.596  16.103  1.00  0.00     0.033 C 
HETATM   16  C16 UNL     1      20.754  11.236  15.995  1.00  0.00     0.008 C 
HETATM   17  C17 UNL     1      22.190  11.429  16.133  1.00  0.00     0.001 C 
HETATM   18  C18 UNL     1      23.145  10.606  15.378  1.00  0.00     0.001 C 
ENDROOT
BRANCH  10  19
HETATM   19  O1  UNL     1      23.013  12.444  12.191  1.00  0.00    -0.395 OA
ATOM     20  H1  UNL     1      23.897  12.101  12.134  1.00  0.00     0.210 HD
ENDBRANCH  10  19
BRANCH  14  21
HETATM   21  O2  UNL     1      21.224  14.304  17.350  1.00  0.00    -0.395 OA
ATOM     22  H2  UNL     1      20.406  14.731  17.575  1.00  0.00     0.210 HD
ENDBRANCH  14  21
TORSDOF 2
ENDMDL
