MODEL 1
REMARK VINA RESULT: -10.383340011      0.000      0.000
REMARK  12 active torsions:
REMARK  status: ('A' for Active; 'I' for Inactive)
REMARK    1  A    between atoms: C2_2  and  C3_3 
REMARK    2  A    between atoms: C2_2  and  C26_37 
REMARK       I    between atoms: C3_3  and  N1_5 
REMARK       I    between atoms: N1_5  and  C4_7 
REMARK    3  A    between atoms: C4_7  and  C5_9 
REMARK    4  A    between atoms: N2_13  and  C9_14 
REMARK    5  A    between atoms: C9_14  and  O3_15 
REMARK    6  A    between atoms: C9_14  and  C10_17 
REMARK    7  A    between atoms: C10_17  and  N3_18 
REMARK    8  A    between atoms: C10_17  and  C20_31 
REMARK       I    between atoms: C11_20  and  N5_22 
REMARK    9  A    between atoms: C26_37  and  O4_38 
REMARK   10  A    between atoms: C26_37  and  N6_40 
REMARK   11  A    between atoms: C31_45  and  C32_46 
REMARK       I    between atoms: C32_46  and  N7_48 
REMARK   12  A    between atoms: N7_48  and  C33_50 
ROOT
HETATM    1  C5  UNL     1     -11.528 -22.817 -29.788  1.00  0.00     0.178 C 
HETATM    2  C6  UNL     1     -12.021 -21.771 -28.780  1.00  0.00     0.037 C 
HETATM    3  C7  UNL     1     -13.337 -21.399 -29.457  1.00  0.00     0.022 C 
HETATM    4  C8  UNL     1     -13.823 -22.756 -29.963  1.00  0.00     0.126 C 
HETATM    5  N2  UNL     1     -12.729 -23.675 -29.835  1.00  0.00    -0.350 N 
ENDROOT
BRANCH   1   6
HETATM    6  C4  UNL     1     -11.239 -22.166 -31.066  1.00  0.00     0.247 C 
HETATM    7  N1  UNL     1     -11.416 -22.881 -32.272  1.00  0.00    -0.295 N 
HETATM    8  C3  UNL     1     -11.094 -22.314 -33.539  1.00  0.00     0.232 C 
ATOM      9  H1  UNL     1     -11.784 -23.831 -32.234  1.00  0.00     0.171 HD
HETATM   10  O1  UNL     1     -10.634 -21.167 -33.581  1.00  0.00    -0.273 OA
HETATM   11  O2  UNL     1     -10.837 -20.983 -31.096  1.00  0.00    -0.271 OA
BRANCH   8  12
HETATM   12  C2  UNL     1     -11.320 -23.108 -34.756  1.00  0.00     0.122 C 
HETATM   13  C1  UNL     1     -11.041 -22.117 -35.927  1.00  0.00     0.024 C 
BRANCH  12  14
HETATM   14  C26 UNL     1     -12.683 -23.689 -34.927  1.00  0.00     0.229 C 
BRANCH  14  15
HETATM   15  O4  UNL     1     -13.168 -24.233 -33.721  1.00  0.00    -0.376 OA
ATOM     16  H4  UNL     1     -14.108 -24.367 -33.753  1.00  0.00     0.212 HD
ENDBRANCH  14  15
BRANCH  14  17
HETATM   17  N6  UNL     1     -12.880 -24.432 -36.067  1.00  0.00    -0.372 N 
HETATM   18  C27 UNL     1     -13.477 -24.089 -37.268  1.00  0.00     0.131 C 
HETATM   19  C28 UNL     1     -12.721 -25.258 -37.922  1.00  0.00    -0.003 C 
HETATM   20  C29 UNL     1     -11.837 -24.878 -39.065  1.00  0.00     0.019 C 
HETATM   21  C30 UNL     1     -13.654 -26.390 -38.185  1.00  0.00     0.019 C 
HETATM   22  C31 UNL     1     -11.940 -25.353 -36.594  1.00  0.00     0.183 C 
BRANCH  22  23
HETATM   23  C32 UNL     1     -11.947 -26.732 -36.046  1.00  0.00     0.241 C 
HETATM   24  O5  UNL     1     -12.844 -27.072 -35.247  1.00  0.00    -0.271 OA
HETATM   25  N7  UNL     1     -10.955 -27.662 -36.415  1.00  0.00    -0.355 N 
ATOM     26  H7  UNL     1     -10.226 -27.370 -37.065  1.00  0.00     0.162 HD
BRANCH  25  27
HETATM   27  C33 UNL     1     -10.934 -29.003 -35.910  1.00  0.00     0.084 C 
HETATM   28  C34 UNL     1      -9.994 -29.096 -34.722  1.00  0.00     0.025 C 
HETATM   29  C35 UNL     1      -8.553 -29.100 -35.103  1.00  0.00     0.002 C 
HETATM   30  C36 UNL     1      -8.337 -30.271 -36.065  1.00  0.00     0.000 C 
HETATM   31  C37 UNL     1      -9.130 -29.980 -37.311  1.00  0.00     0.002 C 
HETATM   32  C38 UNL     1     -10.617 -29.997 -36.984  1.00  0.00     0.025 C 
ENDBRANCH  25  27
ENDBRANCH  22  23
ENDBRANCH  14  17
ENDBRANCH  12  14
ENDBRANCH   8  12
ENDBRANCH   1   6
BRANCH   5  33
HETATM   33  C9  UNL     1     -12.628 -25.071 -29.751  1.00  0.00     0.138 C 
BRANCH  33  34
HETATM   34  O3  UNL     1     -12.641 -25.678 -30.911  1.00  0.00    -0.348 OA
ATOM     35  H3  UNL     1     -12.248 -26.543 -30.901  1.00  0.00     0.219 HD
ENDBRANCH  33  34
BRANCH  33  36
HETATM   36  C10 UNL     1     -12.513 -25.949 -28.586  1.00  0.00     0.163 C 
BRANCH  36  37
HETATM   37  N3  UNL     1     -11.430 -25.586 -27.742  1.00  0.00    -0.352 N 
HETATM   38  C11 UNL     1     -10.169 -25.728 -28.023  1.00  0.00     0.186 C 
HETATM   39  N4  UNL     1      -9.298 -25.272 -26.970  1.00  0.00    -0.064 NA
HETATM   40  N5  UNL     1      -9.653 -26.245 -29.226  1.00  0.00    -0.355 N 
HETATM   41  C12 UNL     1      -9.080 -25.470 -30.310  1.00  0.00     0.130 C 
HETATM   42  C19 UNL     1      -9.569 -27.618 -29.644  1.00  0.00     0.130 C 
HETATM   43  C13 UNL     1      -8.182 -26.393 -31.073  1.00  0.00     0.009 C 
HETATM   44  C14 UNL     1      -6.738 -25.956 -31.123  1.00  0.00     0.007 C 
HETATM   45  C18 UNL     1      -8.183 -27.659 -30.202  1.00  0.00     0.009 C 
HETATM   46  C15 UNL     1      -5.905 -27.237 -31.239  1.00  0.00     0.000 C 
HETATM   47  C16 UNL     1      -6.682 -28.338 -31.962  1.00  0.00     0.000 C 
HETATM   48  C17 UNL     1      -7.884 -28.799 -31.117  1.00  0.00     0.007 C 
ATOM     49  H3  UNL     1     -11.662 -25.178 -26.836  1.00  0.00     0.163 HD
ENDBRANCH  36  37
BRANCH  36  50
HETATM   50  C20 UNL     1     -13.780 -25.891 -27.743  1.00  0.00     0.016 C 
HETATM   51  C21 UNL     1     -13.687 -26.681 -26.476  1.00  0.00     0.007 C 
HETATM   52  C22 UNL     1     -14.109 -28.102 -26.559  1.00  0.00     0.000 C 
HETATM   53  C23 UNL     1     -15.283 -28.412 -27.423  1.00  0.00     0.000 C 
HETATM   54  C24 UNL     1     -15.119 -27.729 -28.770  1.00  0.00     0.000 C 
HETATM   55  C25 UNL     1     -15.036 -26.244 -28.460  1.00  0.00     0.007 C 
ENDBRANCH  36  50
ENDBRANCH  33  36
ENDBRANCH   5  33
TORSDOF 12
ENDMDL
MODEL 2
REMARK VINA RESULT: -10.070527488      1.766      4.441
REMARK  12 active torsions:
REMARK  status: ('A' for Active; 'I' for Inactive)
REMARK    1  A    between atoms: C2_2  and  C3_3 
REMARK    2  A    between atoms: C2_2  and  C26_37 
REMARK       I    between atoms: C3_3  and  N1_5 
REMARK       I    between atoms: N1_5  and  C4_7 
REMARK    3  A    between atoms: C4_7  and  C5_9 
REMARK    4  A    between atoms: N2_13  and  C9_14 
REMARK    5  A    between atoms: C9_14  and  O3_15 
REMARK    6  A    between atoms: C9_14  and  C10_17 
REMARK    7  A    between atoms: C10_17  and  N3_18 
REMARK    8  A    between atoms: C10_17  and  C20_31 
REMARK       I    between atoms: C11_20  and  N5_22 
REMARK    9  A    between atoms: C26_37  and  O4_38 
REMARK   10  A    between atoms: C26_37  and  N6_40 
REMARK   11  A    between atoms: C31_45  and  C32_46 
REMARK       I    between atoms: C32_46  and  N7_48 
REMARK   12  A    between atoms: N7_48  and  C33_50 
ROOT
HETATM    1  C5  UNL     1     -10.323 -23.503 -31.094  1.00  0.00     0.178 C 
HETATM    2  C6  UNL     1     -10.336 -22.505 -29.929  1.00  0.00     0.037 C 
HETATM    3  C7  UNL     1     -11.845 -22.332 -29.788  1.00  0.00     0.022 C 
HETATM    4  C8  UNL     1     -12.347 -23.756 -30.024  1.00  0.00     0.126 C 
HETATM    5  N2  UNL     1     -11.244 -24.515 -30.539  1.00  0.00    -0.350 N 
ENDROOT
BRANCH   1   6
HETATM    6  C4  UNL     1     -10.843 -22.855 -32.298  1.00  0.00     0.247 C 
HETATM    7  N1  UNL     1     -12.100 -23.243 -32.814  1.00  0.00    -0.295 N 
HETATM    8  C3  UNL     1     -12.626 -22.685 -34.015  1.00  0.00     0.232 C 
ATOM      9  H1  UNL     1     -12.646 -23.943 -32.313  1.00  0.00     0.171 HD
HETATM   10  O1  UNL     1     -11.956 -21.847 -34.630  1.00  0.00    -0.273 OA
HETATM   11  O2  UNL     1     -10.183 -21.962 -32.871  1.00  0.00    -0.271 OA
BRANCH   8  12
HETATM   12  C2  UNL     1     -13.949 -23.121 -34.487  1.00  0.00     0.122 C 
HETATM   13  C1  UNL     1     -14.934 -22.665 -33.367  1.00  0.00     0.024 C 
BRANCH  12  14
HETATM   14  C26 UNL     1     -14.123 -24.584 -34.719  1.00  0.00     0.229 C 
BRANCH  14  15
HETATM   15  O4  UNL     1     -13.661 -25.340 -33.623  1.00  0.00    -0.376 OA
ATOM     16  H4  UNL     1     -13.320 -26.182 -33.900  1.00  0.00     0.212 HD
ENDBRANCH  14  15
BRANCH  14  17
HETATM   17  N6  UNL     1     -13.786 -25.037 -35.972  1.00  0.00    -0.372 N 
HETATM   18  C27 UNL     1     -14.034 -24.490 -37.220  1.00  0.00     0.131 C 
HETATM   19  C28 UNL     1     -12.877 -25.341 -37.770  1.00  0.00    -0.003 C 
HETATM   20  C29 UNL     1     -11.782 -24.569 -38.429  1.00  0.00     0.019 C 
HETATM   21  C30 UNL     1     -13.413 -26.489 -38.557  1.00  0.00     0.019 C 
HETATM   22  C31 UNL     1     -12.553 -25.658 -36.295  1.00  0.00     0.183 C 
BRANCH  22  23
HETATM   23  C32 UNL     1     -12.435 -27.117 -36.056  1.00  0.00     0.241 C 
HETATM   24  O5  UNL     1     -13.423 -27.754 -35.633  1.00  0.00    -0.271 OA
HETATM   25  N7  UNL     1     -11.224 -27.795 -36.299  1.00  0.00    -0.355 N 
ATOM     26  H7  UNL     1     -10.424 -27.263 -36.640  1.00  0.00     0.162 HD
BRANCH  25  27
HETATM   27  C33 UNL     1     -11.075 -29.205 -36.084  1.00  0.00     0.084 C 
HETATM   28  C34 UNL     1     -10.228 -29.456 -34.851  1.00  0.00     0.025 C 
HETATM   29  C35 UNL     1      -8.772 -29.225 -35.072  1.00  0.00     0.002 C 
HETATM   30  C36 UNL     1      -8.337 -30.128 -36.229  1.00  0.00     0.000 C 
HETATM   31  C37 UNL     1      -9.059 -29.657 -37.462  1.00  0.00     0.002 C 
HETATM   32  C38 UNL     1     -10.554 -29.901 -37.303  1.00  0.00     0.025 C 
ENDBRANCH  25  27
ENDBRANCH  22  23
ENDBRANCH  14  17
ENDBRANCH  12  14
ENDBRANCH   8  12
ENDBRANCH   1   6
BRANCH   5  33
HETATM   33  C9  UNL     1     -10.936 -25.882 -30.588  1.00  0.00     0.138 C 
BRANCH  33  34
HETATM   34  O3  UNL     1     -11.702 -26.574 -31.394  1.00  0.00    -0.348 OA
ATOM     35  H3  UNL     1     -12.502 -26.891 -30.991  1.00  0.00     0.219 HD
ENDBRANCH  33  34
BRANCH  33  36
HETATM   36  C10 UNL     1      -9.905 -26.652 -29.889  1.00  0.00     0.163 C 
BRANCH  36  37
HETATM   37  N3  UNL     1     -10.458 -27.594 -28.982  1.00  0.00    -0.352 N 
HETATM   38  C11 UNL     1     -10.935 -27.322 -27.804  1.00  0.00     0.186 C 
HETATM   39  N4  UNL     1     -11.426 -28.485 -27.109  1.00  0.00    -0.064 NA
HETATM   40  N5  UNL     1     -11.010 -26.041 -27.228  1.00  0.00    -0.355 N 
HETATM   41  C12 UNL     1     -12.204 -25.224 -27.121  1.00  0.00     0.130 C 
HETATM   42  C19 UNL     1      -9.958 -25.271 -26.624  1.00  0.00     0.130 C 
HETATM   43  C13 UNL     1     -11.972 -24.267 -25.993  1.00  0.00     0.009 C 
HETATM   44  C14 UNL     1     -12.971 -24.381 -24.866  1.00  0.00     0.007 C 
HETATM   45  C18 UNL     1     -10.646 -24.764 -25.398  1.00  0.00     0.009 C 
HETATM   46  C15 UNL     1     -12.234 -23.948 -23.594  1.00  0.00     0.000 C 
HETATM   47  C16 UNL     1     -11.136 -22.932 -23.910  1.00  0.00     0.000 C 
HETATM   48  C17 UNL     1     -10.014 -23.584 -24.737  1.00  0.00     0.007 C 
ATOM     49  H3  UNL     1     -10.483 -28.569 -29.282  1.00  0.00     0.163 HD
ENDBRANCH  36  37
BRANCH  36  50
HETATM   50  C20 UNL     1      -9.050 -27.429 -30.881  1.00  0.00     0.016 C 
HETATM   51  C21 UNL     1      -8.007 -28.280 -30.228  1.00  0.00     0.007 C 
HETATM   52  C22 UNL     1      -6.693 -27.632 -29.987  1.00  0.00     0.000 C 
HETATM   53  C23 UNL     1      -6.194 -26.698 -31.036  1.00  0.00     0.000 C 
HETATM   54  C24 UNL     1      -7.301 -25.736 -31.430  1.00  0.00     0.000 C 
HETATM   55  C25 UNL     1      -8.426 -26.611 -31.957  1.00  0.00     0.007 C 
ENDBRANCH  36  50
ENDBRANCH  33  36
ENDBRANCH   5  33
TORSDOF 12
ENDMDL
MODEL 3
REMARK VINA RESULT: -10.069574134      2.036      6.184
REMARK  12 active torsions:
REMARK  status: ('A' for Active; 'I' for Inactive)
REMARK    1  A    between atoms: C2_2  and  C3_3 
REMARK    2  A    between atoms: C2_2  and  C26_37 
REMARK       I    between atoms: C3_3  and  N1_5 
REMARK       I    between atoms: N1_5  and  C4_7 
REMARK    3  A    between atoms: C4_7  and  C5_9 
REMARK    4  A    between atoms: N2_13  and  C9_14 
REMARK    5  A    between atoms: C9_14  and  O3_15 
REMARK    6  A    between atoms: C9_14  and  C10_17 
REMARK    7  A    between atoms: C10_17  and  N3_18 
REMARK    8  A    between atoms: C10_17  and  C20_31 
REMARK       I    between atoms: C11_20  and  N5_22 
REMARK    9  A    between atoms: C26_37  and  O4_38 
REMARK   10  A    between atoms: C26_37  and  N6_40 
REMARK   11  A    between atoms: C31_45  and  C32_46 
REMARK       I    between atoms: C32_46  and  N7_48 
REMARK   12  A    between atoms: N7_48  and  C33_50 
ROOT
HETATM    1  C5  UNL     1      -8.611 -27.739 -31.105  1.00  0.00     0.178 C 
HETATM    2  C6  UNL     1      -7.275 -27.354 -30.459  1.00  0.00     0.037 C 
HETATM    3  C7  UNL     1      -6.959 -26.119 -31.298  1.00  0.00     0.022 C 
HETATM    4  C8  UNL     1      -8.339 -25.478 -31.441  1.00  0.00     0.126 C 
HETATM    5  N2  UNL     1      -9.303 -26.440 -30.993  1.00  0.00    -0.350 N 
ENDROOT
BRANCH   1   6
HETATM    6  C4  UNL     1      -8.384 -28.149 -32.490  1.00  0.00     0.247 C 
HETATM    7  N1  UNL     1      -9.474 -28.218 -33.388  1.00  0.00    -0.295 N 
HETATM    8  C3  UNL     1      -9.317 -28.667 -34.731  1.00  0.00     0.232 C 
ATOM      9  H1  UNL     1     -10.400 -27.939 -33.064  1.00  0.00     0.171 HD
HETATM   10  O1  UNL     1      -8.197 -29.019 -35.117  1.00  0.00    -0.273 OA
HETATM   11  O2  UNL     1      -7.234 -28.440 -32.884  1.00  0.00    -0.271 OA
BRANCH   8  12
HETATM   12  C2  UNL     1     -10.491 -28.696 -35.617  1.00  0.00     0.122 C 
HETATM   13  C1  UNL     1     -10.664 -30.200 -35.989  1.00  0.00     0.024 C 
BRANCH  12  14
HETATM   14  C26 UNL     1     -10.397 -27.894 -36.871  1.00  0.00     0.229 C 
BRANCH  14  15
HETATM   15  O4  UNL     1      -9.061 -27.559 -37.171  1.00  0.00    -0.376 OA
ATOM     16  H4  UNL     1      -8.936 -26.617 -37.199  1.00  0.00     0.212 HD
ENDBRANCH  14  15
BRANCH  14  17
HETATM   17  N6  UNL     1     -11.335 -26.900 -37.019  1.00  0.00    -0.372 N 
HETATM   18  C27 UNL     1     -11.899 -26.363 -38.164  1.00  0.00     0.131 C 
HETATM   19  C28 UNL     1     -13.065 -25.861 -37.297  1.00  0.00    -0.003 C 
HETATM   20  C29 UNL     1     -14.416 -26.346 -37.711  1.00  0.00     0.019 C 
HETATM   21  C30 UNL     1     -12.952 -24.389 -37.086  1.00  0.00     0.019 C 
HETATM   22  C31 UNL     1     -12.459 -26.727 -36.173  1.00  0.00     0.183 C 
BRANCH  22  23
HETATM   23  C32 UNL     1     -12.266 -25.954 -34.922  1.00  0.00     0.241 C 
HETATM   24  O5  UNL     1     -12.969 -26.213 -33.923  1.00  0.00    -0.271 OA
HETATM   25  N7  UNL     1     -11.301 -24.930 -34.845  1.00  0.00    -0.355 N 
ATOM     26  H7  UNL     1     -10.736 -24.725 -35.670  1.00  0.00     0.162 HD
BRANCH  25  27
HETATM   27  C33 UNL     1     -11.083 -24.167 -33.652  1.00  0.00     0.084 C 
HETATM   28  C34 UNL     1     -12.346 -23.413 -33.279  1.00  0.00     0.025 C 
HETATM   29  C35 UNL     1     -12.598 -22.216 -34.130  1.00  0.00     0.002 C 
HETATM   30  C36 UNL     1     -11.369 -21.311 -34.021  1.00  0.00     0.000 C 
HETATM   31  C37 UNL     1     -10.208 -22.055 -34.625  1.00  0.00     0.002 C 
HETATM   32  C38 UNL     1      -9.886 -23.275 -33.773  1.00  0.00     0.025 C 
ENDBRANCH  25  27
ENDBRANCH  22  23
ENDBRANCH  14  17
ENDBRANCH  12  14
ENDBRANCH   8  12
ENDBRANCH   1   6
BRANCH   5  33
HETATM   33  C9  UNL     1     -10.621 -26.356 -30.521  1.00  0.00     0.138 C 
BRANCH  33  34
HETATM   34  O3  UNL     1     -11.531 -26.590 -31.433  1.00  0.00    -0.348 OA
ATOM     35  H3  UNL     1     -12.376 -26.845 -31.082  1.00  0.00     0.219 HD
ENDBRANCH  33  34
BRANCH  33  36
HETATM   36  C10 UNL     1     -11.137 -26.052 -29.185  1.00  0.00     0.163 C 
BRANCH  36  37
HETATM   37  N3  UNL     1     -10.715 -27.001 -28.216  1.00  0.00    -0.352 N 
HETATM   38  C11 UNL     1     -11.490 -27.815 -27.564  1.00  0.00     0.186 C 
HETATM   39  N4  UNL     1     -10.777 -28.660 -26.641  1.00  0.00    -0.064 NA
HETATM   40  N5  UNL     1     -12.885 -27.918 -27.722  1.00  0.00    -0.355 N 
HETATM   41  C12 UNL     1     -13.585 -28.960 -28.448  1.00  0.00     0.130 C 
HETATM   42  C19 UNL     1     -13.907 -27.048 -27.209  1.00  0.00     0.130 C 
HETATM   43  C13 UNL     1     -14.976 -29.010 -27.898  1.00  0.00     0.009 C 
HETATM   44  C14 UNL     1     -15.360 -30.341 -27.298  1.00  0.00     0.007 C 
HETATM   45  C18 UNL     1     -14.900 -28.046 -26.705  1.00  0.00     0.009 C 
HETATM   46  C15 UNL     1     -16.390 -30.039 -26.204  1.00  0.00     0.000 C 
HETATM   47  C16 UNL     1     -17.190 -28.778 -26.532  1.00  0.00     0.000 C 
HETATM   48  C17 UNL     1     -16.286 -27.533 -26.490  1.00  0.00     0.007 C 
ATOM     49  H3  UNL     1      -9.715 -27.046 -28.014  1.00  0.00     0.163 HD
ENDBRANCH  36  37
BRANCH  36  50
HETATM   50  C20 UNL     1     -10.652 -24.686 -28.720  1.00  0.00     0.016 C 
HETATM   51  C21 UNL     1     -11.060 -24.355 -27.320  1.00  0.00     0.007 C 
HETATM   52  C22 UNL     1     -12.365 -23.664 -27.166  1.00  0.00     0.000 C 
HETATM   53  C23 UNL     1     -12.720 -22.646 -28.194  1.00  0.00     0.000 C 
HETATM   54  C24 UNL     1     -12.475 -23.215 -29.581  1.00  0.00     0.000 C 
HETATM   55  C25 UNL     1     -10.993 -23.551 -29.622  1.00  0.00     0.007 C 
ENDBRANCH  36  50
ENDBRANCH  33  36
ENDBRANCH   5  33
TORSDOF 12
ENDMDL
MODEL 4
REMARK VINA RESULT: -10.023447079      3.430      7.233
REMARK  12 active torsions:
REMARK  status: ('A' for Active; 'I' for Inactive)
REMARK    1  A    between atoms: C2_2  and  C3_3 
REMARK    2  A    between atoms: C2_2  and  C26_37 
REMARK       I    between atoms: C3_3  and  N1_5 
REMARK       I    between atoms: N1_5  and  C4_7 
REMARK    3  A    between atoms: C4_7  and  C5_9 
REMARK    4  A    between atoms: N2_13  and  C9_14 
REMARK    5  A    between atoms: C9_14  and  O3_15 
REMARK    6  A    between atoms: C9_14  and  C10_17 
REMARK    7  A    between atoms: C10_17  and  N3_18 
REMARK    8  A    between atoms: C10_17  and  C20_31 
REMARK       I    between atoms: C11_20  and  N5_22 
REMARK    9  A    between atoms: C26_37  and  O4_38 
REMARK   10  A    between atoms: C26_37  and  N6_40 
REMARK   11  A    between atoms: C31_45  and  C32_46 
REMARK       I    between atoms: C32_46  and  N7_48 
REMARK   12  A    between atoms: N7_48  and  C33_50 
ROOT
HETATM    1  C5  UNL     1     -11.979 -26.025 -35.667  1.00  0.00     0.178 C 
HETATM    2  C6  UNL     1     -12.268 -25.304 -36.989  1.00  0.00     0.037 C 
HETATM    3  C7  UNL     1     -13.622 -25.932 -37.306  1.00  0.00     0.022 C 
HETATM    4  C8  UNL     1     -14.268 -25.997 -35.922  1.00  0.00     0.126 C 
HETATM    5  N2  UNL     1     -13.240 -25.723 -34.960  1.00  0.00    -0.350 N 
ENDROOT
BRANCH   1   6
HETATM    6  C4  UNL     1     -11.794 -27.454 -35.920  1.00  0.00     0.247 C 
HETATM    7  N1  UNL     1     -10.612 -27.906 -36.549  1.00  0.00    -0.295 N 
HETATM    8  C3  UNL     1     -10.407 -29.279 -36.871  1.00  0.00     0.232 C 
ATOM      9  H1  UNL     1      -9.884 -27.230 -36.780  1.00  0.00     0.171 HD
HETATM   10  O1  UNL     1     -11.296 -30.096 -36.604  1.00  0.00    -0.273 OA
HETATM   11  O2  UNL     1     -12.674 -28.275 -35.585  1.00  0.00    -0.271 OA
BRANCH   8  12
HETATM   12  C2  UNL     1      -9.145 -29.683 -37.509  1.00  0.00     0.122 C 
HETATM   13  C1  UNL     1      -9.578 -30.317 -38.866  1.00  0.00     0.024 C 
BRANCH  12  14
HETATM   14  C26 UNL     1      -8.307 -30.664 -36.761  1.00  0.00     0.229 C 
BRANCH  14  15
HETATM   15  O4  UNL     1      -7.610 -30.048 -35.702  1.00  0.00    -0.376 OA
ATOM     16  H4  UNL     1      -8.029 -29.239 -35.433  1.00  0.00     0.212 HD
ENDBRANCH  14  15
BRANCH  14  17
HETATM   17  N6  UNL     1      -7.602 -31.560 -37.529  1.00  0.00    -0.372 N 
HETATM   18  C27 UNL     1      -6.376 -31.431 -38.160  1.00  0.00     0.131 C 
HETATM   19  C28 UNL     1      -6.286 -32.966 -38.194  1.00  0.00    -0.003 C 
HETATM   20  C29 UNL     1      -5.084 -33.543 -37.521  1.00  0.00     0.019 C 
HETATM   21  C30 UNL     1      -6.547 -33.466 -39.574  1.00  0.00     0.019 C 
HETATM   22  C31 UNL     1      -7.517 -32.950 -37.264  1.00  0.00     0.183 C 
BRANCH  22  23
HETATM   23  C32 UNL     1      -8.608 -33.816 -37.776  1.00  0.00     0.241 C 
HETATM   24  O5  UNL     1      -8.810 -34.928 -37.245  1.00  0.00    -0.271 OA
HETATM   25  N7  UNL     1      -9.417 -33.402 -38.852  1.00  0.00    -0.355 N 
ATOM     26  H7  UNL     1      -9.237 -32.494 -39.279  1.00  0.00     0.162 HD
BRANCH  25  27
HETATM   27  C33 UNL     1     -10.482 -34.210 -39.369  1.00  0.00     0.084 C 
HETATM   28  C34 UNL     1      -9.950 -35.151 -40.434  1.00  0.00     0.025 C 
HETATM   29  C35 UNL     1      -9.679 -34.482 -41.738  1.00  0.00     0.002 C 
HETATM   30  C36 UNL     1     -10.982 -33.821 -42.193  1.00  0.00     0.000 C 
HETATM   31  C37 UNL     1     -11.311 -32.744 -41.194  1.00  0.00     0.002 C 
HETATM   32  C38 UNL     1     -11.630 -33.377 -39.847  1.00  0.00     0.025 C 
ENDBRANCH  25  27
ENDBRANCH  22  23
ENDBRANCH  14  17
ENDBRANCH  12  14
ENDBRANCH   8  12
ENDBRANCH   1   6
BRANCH   5  33
HETATM   33  C9  UNL     1     -13.237 -25.267 -33.634  1.00  0.00     0.138 C 
BRANCH  33  34
HETATM   34  O3  UNL     1     -13.688 -26.139 -32.768  1.00  0.00    -0.348 OA
ATOM     35  H3  UNL     1     -14.575 -26.434 -32.939  1.00  0.00     0.219 HD
ENDBRANCH  33  34
BRANCH  33  36
HETATM   36  C10 UNL     1     -12.817 -23.983 -33.069  1.00  0.00     0.163 C 
BRANCH  36  37
HETATM   37  N3  UNL     1     -11.413 -23.789 -33.159  1.00  0.00    -0.352 N 
HETATM   38  C11 UNL     1     -10.531 -24.223 -32.308  1.00  0.00     0.186 C 
HETATM   39  N4  UNL     1      -9.180 -23.869 -32.661  1.00  0.00    -0.064 NA
HETATM   40  N5  UNL     1     -10.811 -24.986 -31.159  1.00  0.00    -0.355 N 
HETATM   41  C12 UNL     1     -10.613 -26.415 -31.016  1.00  0.00     0.130 C 
HETATM   42  C19 UNL     1     -11.333 -24.538 -29.897  1.00  0.00     0.130 C 
HETATM   43  C13 UNL     1     -10.486 -26.689 -29.550  1.00  0.00     0.009 C 
HETATM   44  C14 UNL     1      -9.175 -27.321 -29.146  1.00  0.00     0.007 C 
HETATM   45  C18 UNL     1     -10.447 -25.277 -28.946  1.00  0.00     0.009 C 
HETATM   46  C15 UNL     1      -8.904 -26.867 -27.707  1.00  0.00     0.000 C 
HETATM   47  C16 UNL     1     -10.210 -26.612 -26.954  1.00  0.00     0.000 C 
HETATM   48  C17 UNL     1     -10.954 -25.403 -27.548  1.00  0.00     0.007 C 
ATOM     49  H3  UNL     1     -11.066 -23.262 -33.962  1.00  0.00     0.163 HD
ENDBRANCH  36  37
BRANCH  36  50
HETATM   50  C20 UNL     1     -13.479 -22.828 -33.807  1.00  0.00     0.016 C 
HETATM   51  C21 UNL     1     -12.690 -21.559 -33.756  1.00  0.00     0.007 C 
HETATM   52  C22 UNL     1     -12.974 -20.658 -32.610  1.00  0.00     0.000 C 
HETATM   53  C23 UNL     1     -14.393 -20.549 -32.168  1.00  0.00     0.000 C 
HETATM   54  C24 UNL     1     -14.995 -21.937 -32.036  1.00  0.00     0.000 C 
HETATM   55  C25 UNL     1     -14.891 -22.555 -33.421  1.00  0.00     0.007 C 
ENDBRANCH  36  50
ENDBRANCH  33  36
ENDBRANCH   5  33
TORSDOF 12
ENDMDL
MODEL 5
REMARK VINA RESULT: -9.975933523      2.078      6.100
REMARK  12 active torsions:
REMARK  status: ('A' for Active; 'I' for Inactive)
REMARK    1  A    between atoms: C2_2  and  C3_3 
REMARK    2  A    between atoms: C2_2  and  C26_37 
REMARK       I    between atoms: C3_3  and  N1_5 
REMARK       I    between atoms: N1_5  and  C4_7 
REMARK    3  A    between atoms: C4_7  and  C5_9 
REMARK    4  A    between atoms: N2_13  and  C9_14 
REMARK    5  A    between atoms: C9_14  and  O3_15 
REMARK    6  A    between atoms: C9_14  and  C10_17 
REMARK    7  A    between atoms: C10_17  and  N3_18 
REMARK    8  A    between atoms: C10_17  and  C20_31 
REMARK       I    between atoms: C11_20  and  N5_22 
REMARK    9  A    between atoms: C26_37  and  O4_38 
REMARK   10  A    between atoms: C26_37  and  N6_40 
REMARK   11  A    between atoms: C31_45  and  C32_46 
REMARK       I    between atoms: C32_46  and  N7_48 
REMARK   12  A    between atoms: N7_48  and  C33_50 
ROOT
HETATM    1  C5  UNL     1      -8.720 -27.566 -31.101  1.00  0.00     0.178 C 
HETATM    2  C6  UNL     1      -7.383 -27.236 -30.426  1.00  0.00     0.037 C 
HETATM    3  C7  UNL     1      -6.965 -26.058 -31.300  1.00  0.00     0.022 C 
HETATM    4  C8  UNL     1      -8.297 -25.341 -31.516  1.00  0.00     0.126 C 
HETATM    5  N2  UNL     1      -9.333 -26.223 -31.063  1.00  0.00    -0.350 N 
ENDROOT
BRANCH   1   6
HETATM    6  C4  UNL     1      -8.475 -28.045 -32.462  1.00  0.00     0.247 C 
HETATM    7  N1  UNL     1      -9.547 -28.125 -33.379  1.00  0.00    -0.295 N 
HETATM    8  C3  UNL     1      -9.374 -28.639 -34.697  1.00  0.00     0.232 C 
ATOM      9  H1  UNL     1     -10.471 -27.806 -33.090  1.00  0.00     0.171 HD
HETATM   10  O1  UNL     1      -8.256 -29.039 -35.042  1.00  0.00    -0.273 OA
HETATM   11  O2  UNL     1      -7.325 -28.384 -32.815  1.00  0.00    -0.271 OA
BRANCH   8  12
HETATM   12  C2  UNL     1     -10.529 -28.676 -35.607  1.00  0.00     0.122 C 
HETATM   13  C1  UNL     1     -10.689 -30.183 -35.974  1.00  0.00     0.024 C 
BRANCH  12  14
HETATM   14  C26 UNL     1     -10.412 -27.881 -36.863  1.00  0.00     0.229 C 
BRANCH  14  15
HETATM   15  O4  UNL     1      -9.069 -27.567 -37.153  1.00  0.00    -0.376 OA
ATOM     16  H4  UNL     1      -8.959 -26.641 -37.336  1.00  0.00     0.212 HD
ENDBRANCH  14  15
BRANCH  14  17
HETATM   17  N6  UNL     1     -11.334 -26.874 -37.024  1.00  0.00    -0.372 N 
HETATM   18  C27 UNL     1     -11.890 -26.344 -38.175  1.00  0.00     0.131 C 
HETATM   19  C28 UNL     1     -13.047 -25.810 -37.313  1.00  0.00    -0.003 C 
HETATM   20  C29 UNL     1     -14.406 -26.278 -37.717  1.00  0.00     0.019 C 
HETATM   21  C30 UNL     1     -12.909 -24.337 -37.123  1.00  0.00     0.019 C 
HETATM   22  C31 UNL     1     -12.453 -26.671 -36.178  1.00  0.00     0.183 C 
BRANCH  22  23
HETATM   23  C32 UNL     1     -12.244 -25.883 -34.938  1.00  0.00     0.241 C 
HETATM   24  O5  UNL     1     -12.949 -26.116 -33.935  1.00  0.00    -0.271 OA
HETATM   25  N7  UNL     1     -11.261 -24.875 -34.878  1.00  0.00    -0.355 N 
ATOM     26  H7  UNL     1     -10.695 -24.691 -35.706  1.00  0.00     0.162 HD
BRANCH  25  27
HETATM   27  C33 UNL     1     -11.028 -24.098 -33.696  1.00  0.00     0.084 C 
HETATM   28  C34 UNL     1     -12.324 -23.461 -33.229  1.00  0.00     0.025 C 
HETATM   29  C35 UNL     1     -12.740 -22.288 -34.049  1.00  0.00     0.002 C 
HETATM   30  C36 UNL     1     -11.591 -21.278 -34.018  1.00  0.00     0.000 C 
HETATM   31  C37 UNL     1     -10.414 -21.915 -34.709  1.00  0.00     0.002 C 
HETATM   32  C38 UNL     1      -9.926 -23.104 -33.892  1.00  0.00     0.025 C 
ENDBRANCH  25  27
ENDBRANCH  22  23
ENDBRANCH  14  17
ENDBRANCH  12  14
ENDBRANCH   8  12
ENDBRANCH   1   6
BRANCH   5  33
HETATM   33  C9  UNL     1     -10.658 -26.042 -30.640  1.00  0.00     0.138 C 
BRANCH  33  34
HETATM   34  O3  UNL     1     -11.554 -26.503 -31.476  1.00  0.00    -0.348 OA
ATOM     35  H3  UNL     1     -11.892 -27.361 -31.247  1.00  0.00     0.219 HD
ENDBRANCH  33  34
BRANCH  33  36
HETATM   36  C10 UNL     1     -11.193 -25.424 -29.426  1.00  0.00     0.163 C 
BRANCH  36  37
HETATM   37  N3  UNL     1     -12.512 -24.929 -29.609  1.00  0.00    -0.352 N 
HETATM   38  C11 UNL     1     -12.885 -23.692 -29.462  1.00  0.00     0.186 C 
HETATM   39  N4  UNL     1     -14.289 -23.491 -29.713  1.00  0.00    -0.064 NA
HETATM   40  N5  UNL     1     -12.042 -22.619 -29.120  1.00  0.00    -0.355 N 
HETATM   41  C12 UNL     1     -11.529 -21.615 -30.032  1.00  0.00     0.130 C 
HETATM   42  C19 UNL     1     -11.516 -22.275 -27.828  1.00  0.00     0.130 C 
HETATM   43  C13 UNL     1     -11.189 -20.414 -29.205  1.00  0.00     0.009 C 
HETATM   44  C14 UNL     1     -11.942 -19.162 -29.587  1.00  0.00     0.007 C 
HETATM   45  C18 UNL     1     -11.733 -20.796 -27.820  1.00  0.00     0.009 C 
HETATM   46  C15 UNL     1     -12.063 -18.327 -28.307  1.00  0.00     0.000 C 
HETATM   47  C16 UNL     1     -10.887 -18.585 -27.365  1.00  0.00     0.000 C 
HETATM   48  C17 UNL     1     -10.928 -20.026 -26.825  1.00  0.00     0.007 C 
ATOM     49  H3  UNL     1     -13.229 -25.604 -29.879  1.00  0.00     0.163 HD
ENDBRANCH  36  37
BRANCH  36  50
HETATM   50  C20 UNL     1     -11.245 -26.433 -28.287  1.00  0.00     0.016 C 
HETATM   51  C21 UNL     1     -12.410 -26.236 -27.370  1.00  0.00     0.007 C 
HETATM   52  C22 UNL     1     -12.187 -25.326 -26.218  1.00  0.00     0.000 C 
HETATM   53  C23 UNL     1     -10.853 -25.381 -25.556  1.00  0.00     0.000 C 
HETATM   54  C24 UNL     1      -9.759 -25.335 -26.609  1.00  0.00     0.000 C 
HETATM   55  C25 UNL     1      -9.994 -26.552 -27.488  1.00  0.00     0.007 C 
ENDBRANCH  36  50
ENDBRANCH  33  36
ENDBRANCH   5  33
TORSDOF 12
ENDMDL
