MODEL 1
REMARK VINA RESULT: -7.479328543      0.000      0.000
REMARK  6 active torsions:
REMARK  status: ('A' for Active; 'I' for Inactive)
REMARK    1  A    between atoms: C2_2  and  C3_3 
REMARK    2  A    between atoms: C5_7  and  N2_8 
REMARK       I    between atoms: N2_8  and  C6_10 
REMARK    3  A    between atoms: C6_10  and  C7_12 
REMARK    4  A    between atoms: C7_12  and  C8_13 
REMARK    5  A    between atoms: C16_21  and  C17_22 
REMARK    6  A    between atoms: C17_22  and  O2_23 
ROOT
HETATM    1  C7  UNL     1      -3.976   4.340  14.238  1.00  0.00     0.065 C 
HETATM    2  C14 UNL     1      -5.317   5.057  14.180  1.00  0.00     0.024 C 
HETATM    3  C15 UNL     1      -5.777   4.244  15.359  1.00  0.00     0.010 C 
HETATM    4  C16 UNL     1      -4.611   3.292  15.014  1.00  0.00     0.031 C 
ENDROOT
BRANCH   1   5
HETATM    5  C6  UNL     1      -3.784   3.750  12.825  1.00  0.00     0.236 C 
HETATM    6  N2  UNL     1      -4.841   3.022  12.246  1.00  0.00    -0.306 N 
ATOM      7  H2  UNL     1      -5.747   3.476  12.133  1.00  0.00     0.171 HD
HETATM    8  O1  UNL     1      -2.743   3.892  12.180  1.00  0.00    -0.272 OA
BRANCH   6   9
HETATM    9  C5  UNL     1      -4.703   1.781  11.848  1.00  0.00     0.151 A 
HETATM   10  N1  UNL     1      -5.048   1.272  10.668  1.00  0.00    -0.345 N 
HETATM   11  C4  UNL     1      -4.837   0.008  10.444  1.00  0.00     0.109 A 
ATOM     12  H1  UNL     1      -5.470   1.863   9.952  1.00  0.00     0.167 HD
HETATM   13  C3  UNL     1      -4.267  -0.731  11.443  1.00  0.00     0.023 A 
HETATM   14  S1  UNL     1      -4.059   0.439  12.674  1.00  0.00    -0.053 SA
BRANCH  13  15
HETATM   15  C2  UNL     1      -3.922  -2.171  11.454  1.00  0.00     0.010 C 
HETATM   16  C1  UNL     1      -2.683  -2.571  11.433  1.00  0.00     0.013 C 
ENDBRANCH  13  15
ENDBRANCH   6   9
ENDBRANCH   1   5
BRANCH   1  17
HETATM   17  C8  UNL     1      -2.789   5.108  14.506  1.00  0.00    -0.004 C 
HETATM   18  C9  UNL     1      -2.527   6.511  14.465  1.00  0.00    -0.082 C 
HETATM   19  C10 UNL     1      -2.743   7.196  13.097  1.00  0.00     0.034 C 
HETATM   20  C13 UNL     1      -2.986   7.551  15.366  1.00  0.00     0.034 C 
HETATM   21  C11 UNL     1      -2.081   8.529  13.392  1.00  0.00     0.005 C 
HETATM   22  C12 UNL     1      -2.143   8.753  14.875  1.00  0.00     0.005 C 
ENDBRANCH   1  17
BRANCH   4  23
HETATM   23  C17 UNL     1      -4.109   2.662  16.233  1.00  0.00     0.170 C 
BRANCH  23  24
HETATM   24  O2  UNL     1      -3.322   1.540  16.077  1.00  0.00    -0.400 OA
ATOM     25  H2  UNL     1      -3.244   0.962  16.827  1.00  0.00     0.209 HD
ENDBRANCH  23  24
ENDBRANCH   4  23
TORSDOF 6
ENDMDL
MODEL 2
REMARK VINA RESULT: -7.456536266      3.128      4.620
REMARK  6 active torsions:
REMARK  status: ('A' for Active; 'I' for Inactive)
REMARK    1  A    between atoms: C2_2  and  C3_3 
REMARK    2  A    between atoms: C5_7  and  N2_8 
REMARK       I    between atoms: N2_8  and  C6_10 
REMARK    3  A    between atoms: C6_10  and  C7_12 
REMARK    4  A    between atoms: C7_12  and  C8_13 
REMARK    5  A    between atoms: C16_21  and  C17_22 
REMARK    6  A    between atoms: C17_22  and  O2_23 
ROOT
HETATM    1  C7  UNL     1      -2.381   5.607  12.508  1.00  0.00     0.065 C 
HETATM    2  C14 UNL     1      -0.978   5.819  11.959  1.00  0.00     0.024 C 
HETATM    3  C15 UNL     1      -1.518   5.635  10.567  1.00  0.00     0.010 C 
HETATM    4  C16 UNL     1      -2.739   4.978  11.250  1.00  0.00     0.031 C 
ENDROOT
BRANCH   1   5
HETATM    5  C6  UNL     1      -2.237   4.452  13.521  1.00  0.00     0.236 C 
HETATM    6  N2  UNL     1      -3.110   3.351  13.421  1.00  0.00    -0.306 N 
ATOM      7  H2  UNL     1      -3.141   2.826  12.548  1.00  0.00     0.171 HD
HETATM    8  O1  UNL     1      -1.387   4.452  14.414  1.00  0.00    -0.272 OA
BRANCH   6   9
HETATM    9  C5  UNL     1      -3.885   2.979  14.410  1.00  0.00     0.151 A 
HETATM   10  N1  UNL     1      -3.547   2.231  15.458  1.00  0.00    -0.345 N 
HETATM   11  C4  UNL     1      -4.453   1.956  16.351  1.00  0.00     0.109 A 
ATOM     12  H1  UNL     1      -2.595   1.880  15.559  1.00  0.00     0.167 HD
HETATM   13  C3  UNL     1      -5.711   2.456  16.159  1.00  0.00     0.023 A 
HETATM   14  S1  UNL     1      -5.532   3.309  14.686  1.00  0.00    -0.053 SA
BRANCH  13  15
HETATM   15  C2  UNL     1      -6.914   2.299  17.007  1.00  0.00     0.010 C 
HETATM   16  C1  UNL     1      -7.416   1.124  17.259  1.00  0.00     0.013 C 
ENDBRANCH  13  15
ENDBRANCH   6   9
ENDBRANCH   1   5
BRANCH   1  17
HETATM   17  C8  UNL     1      -3.016   6.681  13.226  1.00  0.00    -0.004 C 
HETATM   18  C9  UNL     1      -2.519   7.921  13.729  1.00  0.00    -0.082 C 
HETATM   19  C10 UNL     1      -1.373   7.817  14.760  1.00  0.00     0.034 C 
HETATM   20  C13 UNL     1      -2.119   9.108  12.996  1.00  0.00     0.034 C 
HETATM   21  C11 UNL     1      -1.364   9.254  15.251  1.00  0.00     0.005 C 
HETATM   22  C12 UNL     1      -1.928  10.114  14.156  1.00  0.00     0.005 C 
ENDBRANCH   1  17
BRANCH   4  23
HETATM   23  C17 UNL     1      -3.939   5.213  10.451  1.00  0.00     0.170 C 
BRANCH  23  24
HETATM   24  O2  UNL     1      -5.041   4.435  10.736  1.00  0.00    -0.400 OA
ATOM     25  H2  UNL     1      -5.667   4.303  10.034  1.00  0.00     0.209 HD
ENDBRANCH  23  24
ENDBRANCH   4  23
TORSDOF 6
ENDMDL
MODEL 3
REMARK VINA RESULT: -7.361975703      2.816      4.289
REMARK  6 active torsions:
REMARK  status: ('A' for Active; 'I' for Inactive)
REMARK    1  A    between atoms: C2_2  and  C3_3 
REMARK    2  A    between atoms: C5_7  and  N2_8 
REMARK       I    between atoms: N2_8  and  C6_10 
REMARK    3  A    between atoms: C6_10  and  C7_12 
REMARK    4  A    between atoms: C7_12  and  C8_13 
REMARK    5  A    between atoms: C16_21  and  C17_22 
REMARK    6  A    between atoms: C17_22  and  O2_23 
ROOT
HETATM    1  C7  UNL     1      -2.579   4.991  12.421  1.00  0.00     0.065 C 
HETATM    2  C14 UNL     1      -1.731   5.002  11.159  1.00  0.00     0.024 C 
HETATM    3  C15 UNL     1      -2.656   6.033  10.573  1.00  0.00     0.010 C 
HETATM    4  C16 UNL     1      -3.660   5.583  11.657  1.00  0.00     0.031 C 
ENDROOT
BRANCH   1   5
HETATM    5  C6  UNL     1      -2.973   3.512  12.618  1.00  0.00     0.236 C 
HETATM    6  N2  UNL     1      -4.293   3.209  13.005  1.00  0.00    -0.306 N 
ATOM      7  H2  UNL     1      -5.063   3.527  12.417  1.00  0.00     0.171 HD
HETATM    8  O1  UNL     1      -2.181   2.583  12.447  1.00  0.00    -0.272 OA
BRANCH   6   9
HETATM    9  C5  UNL     1      -4.567   2.533  14.093  1.00  0.00     0.151 A 
HETATM   10  N1  UNL     1      -4.065   1.355  14.456  1.00  0.00    -0.345 N 
HETATM   11  C4  UNL     1      -4.454   0.826  15.580  1.00  0.00     0.109 A 
ATOM     12  H1  UNL     1      -3.387   0.876  13.864  1.00  0.00     0.167 HD
HETATM   13  C3  UNL     1      -5.365   1.518  16.329  1.00  0.00     0.023 A 
HETATM   14  S1  UNL     1      -5.623   2.913  15.373  1.00  0.00    -0.053 SA
BRANCH  13  15
HETATM   15  C2  UNL     1      -5.969   1.150  17.630  1.00  0.00     0.010 C 
HETATM   16  C1  UNL     1      -6.281   2.056  18.512  1.00  0.00     0.013 C 
ENDBRANCH  13  15
ENDBRANCH   6   9
ENDBRANCH   1   5
BRANCH   1  17
HETATM   17  C8  UNL     1      -1.981   5.404  13.664  1.00  0.00    -0.004 C 
HETATM   18  C9  UNL     1      -1.798   6.690  14.256  1.00  0.00    -0.082 C 
HETATM   19  C10 UNL     1      -0.956   7.695  13.438  1.00  0.00     0.034 C 
HETATM   20  C13 UNL     1      -2.789   7.576  14.838  1.00  0.00     0.034 C 
HETATM   21  C11 UNL     1      -0.745   8.753  14.505  1.00  0.00     0.005 C 
HETATM   22  C12 UNL     1      -1.878   8.646  15.485  1.00  0.00     0.005 C 
ENDBRANCH   1  17
BRANCH   4  23
HETATM   23  C17 UNL     1      -4.508   6.708  12.045  1.00  0.00     0.170 C 
BRANCH  23  24
HETATM   24  O2  UNL     1      -5.833   6.431  12.305  1.00  0.00    -0.400 OA
ATOM     25  H2  UNL     1      -6.221   6.856  13.062  1.00  0.00     0.209 HD
ENDBRANCH  23  24
ENDBRANCH   4  23
TORSDOF 6
ENDMDL
MODEL 4
REMARK VINA RESULT: -7.197798721      3.293      5.021
REMARK  6 active torsions:
REMARK  status: ('A' for Active; 'I' for Inactive)
REMARK    1  A    between atoms: C2_2  and  C3_3 
REMARK    2  A    between atoms: C5_7  and  N2_8 
REMARK       I    between atoms: N2_8  and  C6_10 
REMARK    3  A    between atoms: C6_10  and  C7_12 
REMARK    4  A    between atoms: C7_12  and  C8_13 
REMARK    5  A    between atoms: C16_21  and  C17_22 
REMARK    6  A    between atoms: C17_22  and  O2_23 
ROOT
HETATM    1  C7  UNL     1      -2.382   5.505  12.254  1.00  0.00     0.065 C 
HETATM    2  C14 UNL     1      -0.998   6.116  12.099  1.00  0.00     0.024 C 
HETATM    3  C15 UNL     1      -1.046   5.796  10.629  1.00  0.00     0.010 C 
HETATM    4  C16 UNL     1      -2.177   4.811  10.996  1.00  0.00     0.031 C 
ENDROOT
BRANCH   1   5
HETATM    5  C6  UNL     1      -2.218   4.431  13.350  1.00  0.00     0.236 C 
HETATM    6  N2  UNL     1      -3.052   3.297  13.317  1.00  0.00    -0.306 N 
ATOM      7  H2  UNL     1      -3.051   2.709  12.484  1.00  0.00     0.171 HD
HETATM    8  O1  UNL     1      -1.383   4.524  14.253  1.00  0.00    -0.272 OA
BRANCH   6   9
HETATM    9  C5  UNL     1      -3.831   2.970  14.319  1.00  0.00     0.151 A 
HETATM   10  N1  UNL     1      -3.496   2.278  15.405  1.00  0.00    -0.345 N 
HETATM   11  C4  UNL     1      -4.406   2.043  16.305  1.00  0.00     0.109 A 
ATOM     12  H1  UNL     1      -2.543   1.938  15.529  1.00  0.00     0.167 HD
HETATM   13  C3  UNL     1      -5.665   2.526  16.081  1.00  0.00     0.023 A 
HETATM   14  S1  UNL     1      -5.481   3.304  14.568  1.00  0.00    -0.053 SA
BRANCH  13  15
HETATM   15  C2  UNL     1      -6.872   2.404  16.929  1.00  0.00     0.010 C 
HETATM   16  C1  UNL     1      -7.415   1.245  17.173  1.00  0.00     0.013 C 
ENDBRANCH  13  15
ENDBRANCH   6   9
ENDBRANCH   1   5
BRANCH   1  17
HETATM   17  C8  UNL     1      -3.468   6.344  12.688  1.00  0.00    -0.004 C 
HETATM   18  C9  UNL     1      -4.455   7.082  11.967  1.00  0.00    -0.082 C 
HETATM   19  C10 UNL     1      -3.915   8.162  11.002  1.00  0.00     0.034 C 
HETATM   20  C13 UNL     1      -5.593   6.589  11.215  1.00  0.00     0.034 C 
HETATM   21  C11 UNL     1      -5.216   8.885  10.704  1.00  0.00     0.005 C 
HETATM   22  C12 UNL     1      -6.340   7.911  10.919  1.00  0.00     0.005 C 
ENDBRANCH   1  17
BRANCH   4  23
HETATM   23  C17 UNL     1      -3.116   4.698   9.882  1.00  0.00     0.170 C 
BRANCH  23  24
HETATM   24  O2  UNL     1      -3.998   3.639   9.915  1.00  0.00    -0.400 OA
ATOM     25  H2  UNL     1      -4.124   3.159   9.104  1.00  0.00     0.209 HD
ENDBRANCH  23  24
ENDBRANCH   4  23
TORSDOF 6
ENDMDL
MODEL 5
REMARK VINA RESULT: -7.197534029      3.545      5.786
REMARK  6 active torsions:
REMARK  status: ('A' for Active; 'I' for Inactive)
REMARK    1  A    between atoms: C2_2  and  C3_3 
REMARK    2  A    between atoms: C5_7  and  N2_8 
REMARK       I    between atoms: N2_8  and  C6_10 
REMARK    3  A    between atoms: C6_10  and  C7_12 
REMARK    4  A    between atoms: C7_12  and  C8_13 
REMARK    5  A    between atoms: C16_21  and  C17_22 
REMARK    6  A    between atoms: C17_22  and  O2_23 
ROOT
HETATM    1  C7  UNL     1      -3.809   3.330  14.303  1.00  0.00     0.065 C 
HETATM    2  C14 UNL     1      -4.870   4.237  13.700  1.00  0.00     0.024 C 
HETATM    3  C15 UNL     1      -5.252   3.128  12.759  1.00  0.00     0.010 C 
HETATM    4  C16 UNL     1      -3.879   2.513  13.107  1.00  0.00     0.031 C 
ENDROOT
BRANCH   1   5
HETATM    5  C6  UNL     1      -2.494   4.128  14.183  1.00  0.00     0.236 C 
HETATM    6  N2  UNL     1      -2.299   4.946  13.053  1.00  0.00    -0.306 N 
ATOM      7  H2  UNL     1      -2.978   5.681  12.855  1.00  0.00     0.171 HD
HETATM    8  O1  UNL     1      -1.607   4.082  15.038  1.00  0.00    -0.272 OA
BRANCH   6   9
HETATM    9  C5  UNL     1      -1.277   4.796  12.247  1.00  0.00     0.151 A 
HETATM   10  N1  UNL     1      -0.312   3.884  12.333  1.00  0.00    -0.345 N 
HETATM   11  C4  UNL     1       0.633   3.883  11.439  1.00  0.00     0.109 A 
ATOM     12  H1  UNL     1      -0.313   3.197  13.088  1.00  0.00     0.167 HD
HETATM   13  C3  UNL     1       0.578   4.828  10.452  1.00  0.00     0.023 A 
HETATM   14  S1  UNL     1      -0.845   5.685  10.861  1.00  0.00    -0.053 SA
BRANCH  13  15
HETATM   15  C2  UNL     1       1.511   5.050   9.324  1.00  0.00     0.010 C 
HETATM   16  C1  UNL     1       2.512   4.246   9.105  1.00  0.00     0.013 C 
ENDBRANCH  13  15
ENDBRANCH   6   9
ENDBRANCH   1   5
BRANCH   1  17
HETATM   17  C8  UNL     1      -3.918   2.961  15.691  1.00  0.00    -0.004 C 
HETATM   18  C9  UNL     1      -4.876   2.176  16.400  1.00  0.00    -0.082 C 
HETATM   19  C10 UNL     1      -6.334   2.687  16.351  1.00  0.00     0.034 C 
HETATM   20  C13 UNL     1      -5.089   0.741  16.359  1.00  0.00     0.034 C 
HETATM   21  C11 UNL     1      -6.931   1.804  17.432  1.00  0.00     0.005 C 
HETATM   22  C12 UNL     1      -6.090   0.563  17.525  1.00  0.00     0.005 C 
ENDBRANCH   1  17
BRANCH   4  23
HETATM   23  C17 UNL     1      -3.955   1.056  13.031  1.00  0.00     0.170 C 
BRANCH  23  24
HETATM   24  O2  UNL     1      -3.359   0.456  11.941  1.00  0.00    -0.400 OA
ATOM     25  H2  UNL     1      -3.683   0.704  11.083  1.00  0.00     0.209 HD
ENDBRANCH  23  24
ENDBRANCH   4  23
TORSDOF 6
ENDMDL
