MODEL 1
REMARK VINA RESULT: -9.480751086      0.000      0.000
REMARK  9 active torsions:
REMARK  status: ('A' for Active; 'I' for Inactive)
REMARK       I    between atoms: C1_4  and  N3_6 
REMARK    1  A    between atoms: N3_6  and  N4_8 
REMARK    2  A    between atoms: N4_8  and  C2_9 
REMARK    3  A    between atoms: C2_9  and  C3_10 
REMARK    4  A    between atoms: C2_9  and  C6_18 
REMARK    5  A    between atoms: C3_10  and  N5_11 
REMARK    6  A    between atoms: N5_11  and  C4_13 
REMARK    7  A    between atoms: C4_13  and  O1_14 
REMARK    8  A    between atoms: C4_13  and  C5_16 
REMARK       I    between atoms: C6_18  and  N6_20 
REMARK    9  A    between atoms: N6_20  and  C7_22 
ROOT
HETATM    1  C2  UNL     1      59.004  35.809  75.037  1.00  0.00     0.208 C 
ENDROOT
BRANCH   1   2
HETATM    2  N4  UNL     1      59.522  35.482  73.687  1.00  0.00    -0.123 NA
BRANCH   2   3
HETATM    3  N3  UNL     1      60.711  34.802  73.732  1.00  0.00    -0.277 N 
HETATM    4  C1  UNL     1      60.725  33.455  73.224  1.00  0.00     0.197 C 
HETATM    5  N1  UNL     1      60.891  33.202  71.981  1.00  0.00    -0.373 N 
HETATM    6  N2  UNL     1      60.554  32.359  74.118  1.00  0.00    -0.063 NA
ATOM      7  H12 UNL     1      60.900  32.247  71.621  1.00  0.00     0.158 HD
ATOM      8  H11 UNL     1      61.013  33.986  71.341  1.00  0.00     0.158 HD
ATOM      9  H3  UNL     1      61.554  35.233  74.111  1.00  0.00     0.185 HD
ENDBRANCH   2   3
ENDBRANCH   1   2
BRANCH   1  10
HETATM   10  C3  UNL     1      57.728  35.111  75.271  1.00  0.00     0.149 C 
BRANCH  10  11
HETATM   11  N5  UNL     1      57.770  33.702  75.422  1.00  0.00    -0.389 N 
ATOM     12  H5  UNL     1      58.252  33.118  74.739  1.00  0.00     0.156 HD
BRANCH  11  13
HETATM   13  C4  UNL     1      57.125  33.122  76.545  1.00  0.00     0.276 C 
BRANCH  13  14
HETATM   14  O1  UNL     1      57.514  33.899  77.669  1.00  0.00    -0.371 OA
ATOM     15  H1  UNL     1      57.806  34.735  77.323  1.00  0.00     0.212 HD
ENDBRANCH  13  14
BRANCH  13  16
HETATM   16  C5  UNL     1      57.583  31.740  76.803  1.00  0.00     0.283 C 
HETATM   17  O2  UNL     1      56.798  30.823  77.048  1.00  0.00    -0.302 OA
ENDBRANCH  13  16
ENDBRANCH  11  13
ENDBRANCH  10  11
ENDBRANCH   1  10
BRANCH   1  18
HETATM   18  C6  UNL     1      60.094  35.615  75.987  1.00  0.00     0.240 C 
HETATM   19  O3  UNL     1      60.206  34.469  76.584  1.00  0.00    -0.272 OA
HETATM   20  N6  UNL     1      61.043  36.585  76.320  1.00  0.00    -0.355 N 
ATOM     21  H6  UNL     1      61.008  37.509  75.889  1.00  0.00     0.162 HD
BRANCH  20  22
HETATM   22  C7  UNL     1      62.105  36.257  77.307  1.00  0.00     0.084 C 
HETATM   23  C8  UNL     1      62.070  37.376  78.326  1.00  0.00     0.025 C 
HETATM   24  C9  UNL     1      62.732  36.830  79.576  1.00  0.00     0.002 C 
HETATM   25  C10 UNL     1      64.184  37.179  79.658  1.00  0.00     0.000 C 
HETATM   26  C11 UNL     1      64.846  37.225  78.298  1.00  0.00     0.000 C 
HETATM   27  C12 UNL     1      64.577  36.004  77.467  1.00  0.00     0.002 C 
HETATM   28  C13 UNL     1      63.381  36.136  76.560  1.00  0.00     0.025 C 
ENDBRANCH  20  22
ENDBRANCH   1  18
TORSDOF 9
ENDMDL
MODEL 2
REMARK VINA RESULT: -9.037931915      1.041      1.548
REMARK  9 active torsions:
REMARK  status: ('A' for Active; 'I' for Inactive)
REMARK       I    between atoms: C1_4  and  N3_6 
REMARK    1  A    between atoms: N3_6  and  N4_8 
REMARK    2  A    between atoms: N4_8  and  C2_9 
REMARK    3  A    between atoms: C2_9  and  C3_10 
REMARK    4  A    between atoms: C2_9  and  C6_18 
REMARK    5  A    between atoms: C3_10  and  N5_11 
REMARK    6  A    between atoms: N5_11  and  C4_13 
REMARK    7  A    between atoms: C4_13  and  O1_14 
REMARK    8  A    between atoms: C4_13  and  C5_16 
REMARK       I    between atoms: C6_18  and  N6_20 
REMARK    9  A    between atoms: N6_20  and  C7_22 
ROOT
HETATM    1  C2  UNL     1      59.320  35.041  74.890  1.00  0.00     0.208 C 
ENDROOT
BRANCH   1   2
HETATM    2  N4  UNL     1      59.748  34.098  73.829  1.00  0.00    -0.123 NA
BRANCH   2   3
HETATM    3  N3  UNL     1      59.519  34.586  72.570  1.00  0.00    -0.277 N 
HETATM    4  C1  UNL     1      59.800  35.979  72.337  1.00  0.00     0.197 C 
HETATM    5  N1  UNL     1      60.972  36.392  72.036  1.00  0.00    -0.373 N 
HETATM    6  N2  UNL     1      58.752  36.939  72.437  1.00  0.00    -0.063 NA
ATOM      7  H12 UNL     1      61.171  37.379  71.871  1.00  0.00     0.158 HD
ATOM      8  H11 UNL     1      61.723  35.705  71.964  1.00  0.00     0.158 HD
ATOM      9  H3  UNL     1      59.164  33.987  71.826  1.00  0.00     0.185 HD
ENDBRANCH   2   3
ENDBRANCH   1   2
BRANCH   1  10
HETATM   10  C3  UNL     1      57.923  34.768  75.273  1.00  0.00     0.149 C 
BRANCH  10  11
HETATM   11  N5  UNL     1      57.536  33.412  75.420  1.00  0.00    -0.389 N 
ATOM     12  H5  UNL     1      57.622  32.759  74.642  1.00  0.00     0.156 HD
BRANCH  11  13
HETATM   13  C4  UNL     1      57.027  32.985  76.673  1.00  0.00     0.276 C 
BRANCH  13  14
HETATM   14  O1  UNL     1      57.600  33.846  77.647  1.00  0.00    -0.371 OA
ATOM     15  H1  UNL     1      57.117  34.662  77.595  1.00  0.00     0.212 HD
ENDBRANCH  13  14
BRANCH  13  16
HETATM   16  C5  UNL     1      57.453  31.612  77.014  1.00  0.00     0.283 C 
HETATM   17  O2  UNL     1      56.647  30.724  77.295  1.00  0.00    -0.302 OA
ENDBRANCH  13  16
ENDBRANCH  11  13
ENDBRANCH  10  11
ENDBRANCH   1  10
BRANCH   1  18
HETATM   18  C6  UNL     1      60.345  35.036  75.927  1.00  0.00     0.240 C 
HETATM   19  O3  UNL     1      60.477  33.982  76.671  1.00  0.00    -0.272 OA
HETATM   20  N6  UNL     1      61.212  36.098  76.195  1.00  0.00    -0.355 N 
ATOM     21  H6  UNL     1      61.158  36.958  75.648  1.00  0.00     0.162 HD
BRANCH  20  22
HETATM   22  C7  UNL     1      62.215  35.963  77.284  1.00  0.00     0.084 C 
HETATM   23  C8  UNL     1      61.974  37.140  78.205  1.00  0.00     0.025 C 
HETATM   24  C9  UNL     1      62.581  36.762  79.541  1.00  0.00     0.002 C 
HETATM   25  C10 UNL     1      63.976  37.278  79.707  1.00  0.00     0.000 C 
HETATM   26  C11 UNL     1      64.742  37.303  78.402  1.00  0.00     0.000 C 
HETATM   27  C12 UNL     1      64.678  36.004  77.653  1.00  0.00     0.002 C 
HETATM   28  C13 UNL     1      63.555  35.936  76.649  1.00  0.00     0.025 C 
ENDBRANCH  20  22
ENDBRANCH   1  18
TORSDOF 9
ENDMDL
MODEL 3
REMARK VINA RESULT: -9.033093828      3.192      5.337
REMARK  9 active torsions:
REMARK  status: ('A' for Active; 'I' for Inactive)
REMARK       I    between atoms: C1_4  and  N3_6 
REMARK    1  A    between atoms: N3_6  and  N4_8 
REMARK    2  A    between atoms: N4_8  and  C2_9 
REMARK    3  A    between atoms: C2_9  and  C3_10 
REMARK    4  A    between atoms: C2_9  and  C6_18 
REMARK    5  A    between atoms: C3_10  and  N5_11 
REMARK    6  A    between atoms: N5_11  and  C4_13 
REMARK    7  A    between atoms: C4_13  and  O1_14 
REMARK    8  A    between atoms: C4_13  and  C5_16 
REMARK       I    between atoms: C6_18  and  N6_20 
REMARK    9  A    between atoms: N6_20  and  C7_22 
ROOT
HETATM    1  C2  UNL     1      61.979  35.358  73.683  1.00  0.00     0.208 C 
ENDROOT
BRANCH   1   2
HETATM    2  N4  UNL     1      60.524  35.073  73.702  1.00  0.00    -0.123 NA
BRANCH   2   3
HETATM    3  N3  UNL     1      59.781  36.163  74.074  1.00  0.00    -0.277 N 
HETATM    4  C1  UNL     1      58.830  35.984  75.139  1.00  0.00     0.197 C 
HETATM    5  N1  UNL     1      59.165  36.080  76.370  1.00  0.00    -0.373 N 
HETATM    6  N2  UNL     1      57.468  35.696  74.832  1.00  0.00    -0.063 NA
ATOM      7  H12 UNL     1      58.490  35.953  77.125  1.00  0.00     0.158 HD
ATOM      8  H11 UNL     1      60.139  36.286  76.590  1.00  0.00     0.158 HD
ATOM      9  H3  UNL     1      59.898  37.065  73.614  1.00  0.00     0.185 HD
ENDBRANCH   2   3
ENDBRANCH   1   2
BRANCH   1  10
HETATM   10  C3  UNL     1      62.252  36.533  72.836  1.00  0.00     0.149 C 
BRANCH  10  11
HETATM   11  N5  UNL     1      63.283  36.420  71.870  1.00  0.00    -0.389 N 
ATOM     12  H5  UNL     1      63.062  36.353  70.876  1.00  0.00     0.156 HD
BRANCH  11  13
HETATM   13  C4  UNL     1      64.630  36.399  72.316  1.00  0.00     0.276 C 
BRANCH  13  14
HETATM   14  O1  UNL     1      64.799  37.563  73.114  1.00  0.00    -0.371 OA
ATOM     15  H1  UNL     1      64.623  37.297  74.008  1.00  0.00     0.212 HD
ENDBRANCH  13  14
BRANCH  13  16
HETATM   16  C5  UNL     1      65.592  36.504  71.199  1.00  0.00     0.283 C 
HETATM   17  O2  UNL     1      65.646  35.667  70.297  1.00  0.00    -0.302 OA
ENDBRANCH  13  16
ENDBRANCH  11  13
ENDBRANCH  10  11
ENDBRANCH   1  10
BRANCH   1  18
HETATM   18  C6  UNL     1      62.446  35.367  75.064  1.00  0.00     0.240 C 
HETATM   19  O3  UNL     1      61.912  34.541  75.910  1.00  0.00    -0.272 OA
HETATM   20  N6  UNL     1      63.439  36.213  75.565  1.00  0.00    -0.355 N 
ATOM     21  H6  UNL     1      63.897  36.889  74.952  1.00  0.00     0.162 HD
BRANCH  20  22
HETATM   22  C7  UNL     1      63.823  36.118  76.997  1.00  0.00     0.084 C 
HETATM   23  C8  UNL     1      62.716  36.814  77.761  1.00  0.00     0.025 C 
HETATM   24  C9  UNL     1      62.791  36.294  79.182  1.00  0.00     0.002 C 
HETATM   25  C10 UNL     1      63.587  37.187  80.081  1.00  0.00     0.000 C 
HETATM   26  C11 UNL     1      64.737  37.857  79.359  1.00  0.00     0.000 C 
HETATM   27  C12 UNL     1      65.584  36.896  78.577  1.00  0.00     0.002 C 
HETATM   28  C13 UNL     1      65.161  36.743  77.139  1.00  0.00     0.025 C 
ENDBRANCH  20  22
ENDBRANCH   1  18
TORSDOF 9
ENDMDL
MODEL 4
REMARK VINA RESULT: -8.989781488      1.963      2.805
REMARK  9 active torsions:
REMARK  status: ('A' for Active; 'I' for Inactive)
REMARK       I    between atoms: C1_4  and  N3_6 
REMARK    1  A    between atoms: N3_6  and  N4_8 
REMARK    2  A    between atoms: N4_8  and  C2_9 
REMARK    3  A    between atoms: C2_9  and  C3_10 
REMARK    4  A    between atoms: C2_9  and  C6_18 
REMARK    5  A    between atoms: C3_10  and  N5_11 
REMARK    6  A    between atoms: N5_11  and  C4_13 
REMARK    7  A    between atoms: C4_13  and  O1_14 
REMARK    8  A    between atoms: C4_13  and  C5_16 
REMARK       I    between atoms: C6_18  and  N6_20 
REMARK    9  A    between atoms: N6_20  and  C7_22 
ROOT
HETATM    1  C2  UNL     1      59.979  34.485  75.535  1.00  0.00     0.208 C 
ENDROOT
BRANCH   1   2
HETATM    2  N4  UNL     1      60.068  33.100  75.013  1.00  0.00    -0.123 NA
BRANCH   2   3
HETATM    3  N3  UNL     1      61.121  32.932  74.153  1.00  0.00    -0.277 N 
HETATM    4  C1  UNL     1      61.052  33.603  72.881  1.00  0.00     0.197 C 
HETATM    5  N1  UNL     1      61.425  34.817  72.736  1.00  0.00    -0.373 N 
HETATM    6  N2  UNL     1      60.561  32.907  71.739  1.00  0.00    -0.063 NA
ATOM      7  H12 UNL     1      61.377  35.293  71.834  1.00  0.00     0.158 HD
ATOM      8  H11 UNL     1      61.777  35.316  73.553  1.00  0.00     0.158 HD
ATOM      9  H3  UNL     1      61.922  32.353  74.404  1.00  0.00     0.185 HD
ENDBRANCH   2   3
ENDBRANCH   1   2
BRANCH   1  10
HETATM   10  C3  UNL     1      58.609  34.761  76.004  1.00  0.00     0.149 C 
BRANCH  10  11
HETATM   11  N5  UNL     1      57.715  35.374  75.091  1.00  0.00    -0.389 N 
ATOM     12  H5  UNL     1      56.729  35.113  75.072  1.00  0.00     0.156 HD
BRANCH  11  13
HETATM   13  C4  UNL     1      58.221  36.360  74.206  1.00  0.00     0.276 C 
BRANCH  13  14
HETATM   14  O1  UNL     1      57.481  37.545  74.469  1.00  0.00    -0.371 OA
ATOM     15  H1  UNL     1      57.834  37.902  75.275  1.00  0.00     0.212 HD
ENDBRANCH  13  14
BRANCH  13  16
HETATM   16  C5  UNL     1      57.985  36.016  72.788  1.00  0.00     0.283 C 
HETATM   17  O2  UNL     1      58.832  36.209  71.915  1.00  0.00    -0.302 OA
ENDBRANCH  13  16
ENDBRANCH  11  13
ENDBRANCH  10  11
ENDBRANCH   1  10
BRANCH   1  18
HETATM   18  C6  UNL     1      61.089  34.681  76.460  1.00  0.00     0.240 C 
HETATM   19  O3  UNL     1      61.483  33.681  77.185  1.00  0.00    -0.272 OA
HETATM   20  N6  UNL     1      61.775  35.886  76.637  1.00  0.00    -0.355 N 
ATOM     21  H6  UNL     1      61.512  36.712  76.100  1.00  0.00     0.162 HD
BRANCH  20  22
HETATM   22  C7  UNL     1      62.892  35.951  77.616  1.00  0.00     0.084 C 
HETATM   23  C8  UNL     1      62.604  37.160  78.480  1.00  0.00     0.025 C 
HETATM   24  C9  UNL     1      63.385  36.958  79.763  1.00  0.00     0.002 C 
HETATM   25  C10 UNL     1      64.716  37.642  79.741  1.00  0.00     0.000 C 
HETATM   26  C11 UNL     1      65.337  37.654  78.361  1.00  0.00     0.000 C 
HETATM   27  C12 UNL     1      65.356  36.302  77.709  1.00  0.00     0.002 C 
HETATM   28  C13 UNL     1      64.155  36.028  76.841  1.00  0.00     0.025 C 
ENDBRANCH  20  22
ENDBRANCH   1  18
TORSDOF 9
ENDMDL
MODEL 5
REMARK VINA RESULT: -8.966226874      2.166      3.315
REMARK  9 active torsions:
REMARK  status: ('A' for Active; 'I' for Inactive)
REMARK       I    between atoms: C1_4  and  N3_6 
REMARK    1  A    between atoms: N3_6  and  N4_8 
REMARK    2  A    between atoms: N4_8  and  C2_9 
REMARK    3  A    between atoms: C2_9  and  C3_10 
REMARK    4  A    between atoms: C2_9  and  C6_18 
REMARK    5  A    between atoms: C3_10  and  N5_11 
REMARK    6  A    between atoms: N5_11  and  C4_13 
REMARK    7  A    between atoms: C4_13  and  O1_14 
REMARK    8  A    between atoms: C4_13  and  C5_16 
REMARK       I    between atoms: C6_18  and  N6_20 
REMARK    9  A    between atoms: N6_20  and  C7_22 
ROOT
HETATM    1  C2  UNL     1      60.403  34.425  75.462  1.00  0.00     0.208 C 
ENDROOT
BRANCH   1   2
HETATM    2  N4  UNL     1      59.169  34.055  76.196  1.00  0.00    -0.123 NA
BRANCH   2   3
HETATM    3  N3  UNL     1      58.557  32.948  75.668  1.00  0.00    -0.277 N 
HETATM    4  C1  UNL     1      58.852  31.675  76.272  1.00  0.00     0.197 C 
HETATM    5  N1  UNL     1      58.221  31.251  77.300  1.00  0.00    -0.373 N 
HETATM    6  N2  UNL     1      59.872  30.848  75.718  1.00  0.00    -0.063 NA
ATOM      7  H12 UNL     1      58.430  30.349  77.728  1.00  0.00     0.158 HD
ATOM      8  H11 UNL     1      57.491  31.843  77.696  1.00  0.00     0.158 HD
ATOM      9  H3  UNL     1      57.917  33.023  74.878  1.00  0.00     0.185 HD
ENDBRANCH   2   3
ENDBRANCH   1   2
BRANCH   1  10
HETATM   10  C3  UNL     1      60.105  35.475  74.472  1.00  0.00     0.149 C 
BRANCH  10  11
HETATM   11  N5  UNL     1      59.159  36.467  74.833  1.00  0.00    -0.389 N 
ATOM     12  H5  UNL     1      59.375  37.156  75.554  1.00  0.00     0.156 HD
BRANCH  11  13
HETATM   13  C4  UNL     1      57.904  36.479  74.172  1.00  0.00     0.276 C 
BRANCH  13  14
HETATM   14  O1  UNL     1      57.058  35.611  74.914  1.00  0.00    -0.371 OA
ATOM     15  H1  UNL     1      57.243  34.733  74.603  1.00  0.00     0.212 HD
ENDBRANCH  13  14
BRANCH  13  16
HETATM   16  C5  UNL     1      57.985  35.928  72.803  1.00  0.00     0.283 C 
HETATM   17  O2  UNL     1      58.225  36.635  71.823  1.00  0.00    -0.302 OA
ENDBRANCH  13  16
ENDBRANCH  11  13
ENDBRANCH  10  11
ENDBRANCH   1  10
BRANCH   1  18
HETATM   18  C6  UNL     1      61.449  34.667  76.448  1.00  0.00     0.240 C 
HETATM   19  O3  UNL     1      61.720  33.739  77.313  1.00  0.00    -0.272 OA
HETATM   20  N6  UNL     1      62.195  35.845  76.545  1.00  0.00    -0.355 N 
ATOM     21  H6  UNL     1      62.028  36.615  75.898  1.00  0.00     0.162 HD
BRANCH  20  22
HETATM   22  C7  UNL     1      63.235  35.963  77.601  1.00  0.00     0.084 C 
HETATM   23  C8  UNL     1      62.814  37.141  78.454  1.00  0.00     0.025 C 
HETATM   24  C9  UNL     1      63.514  36.970  79.787  1.00  0.00     0.002 C 
HETATM   25  C10 UNL     1      64.799  37.732  79.865  1.00  0.00     0.000 C 
HETATM   26  C11 UNL     1      65.514  37.800  78.533  1.00  0.00     0.000 C 
HETATM   27  C12 UNL     1      65.660  36.461  77.871  1.00  0.00     0.002 C 
HETATM   28  C13 UNL     1      64.541  36.127  76.918  1.00  0.00     0.025 C 
ENDBRANCH  20  22
ENDBRANCH   1  18
TORSDOF 9
ENDMDL
