MODEL 1
REMARK VINA RESULT: -9.555988460      0.000      0.000
REMARK  7 active torsions:
REMARK  status: ('A' for Active; 'I' for Inactive)
REMARK    1  A    between atoms: C2_2  and  C3_3 
REMARK    2  A    between atoms: C3_3  and  C4_4 
REMARK    3  A    between atoms: C8_8  and  C9_9 
REMARK    4  A    between atoms: C9_9  and  C10_11 
REMARK    5  A    between atoms: C10_11  and  C11_12 
REMARK    6  A    between atoms: C11_12  and  C14_15 
REMARK    7  A    between atoms: C16_17  and  C17_18 
ROOT
HETATM    1  C9  UNL     1     -25.670  35.370 -31.444  1.00  0.00     0.142 C 
HETATM    2  O1  UNL     1     -25.471  36.075 -30.499  1.00  0.00    -0.297 OA
ENDROOT
BRANCH   1   3
HETATM    3  C8  UNL     1     -24.908  35.657 -32.721  1.00  0.00     0.147 C 
HETATM    4  C7  UNL     1     -25.457  36.866 -33.415  1.00  0.00    -0.010 C 
HETATM    5  C6  UNL     1     -24.683  37.490 -34.293  1.00  0.00    -0.020 C 
HETATM    6  C3  UNL     1     -23.299  37.002 -34.582  1.00  0.00    -0.017 C 
HETATM    7  C20 UNL     1     -22.656  36.809 -33.248  1.00  0.00     0.093 C 
HETATM    8  C19 UNL     1     -23.498  35.920 -32.416  1.00  0.00     0.142 C 
HETATM    9  O2  UNL     1     -22.933  35.421 -31.451  1.00  0.00    -0.297 OA
BRANCH   6  10
HETATM   10  C2  UNL     1     -22.669  38.115 -35.413  1.00  0.00     0.009 C 
HETATM   11  C1  UNL     1     -21.722  38.980 -34.633  1.00  0.00     0.006 C 
ENDBRANCH   6  10
BRANCH   6  12
HETATM   12  C4  UNL     1     -23.265  35.782 -35.459  1.00  0.00     0.009 C 
HETATM   13  C5  UNL     1     -21.789  35.396 -35.665  1.00  0.00     0.006 C 
ENDBRANCH   6  12
ENDBRANCH   1   3
BRANCH   1  14
HETATM   14  C10 UNL     1     -26.571  34.258 -31.482  1.00  0.00     0.093 C 
BRANCH  14  15
HETATM   15  C11 UNL     1     -28.032  34.499 -31.696  1.00  0.00    -0.007 C 
HETATM   16  C12 UNL     1     -28.915  33.619 -30.891  1.00  0.00     0.021 C 
HETATM   17  C13 UNL     1     -28.420  35.940 -31.397  1.00  0.00     0.021 C 
BRANCH  15  18
HETATM   18  C14 UNL     1     -28.261  34.307 -33.174  1.00  0.00    -0.009 A 
HETATM   19  C15 UNL     1     -29.248  34.955 -33.905  1.00  0.00     0.032 A 
HETATM   20  C16 UNL     1     -29.303  34.702 -35.216  1.00  0.00     0.055 A 
HETATM   21  C18 UNL     1     -28.389  33.831 -35.739  1.00  0.00     0.066 A 
HETATM   22  S1  UNL     1     -27.483  33.393 -34.348  1.00  0.00    -0.105 SA
BRANCH  20  23
HETATM   23  C17 UNL     1     -30.343  35.357 -36.126  1.00  0.00     0.418 C 
HETATM   24  F1  UNL     1     -31.250  35.967 -35.333  1.00  0.00    -0.166 F 
HETATM   25  F2  UNL     1     -29.682  36.375 -36.856  1.00  0.00    -0.166 F 
HETATM   26  F3  UNL     1     -30.857  34.473 -37.005  1.00  0.00    -0.166 F 
ENDBRANCH  20  23
ENDBRANCH  15  18
ENDBRANCH  14  15
ENDBRANCH   1  14
TORSDOF 7
ENDMDL
MODEL 2
REMARK VINA RESULT: -9.519704995      4.612      7.685
REMARK  7 active torsions:
REMARK  status: ('A' for Active; 'I' for Inactive)
REMARK    1  A    between atoms: C2_2  and  C3_3 
REMARK    2  A    between atoms: C3_3  and  C4_4 
REMARK    3  A    between atoms: C8_8  and  C9_9 
REMARK    4  A    between atoms: C9_9  and  C10_11 
REMARK    5  A    between atoms: C10_11  and  C11_12 
REMARK    6  A    between atoms: C11_12  and  C14_15 
REMARK    7  A    between atoms: C16_17  and  C17_18 
ROOT
HETATM    1  C9  UNL     1     -25.180  36.280 -32.981  1.00  0.00     0.142 C 
HETATM    2  O1  UNL     1     -24.612  35.648 -32.139  1.00  0.00    -0.297 OA
ENDROOT
BRANCH   1   3
HETATM    3  C8  UNL     1     -26.682  36.134 -33.091  1.00  0.00     0.147 C 
HETATM    4  C7  UNL     1     -27.282  37.290 -33.831  1.00  0.00    -0.010 C 
HETATM    5  C6  UNL     1     -28.485  37.135 -34.369  1.00  0.00    -0.020 C 
HETATM    6  C3  UNL     1     -29.222  35.839 -34.243  1.00  0.00    -0.017 C 
HETATM    7  C20 UNL     1     -28.245  34.782 -34.644  1.00  0.00     0.093 C 
HETATM    8  C19 UNL     1     -27.014  34.911 -33.831  1.00  0.00     0.142 C 
HETATM    9  O2  UNL     1     -26.291  33.924 -33.822  1.00  0.00    -0.297 OA
BRANCH   6  10
HETATM   10  C2  UNL     1     -30.403  35.978 -35.199  1.00  0.00     0.009 C 
HETATM   11  C1  UNL     1     -30.061  35.652 -36.623  1.00  0.00     0.006 C 
ENDBRANCH   6  10
BRANCH   6  12
HETATM   12  C4  UNL     1     -29.831  35.626 -32.886  1.00  0.00     0.009 C 
HETATM   13  C5  UNL     1     -31.340  35.903 -33.002  1.00  0.00     0.006 C 
ENDBRANCH   6  12
ENDBRANCH   1   3
BRANCH   1  14
HETATM   14  C10 UNL     1     -24.563  37.184 -33.905  1.00  0.00     0.093 C 
BRANCH  14  15
HETATM   15  C11 UNL     1     -23.524  36.673 -34.852  1.00  0.00    -0.007 C 
HETATM   16  C12 UNL     1     -23.629  35.221 -35.142  1.00  0.00     0.021 C 
HETATM   17  C13 UNL     1     -23.552  37.412 -36.183  1.00  0.00     0.021 C 
BRANCH  15  18
HETATM   18  C14 UNL     1     -22.198  37.014 -34.219  1.00  0.00    -0.009 A 
HETATM   19  C15 UNL     1     -21.570  36.240 -33.251  1.00  0.00     0.032 A 
HETATM   20  C16 UNL     1     -20.381  36.661 -32.810  1.00  0.00     0.055 A 
HETATM   21  C18 UNL     1     -19.871  37.812 -33.340  1.00  0.00     0.066 A 
HETATM   22  S1  UNL     1     -21.103  38.266 -34.447  1.00  0.00    -0.105 SA
BRANCH  20  23
HETATM   23  C17 UNL     1     -19.591  35.892 -31.749  1.00  0.00     0.418 C 
HETATM   24  F1  UNL     1     -20.477  35.425 -30.842  1.00  0.00    -0.166 F 
HETATM   25  F2  UNL     1     -19.017  34.766 -32.384  1.00  0.00    -0.166 F 
HETATM   26  F3  UNL     1     -18.594  36.642 -31.236  1.00  0.00    -0.166 F 
ENDBRANCH  20  23
ENDBRANCH  15  18
ENDBRANCH  14  15
ENDBRANCH   1  14
TORSDOF 7
ENDMDL
MODEL 3
REMARK VINA RESULT: -9.507003886      5.092      8.015
REMARK  7 active torsions:
REMARK  status: ('A' for Active; 'I' for Inactive)
REMARK    1  A    between atoms: C2_2  and  C3_3 
REMARK    2  A    between atoms: C3_3  and  C4_4 
REMARK    3  A    between atoms: C8_8  and  C9_9 
REMARK    4  A    between atoms: C9_9  and  C10_11 
REMARK    5  A    between atoms: C10_11  and  C11_12 
REMARK    6  A    between atoms: C11_12  and  C14_15 
REMARK    7  A    between atoms: C16_17  and  C17_18 
ROOT
HETATM    1  C9  UNL     1     -25.411  36.889 -33.598  1.00  0.00     0.142 C 
HETATM    2  O1  UNL     1     -25.182  37.775 -34.369  1.00  0.00    -0.297 OA
ENDROOT
BRANCH   1   3
HETATM    3  C8  UNL     1     -26.837  36.396 -33.479  1.00  0.00     0.147 C 
HETATM    4  C7  UNL     1     -27.806  37.430 -33.966  1.00  0.00    -0.010 C 
HETATM    5  C6  UNL     1     -29.023  37.034 -34.316  1.00  0.00    -0.020 C 
HETATM    6  C3  UNL     1     -29.418  35.594 -34.229  1.00  0.00    -0.017 C 
HETATM    7  C20 UNL     1     -28.323  34.837 -34.909  1.00  0.00     0.093 C 
HETATM    8  C19 UNL     1     -27.022  35.192 -34.297  1.00  0.00     0.142 C 
HETATM    9  O2  UNL     1     -26.109  34.410 -34.526  1.00  0.00    -0.297 OA
BRANCH   6  10
HETATM   10  C2  UNL     1     -30.757  35.522 -34.956  1.00  0.00     0.009 C 
HETATM   11  C1  UNL     1     -30.627  35.218 -36.420  1.00  0.00     0.006 C 
ENDBRANCH   6  10
BRANCH   6  12
HETATM   12  C4  UNL     1     -29.700  35.133 -32.827  1.00  0.00     0.009 C 
HETATM   13  C5  UNL     1     -31.129  35.576 -32.468  1.00  0.00     0.006 C 
ENDBRANCH   6  12
ENDBRANCH   1   3
BRANCH   1  14
HETATM   14  C10 UNL     1     -24.445  36.234 -32.767  1.00  0.00     0.093 C 
BRANCH  14  15
HETATM   15  C11 UNL     1     -23.032  36.105 -33.242  1.00  0.00    -0.007 C 
HETATM   16  C12 UNL     1     -22.888  35.359 -34.518  1.00  0.00     0.021 C 
HETATM   17  C13 UNL     1     -22.364  37.460 -33.421  1.00  0.00     0.021 C 
BRANCH  15  18
HETATM   18  C14 UNL     1     -22.291  35.424 -32.119  1.00  0.00    -0.009 A 
HETATM   19  C15 UNL     1     -20.931  35.572 -31.875  1.00  0.00     0.032 A 
HETATM   20  C16 UNL     1     -20.426  34.926 -30.819  1.00  0.00     0.055 A 
HETATM   21  C18 UNL     1     -21.279  34.174 -30.061  1.00  0.00     0.066 A 
HETATM   22  S1  UNL     1     -22.772  34.403 -30.876  1.00  0.00    -0.105 SA
BRANCH  20  23
HETATM   23  C17 UNL     1     -18.946  35.013 -30.446  1.00  0.00     0.418 C 
HETATM   24  F1  UNL     1     -18.844  34.761 -29.123  1.00  0.00    -0.166 F 
HETATM   25  F2  UNL     1     -18.278  33.962 -31.120  1.00  0.00    -0.166 F 
HETATM   26  F3  UNL     1     -18.405  36.182 -30.846  1.00  0.00    -0.166 F 
ENDBRANCH  20  23
ENDBRANCH  15  18
ENDBRANCH  14  15
ENDBRANCH   1  14
TORSDOF 7
ENDMDL
MODEL 4
REMARK VINA RESULT: -9.504374566      4.896      7.901
REMARK  7 active torsions:
REMARK  status: ('A' for Active; 'I' for Inactive)
REMARK    1  A    between atoms: C2_2  and  C3_3 
REMARK    2  A    between atoms: C3_3  and  C4_4 
REMARK    3  A    between atoms: C8_8  and  C9_9 
REMARK    4  A    between atoms: C9_9  and  C10_11 
REMARK    5  A    between atoms: C10_11  and  C11_12 
REMARK    6  A    between atoms: C11_12  and  C14_15 
REMARK    7  A    between atoms: C16_17  and  C17_18 
ROOT
HETATM    1  C9  UNL     1     -24.486  37.482 -34.105  1.00  0.00     0.142 C 
HETATM    2  O1  UNL     1     -24.779  38.225 -34.995  1.00  0.00    -0.297 OA
ENDROOT
BRANCH   1   3
HETATM    3  C8  UNL     1     -25.534  36.506 -33.615  1.00  0.00     0.147 C 
HETATM    4  C7  UNL     1     -26.915  37.012 -33.897  1.00  0.00    -0.010 C 
HETATM    5  C6  UNL     1     -27.912  36.138 -33.917  1.00  0.00    -0.020 C 
HETATM    6  C3  UNL     1     -27.665  34.684 -33.666  1.00  0.00    -0.017 C 
HETATM    7  C20 UNL     1     -26.524  34.312 -34.556  1.00  0.00     0.093 C 
HETATM    8  C19 UNL     1     -25.382  35.219 -34.302  1.00  0.00     0.142 C 
HETATM    9  O2  UNL     1     -24.299  34.819 -34.711  1.00  0.00    -0.297 OA
BRANCH   6  10
HETATM   10  C2  UNL     1     -28.980  34.005 -34.036  1.00  0.00     0.009 C 
HETATM   11  C1  UNL     1     -28.975  33.402 -35.410  1.00  0.00     0.006 C 
ENDBRANCH   6  10
BRANCH   6  12
HETATM   12  C4  UNL     1     -27.441  34.356 -32.217  1.00  0.00     0.009 C 
HETATM   13  C5  UNL     1     -28.816  34.087 -31.580  1.00  0.00     0.006 C 
ENDBRANCH   6  12
ENDBRANCH   1   3
BRANCH   1  14
HETATM   14  C10 UNL     1     -23.213  37.423 -33.452  1.00  0.00     0.093 C 
BRANCH  14  15
HETATM   15  C11 UNL     1     -21.963  37.580 -34.259  1.00  0.00    -0.007 C 
HETATM   16  C12 UNL     1     -21.992  36.875 -35.565  1.00  0.00     0.021 C 
HETATM   17  C13 UNL     1     -21.640  39.043 -34.531  1.00  0.00     0.021 C 
BRANCH  15  18
HETATM   18  C14 UNL     1     -20.849  37.067 -33.381  1.00  0.00    -0.009 A 
HETATM   19  C15 UNL     1     -21.013  36.114 -32.383  1.00  0.00     0.032 A 
HETATM   20  C16 UNL     1     -19.920  35.739 -31.711  1.00  0.00     0.055 A 
HETATM   21  C18 UNL     1     -18.729  36.314 -32.054  1.00  0.00     0.066 A 
HETATM   22  S1  UNL     1     -19.200  37.377 -33.317  1.00  0.00    -0.105 SA
BRANCH  20  23
HETATM   23  C17 UNL     1     -19.973  34.696 -30.594  1.00  0.00     0.418 C 
HETATM   24  F1  UNL     1     -21.170  34.819 -29.980  1.00  0.00    -0.166 F 
HETATM   25  F2  UNL     1     -19.953  33.420 -31.207  1.00  0.00    -0.166 F 
HETATM   26  F3  UNL     1     -18.903  34.791 -29.780  1.00  0.00    -0.166 F 
ENDBRANCH  20  23
ENDBRANCH  15  18
ENDBRANCH  14  15
ENDBRANCH   1  14
TORSDOF 7
ENDMDL
MODEL 5
REMARK VINA RESULT: -9.443114979      4.455      7.362
REMARK  7 active torsions:
REMARK  status: ('A' for Active; 'I' for Inactive)
REMARK    1  A    between atoms: C2_2  and  C3_3 
REMARK    2  A    between atoms: C3_3  and  C4_4 
REMARK    3  A    between atoms: C8_8  and  C9_9 
REMARK    4  A    between atoms: C9_9  and  C10_11 
REMARK    5  A    between atoms: C10_11  and  C11_12 
REMARK    6  A    between atoms: C11_12  and  C14_15 
REMARK    7  A    between atoms: C16_17  and  C17_18 
ROOT
HETATM    1  C9  UNL     1     -25.221  36.006 -33.897  1.00  0.00     0.142 C 
HETATM    2  O1  UNL     1     -25.146  37.195 -34.009  1.00  0.00    -0.297 OA
ENDROOT
BRANCH   1   3
HETATM    3  C8  UNL     1     -25.945  35.446 -32.691  1.00  0.00     0.147 C 
HETATM    4  C7  UNL     1     -25.307  35.909 -31.417  1.00  0.00    -0.010 C 
HETATM    5  C6  UNL     1     -26.025  35.864 -30.303  1.00  0.00    -0.020 C 
HETATM    6  C3  UNL     1     -27.436  35.366 -30.317  1.00  0.00    -0.017 C 
HETATM    7  C20 UNL     1     -28.108  36.097 -31.433  1.00  0.00     0.093 C 
HETATM    8  C19 UNL     1     -27.339  35.906 -32.684  1.00  0.00     0.142 C 
HETATM    9  O2  UNL     1     -27.949  36.162 -33.714  1.00  0.00    -0.297 OA
BRANCH   6  10
HETATM   10  C2  UNL     1     -27.978  35.721 -28.936  1.00  0.00     0.009 C 
HETATM   11  C1  UNL     1     -27.302  36.908 -28.315  1.00  0.00     0.006 C 
ENDBRANCH   6  10
BRANCH   6  12
HETATM   12  C4  UNL     1     -27.542  33.870 -30.415  1.00  0.00     0.009 C 
HETATM   13  C5  UNL     1     -29.037  33.512 -30.482  1.00  0.00     0.006 C 
ENDBRANCH   6  12
ENDBRANCH   1   3
BRANCH   1  14
HETATM   14  C10 UNL     1     -24.688  35.046 -34.815  1.00  0.00     0.093 C 
BRANCH  14  15
HETATM   15  C11 UNL     1     -23.282  35.195 -35.303  1.00  0.00    -0.007 C 
HETATM   16  C12 UNL     1     -22.768  34.012 -36.040  1.00  0.00     0.021 C 
HETATM   17  C13 UNL     1     -23.117  36.408 -36.207  1.00  0.00     0.021 C 
BRANCH  15  18
HETATM   18  C14 UNL     1     -22.456  35.479 -34.074  1.00  0.00    -0.009 A 
HETATM   19  C15 UNL     1     -22.224  34.563 -33.056  1.00  0.00     0.032 A 
HETATM   20  C16 UNL     1     -21.443  34.957 -32.045  1.00  0.00     0.055 A 
HETATM   21  C18 UNL     1     -20.931  36.223 -32.088  1.00  0.00     0.066 A 
HETATM   22  S1  UNL     1     -21.581  36.818 -33.561  1.00  0.00    -0.105 SA
BRANCH  20  23
HETATM   23  C17 UNL     1     -21.113  34.037 -30.869  1.00  0.00     0.418 C 
HETATM   24  F1  UNL     1     -20.186  33.151 -31.295  1.00  0.00    -0.166 F 
HETATM   25  F2  UNL     1     -20.497  34.832 -29.872  1.00  0.00    -0.166 F 
HETATM   26  F3  UNL     1     -22.227  33.488 -30.344  1.00  0.00    -0.166 F 
ENDBRANCH  20  23
ENDBRANCH  15  18
ENDBRANCH  14  15
ENDBRANCH   1  14
TORSDOF 7
ENDMDL
