MODEL 1
REMARK VINA RESULT: -8.373204498      0.000      0.000
REMARK  8 active torsions:
REMARK  status: ('A' for Active; 'I' for Inactive)
REMARK    1  A    between atoms: O1_2  and  C2_3 
REMARK    2  A    between atoms: C5_6  and  C6_7 
REMARK    3  A    between atoms: C6_7  and  N1_8 
REMARK    4  A    between atoms: C9_17  and  S1_18 
REMARK    5  A    between atoms: S1_18  and  N5_21 
REMARK    6  A    between atoms: N5_21  and  N6_23 
REMARK    7  A    between atoms: C10_28  and  O4_29 
REMARK    8  A    between atoms: C12_31  and  O5_32 
ROOT
HETATM    1  N1  UNL     1      10.367  10.355  -1.817  1.00  0.00    -0.222 N 
ATOM      2  H1  UNL     1       9.600   9.723  -1.586  1.00  0.00     0.178 HD
HETATM    3  C7  UNL     1      11.234  10.659  -0.887  1.00  0.00     0.682 A 
HETATM    4  N2  UNL     1      12.263  11.488  -1.136  1.00  0.00    -0.163 N 
ATOM      5  H2  UNL     1      12.373  11.889  -2.067  1.00  0.00     0.187 HD
HETATM    6  C8  UNL     1      13.161  11.797  -0.157  1.00  0.00     0.208 A 
HETATM    7  N3  UNL     1      14.241  12.675  -0.449  1.00  0.00    -0.063 NA
HETATM    8  N4  UNL     1      13.015  11.268   1.072  1.00  0.00    -0.305 N 
ATOM      9  H4  UNL     1      13.687  11.500   1.804  1.00  0.00     0.170 HD
HETATM   10  C9  UNL     1      11.993  10.437   1.344  1.00  0.00     0.242 A 
HETATM   11  N7  UNL     1      11.141  10.163   0.359  1.00  0.00    -0.164 N 
ATOM     12  H7  UNL     1      10.365   9.534   0.563  1.00  0.00     0.186 HD
ENDROOT
BRANCH   1  13
HETATM   13  C6  UNL     1      10.453  10.874  -3.144  1.00  0.00     0.179 C 
BRANCH  13  14
HETATM   14  C5  UNL     1       9.108  10.825  -3.763  1.00  0.00    -0.004 A 
HETATM   15  C4  UNL     1       8.193   9.814  -3.550  1.00  0.00     0.014 A 
HETATM   16  C3  UNL     1       6.950   9.808  -4.148  1.00  0.00     0.040 A 
HETATM   17  C2  UNL     1       6.588  10.836  -4.988  1.00  0.00     0.104 A 
HETATM   18  C12 UNL     1       7.487  11.844  -5.207  1.00  0.00     0.135 A 
HETATM   19  C10 UNL     1       8.725  11.841  -4.605  1.00  0.00     0.112 A 
BRANCH  17  20
HETATM   20  O1  UNL     1       5.320  10.836  -5.601  1.00  0.00    -0.353 OA
HETATM   21  C1  UNL     1       4.547   9.670  -5.686  1.00  0.00     0.210 C 
ENDBRANCH  17  20
BRANCH  18  22
HETATM   22  O5  UNL     1       7.137  12.890  -6.052  1.00  0.00    -0.351 OA
HETATM   23  C13 UNL     1       7.421  12.788  -7.419  1.00  0.00     0.210 C 
ENDBRANCH  18  22
BRANCH  19  24
HETATM   24  O4  UNL     1       9.643  12.871  -4.829  1.00  0.00    -0.352 OA
HETATM   25  C11 UNL     1       9.464  14.078  -4.135  1.00  0.00     0.210 C 
ENDBRANCH  19  24
ENDBRANCH  13  14
ENDBRANCH   1  13
BRANCH  10  26
HETATM   26  S1  UNL     1      11.770   9.728   2.935  1.00  0.00     0.308 S 
HETATM   27  O2  UNL     1      11.499  10.862   3.910  1.00  0.00    -0.196 OA
HETATM   28  O3  UNL     1      13.020   9.027   3.374  1.00  0.00    -0.196 OA
BRANCH  26  29
HETATM   29  N5  UNL     1      10.476   8.626   2.954  1.00  0.00    -0.227 N 
ATOM     30  H5  UNL     1       9.585   8.787   2.485  1.00  0.00     0.199 HD
BRANCH  29  31
HETATM   31  N6  UNL     1      10.777   7.473   3.686  1.00  0.00    -0.336 N 
ATOM     32  H62 UNL     1      11.732   7.180   3.895  1.00  0.00     0.177 HD
ATOM     33  H61 UNL     1       9.937   6.974   3.979  1.00  0.00     0.177 HD
ENDBRANCH  29  31
ENDBRANCH  26  29
ENDBRANCH  10  26
TORSDOF 8
ENDMDL
MODEL 2
REMARK VINA RESULT: -8.293327081      1.003      1.003
REMARK  8 active torsions:
REMARK  status: ('A' for Active; 'I' for Inactive)
REMARK    1  A    between atoms: O1_2  and  C2_3 
REMARK    2  A    between atoms: C5_6  and  C6_7 
REMARK    3  A    between atoms: C6_7  and  N1_8 
REMARK    4  A    between atoms: C9_17  and  S1_18 
REMARK    5  A    between atoms: S1_18  and  N5_21 
REMARK    6  A    between atoms: N5_21  and  N6_23 
REMARK    7  A    between atoms: C10_28  and  O4_29 
REMARK    8  A    between atoms: C12_31  and  O5_32 
ROOT
HETATM    1  N1  UNL     1       9.619  11.686  -0.704  1.00  0.00    -0.222 N 
ATOM      2  H1  UNL     1       8.753  11.298  -0.329  1.00  0.00     0.178 HD
HETATM    3  C7  UNL     1      10.738  11.460  -0.067  1.00  0.00     0.682 A 
HETATM    4  N2  UNL     1      11.908  11.949  -0.515  1.00  0.00    -0.163 N 
ATOM      5  H2  UNL     1      11.927  12.507  -1.369  1.00  0.00     0.187 HD
HETATM    6  C8  UNL     1      13.068  11.706   0.158  1.00  0.00     0.208 A 
HETATM    7  N3  UNL     1      14.291  12.234  -0.340  1.00  0.00    -0.063 NA
HETATM    8  N4  UNL     1      13.043  10.971   1.285  1.00  0.00    -0.305 N 
ATOM      9  H4  UNL     1      13.911  10.789   1.789  1.00  0.00     0.170 HD
HETATM   10  C9  UNL     1      11.884  10.472   1.753  1.00  0.00     0.242 A 
HETATM   11  N7  UNL     1      10.777  10.734   1.063  1.00  0.00    -0.164 N 
ATOM     12  H7  UNL     1       9.897  10.357   1.416  1.00  0.00     0.186 HD
ENDROOT
BRANCH   1  13
HETATM   13  C6  UNL     1       9.563  12.456  -1.906  1.00  0.00     0.179 C 
BRANCH  13  14
HETATM   14  C5  UNL     1       8.761  11.717  -2.908  1.00  0.00    -0.004 A 
HETATM   15  C4  UNL     1       8.119  10.520  -2.659  1.00  0.00     0.014 A 
HETATM   16  C3  UNL     1       7.383   9.865  -3.622  1.00  0.00     0.040 A 
HETATM   17  C2  UNL     1       7.269  10.404  -4.883  1.00  0.00     0.104 A 
HETATM   18  C12 UNL     1       7.901  11.590  -5.143  1.00  0.00     0.135 A 
HETATM   19  C10 UNL     1       8.634  12.237  -4.173  1.00  0.00     0.112 A 
BRANCH  17  20
HETATM   20  O1  UNL     1       6.518   9.740  -5.872  1.00  0.00    -0.353 OA
HETATM   21  C1  UNL     1       5.150   9.485  -5.707  1.00  0.00     0.210 C 
ENDBRANCH  17  20
BRANCH  18  22
HETATM   22  O5  UNL     1       7.795  12.149  -6.410  1.00  0.00    -0.351 OA
HETATM   23  C13 UNL     1       6.785  13.083  -6.664  1.00  0.00     0.210 C 
ENDBRANCH  18  22
BRANCH  19  24
HETATM   24  O4  UNL     1       9.278  13.448  -4.439  1.00  0.00    -0.352 OA
HETATM   25  C11 UNL     1      10.509  13.409  -5.112  1.00  0.00     0.210 C 
ENDBRANCH  19  24
ENDBRANCH  13  14
ENDBRANCH   1  13
BRANCH  10  26
HETATM   26  S1  UNL     1      11.812   9.508   3.219  1.00  0.00     0.308 S 
HETATM   27  O2  UNL     1      11.718  10.466   4.395  1.00  0.00    -0.196 OA
HETATM   28  O3  UNL     1      13.065   8.702   3.376  1.00  0.00    -0.196 OA
BRANCH  26  29
HETATM   29  N5  UNL     1      10.472   8.462   3.214  1.00  0.00    -0.227 N 
ATOM     30  H5  UNL     1       9.554   8.716   2.852  1.00  0.00     0.199 HD
BRANCH  29  31
HETATM   31  N6  UNL     1      10.778   7.214   3.766  1.00  0.00    -0.336 N 
ATOM     32  H62 UNL     1      11.413   7.094   4.555  1.00  0.00     0.177 HD
ATOM     33  H61 UNL     1      10.294   6.454   3.287  1.00  0.00     0.177 HD
ENDBRANCH  29  31
ENDBRANCH  26  29
ENDBRANCH  10  26
TORSDOF 8
ENDMDL
MODEL 3
REMARK VINA RESULT: -8.024290479      1.635      2.867
REMARK  8 active torsions:
REMARK  status: ('A' for Active; 'I' for Inactive)
REMARK    1  A    between atoms: O1_2  and  C2_3 
REMARK    2  A    between atoms: C5_6  and  C6_7 
REMARK    3  A    between atoms: C6_7  and  N1_8 
REMARK    4  A    between atoms: C9_17  and  S1_18 
REMARK    5  A    between atoms: S1_18  and  N5_21 
REMARK    6  A    between atoms: N5_21  and  N6_23 
REMARK    7  A    between atoms: C10_28  and  O4_29 
REMARK    8  A    between atoms: C12_31  and  O5_32 
ROOT
HETATM    1  N1  UNL     1      11.760  12.562  -0.990  1.00  0.00    -0.222 N 
ATOM      2  H1  UNL     1      10.769  12.531  -0.749  1.00  0.00     0.178 HD
HETATM    3  C7  UNL     1      12.613  11.932  -0.226  1.00  0.00     0.682 A 
HETATM    4  N2  UNL     1      13.930  11.941  -0.496  1.00  0.00    -0.163 N 
ATOM      5  H2  UNL     1      14.275  12.449  -1.311  1.00  0.00     0.187 HD
HETATM    6  C8  UNL     1      14.811  11.280   0.309  1.00  0.00     0.208 A 
HETATM    7  N3  UNL     1      16.198  11.306  -0.001  1.00  0.00    -0.063 NA
HETATM    8  N4  UNL     1      14.356  10.611   1.384  1.00  0.00    -0.305 N 
ATOM      9  H4  UNL     1      15.015  10.116   1.986  1.00  0.00     0.170 HD
HETATM   10  C9  UNL     1      13.043  10.588   1.674  1.00  0.00     0.242 A 
HETATM   11  N7  UNL     1      12.220  11.247   0.861  1.00  0.00    -0.164 N 
ATOM     12  H7  UNL     1      11.224  11.231   1.079  1.00  0.00     0.186 HD
ENDROOT
BRANCH   1  13
HETATM   13  C6  UNL     1      12.162  13.293  -2.149  1.00  0.00     0.179 C 
BRANCH  13  14
HETATM   14  C5  UNL     1      11.101  13.179  -3.177  1.00  0.00    -0.004 A 
HETATM   15  C4  UNL     1      10.363  14.245  -3.651  1.00  0.00     0.014 A 
HETATM   16  C3  UNL     1       9.384  14.093  -4.609  1.00  0.00     0.040 A 
HETATM   17  C2  UNL     1       9.117  12.846  -5.126  1.00  0.00     0.104 A 
HETATM   18  C12 UNL     1       9.843  11.782  -4.664  1.00  0.00     0.135 A 
HETATM   19  C10 UNL     1      10.819  11.944  -3.707  1.00  0.00     0.112 A 
BRANCH  17  20
HETATM   20  O1  UNL     1       8.118  12.684  -6.106  1.00  0.00    -0.353 OA
HETATM   21  C1  UNL     1       6.759  12.648  -5.767  1.00  0.00     0.210 C 
ENDBRANCH  17  20
BRANCH  18  22
HETATM   22  O5  UNL     1       9.587  10.516  -5.176  1.00  0.00    -0.351 OA
HETATM   23  C13 UNL     1       8.640   9.702  -4.544  1.00  0.00     0.210 C 
ENDBRANCH  18  22
BRANCH  19  24
HETATM   24  O4  UNL     1      11.560  10.857  -3.236  1.00  0.00    -0.352 OA
HETATM   25  C11 UNL     1      12.712  10.484  -3.946  1.00  0.00     0.210 C 
ENDBRANCH  19  24
ENDBRANCH  13  14
ENDBRANCH   1  13
BRANCH  10  26
HETATM   26  S1  UNL     1      12.413   9.726   3.068  1.00  0.00     0.308 S 
HETATM   27  O2  UNL     1      12.519  10.652   4.268  1.00  0.00    -0.196 OA
HETATM   28  O3  UNL     1      13.241   8.508   3.348  1.00  0.00    -0.196 OA
BRANCH  26  29
HETATM   29  N5  UNL     1      10.795   9.259   2.838  1.00  0.00    -0.227 N 
ATOM     30  H5  UNL     1      10.095   9.841   2.378  1.00  0.00     0.199 HD
BRANCH  29  31
HETATM   31  N6  UNL     1      10.536   7.985   3.352  1.00  0.00    -0.336 N 
ATOM     32  H62 UNL     1      11.268   7.365   3.698  1.00  0.00     0.177 HD
ATOM     33  H61 UNL     1       9.541   7.760   3.336  1.00  0.00     0.177 HD
ENDBRANCH  29  31
ENDBRANCH  26  29
ENDBRANCH  10  26
TORSDOF 8
ENDMDL
MODEL 4
REMARK VINA RESULT: -7.970659993      4.954      7.029
REMARK  8 active torsions:
REMARK  status: ('A' for Active; 'I' for Inactive)
REMARK    1  A    between atoms: O1_2  and  C2_3 
REMARK    2  A    between atoms: C5_6  and  C6_7 
REMARK    3  A    between atoms: C6_7  and  N1_8 
REMARK    4  A    between atoms: C9_17  and  S1_18 
REMARK    5  A    between atoms: S1_18  and  N5_21 
REMARK    6  A    between atoms: N5_21  and  N6_23 
REMARK    7  A    between atoms: C10_28  and  O4_29 
REMARK    8  A    between atoms: C12_31  and  O5_32 
ROOT
HETATM    1  N1  UNL     1      13.632  11.725  -0.812  1.00  0.00    -0.222 N 
ATOM      2  H1  UNL     1      14.529  11.436  -0.421  1.00  0.00     0.178 HD
HETATM    3  C7  UNL     1      12.539  11.450  -0.149  1.00  0.00     0.682 A 
HETATM    4  N2  UNL     1      11.330  11.806  -0.617  1.00  0.00    -0.163 N 
ATOM      5  H2  UNL     1      11.260  12.301  -1.507  1.00  0.00     0.187 HD
HETATM    6  C8  UNL     1      10.198  11.514   0.083  1.00  0.00     0.208 A 
HETATM    7  N3  UNL     1       8.933  11.904  -0.436  1.00  0.00    -0.063 NA
HETATM    8  N4  UNL     1      10.290  10.861   1.257  1.00  0.00    -0.305 N 
ATOM      9  H4  UNL     1       9.443  10.642   1.781  1.00  0.00     0.170 HD
HETATM   10  C9  UNL     1      11.489  10.494   1.745  1.00  0.00     0.242 A 
HETATM   11  N7  UNL     1      12.568  10.801   1.027  1.00  0.00    -0.164 N 
ATOM     12  H7  UNL     1      13.478  10.524   1.395  1.00  0.00     0.186 HD
ENDROOT
BRANCH   1  13
HETATM   13  C6  UNL     1      13.617  12.415  -2.062  1.00  0.00     0.179 C 
BRANCH  13  14
HETATM   14  C5  UNL     1      13.959  13.837  -1.826  1.00  0.00    -0.004 A 
HETATM   15  C4  UNL     1      13.031  14.856  -1.749  1.00  0.00     0.014 A 
HETATM   16  C3  UNL     1      13.393  16.167  -1.528  1.00  0.00     0.040 A 
HETATM   17  C2  UNL     1      14.721  16.495  -1.374  1.00  0.00     0.104 A 
HETATM   18  C12 UNL     1      15.651  15.494  -1.448  1.00  0.00     0.135 A 
HETATM   19  C10 UNL     1      15.278  14.187  -1.669  1.00  0.00     0.112 A 
BRANCH  17  20
HETATM   20  O1  UNL     1      15.098  17.833  -1.147  1.00  0.00    -0.353 OA
HETATM   21  C1  UNL     1      15.071  18.786  -2.174  1.00  0.00     0.210 C 
ENDBRANCH  17  20
BRANCH  18  22
HETATM   22  O5  UNL     1      16.995  15.807  -1.294  1.00  0.00    -0.351 OA
HETATM   23  C13 UNL     1      17.749  16.156  -2.421  1.00  0.00     0.210 C 
ENDBRANCH  18  22
BRANCH  19  24
HETATM   24  O4  UNL     1      16.228  13.165  -1.744  1.00  0.00    -0.352 OA
HETATM   25  C11 UNL     1      16.883  12.783  -0.563  1.00  0.00     0.210 C 
ENDBRANCH  19  24
ENDBRANCH  13  14
ENDBRANCH   1  13
BRANCH  10  26
HETATM   26  S1  UNL     1      11.649   9.642   3.271  1.00  0.00     0.308 S 
HETATM   27  O2  UNL     1      11.569  10.673   4.385  1.00  0.00    -0.196 OA
HETATM   28  O3  UNL     1      12.986   8.970   3.357  1.00  0.00    -0.196 OA
BRANCH  26  29
HETATM   29  N5  UNL     1      10.426   8.478   3.470  1.00  0.00    -0.227 N 
ATOM     30  H5  UNL     1       9.431   8.677   3.373  1.00  0.00     0.199 HD
BRANCH  29  31
HETATM   31  N6  UNL     1      10.945   7.217   3.780  1.00  0.00    -0.336 N 
ATOM     32  H62 UNL     1      11.682   7.072   4.470  1.00  0.00     0.177 HD
ATOM     33  H61 UNL     1      10.500   6.475   3.239  1.00  0.00     0.177 HD
ENDBRANCH  29  31
ENDBRANCH  26  29
ENDBRANCH  10  26
TORSDOF 8
ENDMDL
MODEL 5
REMARK VINA RESULT: -7.889810406      4.997      7.656
REMARK  8 active torsions:
REMARK  status: ('A' for Active; 'I' for Inactive)
REMARK    1  A    between atoms: O1_2  and  C2_3 
REMARK    2  A    between atoms: C5_6  and  C6_7 
REMARK    3  A    between atoms: C6_7  and  N1_8 
REMARK    4  A    between atoms: C9_17  and  S1_18 
REMARK    5  A    between atoms: S1_18  and  N5_21 
REMARK    6  A    between atoms: N5_21  and  N6_23 
REMARK    7  A    between atoms: C10_28  and  O4_29 
REMARK    8  A    between atoms: C12_31  and  O5_32 
ROOT
HETATM    1  N1  UNL     1      13.745  11.886  -0.507  1.00  0.00    -0.222 N 
ATOM      2  H1  UNL     1      14.633  11.582  -0.108  1.00  0.00     0.178 HD
HETATM    3  C7  UNL     1      12.635  11.545   0.092  1.00  0.00     0.682 A 
HETATM    4  N2  UNL     1      11.437  11.917  -0.391  1.00  0.00    -0.163 N 
ATOM      5  H2  UNL     1      11.389  12.477  -1.243  1.00  0.00     0.187 HD
HETATM    6  C8  UNL     1      10.286  11.555   0.243  1.00  0.00     0.208 A 
HETATM    7  N3  UNL     1       9.033  11.964  -0.290  1.00  0.00    -0.063 NA
HETATM    8  N4  UNL     1      10.349  10.815   1.366  1.00  0.00    -0.305 N 
ATOM      9  H4  UNL     1       9.488  10.543   1.841  1.00  0.00     0.170 HD
HETATM   10  C9  UNL     1      11.537  10.430   1.868  1.00  0.00     0.242 A 
HETATM   11  N7  UNL     1      12.634  10.807   1.216  1.00  0.00    -0.164 N 
ATOM     12  H7  UNL     1      13.535  10.516   1.594  1.00  0.00     0.186 HD
ENDROOT
BRANCH   1  13
HETATM   13  C6  UNL     1      13.762  12.670  -1.701  1.00  0.00     0.179 C 
BRANCH  13  14
HETATM   14  C5  UNL     1      14.895  13.622  -1.630  1.00  0.00    -0.004 A 
HETATM   15  C4  UNL     1      14.790  14.918  -1.166  1.00  0.00     0.014 A 
HETATM   16  C3  UNL     1      15.871  15.772  -1.117  1.00  0.00     0.040 A 
HETATM   17  C2  UNL     1      17.107  15.339  -1.539  1.00  0.00     0.104 A 
HETATM   18  C12 UNL     1      17.223  14.056  -2.001  1.00  0.00     0.135 A 
HETATM   19  C10 UNL     1      16.137  13.211  -2.046  1.00  0.00     0.112 A 
BRANCH  17  20
HETATM   20  O1  UNL     1      18.215  16.207  -1.492  1.00  0.00    -0.353 OA
HETATM   21  C1  UNL     1      18.481  17.114  -2.526  1.00  0.00     0.210 C 
ENDBRANCH  17  20
BRANCH  18  22
HETATM   22  O5  UNL     1      18.464  13.602  -2.431  1.00  0.00    -0.351 OA
HETATM   23  C13 UNL     1      18.760  13.614  -3.799  1.00  0.00     0.210 C 
ENDBRANCH  18  22
BRANCH  19  24
HETATM   24  O4  UNL     1      16.257  11.901  -2.517  1.00  0.00    -0.352 OA
HETATM   25  C11 UNL     1      16.886  10.956  -1.692  1.00  0.00     0.210 C 
ENDBRANCH  19  24
ENDBRANCH  13  14
ENDBRANCH   1  13
BRANCH  10  26
HETATM   26  S1  UNL     1      11.658   9.465   3.330  1.00  0.00     0.308 S 
HETATM   27  O2  UNL     1      11.582  10.413   4.515  1.00  0.00    -0.196 OA
HETATM   28  O3  UNL     1      12.980   8.762   3.383  1.00  0.00    -0.196 OA
BRANCH  26  29
HETATM   29  N5  UNL     1      10.410   8.315   3.427  1.00  0.00    -0.227 N 
ATOM     30  H5  UNL     1       9.437   8.511   3.195  1.00  0.00     0.199 HD
BRANCH  29  31
HETATM   31  N6  UNL     1      10.875   7.070   3.861  1.00  0.00    -0.336 N 
ATOM     32  H62 UNL     1      11.840   6.763   3.743  1.00  0.00     0.177 HD
ATOM     33  H61 UNL     1      10.138   6.518   4.302  1.00  0.00     0.177 HD
ENDBRANCH  29  31
ENDBRANCH  26  29
ENDBRANCH  10  26
TORSDOF 8
ENDMDL
