MODEL 1
REMARK VINA RESULT: -8.823451558      0.000      0.000
REMARK  11 active torsions:
REMARK  status: ('A' for Active; 'I' for Inactive)
REMARK    1  A    between atoms: C2_2  and  N1_3 
REMARK    2  A    between atoms: N1_3  and  C3_5 
REMARK    3  A    between atoms: C4_8  and  N3_9 
REMARK    4  A    between atoms: N3_9  and  N4_11 
REMARK    5  A    between atoms: N4_11  and  N5_12 
REMARK    6  A    between atoms: N4_11  and  O1_15 
REMARK    7  A    between atoms: C5_19  and  N7_20 
REMARK    8  A    between atoms: N7_20  and  N8_22 
REMARK    9  A    between atoms: C6_24  and  C7_25 
REMARK   10  A    between atoms: C6_24  and  C8_28 
REMARK   11  A    between atoms: C11_31  and  N10_32 
ROOT
HETATM    1  C3  UNL     1      12.824  11.506   0.312  1.00  0.00     0.707 A 
HETATM    2  N2  UNL     1      12.518  10.684   1.332  1.00  0.00    -0.020 N 
ATOM      3  H2  UNL     1      13.272  10.232   1.850  1.00  0.00     0.203 HD
HETATM    4  C4  UNL     1      11.232  10.442   1.688  1.00  0.00     0.725 A 
HETATM    5  N6  UNL     1      10.252  11.050   0.990  1.00  0.00    -0.019 N 
ATOM      6  H6  UNL     1       9.280  10.877   1.248  1.00  0.00     0.203 HD
HETATM    7  C5  UNL     1      10.517  11.876  -0.032  1.00  0.00     0.726 A 
HETATM    8  N11 UNL     1      11.807  12.084  -0.349  1.00  0.00    -0.020 N 
ATOM      9  H11 UNL     1      12.024  12.709  -1.126  1.00  0.00     0.203 HD
ENDROOT
BRANCH   7  10
HETATM   10  N7  UNL     1       9.538  12.423  -0.657  1.00  0.00    -0.130 N 
ATOM     11  H7  UNL     1       9.313  13.403  -0.484  1.00  0.00     0.205 HD
BRANCH  10  12
HETATM   12  N8  UNL     1       8.793  11.702  -1.552  1.00  0.00    -0.281 N 
HETATM   13  C6  UNL     1       8.890  11.801  -2.852  1.00  0.00     0.123 C 
ATOM     14  H8  UNL     1       8.114  11.039  -1.177  1.00  0.00     0.188 HD
BRANCH  13  15
HETATM   15  C7  UNL     1       9.842  12.727  -3.361  1.00  0.00     0.283 C 
HETATM   16  N9  UNL     1      11.202  12.414  -3.570  1.00  0.00    -0.056 NA
HETATM   17  O2  UNL     1       9.458  13.929  -3.653  1.00  0.00    -0.269 OA
ENDBRANCH  13  15
BRANCH  13  18
HETATM   18  C8  UNL     1       8.004  10.942  -3.612  1.00  0.00    -0.003 A 
HETATM   19  C9  UNL     1       7.869   9.594  -3.486  1.00  0.00     0.016 A 
HETATM   20  C10 UNL     1       6.976   8.867  -4.280  1.00  0.00     0.037 A 
HETATM   21  C11 UNL     1       6.184   9.460  -5.229  1.00  0.00     0.102 A 
HETATM   22  C12 UNL     1       6.321  10.824  -5.355  1.00  0.00     0.037 A 
HETATM   23  C13 UNL     1       7.193  11.544  -4.584  1.00  0.00     0.016 A 
BRANCH  21  24
HETATM   24  N10 UNL     1       5.277   8.716  -6.034  1.00  0.00    -0.116 N 
HETATM   25  O3  UNL     1       4.840   7.637  -5.615  1.00  0.00    -0.532 OA
HETATM   26  O4  UNL     1       4.879   9.173  -7.259  1.00  0.00    -0.532 OA
ENDBRANCH  21  24
ENDBRANCH  13  18
ENDBRANCH  10  12
ENDBRANCH   7  10
BRANCH   4  27
HETATM   27  N3  UNL     1      10.882   9.579   2.761  1.00  0.00    -0.108 N 
ATOM     28  H3  UNL     1       9.961   9.141   2.789  1.00  0.00     0.203 HD
BRANCH  27  29
HETATM   29  N4  UNL     1      11.808   9.335   3.776  1.00  0.00     0.004 NA
BRANCH  29  30
HETATM   30  N5  UNL     1      12.287  10.511   4.341  1.00  0.00    -0.322 NA
ATOM     31  H52 UNL     1      11.730  11.295   4.000  1.00  0.00     0.175 HD
ATOM     32  H51 UNL     1      12.229  10.499   5.359  1.00  0.00     0.175 HD
ENDBRANCH  29  30
BRANCH  29  33
HETATM   33  O1  UNL     1      12.849   8.642   3.242  1.00  0.00    -0.276 OA
ATOM     34  H1  UNL     1      13.646   9.134   3.403  1.00  0.00     0.241 HD
ENDBRANCH  29  33
ENDBRANCH  27  29
ENDBRANCH   4  27
BRANCH   1  35
HETATM   35  N1  UNL     1      14.069  11.679   0.043  1.00  0.00    -0.225 N 
ATOM     36  H1  UNL     1      14.320  12.345  -0.688  1.00  0.00     0.177 HD
BRANCH  35  37
HETATM   37  C2  UNL     1      15.131  10.973   0.728  1.00  0.00     0.133 C 
HETATM   38  C1  UNL     1      16.495  11.519   0.388  1.00  0.00     0.027 C 
ENDBRANCH  35  37
ENDBRANCH   1  35
TORSDOF 11
ENDMDL
MODEL 2
REMARK VINA RESULT: -8.773292483      1.616      1.859
REMARK  11 active torsions:
REMARK  status: ('A' for Active; 'I' for Inactive)
REMARK    1  A    between atoms: C2_2  and  N1_3 
REMARK    2  A    between atoms: N1_3  and  C3_5 
REMARK    3  A    between atoms: C4_8  and  N3_9 
REMARK    4  A    between atoms: N3_9  and  N4_11 
REMARK    5  A    between atoms: N4_11  and  N5_12 
REMARK    6  A    between atoms: N4_11  and  O1_15 
REMARK    7  A    between atoms: C5_19  and  N7_20 
REMARK    8  A    between atoms: N7_20  and  N8_22 
REMARK    9  A    between atoms: C6_24  and  C7_25 
REMARK   10  A    between atoms: C6_24  and  C8_28 
REMARK   11  A    between atoms: C11_31  and  N10_32 
ROOT
HETATM    1  C3  UNL     1      13.259  10.598   1.486  1.00  0.00     0.707 A 
HETATM    2  N2  UNL     1      12.707   9.798   2.416  1.00  0.00    -0.020 N 
ATOM      3  H2  UNL     1      13.304   9.153   2.934  1.00  0.00     0.203 HD
HETATM    4  C4  UNL     1      11.378   9.827   2.681  1.00  0.00     0.725 A 
HETATM    5  N6  UNL     1      10.608  10.688   1.984  1.00  0.00    -0.019 N 
ATOM      6  H6  UNL     1       9.606  10.721   2.173  1.00  0.00     0.203 HD
HETATM    7  C5  UNL     1      11.120  11.501   1.050  1.00  0.00     0.726 A 
HETATM    8  N11 UNL     1      12.444  11.435   0.822  1.00  0.00    -0.020 N 
ATOM      9  H11 UNL     1      12.848  12.047   0.113  1.00  0.00     0.203 HD
ENDROOT
BRANCH   7  10
HETATM   10  N7  UNL     1      10.334  12.296   0.422  1.00  0.00    -0.130 N 
ATOM     11  H7  UNL     1      10.265  13.273   0.711  1.00  0.00     0.205 HD
BRANCH  10  12
HETATM   12  N8  UNL     1       9.585  11.846  -0.634  1.00  0.00    -0.281 N 
HETATM   13  C6  UNL     1       9.910  11.990  -1.892  1.00  0.00     0.123 C 
ATOM     14  H8  UNL     1       8.712  11.363  -0.422  1.00  0.00     0.188 HD
BRANCH  13  15
HETATM   15  C7  UNL     1      11.130  12.665  -2.172  1.00  0.00     0.283 C 
HETATM   16  N9  UNL     1      11.229  14.062  -2.345  1.00  0.00    -0.056 NA
HETATM   17  O2  UNL     1      12.220  11.975  -2.279  1.00  0.00    -0.269 OA
ENDBRANCH  13  15
BRANCH  13  18
HETATM   18  C8  UNL     1       8.971  11.436  -2.846  1.00  0.00    -0.003 A 
HETATM   19  C9  UNL     1       8.296  10.260  -2.737  1.00  0.00     0.016 A 
HETATM   20  C10 UNL     1       7.409   9.826  -3.728  1.00  0.00     0.037 A 
HETATM   21  C11 UNL     1       7.165  10.550  -4.867  1.00  0.00     0.102 A 
HETATM   22  C12 UNL     1       7.849  11.740  -4.975  1.00  0.00     0.037 A 
HETATM   23  C13 UNL     1       8.718  12.173  -4.012  1.00  0.00     0.016 A 
BRANCH  21  24
HETATM   24  N10 UNL     1       6.263  10.104  -5.872  1.00  0.00    -0.116 N 
HETATM   25  O3  UNL     1       5.905   8.920  -5.882  1.00  0.00    -0.532 OA
HETATM   26  O4  UNL     1       5.785  10.959  -6.825  1.00  0.00    -0.532 OA
ENDBRANCH  21  24
ENDBRANCH  13  18
ENDBRANCH  10  12
ENDBRANCH   7  10
BRANCH   4  27
HETATM   27  N3  UNL     1      10.770   8.993   3.657  1.00  0.00    -0.108 N 
ATOM     28  H3  UNL     1      10.544   9.362   4.580  1.00  0.00     0.203 HD
BRANCH  27  29
HETATM   29  N4  UNL     1      10.485   7.663   3.342  1.00  0.00     0.004 NA
BRANCH  29  30
HETATM   30  N5  UNL     1       9.128   7.383   3.437  1.00  0.00    -0.322 NA
ATOM     31  H52 UNL     1       8.678   8.100   4.006  1.00  0.00     0.175 HD
ATOM     32  H51 UNL     1       8.674   7.371   2.523  1.00  0.00     0.175 HD
ENDBRANCH  29  30
BRANCH  29  33
HETATM   33  O1  UNL     1      11.165   6.867   4.210  1.00  0.00    -0.276 OA
ATOM     34  H1  UNL     1      10.539   6.299   4.642  1.00  0.00     0.241 HD
ENDBRANCH  29  33
ENDBRANCH  27  29
ENDBRANCH   4  27
BRANCH   1  35
HETATM   35  N1  UNL     1      14.527  10.504   1.299  1.00  0.00    -0.225 N 
ATOM     36  H1  UNL     1      15.080   9.978   1.976  1.00  0.00     0.177 HD
BRANCH  35  37
HETATM   37  C2  UNL     1      15.208  11.110   0.174  1.00  0.00     0.133 C 
HETATM   38  C1  UNL     1      16.580  11.617   0.538  1.00  0.00     0.027 C 
ENDBRANCH  35  37
ENDBRANCH   1  35
TORSDOF 11
ENDMDL
MODEL 3
REMARK VINA RESULT: -8.751207884      0.249      1.093
REMARK  11 active torsions:
REMARK  status: ('A' for Active; 'I' for Inactive)
REMARK    1  A    between atoms: C2_2  and  N1_3 
REMARK    2  A    between atoms: N1_3  and  C3_5 
REMARK    3  A    between atoms: C4_8  and  N3_9 
REMARK    4  A    between atoms: N3_9  and  N4_11 
REMARK    5  A    between atoms: N4_11  and  N5_12 
REMARK    6  A    between atoms: N4_11  and  O1_15 
REMARK    7  A    between atoms: C5_19  and  N7_20 
REMARK    8  A    between atoms: N7_20  and  N8_22 
REMARK    9  A    between atoms: C6_24  and  C7_25 
REMARK   10  A    between atoms: C6_24  and  C8_28 
REMARK   11  A    between atoms: C11_31  and  N10_32 
ROOT
HETATM    1  C3  UNL     1      12.759  11.506   0.353  1.00  0.00     0.707 A 
HETATM    2  N2  UNL     1      12.423  10.593   1.282  1.00  0.00    -0.020 N 
ATOM      3  H2  UNL     1      13.162  10.104   1.787  1.00  0.00     0.203 HD
HETATM    4  C4  UNL     1      11.128  10.307   1.563  1.00  0.00     0.725 A 
HETATM    5  N6  UNL     1      10.168  10.967   0.883  1.00  0.00    -0.019 N 
ATOM      6  H6  UNL     1       9.189  10.763   1.085  1.00  0.00     0.203 HD
HETATM    7  C5  UNL     1      10.462  11.883  -0.050  1.00  0.00     0.726 A 
HETATM    8  N11 UNL     1      11.761  12.131  -0.294  1.00  0.00    -0.020 N 
ATOM      9  H11 UNL     1      12.001  12.826  -1.003  1.00  0.00     0.203 HD
ENDROOT
BRANCH   7  10
HETATM   10  N7  UNL     1       9.502  12.475  -0.662  1.00  0.00    -0.130 N 
ATOM     11  H7  UNL     1       9.301  13.455  -0.459  1.00  0.00     0.205 HD
BRANCH  10  12
HETATM   12  N8  UNL     1       8.745  11.802  -1.584  1.00  0.00    -0.281 N 
HETATM   13  C6  UNL     1       8.872  11.920  -2.881  1.00  0.00     0.123 C 
ATOM     14  H8  UNL     1       8.030  11.163  -1.234  1.00  0.00     0.188 HD
BRANCH  13  15
HETATM   15  C7  UNL     1       9.872  12.814  -3.354  1.00  0.00     0.283 C 
HETATM   16  N9  UNL     1      11.232  12.462  -3.493  1.00  0.00    -0.056 NA
HETATM   17  O2  UNL     1       9.535  14.021  -3.679  1.00  0.00    -0.269 OA
ENDBRANCH  13  15
BRANCH  13  18
HETATM   18  C8  UNL     1       7.965  11.114  -3.672  1.00  0.00    -0.003 A 
HETATM   19  C9  UNL     1       7.079  11.559  -4.604  1.00  0.00     0.016 A 
HETATM   20  C10 UNL     1       6.250  10.681  -5.310  1.00  0.00     0.037 A 
HETATM   21  C11 UNL     1       6.274   9.325  -5.111  1.00  0.00     0.102 A 
HETATM   22  C12 UNL     1       7.171   8.876  -4.167  1.00  0.00     0.037 A 
HETATM   23  C13 UNL     1       7.986   9.727  -3.472  1.00  0.00     0.016 A 
BRANCH  21  24
HETATM   24  N10 UNL     1       5.429   8.436  -5.830  1.00  0.00    -0.116 N 
HETATM   25  O3  UNL     1       5.071   8.735  -6.976  1.00  0.00    -0.532 OA
HETATM   26  O4  UNL     1       5.006   7.259  -5.279  1.00  0.00    -0.532 OA
ENDBRANCH  21  24
ENDBRANCH  13  18
ENDBRANCH  10  12
ENDBRANCH   7  10
BRANCH   4  27
HETATM   27  N3  UNL     1      10.747   9.349   2.539  1.00  0.00    -0.108 N 
ATOM     28  H3  UNL     1       9.913   8.778   2.401  1.00  0.00     0.203 HD
BRANCH  27  29
HETATM   29  N4  UNL     1      11.523   9.194   3.689  1.00  0.00     0.004 NA
BRANCH  29  30
HETATM   30  N5  UNL     1      11.717  10.398   4.354  1.00  0.00    -0.322 NA
ATOM     31  H52 UNL     1      12.038  10.207   5.303  1.00  0.00     0.175 HD
ATOM     32  H51 UNL     1      12.415  10.983   3.894  1.00  0.00     0.175 HD
ENDBRANCH  29  30
BRANCH  29  33
HETATM   33  O1  UNL     1      12.731   8.690   3.320  1.00  0.00    -0.276 OA
ATOM     34  H1  UNL     1      12.715   7.751   3.460  1.00  0.00     0.241 HD
ENDBRANCH  29  33
ENDBRANCH  27  29
ENDBRANCH   4  27
BRANCH   1  35
HETATM   35  N1  UNL     1      14.011  11.714   0.150  1.00  0.00    -0.225 N 
ATOM     36  H1  UNL     1      14.282  12.445  -0.508  1.00  0.00     0.177 HD
BRANCH  35  37
HETATM   37  C2  UNL     1      15.054  10.959   0.811  1.00  0.00     0.133 C 
HETATM   38  C1  UNL     1      16.434  11.430   0.428  1.00  0.00     0.027 C 
ENDBRANCH  35  37
ENDBRANCH   1  35
TORSDOF 11
ENDMDL
MODEL 4
REMARK VINA RESULT: -8.616086646      1.928      2.493
REMARK  11 active torsions:
REMARK  status: ('A' for Active; 'I' for Inactive)
REMARK    1  A    between atoms: C2_2  and  N1_3 
REMARK    2  A    between atoms: N1_3  and  C3_5 
REMARK    3  A    between atoms: C4_8  and  N3_9 
REMARK    4  A    between atoms: N3_9  and  N4_11 
REMARK    5  A    between atoms: N4_11  and  N5_12 
REMARK    6  A    between atoms: N4_11  and  O1_15 
REMARK    7  A    between atoms: C5_19  and  N7_20 
REMARK    8  A    between atoms: N7_20  and  N8_22 
REMARK    9  A    between atoms: C6_24  and  C7_25 
REMARK   10  A    between atoms: C6_24  and  C8_28 
REMARK   11  A    between atoms: C11_31  and  N10_32 
ROOT
HETATM    1  C3  UNL     1      12.574  12.639  -0.567  1.00  0.00     0.707 A 
HETATM    2  N2  UNL     1      11.953  12.145   0.519  1.00  0.00    -0.020 N 
ATOM      3  H2  UNL     1      12.073  12.614   1.417  1.00  0.00     0.203 HD
HETATM    4  C4  UNL     1      11.172  11.039   0.450  1.00  0.00     0.725 A 
HETATM    5  N6  UNL     1      11.026  10.435  -0.748  1.00  0.00    -0.019 N 
ATOM      6  H6  UNL     1      10.441   9.603  -0.814  1.00  0.00     0.203 HD
HETATM    7  C5  UNL     1      11.629  10.897  -1.852  1.00  0.00     0.726 A 
HETATM    8  N11 UNL     1      12.395  11.996  -1.733  1.00  0.00    -0.020 N 
ATOM      9  H11 UNL     1      12.861  12.359  -2.565  1.00  0.00     0.203 HD
ENDROOT
BRANCH   7  10
HETATM   10  N7  UNL     1      11.451  10.276  -2.961  1.00  0.00    -0.130 N 
ATOM     11  H7  UNL     1      12.253   9.888  -3.457  1.00  0.00     0.205 HD
BRANCH  10  12
HETATM   12  N8  UNL     1      10.192  10.129  -3.482  1.00  0.00    -0.281 N 
HETATM   13  C6  UNL     1       9.644  10.945  -4.345  1.00  0.00     0.123 C 
ATOM     14  H8  UNL     1       9.644   9.325  -3.176  1.00  0.00     0.188 HD
BRANCH  13  15
HETATM   15  C7  UNL     1      10.420  12.061  -4.764  1.00  0.00     0.283 C 
HETATM   16  N9  UNL     1      10.433  13.301  -4.089  1.00  0.00    -0.056 NA
HETATM   17  O2  UNL     1      11.161  11.952  -5.820  1.00  0.00    -0.269 OA
ENDBRANCH  13  15
BRANCH  13  18
HETATM   18  C8  UNL     1       8.301  10.599  -4.765  1.00  0.00    -0.003 A 
HETATM   19  C9  UNL     1       7.506  11.302  -5.616  1.00  0.00     0.016 A 
HETATM   20  C10 UNL     1       6.219  10.866  -5.950  1.00  0.00     0.037 A 
HETATM   21  C11 UNL     1       5.678   9.712  -5.445  1.00  0.00     0.102 A 
HETATM   22  C12 UNL     1       6.484   9.002  -4.583  1.00  0.00     0.037 A 
HETATM   23  C13 UNL     1       7.744   9.420  -4.251  1.00  0.00     0.016 A 
BRANCH  21  24
HETATM   24  N10 UNL     1       4.369   9.274  -5.786  1.00  0.00    -0.116 N 
HETATM   25  O3  UNL     1       4.189   8.090  -6.095  1.00  0.00    -0.532 OA
HETATM   26  O4  UNL     1       3.309  10.136  -5.777  1.00  0.00    -0.532 OA
ENDBRANCH  21  24
ENDBRANCH  13  18
ENDBRANCH  10  12
ENDBRANCH   7  10
BRANCH   4  27
HETATM   27  N3  UNL     1      10.505  10.497   1.581  1.00  0.00    -0.108 N 
ATOM     28  H3  UNL     1       9.489  10.552   1.654  1.00  0.00     0.203 HD
BRANCH  27  29
HETATM   29  N4  UNL     1      11.251   9.890   2.592  1.00  0.00     0.004 NA
BRANCH  29  30
HETATM   30  N5  UNL     1      12.536   9.567   2.171  1.00  0.00    -0.322 NA
ATOM     31  H52 UNL     1      12.512   8.669   1.688  1.00  0.00     0.175 HD
ATOM     32  H51 UNL     1      12.916  10.263   1.530  1.00  0.00     0.175 HD
ENDBRANCH  29  30
BRANCH  29  33
HETATM   33  O1  UNL     1      10.608   8.753   2.969  1.00  0.00    -0.276 OA
ATOM     34  H1  UNL     1      10.963   8.475   3.805  1.00  0.00     0.241 HD
ENDBRANCH  29  33
ENDBRANCH  27  29
ENDBRANCH   4  27
BRANCH   1  35
HETATM   35  N1  UNL     1      13.296  13.691  -0.411  1.00  0.00    -0.225 N 
ATOM     36  H1  UNL     1      13.863  13.770   0.434  1.00  0.00     0.177 HD
BRANCH  35  37
HETATM   37  C2  UNL     1      13.344  14.768  -1.377  1.00  0.00     0.133 C 
HETATM   38  C1  UNL     1      12.244  15.777  -1.165  1.00  0.00     0.027 C 
ENDBRANCH  35  37
ENDBRANCH   1  35
TORSDOF 11
ENDMDL
MODEL 5
REMARK VINA RESULT: -8.478535608      2.966      4.827
REMARK  11 active torsions:
REMARK  status: ('A' for Active; 'I' for Inactive)
REMARK    1  A    between atoms: C2_2  and  N1_3 
REMARK    2  A    between atoms: N1_3  and  C3_5 
REMARK    3  A    between atoms: C4_8  and  N3_9 
REMARK    4  A    between atoms: N3_9  and  N4_11 
REMARK    5  A    between atoms: N4_11  and  N5_12 
REMARK    6  A    between atoms: N4_11  and  O1_15 
REMARK    7  A    between atoms: C5_19  and  N7_20 
REMARK    8  A    between atoms: N7_20  and  N8_22 
REMARK    9  A    between atoms: C6_24  and  C7_25 
REMARK   10  A    between atoms: C6_24  and  C8_28 
REMARK   11  A    between atoms: C11_31  and  N10_32 
ROOT
HETATM    1  C3  UNL     1      13.145  10.544   1.516  1.00  0.00     0.707 A 
HETATM    2  N2  UNL     1      12.734   9.745   2.517  1.00  0.00    -0.020 N 
ATOM      3  H2  UNL     1      13.425   9.205   3.038  1.00  0.00     0.203 HD
HETATM    4  C4  UNL     1      11.424   9.639   2.849  1.00  0.00     0.725 A 
HETATM    5  N6  UNL     1      10.528  10.363   2.147  1.00  0.00    -0.019 N 
ATOM      6  H6  UNL     1       9.539  10.293   2.387  1.00  0.00     0.203 HD
HETATM    7  C5  UNL     1      10.899  11.170   1.144  1.00  0.00     0.726 A 
HETATM    8  N11 UNL     1      12.210  11.241   0.850  1.00  0.00    -0.020 N 
ATOM      9  H11 UNL     1      12.507  11.850   0.088  1.00  0.00     0.203 HD
ENDROOT
BRANCH   7  10
HETATM   10  N7  UNL     1       9.997  11.831   0.514  1.00  0.00    -0.130 N 
ATOM     11  H7  UNL     1       9.033  11.814   0.848  1.00  0.00     0.205 HD
BRANCH  10  12
HETATM   12  N8  UNL     1      10.318  12.558  -0.602  1.00  0.00    -0.281 N 
HETATM   13  C6  UNL     1       9.802  12.367  -1.789  1.00  0.00     0.123 C 
ATOM     14  H8  UNL     1      11.008  13.302  -0.499  1.00  0.00     0.188 HD
BRANCH  13  15
HETATM   15  C7  UNL     1       8.841  11.327  -1.917  1.00  0.00     0.283 C 
HETATM   16  N9  UNL     1       7.467  11.495  -1.643  1.00  0.00    -0.056 NA
HETATM   17  O2  UNL     1       9.230  10.154  -2.305  1.00  0.00    -0.269 OA
ENDBRANCH  13  15
BRANCH  13  18
HETATM   18  C8  UNL     1      10.286  13.252  -2.829  1.00  0.00    -0.003 A 
HETATM   19  C9  UNL     1       9.632  13.607  -3.967  1.00  0.00     0.016 A 
HETATM   20  C10 UNL     1      10.202  14.475  -4.904  1.00  0.00     0.037 A 
HETATM   21  C11 UNL     1      11.449  15.021  -4.739  1.00  0.00     0.102 A 
HETATM   22  C12 UNL     1      12.110  14.660  -3.586  1.00  0.00     0.037 A 
HETATM   23  C13 UNL     1      11.561  13.812  -2.664  1.00  0.00     0.016 A 
BRANCH  21  24
HETATM   24  N10 UNL     1      12.026  15.902  -5.694  1.00  0.00    -0.116 N 
HETATM   25  O3  UNL     1      11.446  16.092  -6.770  1.00  0.00    -0.532 OA
HETATM   26  O4  UNL     1      13.207  16.543  -5.445  1.00  0.00    -0.532 OA
ENDBRANCH  21  24
ENDBRANCH  13  18
ENDBRANCH  10  12
ENDBRANCH   7  10
BRANCH   4  27
HETATM   27  N3  UNL     1      10.963   8.803   3.901  1.00  0.00    -0.108 N 
ATOM     28  H3  UNL     1      10.933   9.151   4.859  1.00  0.00     0.203 HD
BRANCH  27  29
HETATM   29  N4  UNL     1      10.551   7.501   3.612  1.00  0.00     0.004 NA
BRANCH  29  30
HETATM   30  N5  UNL     1       9.177   7.417   3.420  1.00  0.00    -0.322 NA
ATOM     31  H52 UNL     1       8.952   7.745   2.481  1.00  0.00     0.175 HD
ATOM     32  H51 UNL     1       8.834   6.461   3.514  1.00  0.00     0.175 HD
ENDBRANCH  29  30
BRANCH  29  33
HETATM   33  O1  UNL     1      10.903   6.704   4.656  1.00  0.00    -0.276 OA
ATOM     34  H1  UNL     1      10.393   6.966   5.414  1.00  0.00     0.241 HD
ENDBRANCH  29  33
ENDBRANCH  27  29
ENDBRANCH   4  27
BRANCH   1  35
HETATM   35  N1  UNL     1      14.407  10.583   1.269  1.00  0.00    -0.225 N 
ATOM     36  H1  UNL     1      15.039  10.080   1.890  1.00  0.00     0.177 HD
BRANCH  35  37
HETATM   37  C2  UNL     1      14.970  11.308   0.149  1.00  0.00     0.133 C 
HETATM   38  C1  UNL     1      16.446  11.565   0.317  1.00  0.00     0.027 C 
ENDBRANCH  35  37
ENDBRANCH   1  35
TORSDOF 11
ENDMDL
