MODEL 1
REMARK VINA RESULT: -6.636850743      0.000      0.000
REMARK  7 active torsions:
REMARK  status: ('A' for Active; 'I' for Inactive)
REMARK    1  A    between atoms: C2_3  and  C3_4 
REMARK    2  A    between atoms: C5_6  and  C6_7 
REMARK    3  A    between atoms: C6_7  and  N2_8 
REMARK    4  A    between atoms: N2_8  and  C7_11 
REMARK    5  A    between atoms: C7_11  and  C8_12 
REMARK    6  A    between atoms: C11_20  and  C12_21 
REMARK    7  A    between atoms: C12_21  and  O1_22 
ROOT
HETATM    1  N1  UNL     1      14.808   0.551  17.665  1.00  0.00    -0.197 NA
HETATM    2  C1  UNL     1      14.687   1.679  17.816  1.00  0.00     0.061 C 
HETATM    3  C2  UNL     1      14.421   3.134  17.925  1.00  0.00     0.155 C 
ENDROOT
BRANCH   3   4
HETATM    4  C3  UNL     1      15.394   3.810  17.043  1.00  0.00     0.135 C 
HETATM    5  C4  UNL     1      14.858   4.172  15.668  1.00  0.00     0.042 C 
HETATM    6  C5  UNL     1      16.171   4.416  14.988  1.00  0.00     0.045 C 
HETATM    7  C11 UNL     1      17.044   3.338  15.617  1.00  0.00     0.151 C 
HETATM    8  O2  UNL     1      16.603   3.218  16.900  1.00  0.00    -0.377 OA
BRANCH   6   9
HETATM    9  C6  UNL     1      16.253   4.475  13.563  1.00  0.00     0.239 C 
BRANCH   9  10
HETATM   10  N2  UNL     1      17.493   4.577  12.839  1.00  0.00    -0.069 N 
ATOM     11  H22 UNL     1      17.974   5.469  12.945  1.00  0.00     0.277 HD
ATOM     12  H21 UNL     1      18.251   4.005  13.211  1.00  0.00     0.277 HD
BRANCH  10  13
HETATM   13  C7  UNL     1      17.102   4.252  11.463  1.00  0.00     0.292 C 
BRANCH  13  14
HETATM   14  C8  UNL     1      17.099   2.810  11.259  1.00  0.00     0.070 A 
HETATM   15  N3  UNL     1      16.169   1.920  11.269  1.00  0.00    -0.302 N 
HETATM   16  N4  UNL     1      16.618   0.709  11.084  1.00  0.00    -0.310 N 
ATOM     17  H3  UNL     1      15.182   2.138  11.408  1.00  0.00     0.186 HD
HETATM   18  C9  UNL     1      17.996   0.815  10.986  1.00  0.00     0.128 A 
ATOM     19  H4  UNL     1      16.064  -0.145  11.023  1.00  0.00     0.186 HD
HETATM   20  C10 UNL     1      18.348   2.126  11.090  1.00  0.00     0.053 A 
HETATM   21 BR1  UNL     1      20.058   2.940  11.123  1.00  0.00    -0.047 Br
ENDBRANCH  13  14
ENDBRANCH  10  13
ENDBRANCH   9  10
ENDBRANCH   6   9
BRANCH   7  22
HETATM   22  C12 UNL     1      16.838   1.991  14.969  1.00  0.00     0.196 C 
BRANCH  22  23
HETATM   23  O1  UNL     1      17.353   1.067  15.878  1.00  0.00    -0.398 OA
ATOM     24  H1  UNL     1      16.770   0.319  15.829  1.00  0.00     0.209 HD
ENDBRANCH  22  23
ENDBRANCH   7  22
ENDBRANCH   3   4
TORSDOF 7
ENDMDL
MODEL 2
REMARK VINA RESULT: -6.587515318      2.505      2.709
REMARK  7 active torsions:
REMARK  status: ('A' for Active; 'I' for Inactive)
REMARK    1  A    between atoms: C2_3  and  C3_4 
REMARK    2  A    between atoms: C5_6  and  C6_7 
REMARK    3  A    between atoms: C6_7  and  N2_8 
REMARK    4  A    between atoms: N2_8  and  C7_11 
REMARK    5  A    between atoms: C7_11  and  C8_12 
REMARK    6  A    between atoms: C11_20  and  C12_21 
REMARK    7  A    between atoms: C12_21  and  O1_22 
ROOT
HETATM    1  N1  UNL     1      14.899   0.653  17.342  1.00  0.00    -0.197 NA
HETATM    2  C1  UNL     1      14.585   1.743  17.192  1.00  0.00     0.061 C 
HETATM    3  C2  UNL     1      14.137   3.119  16.870  1.00  0.00     0.155 C 
ENDROOT
BRANCH   3   4
HETATM    4  C3  UNL     1      15.348   3.887  16.514  1.00  0.00     0.135 C 
HETATM    5  C4  UNL     1      15.089   5.128  15.678  1.00  0.00     0.042 C 
HETATM    6  C5  UNL     1      16.491   5.356  15.199  1.00  0.00     0.045 C 
HETATM    7  C11 UNL     1      16.975   3.927  14.988  1.00  0.00     0.151 C 
HETATM    8  O2  UNL     1      16.371   3.193  15.962  1.00  0.00    -0.377 OA
BRANCH   6   9
HETATM    9  C6  UNL     1      16.751   6.229  14.098  1.00  0.00     0.239 C 
BRANCH   9  10
HETATM   10  N2  UNL     1      18.005   6.907  13.898  1.00  0.00    -0.069 N 
ATOM     11  H22 UNL     1      18.008   7.887  14.180  1.00  0.00     0.277 HD
ATOM     12  H21 UNL     1      18.752   6.615  14.527  1.00  0.00     0.277 HD
BRANCH  10  13
HETATM   13  C7  UNL     1      18.282   6.679  12.475  1.00  0.00     0.292 C 
BRANCH  13  14
HETATM   14  C8  UNL     1      19.132   5.510  12.300  1.00  0.00     0.070 A 
HETATM   15  N3  UNL     1      19.907   4.856  13.094  1.00  0.00    -0.302 N 
HETATM   16  N4  UNL     1      20.537   3.878  12.504  1.00  0.00    -0.310 N 
ATOM     17  H3  UNL     1      20.018   5.080  14.083  1.00  0.00     0.186 HD
HETATM   18  C9  UNL     1      20.166   3.926  11.169  1.00  0.00     0.128 A 
ATOM     19  H4  UNL     1      21.174   3.211  12.938  1.00  0.00     0.186 HD
HETATM   20  C10 UNL     1      19.278   4.942  10.992  1.00  0.00     0.053 A 
HETATM   21 BR1  UNL     1      18.458   5.595   9.414  1.00  0.00    -0.047 Br
ENDBRANCH  13  14
ENDBRANCH  10  13
ENDBRANCH   9  10
ENDBRANCH   6   9
BRANCH   7  22
HETATM   22  C12 UNL     1      16.505   3.358  13.672  1.00  0.00     0.196 C 
BRANCH  22  23
HETATM   23  O1  UNL     1      17.590   2.628  13.184  1.00  0.00    -0.398 OA
ATOM     24  H1  UNL     1      17.234   1.777  12.957  1.00  0.00     0.209 HD
ENDBRANCH  22  23
ENDBRANCH   7  22
ENDBRANCH   3   4
TORSDOF 7
ENDMDL
MODEL 3
REMARK VINA RESULT: -6.509570325      3.124      5.848
REMARK  7 active torsions:
REMARK  status: ('A' for Active; 'I' for Inactive)
REMARK    1  A    between atoms: C2_3  and  C3_4 
REMARK    2  A    between atoms: C5_6  and  C6_7 
REMARK    3  A    between atoms: C6_7  and  N2_8 
REMARK    4  A    between atoms: N2_8  and  C7_11 
REMARK    5  A    between atoms: C7_11  and  C8_12 
REMARK    6  A    between atoms: C11_20  and  C12_21 
REMARK    7  A    between atoms: C12_21  and  O1_22 
ROOT
HETATM    1  N1  UNL     1      18.023   0.191  11.002  1.00  0.00    -0.197 NA
HETATM    2  C1  UNL     1      18.733   1.038  10.703  1.00  0.00     0.061 C 
HETATM    3  C2  UNL     1      19.722   2.109  10.434  1.00  0.00     0.155 C 
ENDROOT
BRANCH   3   4
HETATM    4  C3  UNL     1      19.070   3.386  10.791  1.00  0.00     0.135 C 
HETATM    5  C4  UNL     1      19.201   3.778  12.252  1.00  0.00     0.042 C 
HETATM    6  C5  UNL     1      18.121   4.817  12.290  1.00  0.00     0.045 C 
HETATM    7  C11 UNL     1      17.075   4.199  11.370  1.00  0.00     0.151 C 
HETATM    8  O2  UNL     1      17.781   3.541  10.410  1.00  0.00    -0.377 OA
BRANCH   6   9
HETATM    9  C6  UNL     1      17.600   5.281  13.536  1.00  0.00     0.239 C 
BRANCH   9  10
HETATM   10  N2  UNL     1      18.011   4.762  14.814  1.00  0.00    -0.069 N 
ATOM     11  H22 UNL     1      18.585   3.920  14.766  1.00  0.00     0.277 HD
ATOM     12  H21 UNL     1      18.703   5.330  15.302  1.00  0.00     0.277 HD
BRANCH  10  13
HETATM   13  C7  UNL     1      16.742   4.597  15.531  1.00  0.00     0.292 C 
BRANCH  13  14
HETATM   14  C8  UNL     1      16.525   3.198  15.872  1.00  0.00     0.070 A 
HETATM   15  N3  UNL     1      17.042   2.096  15.451  1.00  0.00    -0.302 N 
HETATM   16  N4  UNL     1      16.514   1.039  16.003  1.00  0.00    -0.310 N 
ATOM     17  H3  UNL     1      17.789   2.055  14.756  1.00  0.00     0.186 HD
HETATM   18  C9  UNL     1      15.513   1.498  16.844  1.00  0.00     0.128 A 
ATOM     19  H4  UNL     1      16.785   0.069  15.847  1.00  0.00     0.186 HD
HETATM   20  C10 UNL     1      15.482   2.858  16.796  1.00  0.00     0.053 A 
HETATM   21 BR1  UNL     1      14.310   4.090  17.629  1.00  0.00    -0.047 Br
ENDBRANCH  13  14
ENDBRANCH  10  13
ENDBRANCH   9  10
ENDBRANCH   6   9
BRANCH   7  22
HETATM   22  C12 UNL     1      16.244   3.156  12.076  1.00  0.00     0.196 C 
BRANCH  22  23
HETATM   23  O1  UNL     1      15.604   2.450  11.057  1.00  0.00    -0.398 OA
ATOM     24  H1  UNL     1      16.303   2.155  10.484  1.00  0.00     0.209 HD
ENDBRANCH  22  23
ENDBRANCH   7  22
ENDBRANCH   3   4
TORSDOF 7
ENDMDL
MODEL 4
REMARK VINA RESULT: -6.491949718      1.784      1.817
REMARK  7 active torsions:
REMARK  status: ('A' for Active; 'I' for Inactive)
REMARK    1  A    between atoms: C2_3  and  C3_4 
REMARK    2  A    between atoms: C5_6  and  C6_7 
REMARK    3  A    between atoms: C6_7  and  N2_8 
REMARK    4  A    between atoms: N2_8  and  C7_11 
REMARK    5  A    between atoms: C7_11  and  C8_12 
REMARK    6  A    between atoms: C11_20  and  C12_21 
REMARK    7  A    between atoms: C12_21  and  O1_22 
ROOT
HETATM    1  N1  UNL     1      14.833   0.598  17.433  1.00  0.00    -0.197 NA
HETATM    2  C1  UNL     1      14.736   1.698  17.734  1.00  0.00     0.061 C 
HETATM    3  C2  UNL     1      14.501   3.130  18.038  1.00  0.00     0.155 C 
ENDROOT
BRANCH   3   4
HETATM    4  C3  UNL     1      15.480   3.899  17.243  1.00  0.00     0.135 C 
HETATM    5  C4  UNL     1      14.891   4.640  16.055  1.00  0.00     0.042 C 
HETATM    6  C5  UNL     1      16.169   4.909  15.319  1.00  0.00     0.045 C 
HETATM    7  C11 UNL     1      16.946   3.625  15.583  1.00  0.00     0.151 C 
HETATM    8  O2  UNL     1      16.592   3.240  16.840  1.00  0.00    -0.377 OA
BRANCH   6   9
HETATM    9  C6  UNL     1      16.148   5.306  13.947  1.00  0.00     0.239 C 
BRANCH   9  10
HETATM   10  N2  UNL     1      17.330   5.643  13.197  1.00  0.00    -0.069 N 
ATOM     11  H22 UNL     1      17.455   6.641  13.028  1.00  0.00     0.277 HD
ATOM     12  H21 UNL     1      18.206   5.513  13.703  1.00  0.00     0.277 HD
BRANCH  10  13
HETATM   13  C7  UNL     1      17.198   4.829  11.984  1.00  0.00     0.292 C 
BRANCH  13  14
HETATM   14  C8  UNL     1      18.343   3.942  11.836  1.00  0.00     0.070 A 
HETATM   15  N3  UNL     1      19.615   4.120  11.933  1.00  0.00    -0.302 N 
HETATM   16  N4  UNL     1      20.304   3.044  11.670  1.00  0.00    -0.310 N 
ATOM     17  H3  UNL     1      20.041   5.011  12.189  1.00  0.00     0.186 HD
HETATM   18  C9  UNL     1      19.383   2.068  11.320  1.00  0.00     0.128 A 
ATOM     19  H4  UNL     1      21.317   2.941  11.713  1.00  0.00     0.186 HD
HETATM   20  C10 UNL     1      18.129   2.589  11.411  1.00  0.00     0.053 A 
HETATM   21 BR1  UNL     1      16.447   1.824  10.995  1.00  0.00    -0.047 Br
ENDBRANCH  13  14
ENDBRANCH  10  13
ENDBRANCH   9  10
ENDBRANCH   6   9
BRANCH   7  22
HETATM   22  C12 UNL     1      16.525   2.507  14.661  1.00  0.00     0.196 C 
BRANCH  22  23
HETATM   23  O1  UNL     1      17.033   1.345  15.243  1.00  0.00    -0.398 OA
ATOM     24  H1  UNL     1      16.352   1.046  15.834  1.00  0.00     0.209 HD
ENDBRANCH  22  23
ENDBRANCH   7  22
ENDBRANCH   3   4
TORSDOF 7
ENDMDL
MODEL 5
REMARK VINA RESULT: -6.334554538      3.243      6.471
REMARK  7 active torsions:
REMARK  status: ('A' for Active; 'I' for Inactive)
REMARK    1  A    between atoms: C2_3  and  C3_4 
REMARK    2  A    between atoms: C5_6  and  C6_7 
REMARK    3  A    between atoms: C6_7  and  N2_8 
REMARK    4  A    between atoms: N2_8  and  C7_11 
REMARK    5  A    between atoms: C7_11  and  C8_12 
REMARK    6  A    between atoms: C11_20  and  C12_21 
REMARK    7  A    between atoms: C12_21  and  O1_22 
ROOT
HETATM    1  N1  UNL     1      20.371   3.092  10.237  1.00  0.00    -0.197 NA
HETATM    2  C1  UNL     1      19.330   3.565  10.288  1.00  0.00     0.061 C 
HETATM    3  C2  UNL     1      18.027   4.249  10.464  1.00  0.00     0.155 C 
ENDROOT
BRANCH   3   4
HETATM    4  C3  UNL     1      17.136   3.294  11.154  1.00  0.00     0.135 C 
HETATM    5  C4  UNL     1      17.659   2.788  12.487  1.00  0.00     0.042 C 
HETATM    6  C5  UNL     1      16.748   1.607  12.637  1.00  0.00     0.045 C 
HETATM    7  C11 UNL     1      16.649   1.117  11.198  1.00  0.00     0.151 C 
HETATM    8  O2  UNL     1      16.693   2.240  10.429  1.00  0.00    -0.377 OA
BRANCH   6   9
HETATM    9  C6  UNL     1      17.040   0.579  13.584  1.00  0.00     0.239 C 
BRANCH   9  10
HETATM   10  N2  UNL     1      16.993   0.772  15.010  1.00  0.00    -0.069 N 
ATOM     11  H22 UNL     1      16.607  -0.014  15.532  1.00  0.00     0.277 HD
ATOM     12  H21 UNL     1      17.903   0.766  15.470  1.00  0.00     0.277 HD
BRANCH  10  13
HETATM   13  C7  UNL     1      16.245   2.027  15.151  1.00  0.00     0.292 C 
BRANCH  13  14
HETATM   14  C8  UNL     1      15.758   2.181  16.515  1.00  0.00     0.070 A 
HETATM   15  N3  UNL     1      15.606   1.360  17.495  1.00  0.00    -0.302 N 
HETATM   16  N4  UNL     1      15.081   1.917  18.552  1.00  0.00    -0.310 N 
ATOM     17  H3  UNL     1      15.869   0.376  17.451  1.00  0.00     0.186 HD
HETATM   18  C9  UNL     1      14.820   3.235  18.209  1.00  0.00     0.128 A 
ATOM     19  H4  UNL     1      14.898   1.472  19.450  1.00  0.00     0.186 HD
HETATM   20  C10 UNL     1      15.233   3.449  16.929  1.00  0.00     0.053 A 
HETATM   21 BR1  UNL     1      15.091   4.989  15.835  1.00  0.00    -0.047 Br
ENDBRANCH  13  14
ENDBRANCH  10  13
ENDBRANCH   9  10
ENDBRANCH   6   9
BRANCH   7  22
HETATM   22  C12 UNL     1      17.841   0.282  10.799  1.00  0.00     0.196 C 
BRANCH  22  23
HETATM   23  O1  UNL     1      17.789   0.217   9.406  1.00  0.00    -0.398 OA
ATOM     24  H1  UNL     1      17.577   1.099   9.125  1.00  0.00     0.209 HD
ENDBRANCH  22  23
ENDBRANCH   7  22
ENDBRANCH   3   4
TORSDOF 7
ENDMDL
