MODEL 1
REMARK VINA RESULT: -6.654062398      0.000      0.000
REMARK  2 active torsions:
REMARK  status: ('A' for Active; 'I' for Inactive)
REMARK    1  A    between atoms: C5_5  and  C6_6 
REMARK    2  A    between atoms: C6_6  and  N1_7 
ROOT
HETATM    1  C1  UNL     1      -6.637   2.851  16.307  1.00  0.00    -0.107 C 
HETATM    2  C2  UNL     1      -6.512   3.853  15.834  1.00  0.00    -0.107 C 
HETATM    3  C3  UNL     1      -6.250   5.098  15.227  1.00  0.00     0.094 C 
HETATM    4  C4  UNL     1      -4.783   5.159  14.758  1.00  0.00     0.018 C 
HETATM    5  C5  UNL     1      -4.238   3.817  14.417  1.00  0.00     0.015 C 
HETATM    6  C10 UNL     1      -4.009   2.843  15.509  1.00  0.00     0.006 C 
HETATM    7  C11 UNL     1      -4.754   1.543  15.361  1.00  0.00     0.001 C 
HETATM    8  C12 UNL     1      -5.254   0.994  16.678  1.00  0.00     0.012 C 
HETATM    9  C13 UNL     1      -6.694   1.557  16.891  1.00  0.00     0.094 C 
ENDROOT
BRANCH   5  10
HETATM   10  C6  UNL     1      -2.969   4.070  13.583  1.00  0.00     0.277 C 
BRANCH  10  11
HETATM   11  N1  UNL     1      -2.996   3.297  12.364  1.00  0.00     0.088 N 
HETATM   12  C7  UNL     1      -2.643   4.033  11.187  1.00  0.00     0.274 C 
HETATM   13  C8  UNL     1      -4.052   3.880  10.693  1.00  0.00     0.060 C 
HETATM   14  C9  UNL     1      -4.326   2.983  11.874  1.00  0.00     0.274 C 
ENDBRANCH  10  11
ENDBRANCH   5  10
TORSDOF 2
ENDMDL
MODEL 2
REMARK VINA RESULT: -6.388863278      0.701      1.029
REMARK  2 active torsions:
REMARK  status: ('A' for Active; 'I' for Inactive)
REMARK    1  A    between atoms: C5_5  and  C6_6 
REMARK    2  A    between atoms: C6_6  and  N1_7 
ROOT
HETATM    1  C1  UNL     1      -6.792   2.690  16.752  1.00  0.00    -0.107 C 
HETATM    2  C2  UNL     1      -6.694   3.647  16.187  1.00  0.00    -0.107 C 
HETATM    3  C3  UNL     1      -6.471   4.829  15.452  1.00  0.00     0.094 C 
HETATM    4  C4  UNL     1      -5.074   4.791  14.803  1.00  0.00     0.018 C 
HETATM    5  C5  UNL     1      -4.619   3.405  14.509  1.00  0.00     0.015 C 
HETATM    6  C10 UNL     1      -4.287   2.509  15.640  1.00  0.00     0.006 C 
HETATM    7  C11 UNL     1      -5.087   1.234  15.691  1.00  0.00     0.001 C 
HETATM    8  C12 UNL     1      -5.433   0.810  17.100  1.00  0.00     0.012 C 
HETATM    9  C13 UNL     1      -6.817   1.449  17.442  1.00  0.00     0.094 C 
ENDROOT
BRANCH   5  10
HETATM   10  C6  UNL     1      -3.458   3.539  13.507  1.00  0.00     0.277 C 
BRANCH  10  11
HETATM   11  N1  UNL     1      -3.887   4.232  12.316  1.00  0.00     0.088 N 
HETATM   12  C7  UNL     1      -3.977   3.407  11.148  1.00  0.00     0.274 C 
HETATM   13  C8  UNL     1      -2.835   4.172  10.545  1.00  0.00     0.060 C 
HETATM   14  C9  UNL     1      -2.888   5.106  11.729  1.00  0.00     0.274 C 
ENDBRANCH  10  11
ENDBRANCH   5  10
TORSDOF 2
ENDMDL
MODEL 3
REMARK VINA RESULT: -6.315547436      1.169      1.667
REMARK  2 active torsions:
REMARK  status: ('A' for Active; 'I' for Inactive)
REMARK    1  A    between atoms: C5_5  and  C6_6 
REMARK    2  A    between atoms: C6_6  and  N1_7 
ROOT
HETATM    1  C1  UNL     1      -6.804   2.689  16.811  1.00  0.00    -0.107 C 
HETATM    2  C2  UNL     1      -6.719   3.634  16.224  1.00  0.00    -0.107 C 
HETATM    3  C3  UNL     1      -6.513   4.800  15.459  1.00  0.00     0.094 C 
HETATM    4  C4  UNL     1      -5.136   4.743  14.770  1.00  0.00     0.018 C 
HETATM    5  C5  UNL     1      -4.696   3.350  14.491  1.00  0.00     0.015 C 
HETATM    6  C10 UNL     1      -4.334   2.475  15.630  1.00  0.00     0.006 C 
HETATM    7  C11 UNL     1      -5.137   1.205  15.730  1.00  0.00     0.001 C 
HETATM    8  C12 UNL     1      -5.443   0.810  17.157  1.00  0.00     0.012 C 
HETATM    9  C13 UNL     1      -6.813   1.462  17.526  1.00  0.00     0.094 C 
ENDROOT
BRANCH   5  10
HETATM   10  C6  UNL     1      -3.564   3.458  13.452  1.00  0.00     0.277 C 
BRANCH  10  11
HETATM   11  N1  UNL     1      -2.984   4.780  13.464  1.00  0.00     0.088 N 
HETATM   12  C7  UNL     1      -2.557   5.252  12.180  1.00  0.00     0.274 C 
HETATM   13  C8  UNL     1      -1.135   5.197  12.656  1.00  0.00     0.060 C 
HETATM   14  C9  UNL     1      -1.650   4.853  14.032  1.00  0.00     0.274 C 
ENDBRANCH  10  11
ENDBRANCH   5  10
TORSDOF 2
ENDMDL
MODEL 4
REMARK VINA RESULT: -6.291851528      1.867      5.074
REMARK  2 active torsions:
REMARK  status: ('A' for Active; 'I' for Inactive)
REMARK    1  A    between atoms: C5_5  and  C6_6 
REMARK    2  A    between atoms: C6_6  and  N1_7 
ROOT
HETATM    1  C1  UNL     1      -4.313   4.672  12.367  1.00  0.00    -0.107 C 
HETATM    2  C2  UNL     1      -4.499   3.584  12.207  1.00  0.00    -0.107 C 
HETATM    3  C3  UNL     1      -4.693   2.192  12.099  1.00  0.00     0.094 C 
HETATM    4  C4  UNL     1      -4.314   1.503  13.425  1.00  0.00     0.018 C 
HETATM    5  C5  UNL     1      -4.513   2.388  14.604  1.00  0.00     0.015 C 
HETATM    6  C10 UNL     1      -3.617   3.554  14.777  1.00  0.00     0.006 C 
HETATM    7  C11 UNL     1      -4.320   4.885  14.838  1.00  0.00     0.001 C 
HETATM    8  C12 UNL     1      -3.552   5.991  14.151  1.00  0.00     0.012 C 
HETATM    9  C13 UNL     1      -4.040   6.033  12.668  1.00  0.00     0.094 C 
ENDROOT
BRANCH   5  10
HETATM   10  C6  UNL     1      -4.517   1.465  15.836  1.00  0.00     0.277 C 
BRANCH  10  11
HETATM   11  N1  UNL     1      -5.390   1.985  16.862  1.00  0.00     0.088 N 
HETATM   12  C7  UNL     1      -6.009   0.984  17.678  1.00  0.00     0.274 C 
HETATM   13  C8  UNL     1      -7.340   1.360  17.095  1.00  0.00     0.060 C 
HETATM   14  C9  UNL     1      -6.659   2.498  16.376  1.00  0.00     0.274 C 
ENDBRANCH  10  11
ENDBRANCH   5  10
TORSDOF 2
ENDMDL
MODEL 5
REMARK VINA RESULT: -6.010930199      1.475      2.951
REMARK  2 active torsions:
REMARK  status: ('A' for Active; 'I' for Inactive)
REMARK    1  A    between atoms: C5_5  and  C6_6 
REMARK    2  A    between atoms: C6_6  and  N1_7 
ROOT
HETATM    1  C1  UNL     1      -5.716   1.472  17.037  1.00  0.00    -0.107 C 
HETATM    2  C2  UNL     1      -5.049   1.036  16.256  1.00  0.00    -0.107 C 
HETATM    3  C3  UNL     1      -4.250   0.553  15.201  1.00  0.00     0.094 C 
HETATM    4  C4  UNL     1      -4.478   1.400  13.934  1.00  0.00     0.018 C 
HETATM    5  C5  UNL     1      -4.866   2.802  14.248  1.00  0.00     0.015 C 
HETATM    6  C10 UNL     1      -6.198   3.055  14.844  1.00  0.00     0.006 C 
HETATM    7  C11 UNL     1      -6.170   3.754  16.178  1.00  0.00     0.001 C 
HETATM    8  C12 UNL     1      -7.235   3.257  17.129  1.00  0.00     0.012 C 
HETATM    9  C13 UNL     1      -6.600   2.095  17.957  1.00  0.00     0.094 C 
ENDROOT
BRANCH   5  10
HETATM   10  C6  UNL     1      -4.639   3.609  12.958  1.00  0.00     0.277 C 
BRANCH  10  11
HETATM   11  N1  UNL     1      -3.453   4.425  13.067  1.00  0.00     0.088 N 
HETATM   12  C7  UNL     1      -3.010   4.651  14.410  1.00  0.00     0.274 C 
HETATM   13  C8  UNL     1      -3.356   6.103  14.258  1.00  0.00     0.060 C 
HETATM   14  C9  UNL     1      -3.662   5.838  12.805  1.00  0.00     0.274 C 
ENDBRANCH  10  11
ENDBRANCH   5  10
TORSDOF 2
ENDMDL
