MODEL 1
REMARK VINA RESULT: -6.481729504      0.000      0.000
REMARK  2 active torsions:
REMARK  status: ('A' for Active; 'I' for Inactive)
REMARK    1  A    between atoms: C8_8  and  C9_9 
REMARK       I    between atoms: C9_9  and  N1_11 
REMARK    2  A    between atoms: N1_11  and  C10_13 
ROOT
HETATM    1  C9  UNL     1      -2.911   3.494  13.591  1.00  0.00     0.257 C 
HETATM    2  O1  UNL     1      -2.644   2.678  12.680  1.00  0.00    -0.267 OA
HETATM    3  N1  UNL     1      -1.827   4.298  14.050  1.00  0.00    -0.316 N 
ATOM      4  H1  UNL     1      -1.326   4.032  14.897  1.00  0.00     0.169 HD
ENDROOT
BRANCH   1   5
HETATM    5  C8  UNL     1      -4.250   3.610  14.145  1.00  0.00     0.039 A 
HETATM    6  C6  UNL     1      -4.735   2.780  15.131  1.00  0.00    -0.040 A 
HETATM    7  C4  UNL     1      -6.018   2.918  15.638  1.00  0.00    -0.055 A 
HETATM    8  C7  UNL     1      -3.877   1.717  15.667  1.00  0.00     0.050 C 
HETATM    9  C3  UNL     1      -6.854   3.898  15.166  1.00  0.00     0.014 A 
HETATM   10  C5  UNL     1      -6.519   2.000  16.712  1.00  0.00     0.049 C 
HETATM   11  C2  UNL     1      -6.405   4.749  14.179  1.00  0.00    -0.060 A 
HETATM   12  C1  UNL     1      -7.282   5.821  13.643  1.00  0.00     0.048 C 
HETATM   13  C14 UNL     1      -5.129   4.599  13.685  1.00  0.00     0.024 A 
ENDBRANCH   1   5
BRANCH   3  14
HETATM   14  C10 UNL     1      -1.468   5.372  13.398  1.00  0.00     0.095 A 
HETATM   15  C11 UNL     1      -1.898   6.654  13.629  1.00  0.00     0.063 A 
HETATM   16  C12 UNL     1      -1.388   7.609  12.826  1.00  0.00     0.014 A 
HETATM   17  C13 UNL     1      -1.783   9.069  12.980  1.00  0.00     0.068 C 
HETATM   18  N2  UNL     1      -0.522   7.241  11.887  1.00  0.00    -0.329 N 
HETATM   19  S1  UNL     1      -0.395   5.576  12.091  1.00  0.00     0.004 SA
ATOM     20  H2  UNL     1      -0.047   7.829  11.203  1.00  0.00     0.174 HD
ENDBRANCH   3  14
TORSDOF 2
ENDMDL
MODEL 2
REMARK VINA RESULT: -6.464981782      1.704      2.831
REMARK  2 active torsions:
REMARK  status: ('A' for Active; 'I' for Inactive)
REMARK    1  A    between atoms: C8_8  and  C9_9 
REMARK       I    between atoms: C9_9  and  N1_11 
REMARK    2  A    between atoms: N1_11  and  C10_13 
ROOT
HETATM    1  C9  UNL     1      -4.360   4.176  12.666  1.00  0.00     0.257 C 
HETATM    2  O1  UNL     1      -5.085   4.389  11.668  1.00  0.00    -0.267 OA
HETATM    3  N1  UNL     1      -3.035   4.695  12.600  1.00  0.00    -0.316 N 
ATOM      4  H1  UNL     1      -2.266   4.081  12.333  1.00  0.00     0.169 HD
ENDROOT
BRANCH   1   5
HETATM    5  C8  UNL     1      -4.848   3.441  13.821  1.00  0.00     0.039 A 
HETATM    6  C6  UNL     1      -5.812   3.926  14.676  1.00  0.00    -0.040 A 
HETATM    7  C4  UNL     1      -6.255   3.199  15.769  1.00  0.00    -0.055 A 
HETATM    8  C7  UNL     1      -6.393   5.252  14.430  1.00  0.00     0.050 C 
HETATM    9  C3  UNL     1      -5.740   1.957  16.036  1.00  0.00     0.014 A 
HETATM   10  C5  UNL     1      -7.307   3.754  16.681  1.00  0.00     0.049 C 
HETATM   11  C2  UNL     1      -4.772   1.434  15.205  1.00  0.00    -0.060 A 
HETATM   12  C1  UNL     1      -4.190   0.092  15.463  1.00  0.00     0.048 C 
HETATM   13  C14 UNL     1      -4.342   2.169  14.123  1.00  0.00     0.024 A 
ENDBRANCH   1   5
BRANCH   3  14
HETATM   14  C10 UNL     1      -2.792   5.948  12.880  1.00  0.00     0.095 A 
HETATM   15  C11 UNL     1      -2.532   6.478  14.118  1.00  0.00     0.063 A 
HETATM   16  C12 UNL     1      -2.309   7.806  14.165  1.00  0.00     0.014 A 
HETATM   17  C13 UNL     1      -2.009   8.515  15.476  1.00  0.00     0.068 C 
HETATM   18  N2  UNL     1      -2.359   8.490  13.026  1.00  0.00    -0.329 N 
HETATM   19  S1  UNL     1      -2.713   7.319  11.871  1.00  0.00     0.004 SA
ATOM     20  H2  UNL     1      -2.216   9.490  12.884  1.00  0.00     0.174 HD
ENDBRANCH   3  14
TORSDOF 2
ENDMDL
MODEL 3
REMARK VINA RESULT: -6.315805149      2.749      6.098
REMARK  2 active torsions:
REMARK  status: ('A' for Active; 'I' for Inactive)
REMARK    1  A    between atoms: C8_8  and  C9_9 
REMARK       I    between atoms: C9_9  and  N1_11 
REMARK    2  A    between atoms: N1_11  and  C10_13 
ROOT
HETATM    1  C9  UNL     1      -4.920   5.103  13.356  1.00  0.00     0.257 C 
HETATM    2  O1  UNL     1      -5.428   4.739  12.271  1.00  0.00    -0.267 OA
HETATM    3  N1  UNL     1      -5.687   4.837  14.527  1.00  0.00    -0.316 N 
ATOM      4  H1  UNL     1      -6.258   5.577  14.934  1.00  0.00     0.169 HD
ENDROOT
BRANCH   1   5
HETATM    5  C8  UNL     1      -3.624   5.758  13.410  1.00  0.00     0.039 A 
HETATM    6  C6  UNL     1      -2.543   5.361  12.655  1.00  0.00    -0.040 A 
HETATM    7  C4  UNL     1      -1.320   6.009  12.731  1.00  0.00    -0.055 A 
HETATM    8  C7  UNL     1      -2.680   4.222  11.740  1.00  0.00     0.050 C 
HETATM    9  C3  UNL     1      -1.146   7.077  13.573  1.00  0.00     0.014 A 
HETATM   10  C5  UNL     1      -0.161   5.555  11.896  1.00  0.00     0.049 C 
HETATM   11  C2  UNL     1      -2.204   7.505  14.347  1.00  0.00    -0.060 A 
HETATM   12  C1  UNL     1      -2.054   8.659  15.270  1.00  0.00     0.048 C 
HETATM   13  C14 UNL     1      -3.413   6.852  14.260  1.00  0.00     0.024 A 
ENDBRANCH   1   5
BRANCH   3  14
HETATM   14  C10 UNL     1      -5.667   3.656  15.086  1.00  0.00     0.095 A 
HETATM   15  C11 UNL     1      -6.585   3.152  15.972  1.00  0.00     0.063 A 
HETATM   16  C12 UNL     1      -6.359   1.901  16.420  1.00  0.00     0.014 A 
HETATM   17  C13 UNL     1      -7.302   1.228  17.404  1.00  0.00     0.068 C 
HETATM   18  N2  UNL     1      -5.281   1.263  15.976  1.00  0.00    -0.329 N 
HETATM   19  S1  UNL     1      -4.559   2.371  14.937  1.00  0.00     0.004 SA
ATOM     20  H2  UNL     1      -4.964   0.322  16.211  1.00  0.00     0.174 HD
ENDBRANCH   3  14
TORSDOF 2
ENDMDL
MODEL 4
REMARK VINA RESULT: -6.244296228      3.328      5.879
REMARK  2 active torsions:
REMARK  status: ('A' for Active; 'I' for Inactive)
REMARK    1  A    between atoms: C8_8  and  C9_9 
REMARK       I    between atoms: C9_9  and  N1_11 
REMARK    2  A    between atoms: N1_11  and  C10_13 
ROOT
HETATM    1  C9  UNL     1      -3.630   4.677  13.524  1.00  0.00     0.257 C 
HETATM    2  O1  UNL     1      -2.866   5.273  14.317  1.00  0.00    -0.267 OA
HETATM    3  N1  UNL     1      -3.920   3.317  13.836  1.00  0.00    -0.316 N 
ATOM      4  H1  UNL     1      -3.404   2.572  13.367  1.00  0.00     0.169 HD
ENDROOT
BRANCH   1   5
HETATM    5  C8  UNL     1      -4.186   5.339  12.356  1.00  0.00     0.039 A 
HETATM    6  C6  UNL     1      -3.632   5.249  11.099  1.00  0.00    -0.040 A 
HETATM    7  C4  UNL     1      -4.188   5.893  10.005  1.00  0.00    -0.055 A 
HETATM    8  C7  UNL     1      -2.417   4.449  10.902  1.00  0.00     0.050 C 
HETATM    9  C3  UNL     1      -5.323   6.651  10.144  1.00  0.00     0.014 A 
HETATM   10  C5  UNL     1      -3.562   5.776   8.648  1.00  0.00     0.049 C 
HETATM   11  C2  UNL     1      -5.909   6.767  11.386  1.00  0.00    -0.060 A 
HETATM   12  C1  UNL     1      -7.138   7.579  11.575  1.00  0.00     0.048 C 
HETATM   13  C14 UNL     1      -5.344   6.121  12.463  1.00  0.00     0.024 A 
ENDBRANCH   1   5
BRANCH   3  14
HETATM   14  C10 UNL     1      -4.838   3.012  14.714  1.00  0.00     0.095 A 
HETATM   15  C11 UNL     1      -4.794   1.988  15.625  1.00  0.00     0.063 A 
HETATM   16  C12 UNL     1      -5.863   1.864  16.437  1.00  0.00     0.014 A 
HETATM   17  C13 UNL     1      -5.937   0.770  17.490  1.00  0.00     0.068 C 
HETATM   18  N2  UNL     1      -6.861   2.730  16.294  1.00  0.00    -0.329 N 
HETATM   19  S1  UNL     1      -6.348   3.728  15.042  1.00  0.00     0.004 SA
ATOM     20  H2  UNL     1      -7.734   2.778  16.820  1.00  0.00     0.174 HD
ENDBRANCH   3  14
TORSDOF 2
ENDMDL
MODEL 5
REMARK VINA RESULT: -6.220100755      1.104      1.336
REMARK  2 active torsions:
REMARK  status: ('A' for Active; 'I' for Inactive)
REMARK    1  A    between atoms: C8_8  and  C9_9 
REMARK       I    between atoms: C9_9  and  N1_11 
REMARK    2  A    between atoms: N1_11  and  C10_13 
ROOT
HETATM    1  C9  UNL     1      -2.917   3.457  13.568  1.00  0.00     0.257 C 
HETATM    2  O1  UNL     1      -2.665   2.623  12.669  1.00  0.00    -0.267 OA
HETATM    3  N1  UNL     1      -1.823   4.257  14.006  1.00  0.00    -0.316 N 
ATOM      4  H1  UNL     1      -1.319   4.000  14.855  1.00  0.00     0.169 HD
ENDROOT
BRANCH   1   5
HETATM    5  C8  UNL     1      -4.251   3.597  14.128  1.00  0.00     0.039 A 
HETATM    6  C6  UNL     1      -4.742   2.784  15.125  1.00  0.00    -0.040 A 
HETATM    7  C4  UNL     1      -6.020   2.945  15.638  1.00  0.00    -0.055 A 
HETATM    8  C7  UNL     1      -3.895   1.716  15.669  1.00  0.00     0.050 C 
HETATM    9  C3  UNL     1      -6.845   3.930  15.159  1.00  0.00     0.014 A 
HETATM   10  C5  UNL     1      -6.527   2.046  16.725  1.00  0.00     0.049 C 
HETATM   11  C2  UNL     1      -6.392   4.765  14.160  1.00  0.00    -0.060 A 
HETATM   12  C1  UNL     1      -7.257   5.842  13.617  1.00  0.00     0.048 C 
HETATM   13  C14 UNL     1      -5.120   4.592  13.661  1.00  0.00     0.024 A 
ENDBRANCH   1   5
BRANCH   3  14
HETATM   14  C10 UNL     1      -1.456   5.316  13.334  1.00  0.00     0.095 A 
HETATM   15  C11 UNL     1      -0.568   5.359  12.290  1.00  0.00     0.063 A 
HETATM   16  C12 UNL     1      -0.343   6.571  11.746  1.00  0.00     0.014 A 
HETATM   17  C13 UNL     1       0.619   6.752  10.582  1.00  0.00     0.068 C 
HETATM   18  N2  UNL     1      -0.988   7.615  12.255  1.00  0.00    -0.329 N 
HETATM   19  S1  UNL     1      -1.915   6.949  13.490  1.00  0.00     0.004 SA
ATOM     20  H2  UNL     1      -0.934   8.592  11.965  1.00  0.00     0.174 HD
ENDBRANCH   3  14
TORSDOF 2
ENDMDL
