MODEL 1
REMARK VINA RESULT: -7.786950290      0.000      0.000
REMARK  1 active torsions:
REMARK  status: ('A' for Active; 'I' for Inactive)
REMARK    1  A    between atoms: C2_2  and  C3_3 
ROOT
HETATM    1  C3  UNL     1      -5.698   5.831  11.932  1.00  0.00    -0.003 C 
HETATM    2  C4  UNL     1      -6.402   6.242  13.186  1.00  0.00     0.088 C 
HETATM    3  C5  UNL     1      -6.021   5.341  14.292  1.00  0.00     0.161 C 
HETATM    4  O1  UNL     1      -6.436   5.518  15.463  1.00  0.00    -0.292 OA
HETATM    5  C6  UNL     1      -5.142   4.215  14.032  1.00  0.00     0.030 A 
HETATM    6  C7  UNL     1      -5.186   3.031  14.800  1.00  0.00    -0.021 A 
HETATM    7  C8  UNL     1      -4.322   2.005  14.538  1.00  0.00     0.019 A 
HETATM    8  N1  UNL     1      -3.409   2.129  13.525  1.00  0.00    -0.326 N 
ATOM      9  H1  UNL     1      -2.762   1.365  13.327  1.00  0.00     0.169 HD
HETATM   10  C9  UNL     1      -3.360   3.247  12.793  1.00  0.00     0.253 A 
HETATM   11  O2  UNL     1      -2.507   3.347  11.856  1.00  0.00    -0.268 OA
HETATM   12  C10 UNL     1      -4.201   4.296  13.016  1.00  0.00     0.025 A 
HETATM   13  C11 UNL     1      -4.218   5.569  12.220  1.00  0.00     0.050 C 
HETATM   14  C12 UNL     1      -4.334   0.757  15.316  1.00  0.00     0.058 C 
HETATM   15  C13 UNL     1      -5.149   0.834  16.535  1.00  0.00     0.010 C 
HETATM   16  C14 UNL     1      -6.447   1.576  16.340  1.00  0.00    -0.014 C 
HETATM   17  C15 UNL     1      -7.176   1.549  17.668  1.00  0.00     0.010 C 
HETATM   18  C16 UNL     1      -6.216   2.987  15.865  1.00  0.00     0.045 C 
ENDROOT
BRANCH   1  19
HETATM   19  C2  UNL     1      -5.848   6.906  10.877  1.00  0.00     0.001 C 
HETATM   20  C1  UNL     1      -6.965   7.858  11.188  1.00  0.00     0.005 C 
ENDBRANCH   1  19
TORSDOF 1
ENDMDL
MODEL 2
REMARK VINA RESULT: -7.342215624      2.044      5.735
REMARK  1 active torsions:
REMARK  status: ('A' for Active; 'I' for Inactive)
REMARK    1  A    between atoms: C2_2  and  C3_3 
ROOT
HETATM    1  C3  UNL     1      -5.977   2.709  15.445  1.00  0.00    -0.003 C 
HETATM    2  C4  UNL     1      -4.547   2.505  15.833  1.00  0.00     0.088 C 
HETATM    3  C5  UNL     1      -3.682   3.411  15.051  1.00  0.00     0.161 C 
HETATM    4  O1  UNL     1      -2.442   3.469  15.240  1.00  0.00    -0.292 OA
HETATM    5  C6  UNL     1      -4.268   4.264  14.033  1.00  0.00     0.030 A 
HETATM    6  C7  UNL     1      -3.544   4.689  12.897  1.00  0.00    -0.021 A 
HETATM    7  C8  UNL     1      -4.127   5.513  11.976  1.00  0.00     0.019 A 
HETATM    8  N1  UNL     1      -5.420   5.928  12.158  1.00  0.00    -0.326 N 
ATOM      9  H1  UNL     1      -5.856   6.544  11.472  1.00  0.00     0.169 HD
HETATM   10  C9  UNL     1      -6.112   5.530  13.230  1.00  0.00     0.253 A 
HETATM   11  O2  UNL     1      -7.311   5.923  13.385  1.00  0.00    -0.268 OA
HETATM   12  C10 UNL     1      -5.575   4.709  14.175  1.00  0.00     0.025 A 
HETATM   13  C11 UNL     1      -6.300   4.203  15.389  1.00  0.00     0.050 C 
HETATM   14  C12 UNL     1      -3.406   5.981  10.783  1.00  0.00     0.058 C 
HETATM   15  C13 UNL     1      -1.964   5.708  10.824  1.00  0.00     0.010 C 
HETATM   16  C14 UNL     1      -1.628   4.350  11.384  1.00  0.00    -0.014 C 
HETATM   17  C15 UNL     1      -0.121   4.213  11.339  1.00  0.00     0.010 C 
HETATM   18  C16 UNL     1      -2.158   4.177  12.784  1.00  0.00     0.045 C 
ENDROOT
BRANCH   1  19
HETATM   19  C2  UNL     1      -6.887   2.009  16.431  1.00  0.00     0.001 C 
HETATM   20  C1  UNL     1      -6.122   1.291  17.503  1.00  0.00     0.005 C 
ENDBRANCH   1  19
TORSDOF 1
ENDMDL
MODEL 3
REMARK VINA RESULT: -6.949763195      2.024      3.688
REMARK  1 active torsions:
REMARK  status: ('A' for Active; 'I' for Inactive)
REMARK    1  A    between atoms: C2_2  and  C3_3 
ROOT
HETATM    1  C3  UNL     1      -2.867   4.229  12.185  1.00  0.00    -0.003 C 
HETATM    2  C4  UNL     1      -2.721   2.760  12.426  1.00  0.00     0.088 C 
HETATM    3  C5  UNL     1      -3.853   2.271  13.240  1.00  0.00     0.161 C 
HETATM    4  O1  UNL     1      -3.987   1.057  13.525  1.00  0.00    -0.292 OA
HETATM    5  C6  UNL     1      -4.846   3.212  13.729  1.00  0.00     0.030 A 
HETATM    6  C7  UNL     1      -5.572   2.989  14.918  1.00  0.00    -0.021 A 
HETATM    7  C8  UNL     1      -6.517   3.888  15.328  1.00  0.00     0.019 A 
HETATM    8  N1  UNL     1      -6.758   5.009  14.579  1.00  0.00    -0.326 N 
ATOM      9  H1  UNL     1      -7.463   5.681  14.883  1.00  0.00     0.169 HD
HETATM   10  C9  UNL     1      -6.074   5.227  13.451  1.00  0.00     0.253 A 
HETATM   11  O2  UNL     1      -6.308   6.272  12.768  1.00  0.00    -0.268 OA
HETATM   12  C10 UNL     1      -5.123   4.361  13.003  1.00  0.00     0.025 A 
HETATM   13  C11 UNL     1      -4.301   4.554  11.760  1.00  0.00     0.050 C 
HETATM   14  C12 UNL     1      -7.298   3.691  16.559  1.00  0.00     0.058 C 
HETATM   15  C13 UNL     1      -7.161   2.346  17.132  1.00  0.00     0.010 C 
HETATM   16  C14 UNL     1      -5.752   1.814  17.078  1.00  0.00    -0.014 C 
HETATM   17  C15 UNL     1      -5.772   0.442  17.720  1.00  0.00     0.010 C 
HETATM   18  C16 UNL     1      -5.232   1.755  15.665  1.00  0.00     0.045 C 
ENDROOT
BRANCH   1  19
HETATM   19  C2  UNL     1      -1.888   4.680  11.123  1.00  0.00     0.001 C 
HETATM   20  C1  UNL     1      -0.476   4.292  11.448  1.00  0.00     0.005 C 
ENDBRANCH   1  19
TORSDOF 1
ENDMDL
MODEL 4
REMARK VINA RESULT: -6.896753396      2.166      5.330
REMARK  1 active torsions:
REMARK  status: ('A' for Active; 'I' for Inactive)
REMARK    1  A    between atoms: C2_2  and  C3_3 
ROOT
HETATM    1  C3  UNL     1      -6.411   3.682  15.893  1.00  0.00    -0.003 C 
HETATM    2  C4  UNL     1      -7.034   4.410  14.744  1.00  0.00     0.088 C 
HETATM    3  C5  UNL     1      -5.986   4.835  13.794  1.00  0.00     0.161 C 
HETATM    4  O1  UNL     1      -6.266   5.413  12.716  1.00  0.00    -0.292 OA
HETATM    5  C6  UNL     1      -4.590   4.581  14.102  1.00  0.00     0.030 A 
HETATM    6  C7  UNL     1      -3.550   5.404  13.618  1.00  0.00    -0.021 A 
HETATM    7  C8  UNL     1      -2.247   5.114  13.911  1.00  0.00     0.019 A 
HETATM    8  N1  UNL     1      -1.951   4.018  14.678  1.00  0.00    -0.326 N 
ATOM      9  H1  UNL     1      -0.979   3.799  14.898  1.00  0.00     0.169 HD
HETATM   10  C9  UNL     1      -2.930   3.234  15.140  1.00  0.00     0.253 A 
HETATM   11  O2  UNL     1      -2.640   2.221  15.852  1.00  0.00    -0.268 OA
HETATM   12  C10 UNL     1      -4.243   3.483  14.876  1.00  0.00     0.025 A 
HETATM   13  C11 UNL     1      -5.394   2.660  15.381  1.00  0.00     0.050 C 
HETATM   14  C12 UNL     1      -1.135   5.943  13.423  1.00  0.00     0.058 C 
HETATM   15  C13 UNL     1      -1.534   6.917  12.399  1.00  0.00     0.010 C 
HETATM   16  C14 UNL     1      -2.857   7.579  12.687  1.00  0.00    -0.014 C 
HETATM   17  C15 UNL     1      -3.115   8.560  11.562  1.00  0.00     0.010 C 
HETATM   18  C16 UNL     1      -3.971   6.571  12.808  1.00  0.00     0.045 C 
ENDROOT
BRANCH   1  19
HETATM   19  C2  UNL     1      -7.482   2.995  16.713  1.00  0.00     0.001 C 
HETATM   20  C1  UNL     1      -7.121   1.578  17.049  1.00  0.00     0.005 C 
ENDBRANCH   1  19
TORSDOF 1
ENDMDL
MODEL 5
REMARK VINA RESULT: -6.709006860      2.189      5.172
REMARK  1 active torsions:
REMARK  status: ('A' for Active; 'I' for Inactive)
REMARK    1  A    between atoms: C2_2  and  C3_3 
ROOT
HETATM    1  C3  UNL     1      -5.984   2.591  16.019  1.00  0.00    -0.003 C 
HETATM    2  C4  UNL     1      -6.511   3.986  16.138  1.00  0.00     0.088 C 
HETATM    3  C5  UNL     1      -5.740   4.889  15.261  1.00  0.00     0.161 C 
HETATM    4  O1  UNL     1      -6.032   6.103  15.141  1.00  0.00    -0.292 OA
HETATM    5  C6  UNL     1      -4.610   4.370  14.509  1.00  0.00     0.030 A 
HETATM    6  C7  UNL     1      -3.513   5.180  14.143  1.00  0.00    -0.021 A 
HETATM    7  C8  UNL     1      -2.483   4.658  13.413  1.00  0.00     0.019 A 
HETATM    8  N1  UNL     1      -2.518   3.341  13.035  1.00  0.00    -0.326 N 
ATOM      9  H1  UNL     1      -1.750   2.949  12.490  1.00  0.00     0.169 HD
HETATM   10  C9  UNL     1      -3.553   2.568  13.378  1.00  0.00     0.253 A 
HETATM   11  O2  UNL     1      -3.570   1.348  13.022  1.00  0.00    -0.268 OA
HETATM   12  C10 UNL     1      -4.602   3.043  14.106  1.00  0.00     0.025 A 
HETATM   13  C11 UNL     1      -5.784   2.227  14.546  1.00  0.00     0.050 C 
HETATM   14  C12 UNL     1      -1.325   5.468  13.008  1.00  0.00     0.058 C 
HETATM   15  C13 UNL     1      -1.513   6.909  13.222  1.00  0.00     0.010 C 
HETATM   16  C14 UNL     1      -2.205   7.235  14.521  1.00  0.00    -0.014 C 
HETATM   17  C15 UNL     1      -2.304   8.744  14.602  1.00  0.00     0.010 C 
HETATM   18  C16 UNL     1      -3.562   6.587  14.608  1.00  0.00     0.045 C 
ENDROOT
BRANCH   1  19
HETATM   19  C2  UNL     1      -6.938   1.617  16.677  1.00  0.00     0.001 C 
HETATM   20  C1  UNL     1      -6.292   0.854  17.795  1.00  0.00     0.005 C 
ENDBRANCH   1  19
TORSDOF 1
ENDMDL
