MODEL 1
REMARK VINA RESULT: -5.965717407      0.000      0.000
REMARK  7 active torsions:
REMARK  status: ('A' for Active; 'I' for Inactive)
REMARK    1  A    between atoms: N1_2  and  C2_4 
REMARK    2  A    between atoms: C2_4  and  C3_5 
REMARK    3  A    between atoms: C3_5  and  C4_6 
REMARK    4  A    between atoms: C4_6  and  N2_7 
REMARK    5  A    between atoms: N2_7  and  C5_10 
REMARK    6  A    between atoms: C5_10  and  N3_11 
REMARK    7  A    between atoms: N3_11  and  C6_13 
ROOT
HETATM    1  C5  UNL     1      -3.202  -3.802  17.498  1.00  0.00     0.355 C 
ENDROOT
BRANCH   1   2
HETATM    2  N2  UNL     1      -2.862  -3.429  16.082  1.00  0.00    -0.056 N 
ATOM      3  H22 UNL     1      -2.263  -2.607  16.015  1.00  0.00     0.279 HD
ATOM      4  H21 UNL     1      -3.656  -3.053  15.563  1.00  0.00     0.279 HD
BRANCH   2   5
HETATM    5  C4  UNL     1      -2.298  -4.580  15.482  1.00  0.00     0.263 C 
BRANCH   5   6
HETATM    6  C3  UNL     1      -1.459  -5.413  16.351  1.00  0.00     0.017 C 
BRANCH   6   7
HETATM    7  C2  UNL     1      -1.620  -6.846  16.516  1.00  0.00     0.080 C 
BRANCH   7   8
HETATM    8  N1  UNL     1      -1.856  -7.477  17.711  1.00  0.00    -0.403 N 
HETATM    9  C1  UNL     1      -1.193  -8.620  18.164  1.00  0.00     0.145 C 
ATOM     10  H1  UNL     1      -2.574  -7.078  18.317  1.00  0.00     0.158 HD
ENDBRANCH   7   8
ENDBRANCH   6   7
ENDBRANCH   5   6
ENDBRANCH   2   5
ENDBRANCH   1   2
BRANCH   1  11
HETATM   11  N3  UNL     1      -2.831  -2.730  18.383  1.00  0.00    -0.369 N 
ATOM     12  H3  UNL     1      -2.257  -1.954  18.055  1.00  0.00     0.161 HD
BRANCH  11  13
HETATM   13  C6  UNL     1      -3.289  -2.783  19.735  1.00  0.00     0.030 C 
HETATM   14  C7  UNL     1      -2.499  -2.636  20.781  1.00  0.00     0.027 C 
HETATM   15  C8  UNL     1      -3.345  -2.755  21.991  1.00  0.00     0.266 C 
HETATM   16  N4  UNL     1      -4.698  -2.744  21.551  1.00  0.00    -0.066 N 
HETATM   17  C9  UNL     1      -5.432  -3.790  22.243  1.00  0.00     0.272 C 
HETATM   18  C10 UNL     1      -5.376  -1.486  21.821  1.00  0.00     0.272 C 
HETATM   19  C11 UNL     1      -4.698  -3.009  20.145  1.00  0.00     0.293 C 
ENDBRANCH  11  13
ENDBRANCH   1  11
TORSDOF 7
ENDMDL
MODEL 2
REMARK VINA RESULT: -5.630179265      1.467      1.926
REMARK  7 active torsions:
REMARK  status: ('A' for Active; 'I' for Inactive)
REMARK    1  A    between atoms: N1_2  and  C2_4 
REMARK    2  A    between atoms: C2_4  and  C3_5 
REMARK    3  A    between atoms: C3_5  and  C4_6 
REMARK    4  A    between atoms: C4_6  and  N2_7 
REMARK    5  A    between atoms: N2_7  and  C5_10 
REMARK    6  A    between atoms: C5_10  and  N3_11 
REMARK    7  A    between atoms: N3_11  and  C6_13 
ROOT
HETATM    1  C5  UNL     1      -1.827  -2.786  18.096  1.00  0.00     0.355 C 
ENDROOT
BRANCH   1   2
HETATM    2  N2  UNL     1      -1.688  -3.217  16.662  1.00  0.00    -0.056 N 
ATOM      3  H22 UNL     1      -0.763  -3.584  16.440  1.00  0.00     0.279 HD
ATOM      4  H21 UNL     1      -1.677  -2.436  16.006  1.00  0.00     0.279 HD
BRANCH   2   5
HETATM    5  C4  UNL     1      -2.730  -4.141  16.413  1.00  0.00     0.263 C 
BRANCH   5   6
HETATM    6  C3  UNL     1      -2.371  -5.559  16.517  1.00  0.00     0.017 C 
BRANCH   6   7
HETATM    7  C2  UNL     1      -1.324  -6.198  15.739  1.00  0.00     0.080 C 
BRANCH   7   8
HETATM    8  N1  UNL     1      -1.206  -6.123  14.375  1.00  0.00    -0.403 N 
HETATM    9  C1  UNL     1      -0.705  -5.026  13.668  1.00  0.00     0.145 C 
ATOM     10  H1  UNL     1      -1.506  -6.933  13.832  1.00  0.00     0.158 HD
ENDBRANCH   7   8
ENDBRANCH   6   7
ENDBRANCH   5   6
ENDBRANCH   2   5
ENDBRANCH   1   2
BRANCH   1  11
HETATM   11  N3  UNL     1      -3.219  -2.737  18.454  1.00  0.00    -0.369 N 
ATOM     12  H3  UNL     1      -3.943  -2.677  17.739  1.00  0.00     0.161 HD
BRANCH  11  13
HETATM   13  C6  UNL     1      -3.559  -2.776  19.841  1.00  0.00     0.030 C 
HETATM   14  C7  UNL     1      -2.680  -2.629  20.814  1.00  0.00     0.027 C 
HETATM   15  C8  UNL     1      -3.420  -2.731  22.094  1.00  0.00     0.266 C 
HETATM   16  N4  UNL     1      -4.805  -2.709  21.772  1.00  0.00    -0.066 N 
HETATM   17  C9  UNL     1      -5.487  -3.744  22.533  1.00  0.00     0.272 C 
HETATM   18  C10 UNL     1      -5.446  -1.444  22.089  1.00  0.00     0.272 C 
HETATM   19  C11 UNL     1      -4.929  -2.985  20.373  1.00  0.00     0.293 C 
ENDBRANCH  11  13
ENDBRANCH   1  11
TORSDOF 7
ENDMDL
MODEL 3
REMARK VINA RESULT: -5.620238831      0.726      1.367
REMARK  7 active torsions:
REMARK  status: ('A' for Active; 'I' for Inactive)
REMARK    1  A    between atoms: N1_2  and  C2_4 
REMARK    2  A    between atoms: C2_4  and  C3_5 
REMARK    3  A    between atoms: C3_5  and  C4_6 
REMARK    4  A    between atoms: C4_6  and  N2_7 
REMARK    5  A    between atoms: N2_7  and  C5_10 
REMARK    6  A    between atoms: C5_10  and  N3_11 
REMARK    7  A    between atoms: N3_11  and  C6_13 
ROOT
HETATM    1  C5  UNL     1      -3.009  -3.671  16.969  1.00  0.00     0.355 C 
ENDROOT
BRANCH   1   2
HETATM    2  N2  UNL     1      -2.050  -3.391  15.846  1.00  0.00    -0.056 N 
ATOM      3  H22 UNL     1      -1.160  -3.007  16.163  1.00  0.00     0.279 HD
ATOM      4  H21 UNL     1      -2.331  -2.601  15.264  1.00  0.00     0.279 HD
BRANCH   2   5
HETATM    5  C4  UNL     1      -1.909  -4.597  15.120  1.00  0.00     0.263 C 
BRANCH   5   6
HETATM    6  C3  UNL     1      -1.097  -5.640  15.757  1.00  0.00     0.017 C 
BRANCH   6   7
HETATM    7  C2  UNL     1      -1.617  -6.917  16.215  1.00  0.00     0.080 C 
BRANCH   7   8
HETATM    8  N1  UNL     1      -1.786  -7.267  17.530  1.00  0.00    -0.403 N 
HETATM    9  C1  UNL     1      -1.286  -8.429  18.125  1.00  0.00     0.145 C 
ATOM     10  H1  UNL     1      -2.319  -6.629  18.121  1.00  0.00     0.158 HD
ENDBRANCH   7   8
ENDBRANCH   6   7
ENDBRANCH   5   6
ENDBRANCH   2   5
ENDBRANCH   1   2
BRANCH   1  11
HETATM   11  N3  UNL     1      -2.509  -3.094  18.188  1.00  0.00    -0.369 N 
ATOM     12  H3  UNL     1      -1.567  -2.705  18.237  1.00  0.00     0.161 HD
BRANCH  11  13
HETATM   13  C6  UNL     1      -3.368  -3.081  19.329  1.00  0.00     0.030 C 
HETATM   14  C7  UNL     1      -4.219  -4.048  19.614  1.00  0.00     0.027 C 
HETATM   15  C8  UNL     1      -4.917  -3.665  20.864  1.00  0.00     0.266 C 
HETATM   16  N4  UNL     1      -4.234  -2.531  21.387  1.00  0.00    -0.066 N 
HETATM   17  C9  UNL     1      -5.210  -1.538  21.803  1.00  0.00     0.272 C 
HETATM   18  C10 UNL     1      -3.411  -2.843  22.543  1.00  0.00     0.272 C 
HETATM   19  C11 UNL     1      -3.423  -1.993  20.338  1.00  0.00     0.293 C 
ENDBRANCH  11  13
ENDBRANCH   1  11
TORSDOF 7
ENDMDL
MODEL 4
REMARK VINA RESULT: -5.521780992      1.639      2.377
REMARK  7 active torsions:
REMARK  status: ('A' for Active; 'I' for Inactive)
REMARK    1  A    between atoms: N1_2  and  C2_4 
REMARK    2  A    between atoms: C2_4  and  C3_5 
REMARK    3  A    between atoms: C3_5  and  C4_6 
REMARK    4  A    between atoms: C4_6  and  N2_7 
REMARK    5  A    between atoms: N2_7  and  C5_10 
REMARK    6  A    between atoms: C5_10  and  N3_11 
REMARK    7  A    between atoms: N3_11  and  C6_13 
ROOT
HETATM    1  C5  UNL     1      -1.481  -3.302  17.965  1.00  0.00     0.355 C 
ENDROOT
BRANCH   1   2
HETATM    2  N2  UNL     1      -1.906  -2.875  16.587  1.00  0.00    -0.056 N 
ATOM      3  H22 UNL     1      -1.121  -2.658  15.974  1.00  0.00     0.279 HD
ATOM      4  H21 UNL     1      -2.343  -1.953  16.569  1.00  0.00     0.279 HD
BRANCH   2   5
HETATM    5  C4  UNL     1      -2.742  -3.899  16.083  1.00  0.00     0.263 C 
BRANCH   5   6
HETATM    6  C3  UNL     1      -2.349  -5.272  16.417  1.00  0.00     0.017 C 
BRANCH   6   7
HETATM    7  C2  UNL     1      -1.486  -6.100  15.594  1.00  0.00     0.080 C 
BRANCH   7   8
HETATM    8  N1  UNL     1      -0.472  -5.628  14.800  1.00  0.00    -0.403 N 
HETATM    9  C1  UNL     1      -0.644  -4.972  13.578  1.00  0.00     0.145 C 
ATOM     10  H1  UNL     1       0.484  -5.767  15.128  1.00  0.00     0.158 HD
ENDBRANCH   7   8
ENDBRANCH   6   7
ENDBRANCH   5   6
ENDBRANCH   2   5
ENDBRANCH   1   2
BRANCH   1  11
HETATM   11  N3  UNL     1      -1.822  -2.279  18.916  1.00  0.00    -0.369 N 
ATOM     12  H3  UNL     1      -1.224  -1.463  19.045  1.00  0.00     0.161 HD
BRANCH  11  13
HETATM   13  C6  UNL     1      -3.022  -2.437  19.675  1.00  0.00     0.030 C 
HETATM   14  C7  UNL     1      -4.065  -3.127  19.257  1.00  0.00     0.027 C 
HETATM   15  C8  UNL     1      -5.096  -3.053  20.319  1.00  0.00     0.266 C 
HETATM   16  N4  UNL     1      -4.472  -2.473  21.459  1.00  0.00    -0.066 N 
HETATM   17  C9  UNL     1      -5.354  -1.465  22.023  1.00  0.00     0.272 C 
HETATM   18  C10 UNL     1      -4.188  -3.439  22.508  1.00  0.00     0.272 C 
HETATM   19  C11 UNL     1      -3.258  -1.855  21.020  1.00  0.00     0.293 C 
ENDBRANCH  11  13
ENDBRANCH   1  11
TORSDOF 7
ENDMDL
MODEL 5
REMARK VINA RESULT: -5.480995480      1.440      2.250
REMARK  7 active torsions:
REMARK  status: ('A' for Active; 'I' for Inactive)
REMARK    1  A    between atoms: N1_2  and  C2_4 
REMARK    2  A    between atoms: C2_4  and  C3_5 
REMARK    3  A    between atoms: C3_5  and  C4_6 
REMARK    4  A    between atoms: C4_6  and  N2_7 
REMARK    5  A    between atoms: N2_7  and  C5_10 
REMARK    6  A    between atoms: C5_10  and  N3_11 
REMARK    7  A    between atoms: N3_11  and  C6_13 
ROOT
HETATM    1  C5  UNL     1      -2.846  -4.185  17.262  1.00  0.00     0.355 C 
ENDROOT
BRANCH   1   2
HETATM    2  N2  UNL     1      -3.194  -5.441  18.011  1.00  0.00    -0.056 N 
ATOM      3  H22 UNL     1      -4.198  -5.565  18.143  1.00  0.00     0.279 HD
ATOM      4  H21 UNL     1      -2.938  -5.405  18.997  1.00  0.00     0.279 HD
BRANCH   2   5
HETATM    5  C4  UNL     1      -2.586  -6.512  17.314  1.00  0.00     0.263 C 
BRANCH   5   6
HETATM    6  C3  UNL     1      -1.501  -6.149  16.397  1.00  0.00     0.017 C 
BRANCH   6   7
HETATM    7  C2  UNL     1      -1.450  -6.530  14.996  1.00  0.00     0.080 C 
BRANCH   7   8
HETATM    8  N1  UNL     1      -1.588  -5.662  13.943  1.00  0.00    -0.403 N 
HETATM    9  C1  UNL     1      -0.721  -4.607  13.649  1.00  0.00     0.145 C 
ATOM     10  H1  UNL     1      -2.388  -5.799  13.325  1.00  0.00     0.158 HD
ENDBRANCH   7   8
ENDBRANCH   6   7
ENDBRANCH   5   6
ENDBRANCH   2   5
ENDBRANCH   1   2
BRANCH   1  11
HETATM   11  N3  UNL     1      -3.599  -3.080  17.792  1.00  0.00    -0.369 N 
ATOM     12  H3  UNL     1      -4.071  -2.422  17.172  1.00  0.00     0.161 HD
BRANCH  11  13
HETATM   13  C6  UNL     1      -3.666  -2.930  19.211  1.00  0.00     0.030 C 
HETATM   14  C7  UNL     1      -2.655  -2.519  19.951  1.00  0.00     0.027 C 
HETATM   15  C8  UNL     1      -3.120  -2.496  21.358  1.00  0.00     0.266 C 
HETATM   16  N4  UNL     1      -4.529  -2.696  21.329  1.00  0.00    -0.066 N 
HETATM   17  C9  UNL     1      -4.893  -3.665  22.350  1.00  0.00     0.272 C 
HETATM   18  C10 UNL     1      -5.284  -1.482  21.593  1.00  0.00     0.272 C 
HETATM   19  C11 UNL     1      -4.866  -3.212  20.038  1.00  0.00     0.293 C 
ENDBRANCH  11  13
ENDBRANCH   1  11
TORSDOF 7
ENDMDL
