MODEL 1
REMARK VINA RESULT: -8.249182346      0.000      0.000
REMARK  15 active torsions:
REMARK  status: ('A' for Active; 'I' for Inactive)
REMARK    1  A    between atoms: C4_4  and  C5_5 
REMARK    2  A    between atoms: C5_5  and  C6_6 
REMARK    3  A    between atoms: C6_6  and  C7_11 
REMARK    4  A    between atoms: N1_7  and  O1_9 
REMARK    5  A    between atoms: C7_11  and  N2_12 
REMARK    6  A    between atoms: C7_11  and  C10_20 
REMARK    7  A    between atoms: N2_12  and  C8_14 
REMARK    8  A    between atoms: C8_14  and  C9_15 
REMARK    9  A    between atoms: C9_15  and  N3_16 
REMARK   10  A    between atoms: C10_20  and  N4_21 
REMARK   11  A    between atoms: C10_20  and  N5_24 
REMARK   12  A    between atoms: N5_24  and  C11_26 
REMARK   13  A    between atoms: C12_28  and  S2_29 
REMARK   14  A    between atoms: C18_39  and  O3_40 
REMARK   15  A    between atoms: O3_40  and  C19_41 
ROOT
HETATM    1  C7  UNL     1       4.677  -0.636  43.804  1.00  0.00     0.097 C 
ENDROOT
BRANCH   1   2
HETATM    2  C6  UNL     1       5.202  -0.567  42.448  1.00  0.00     0.066 C 
HETATM    3  N1  UNL     1       4.918  -1.463  41.579  1.00  0.00    -0.271 N 
ATOM      4  H1  UNL     1       5.279  -1.376  40.629  1.00  0.00     0.194 HD
BRANCH   2   5
HETATM    5  C5  UNL     1       6.068   0.616  42.050  1.00  0.00     0.100 C 
BRANCH   5   6
HETATM    6  C4  UNL     1       5.528   1.246  40.809  1.00  0.00    -0.049 A 
HETATM    7  C3  UNL     1       6.361   1.475  39.728  1.00  0.00     0.017 A 
HETATM    8  C2  UNL     1       5.899   2.052  38.570  1.00  0.00    -0.025 A 
HETATM    9  C1  UNL     1       6.882   2.255  37.455  1.00  0.00     0.051 C 
HETATM   10  C18 UNL     1       4.582   2.424  38.449  1.00  0.00     0.113 A 
HETATM   11  C17 UNL     1       3.741   2.204  39.516  1.00  0.00     0.150 A 
HETATM   12  C16 UNL     1       4.208   1.617  40.693  1.00  0.00     0.052 A 
HETATM   13  F1  UNL     1       2.425   2.567  39.415  1.00  0.00    -0.203 F 
BRANCH  10  14
HETATM   14  O3  UNL     1       4.146   3.003  37.277  1.00  0.00    -0.343 OA
BRANCH  14  15
HETATM   15  C19 UNL     1       3.430   2.330  36.261  1.00  0.00     0.121 C 
HETATM   16  C20 UNL     1       1.979   2.725  36.183  1.00  0.00     0.040 C 
HETATM   17  C21 UNL     1       4.038   2.493  34.910  1.00  0.00     0.040 C 
ENDBRANCH  14  15
ENDBRANCH  10  14
ENDBRANCH   5   6
ENDBRANCH   2   5
BRANCH   3  18
HETATM   18  O1  UNL     1       4.143  -2.529  41.908  1.00  0.00    -0.290 OA
ATOM     19  H1  UNL     1       3.276  -2.633  41.534  1.00  0.00     0.244 HD
ENDBRANCH   3  18
ENDBRANCH   1   2
BRANCH   1  20
HETATM   20  N2  UNL     1       3.919   0.526  44.158  1.00  0.00    -0.384 N 
ATOM     21  H2  UNL     1       4.309   1.341  44.631  1.00  0.00     0.159 HD
BRANCH  20  22
HETATM   22  C8  UNL     1       2.524   0.405  43.760  1.00  0.00     0.147 C 
BRANCH  22  23
HETATM   23  C9  UNL     1       1.909  -0.916  44.136  1.00  0.00     0.249 C 
BRANCH  23  24
HETATM   24  N3  UNL     1       1.290  -1.625  43.068  1.00  0.00    -0.078 N 
ATOM     25  H33 UNL     1       0.745  -2.405  43.434  1.00  0.00     0.274 HD
ATOM     26  H32 UNL     1       0.546  -1.062  42.658  1.00  0.00     0.274 HD
ATOM     27  H31 UNL     1       1.923  -1.952  42.338  1.00  0.00     0.274 HD
ENDBRANCH  23  24
ENDBRANCH  22  23
ENDBRANCH  20  22
ENDBRANCH   1  20
BRANCH   1  28
HETATM   28  C10 UNL     1       5.591  -1.159  44.832  1.00  0.00     0.129 C 
BRANCH  28  29
HETATM   29  N4  UNL     1       6.551  -0.406  45.247  1.00  0.00    -0.384 N 
ATOM     30  H42 UNL     1       7.412  -0.307  44.709  1.00  0.00     0.157 HD
ATOM     31  H41 UNL     1       6.445   0.075  46.140  1.00  0.00     0.157 HD
ENDBRANCH  28  29
BRANCH  28  32
HETATM   32  N5  UNL     1       5.400  -2.411  45.355  1.00  0.00    -0.321 N 
ATOM     33  H5  UNL     1       4.543  -2.480  45.903  1.00  0.00     0.169 HD
BRANCH  32  34
HETATM   34  C11 UNL     1       6.051  -3.516  45.314  1.00  0.00     0.154 A 
HETATM   35  S1  UNL     1       5.972  -4.659  43.993  1.00  0.00    -0.041 SA
HETATM   36  C12 UNL     1       7.042  -5.821  44.606  1.00  0.00     0.116 A 
HETATM   37  C14 UNL     1       7.412  -5.275  45.804  1.00  0.00     0.146 A 
HETATM   38  N6  UNL     1       8.355  -6.022  46.638  1.00  0.00    -0.080 NA
HETATM   39  N7  UNL     1       6.903  -4.118  46.139  1.00  0.00    -0.318 N 
HETATM   40  C15 UNL     1       7.252  -3.458  47.428  1.00  0.00     0.159 C 
BRANCH  36  41
HETATM   41  S2  UNL     1       7.566  -7.362  43.904  1.00  0.00     0.056 S 
HETATM   42  C13 UNL     1       8.029  -7.134  42.205  1.00  0.00     0.133 C 
HETATM   43  O2  UNL     1       8.821  -8.019  44.799  1.00  0.00    -0.252 OA
ENDBRANCH  36  41
ENDBRANCH  32  34
ENDBRANCH  28  32
ENDBRANCH   1  28
TORSDOF 15
ENDMDL
MODEL 2
REMARK VINA RESULT: -8.157296611      0.901      1.456
REMARK  15 active torsions:
REMARK  status: ('A' for Active; 'I' for Inactive)
REMARK    1  A    between atoms: C4_4  and  C5_5 
REMARK    2  A    between atoms: C5_5  and  C6_6 
REMARK    3  A    between atoms: C6_6  and  C7_11 
REMARK    4  A    between atoms: N1_7  and  O1_9 
REMARK    5  A    between atoms: C7_11  and  N2_12 
REMARK    6  A    between atoms: C7_11  and  C10_20 
REMARK    7  A    between atoms: N2_12  and  C8_14 
REMARK    8  A    between atoms: C8_14  and  C9_15 
REMARK    9  A    between atoms: C9_15  and  N3_16 
REMARK   10  A    between atoms: C10_20  and  N4_21 
REMARK   11  A    between atoms: C10_20  and  N5_24 
REMARK   12  A    between atoms: N5_24  and  C11_26 
REMARK   13  A    between atoms: C12_28  and  S2_29 
REMARK   14  A    between atoms: C18_39  and  O3_40 
REMARK   15  A    between atoms: O3_40  and  C19_41 
ROOT
HETATM    1  C7  UNL     1       4.724  -0.643  43.745  1.00  0.00     0.097 C 
ENDROOT
BRANCH   1   2
HETATM    2  C6  UNL     1       5.254  -0.664  42.389  1.00  0.00     0.066 C 
HETATM    3  N1  UNL     1       4.912  -1.573  41.556  1.00  0.00    -0.271 N 
ATOM      4  H1  UNL     1       5.278  -1.549  40.605  1.00  0.00     0.194 HD
BRANCH   2   5
HETATM    5  C5  UNL     1       6.196   0.443  41.946  1.00  0.00     0.100 C 
BRANCH   5   6
HETATM    6  C4  UNL     1       5.663   1.104  40.719  1.00  0.00    -0.049 A 
HETATM    7  C3  UNL     1       4.405   1.677  40.730  1.00  0.00     0.017 A 
HETATM    8  C2  UNL     1       3.882   2.294  39.619  1.00  0.00    -0.025 A 
HETATM    9  C1  UNL     1       2.509   2.887  39.736  1.00  0.00     0.051 C 
HETATM   10  C18 UNL     1       4.600   2.359  38.450  1.00  0.00     0.113 A 
HETATM   11  C17 UNL     1       5.854   1.792  38.422  1.00  0.00     0.150 A 
HETATM   12  C16 UNL     1       6.387   1.166  39.550  1.00  0.00     0.052 A 
HETATM   13  F1  UNL     1       6.586   1.847  37.267  1.00  0.00    -0.203 F 
BRANCH  10  14
HETATM   14  O3  UNL     1       4.051   2.981  37.351  1.00  0.00    -0.343 OA
BRANCH  14  15
HETATM   15  C19 UNL     1       3.429   2.314  36.271  1.00  0.00     0.121 C 
HETATM   16  C20 UNL     1       1.981   2.685  36.085  1.00  0.00     0.040 C 
HETATM   17  C21 UNL     1       4.138   2.511  34.974  1.00  0.00     0.040 C 
ENDBRANCH  14  15
ENDBRANCH  10  14
ENDBRANCH   5   6
ENDBRANCH   2   5
BRANCH   3  18
HETATM   18  O1  UNL     1       4.067  -2.571  41.925  1.00  0.00    -0.290 OA
ATOM     19  H1  UNL     1       3.544  -3.029  41.277  1.00  0.00     0.244 HD
ENDBRANCH   3  18
ENDBRANCH   1   2
BRANCH   1  20
HETATM   20  N2  UNL     1       3.991   0.554  44.029  1.00  0.00    -0.384 N 
ATOM     21  H2  UNL     1       4.400   1.489  44.030  1.00  0.00     0.159 HD
BRANCH  20  22
HETATM   22  C8  UNL     1       2.591   0.278  44.315  1.00  0.00     0.147 C 
BRANCH  22  23
HETATM   23  C9  UNL     1       1.776  -0.010  43.083  1.00  0.00     0.249 C 
BRANCH  23  24
HETATM   24  N3  UNL     1       1.291  -1.344  42.972  1.00  0.00    -0.078 N 
ATOM     25  H33 UNL     1       1.655  -1.914  43.735  1.00  0.00     0.274 HD
ATOM     26  H32 UNL     1       0.294  -1.373  43.184  1.00  0.00     0.274 HD
ATOM     27  H31 UNL     1       1.471  -1.800  42.077  1.00  0.00     0.274 HD
ENDBRANCH  23  24
ENDBRANCH  22  23
ENDBRANCH  20  22
ENDBRANCH   1  20
BRANCH   1  28
HETATM   28  C10 UNL     1       5.624  -1.125  44.805  1.00  0.00     0.129 C 
BRANCH  28  29
HETATM   29  N4  UNL     1       6.564  -0.348  45.221  1.00  0.00    -0.384 N 
ATOM     30  H42 UNL     1       6.429   0.663  45.262  1.00  0.00     0.157 HD
ATOM     31  H41 UNL     1       7.457  -0.759  45.488  1.00  0.00     0.157 HD
ENDBRANCH  28  29
BRANCH  28  32
HETATM   32  N5  UNL     1       5.441  -2.367  45.355  1.00  0.00    -0.321 N 
ATOM     33  H5  UNL     1       4.597  -2.423  45.925  1.00  0.00     0.169 HD
BRANCH  32  34
HETATM   34  C11 UNL     1       6.087  -3.476  45.318  1.00  0.00     0.154 A 
HETATM   35  S1  UNL     1       6.033  -4.605  43.984  1.00  0.00    -0.041 SA
HETATM   36  C12 UNL     1       7.082  -5.779  44.611  1.00  0.00     0.116 A 
HETATM   37  C14 UNL     1       7.426  -5.246  45.822  1.00  0.00     0.146 A 
HETATM   38  N6  UNL     1       8.346  -6.008  46.671  1.00  0.00    -0.080 NA
HETATM   39  N7  UNL     1       6.916  -4.090  46.157  1.00  0.00    -0.318 N 
HETATM   40  C15 UNL     1       7.239  -3.445  47.460  1.00  0.00     0.159 C 
BRANCH  36  41
HETATM   41  S2  UNL     1       7.614  -7.316  43.906  1.00  0.00     0.056 S 
HETATM   42  C13 UNL     1       7.904  -7.122  42.165  1.00  0.00     0.133 C 
HETATM   43  O2  UNL     1       8.978  -7.883  44.696  1.00  0.00    -0.252 OA
ENDBRANCH  36  41
ENDBRANCH  32  34
ENDBRANCH  28  32
ENDBRANCH   1  28
TORSDOF 15
ENDMDL
MODEL 3
REMARK VINA RESULT: -8.113990991      1.534      1.883
REMARK  15 active torsions:
REMARK  status: ('A' for Active; 'I' for Inactive)
REMARK    1  A    between atoms: C4_4  and  C5_5 
REMARK    2  A    between atoms: C5_5  and  C6_6 
REMARK    3  A    between atoms: C6_6  and  C7_11 
REMARK    4  A    between atoms: N1_7  and  O1_9 
REMARK    5  A    between atoms: C7_11  and  N2_12 
REMARK    6  A    between atoms: C7_11  and  C10_20 
REMARK    7  A    between atoms: N2_12  and  C8_14 
REMARK    8  A    between atoms: C8_14  and  C9_15 
REMARK    9  A    between atoms: C9_15  and  N3_16 
REMARK   10  A    between atoms: C10_20  and  N4_21 
REMARK   11  A    between atoms: C10_20  and  N5_24 
REMARK   12  A    between atoms: N5_24  and  C11_26 
REMARK   13  A    between atoms: C12_28  and  S2_29 
REMARK   14  A    between atoms: C18_39  and  O3_40 
REMARK   15  A    between atoms: O3_40  and  C19_41 
ROOT
HETATM    1  C7  UNL     1       4.714  -0.564  44.291  1.00  0.00     0.097 C 
ENDROOT
BRANCH   1   2
HETATM    2  C6  UNL     1       5.839  -0.533  43.367  1.00  0.00     0.066 C 
HETATM    3  N1  UNL     1       6.985  -0.096  43.730  1.00  0.00    -0.271 N 
ATOM      4  H1  UNL     1       7.762  -0.110  43.070  1.00  0.00     0.194 HD
BRANCH   2   5
HETATM    5  C5  UNL     1       5.653  -1.072  41.958  1.00  0.00     0.100 C 
BRANCH   5   6
HETATM    6  C4  UNL     1       5.371   0.052  41.018  1.00  0.00    -0.049 A 
HETATM    7  C3  UNL     1       6.352   0.491  40.147  1.00  0.00     0.017 A 
HETATM    8  C2  UNL     1       6.128   1.522  39.267  1.00  0.00    -0.025 A 
HETATM    9  C1  UNL     1       7.257   1.920  38.362  1.00  0.00     0.051 C 
HETATM   10  C18 UNL     1       4.911   2.157  39.226  1.00  0.00     0.113 A 
HETATM   11  C17 UNL     1       3.925   1.733  40.087  1.00  0.00     0.150 A 
HETATM   12  C16 UNL     1       4.149   0.685  40.981  1.00  0.00     0.052 A 
HETATM   13  F1  UNL     1       2.704   2.352  40.061  1.00  0.00    -0.203 F 
BRANCH  10  14
HETATM   14  O3  UNL     1       4.715   3.190  38.336  1.00  0.00    -0.343 OA
BRANCH  14  15
HETATM   15  C19 UNL     1       3.809   3.161  37.251  1.00  0.00     0.121 C 
HETATM   16  C20 UNL     1       3.463   4.526  36.717  1.00  0.00     0.040 C 
HETATM   17  C21 UNL     1       4.279   2.315  36.117  1.00  0.00     0.040 C 
ENDBRANCH  14  15
ENDBRANCH  10  14
ENDBRANCH   5   6
ENDBRANCH   2   5
BRANCH   3  18
HETATM   18  O1  UNL     1       7.179   0.387  44.985  1.00  0.00    -0.290 OA
ATOM     19  H1  UNL     1       6.917   1.271  45.211  1.00  0.00     0.244 HD
ENDBRANCH   3  18
ENDBRANCH   1   2
BRANCH   1  20
HETATM   20  N2  UNL     1       4.462   0.711  44.891  1.00  0.00    -0.384 N 
ATOM     21  H2  UNL     1       5.130   1.207  45.481  1.00  0.00     0.159 HD
BRANCH  20  22
HETATM   22  C8  UNL     1       3.139   1.216  44.556  1.00  0.00     0.147 C 
BRANCH  22  23
HETATM   23  C9  UNL     1       2.475   1.950  45.691  1.00  0.00     0.249 C 
BRANCH  23  24
HETATM   24  N3  UNL     1       3.188   1.936  46.923  1.00  0.00    -0.078 N 
ATOM     25  H33 UNL     1       4.109   1.519  46.791  1.00  0.00     0.274 HD
ATOM     26  H32 UNL     1       3.457   2.885  47.183  1.00  0.00     0.274 HD
ATOM     27  H31 UNL     1       2.706   1.484  47.700  1.00  0.00     0.274 HD
ENDBRANCH  23  24
ENDBRANCH  22  23
ENDBRANCH  20  22
ENDBRANCH   1  20
BRANCH   1  28
HETATM   28  C10 UNL     1       4.633  -1.733  45.181  1.00  0.00     0.129 C 
BRANCH  28  29
HETATM   29  N4  UNL     1       3.473  -2.230  45.445  1.00  0.00    -0.384 N 
ATOM     30  H42 UNL     1       2.694  -2.120  44.796  1.00  0.00     0.157 HD
ATOM     31  H41 UNL     1       3.340  -2.720  46.329  1.00  0.00     0.157 HD
ENDBRANCH  28  29
BRANCH  28  32
HETATM   32  N5  UNL     1       5.774  -2.295  45.691  1.00  0.00    -0.321 N 
ATOM     33  H5  UNL     1       6.292  -1.654  46.291  1.00  0.00     0.169 HD
BRANCH  32  34
HETATM   34  C11 UNL     1       6.340  -3.443  45.586  1.00  0.00     0.154 A 
HETATM   35  S1  UNL     1       6.239  -4.467  44.173  1.00  0.00    -0.041 SA
HETATM   36  C12 UNL     1       7.186  -5.756  44.734  1.00  0.00     0.116 A 
HETATM   37  C14 UNL     1       7.537  -5.337  45.987  1.00  0.00     0.146 A 
HETATM   38  N6  UNL     1       8.378  -6.221  46.797  1.00  0.00    -0.080 NA
HETATM   39  N7  UNL     1       7.102  -4.173  46.395  1.00  0.00    -0.318 N 
HETATM   40  C15 UNL     1       7.437  -3.647  47.748  1.00  0.00     0.159 C 
BRANCH  36  41
HETATM   41  S2  UNL     1       7.626  -7.273  43.930  1.00  0.00     0.056 S 
HETATM   42  C13 UNL     1       7.707  -7.033  42.172  1.00  0.00     0.133 C 
HETATM   43  O2  UNL     1       9.072  -7.862  44.537  1.00  0.00    -0.252 OA
ENDBRANCH  36  41
ENDBRANCH  32  34
ENDBRANCH  28  32
ENDBRANCH   1  28
TORSDOF 15
ENDMDL
MODEL 4
REMARK VINA RESULT: -8.069152696      1.240      1.290
REMARK  15 active torsions:
REMARK  status: ('A' for Active; 'I' for Inactive)
REMARK    1  A    between atoms: C4_4  and  C5_5 
REMARK    2  A    between atoms: C5_5  and  C6_6 
REMARK    3  A    between atoms: C6_6  and  C7_11 
REMARK    4  A    between atoms: N1_7  and  O1_9 
REMARK    5  A    between atoms: C7_11  and  N2_12 
REMARK    6  A    between atoms: C7_11  and  C10_20 
REMARK    7  A    between atoms: N2_12  and  C8_14 
REMARK    8  A    between atoms: C8_14  and  C9_15 
REMARK    9  A    between atoms: C9_15  and  N3_16 
REMARK   10  A    between atoms: C10_20  and  N4_21 
REMARK   11  A    between atoms: C10_20  and  N5_24 
REMARK   12  A    between atoms: N5_24  and  C11_26 
REMARK   13  A    between atoms: C12_28  and  S2_29 
REMARK   14  A    between atoms: C18_39  and  O3_40 
REMARK   15  A    between atoms: O3_40  and  C19_41 
ROOT
HETATM    1  C7  UNL     1       4.311  -0.580  43.490  1.00  0.00     0.097 C 
ENDROOT
BRANCH   1   2
HETATM    2  C6  UNL     1       5.171  -0.442  42.323  1.00  0.00     0.066 C 
HETATM    3  N1  UNL     1       5.358  -1.418  41.517  1.00  0.00    -0.271 N 
ATOM      4  H1  UNL     1       5.945  -1.285  40.693  1.00  0.00     0.194 HD
BRANCH   2   5
HETATM    5  C5  UNL     1       5.821   0.902  42.039  1.00  0.00     0.100 C 
BRANCH   5   6
HETATM    6  C4  UNL     1       5.301   1.457  40.755  1.00  0.00    -0.049 A 
HETATM    7  C3  UNL     1       6.163   1.685  39.698  1.00  0.00     0.017 A 
HETATM    8  C2  UNL     1       5.719   2.195  38.501  1.00  0.00    -0.025 A 
HETATM    9  C1  UNL     1       6.734   2.402  37.416  1.00  0.00     0.051 C 
HETATM   10  C18 UNL     1       4.392   2.497  38.317  1.00  0.00     0.113 A 
HETATM   11  C17 UNL     1       3.522   2.276  39.360  1.00  0.00     0.150 A 
HETATM   12  C16 UNL     1       3.970   1.759  40.576  1.00  0.00     0.052 A 
HETATM   13  F1  UNL     1       2.195   2.571  39.196  1.00  0.00    -0.203 F 
BRANCH  10  14
HETATM   14  O3  UNL     1       3.975   3.009  37.108  1.00  0.00    -0.343 OA
BRANCH  14  15
HETATM   15  C19 UNL     1       3.333   2.264  36.093  1.00  0.00     0.121 C 
HETATM   16  C20 UNL     1       1.872   2.592  35.936  1.00  0.00     0.040 C 
HETATM   17  C21 UNL     1       3.993   2.395  34.763  1.00  0.00     0.040 C 
ENDBRANCH  14  15
ENDBRANCH  10  14
ENDBRANCH   5   6
ENDBRANCH   2   5
BRANCH   3  18
HETATM   18  O1  UNL     1       4.785  -2.628  41.745  1.00  0.00    -0.290 OA
ATOM     19  H1  UNL     1       3.853  -2.755  41.620  1.00  0.00     0.244 HD
ENDBRANCH   3  18
ENDBRANCH   1   2
BRANCH   1  20
HETATM   20  N2  UNL     1       3.591   0.623  43.785  1.00  0.00    -0.384 N 
ATOM     21  H2  UNL     1       4.024   1.543  43.864  1.00  0.00     0.159 HD
BRANCH  20  22
HETATM   22  C8  UNL     1       2.168   0.374  43.961  1.00  0.00     0.147 C 
BRANCH  22  23
HETATM   23  C9  UNL     1       1.602  -0.589  42.951  1.00  0.00     0.249 C 
BRANCH  23  24
HETATM   24  N3  UNL     1       0.903  -1.702  43.497  1.00  0.00    -0.078 N 
ATOM     25  H33 UNL     1       1.490  -2.535  43.464  1.00  0.00     0.274 HD
ATOM     26  H32 UNL     1       0.802  -1.592  44.506  1.00  0.00     0.274 HD
ATOM     27  H31 UNL     1      -0.005  -1.896  43.074  1.00  0.00     0.274 HD
ENDBRANCH  23  24
ENDBRANCH  22  23
ENDBRANCH  20  22
ENDBRANCH   1  20
BRANCH   1  28
HETATM   28  C10 UNL     1       4.880  -1.301  44.639  1.00  0.00     0.129 C 
BRANCH  28  29
HETATM   29  N4  UNL     1       5.689  -0.675  45.423  1.00  0.00    -0.384 N 
ATOM     30  H42 UNL     1       5.574  -0.713  46.436  1.00  0.00     0.157 HD
ATOM     31  H41 UNL     1       6.438  -0.119  45.011  1.00  0.00     0.157 HD
ENDBRANCH  28  29
BRANCH  28  32
HETATM   32  N5  UNL     1       4.528  -2.603  44.882  1.00  0.00    -0.321 N 
ATOM     33  H5  UNL     1       3.572  -2.811  44.594  1.00  0.00     0.169 HD
BRANCH  32  34
HETATM   34  C11 UNL     1       5.124  -3.620  45.389  1.00  0.00     0.154 A 
HETATM   35  S1  UNL     1       6.557  -4.361  44.714  1.00  0.00    -0.041 SA
HETATM   36  C12 UNL     1       6.763  -5.591  45.862  1.00  0.00     0.116 A 
HETATM   37  C14 UNL     1       5.717  -5.374  46.714  1.00  0.00     0.146 A 
HETATM   38  N6  UNL     1       5.567  -6.272  47.862  1.00  0.00    -0.080 NA
HETATM   39  N7  UNL     1       4.907  -4.380  46.458  1.00  0.00    -0.318 N 
HETATM   40  C15 UNL     1       3.741  -4.080  47.336  1.00  0.00     0.159 C 
BRANCH  36  41
HETATM   41  S2  UNL     1       8.005  -6.853  45.960  1.00  0.00     0.056 S 
HETATM   42  C13 UNL     1       8.331  -7.518  44.347  1.00  0.00     0.133 C 
HETATM   43  O2  UNL     1       9.398  -6.251  46.670  1.00  0.00    -0.252 OA
ENDBRANCH  36  41
ENDBRANCH  32  34
ENDBRANCH  28  32
ENDBRANCH   1  28
TORSDOF 15
ENDMDL
MODEL 5
REMARK VINA RESULT: -8.037912711      4.679      6.960
REMARK  15 active torsions:
REMARK  status: ('A' for Active; 'I' for Inactive)
REMARK    1  A    between atoms: C4_4  and  C5_5 
REMARK    2  A    between atoms: C5_5  and  C6_6 
REMARK    3  A    between atoms: C6_6  and  C7_11 
REMARK    4  A    between atoms: N1_7  and  O1_9 
REMARK    5  A    between atoms: C7_11  and  N2_12 
REMARK    6  A    between atoms: C7_11  and  C10_20 
REMARK    7  A    between atoms: N2_12  and  C8_14 
REMARK    8  A    between atoms: C8_14  and  C9_15 
REMARK    9  A    between atoms: C9_15  and  N3_16 
REMARK   10  A    between atoms: C10_20  and  N4_21 
REMARK   11  A    between atoms: C10_20  and  N5_24 
REMARK   12  A    between atoms: N5_24  and  C11_26 
REMARK   13  A    between atoms: C12_28  and  S2_29 
REMARK   14  A    between atoms: C18_39  and  O3_40 
REMARK   15  A    between atoms: O3_40  and  C19_41 
ROOT
HETATM    1  C7  UNL     1       6.161  -5.966  45.827  1.00  0.00     0.097 C 
ENDROOT
BRANCH   1   2
HETATM    2  C6  UNL     1       6.196  -4.560  46.201  1.00  0.00     0.066 C 
HETATM    3  N1  UNL     1       7.216  -4.052  46.782  1.00  0.00    -0.271 N 
ATOM      4  H1  UNL     1       7.223  -3.058  47.010  1.00  0.00     0.194 HD
BRANCH   2   5
HETATM    5  C5  UNL     1       5.011  -3.673  45.853  1.00  0.00     0.100 C 
BRANCH   5   6
HETATM    6  C4  UNL     1       5.378  -2.751  44.737  1.00  0.00    -0.049 A 
HETATM    7  C3  UNL     1       6.064  -1.580  45.002  1.00  0.00     0.017 A 
HETATM    8  C2  UNL     1       6.419  -0.708  44.001  1.00  0.00    -0.025 A 
HETATM    9  C1  UNL     1       7.164   0.533  44.393  1.00  0.00     0.051 C 
HETATM   10  C18 UNL     1       6.097  -0.975  42.693  1.00  0.00     0.113 A 
HETATM   11  C17 UNL     1       5.412  -2.136  42.413  1.00  0.00     0.150 A 
HETATM   12  C16 UNL     1       5.052  -3.024  43.428  1.00  0.00     0.052 A 
HETATM   13  F1  UNL     1       5.083  -2.420  41.115  1.00  0.00    -0.203 F 
BRANCH  10  14
HETATM   14  O3  UNL     1       6.462  -0.083  41.709  1.00  0.00    -0.343 OA
BRANCH  14  15
HETATM   15  C19 UNL     1       5.571   0.516  40.789  1.00  0.00     0.121 C 
HETATM   16  C20 UNL     1       4.429   1.248  41.443  1.00  0.00     0.040 C 
HETATM   17  C21 UNL     1       6.247   1.446  39.839  1.00  0.00     0.040 C 
ENDBRANCH  14  15
ENDBRANCH  10  14
ENDBRANCH   5   6
ENDBRANCH   2   5
BRANCH   3  18
HETATM   18  O1  UNL     1       8.289  -4.821  47.101  1.00  0.00    -0.290 OA
ATOM     19  H1  UNL     1       8.175  -5.718  47.391  1.00  0.00     0.244 HD
ENDBRANCH   3  18
ENDBRANCH   1   2
BRANCH   1  20
HETATM   20  N2  UNL     1       5.967  -6.155  44.420  1.00  0.00    -0.384 N 
ATOM     21  H2  UNL     1       5.065  -6.357  43.990  1.00  0.00     0.159 HD
BRANCH  20  22
HETATM   22  C8  UNL     1       7.212  -6.022  43.679  1.00  0.00     0.147 C 
BRANCH  22  23
HETATM   23  C9  UNL     1       7.610  -7.278  42.950  1.00  0.00     0.249 C 
BRANCH  23  24
HETATM   24  N3  UNL     1       8.349  -7.077  41.750  1.00  0.00    -0.078 N 
ATOM     25  H33 UNL     1       8.991  -6.292  41.861  1.00  0.00     0.274 HD
ATOM     26  H32 UNL     1       9.016  -7.837  41.618  1.00  0.00     0.274 HD
ATOM     27  H31 UNL     1       7.788  -6.954  40.907  1.00  0.00     0.274 HD
ENDBRANCH  23  24
ENDBRANCH  22  23
ENDBRANCH  20  22
ENDBRANCH   1  20
BRANCH   1  28
HETATM   28  C10 UNL     1       5.404  -6.861  46.717  1.00  0.00     0.129 C 
BRANCH  28  29
HETATM   29  N4  UNL     1       5.783  -6.978  47.943  1.00  0.00    -0.384 N 
ATOM     30  H42 UNL     1       6.475  -7.677  48.215  1.00  0.00     0.157 HD
ATOM     31  H41 UNL     1       5.360  -6.373  48.646  1.00  0.00     0.157 HD
ENDBRANCH  28  29
BRANCH  28  32
HETATM   32  N5  UNL     1       4.301  -7.528  46.252  1.00  0.00    -0.321 N 
ATOM     33  H5  UNL     1       4.356  -7.727  45.253  1.00  0.00     0.169 HD
BRANCH  32  34
HETATM   34  C11 UNL     1       3.215  -7.959  46.784  1.00  0.00     0.154 A 
HETATM   35  S1  UNL     1       3.122  -9.342  47.850  1.00  0.00    -0.041 SA
HETATM   36  C12 UNL     1       1.453  -9.316  48.143  1.00  0.00     0.116 A 
HETATM   37  C14 UNL     1       1.043  -8.240  47.404  1.00  0.00     0.146 A 
HETATM   38  N6  UNL     1      -0.382  -7.903  47.412  1.00  0.00    -0.080 NA
HETATM   39  N7  UNL     1       1.945  -7.574  46.730  1.00  0.00    -0.318 N 
HETATM   40  C15 UNL     1       1.579  -6.394  45.898  1.00  0.00     0.159 C 
BRANCH  36  41
HETATM   41  S2  UNL     1       0.460 -10.391  49.143  1.00  0.00     0.056 S 
HETATM   42  C13 UNL     1       1.281 -11.950  49.365  1.00  0.00     0.133 C 
HETATM   43  O2  UNL     1       0.107  -9.668  50.612  1.00  0.00    -0.252 OA
ENDBRANCH  36  41
ENDBRANCH  32  34
ENDBRANCH  28  32
ENDBRANCH   1  28
TORSDOF 15
ENDMDL
