MODEL 1
REMARK VINA RESULT: -6.467331426      0.000      0.000
REMARK  9 active torsions:
REMARK  status: ('A' for Active; 'I' for Inactive)
REMARK    1  A    between atoms: C2_2  and  C3_3 
REMARK    2  A    between atoms: C3_3  and  C6_6 
REMARK    3  A    between atoms: C6_6  and  O2_8 
REMARK    4  A    between atoms: O2_8  and  C7_9 
REMARK    5  A    between atoms: C10_12  and  O3_13 
REMARK    6  A    between atoms: C11_15  and  C12_16 
REMARK    7  A    between atoms: C11_15  and  C15_21 
REMARK    8  A    between atoms: C13_17  and  C14_18 
REMARK    9  A    between atoms: C15_21  and  C16_22 
ROOT
HETATM    1  C7  UNL     1       6.133  50.547  19.451  1.00  0.00     0.271 C 
HETATM    2  C8  UNL     1       6.497  51.558  18.395  1.00  0.00     0.064 C 
HETATM    3  C9  UNL     1       7.610  52.475  18.778  1.00  0.00     0.040 C 
HETATM    4  C10 UNL     1       8.572  51.672  19.652  1.00  0.00     0.157 C 
HETATM    5  C11 UNL     1       7.835  51.269  20.873  1.00  0.00     0.108 C 
HETATM    6  O6  UNL     1       6.557  50.841  20.704  1.00  0.00    -0.343 OA
ENDROOT
BRANCH   1   7
HETATM    7  O2  UNL     1       4.718  50.474  19.471  1.00  0.00    -0.289 OA
BRANCH   7   8
HETATM    8  C6  UNL     1       4.016  49.530  18.736  1.00  0.00     0.273 C 
HETATM    9  O1  UNL     1       4.718  48.679  18.110  1.00  0.00    -0.264 OA
BRANCH   8  10
HETATM   10  C3  UNL     1       2.525  49.512  18.682  1.00  0.00     0.058 C 
HETATM   11  C4  UNL     1       2.006  50.185  17.424  1.00  0.00     0.030 C 
HETATM   12  C5  UNL     1       1.934  50.228  19.864  1.00  0.00     0.030 C 
BRANCH  10  13
HETATM   13  C2  UNL     1       2.098  48.087  18.615  1.00  0.00    -0.018 C 
HETATM   14  C1  UNL     1       0.959  47.767  19.221  1.00  0.00     0.008 C 
ENDBRANCH  10  13
ENDBRANCH   8  10
ENDBRANCH   7   8
ENDBRANCH   1   7
BRANCH   5  15
HETATM   15  C12 UNL     1       7.777  52.480  21.773  1.00  0.00     0.020 C 
HETATM   16  C13 UNL     1       8.578  52.589  22.815  1.00  0.00     0.083 C 
BRANCH  16  17
HETATM   17  C14 UNL     1       8.517  53.749  23.670  1.00  0.00     0.198 C 
HETATM   18  O4  UNL     1       7.428  54.344  23.833  1.00  0.00    -0.645 OA
HETATM   19  O5  UNL     1       9.663  54.195  24.304  1.00  0.00    -0.645 OA
ENDBRANCH  16  17
ENDBRANCH   5  15
BRANCH   5  20
HETATM   20  C15 UNL     1       8.670  50.243  21.633  1.00  0.00     0.045 C 
BRANCH  20  21
HETATM   21  C16 UNL     1       7.812  49.106  22.098  1.00  0.00    -0.001 C 
HETATM   22  C17 UNL     1       8.188  48.751  23.514  1.00  0.00     0.005 C 
ENDBRANCH  20  21
ENDBRANCH   5  20
BRANCH   4  23
HETATM   23  O3  UNL     1       9.089  50.670  18.881  1.00  0.00    -0.392 OA
ATOM     24  H3  UNL     1       8.636  49.868  19.114  1.00  0.00     0.210 HD
ENDBRANCH   4  23
TORSDOF 9
ENDMDL
MODEL 2
REMARK VINA RESULT: -6.434459795      1.127      1.391
REMARK  9 active torsions:
REMARK  status: ('A' for Active; 'I' for Inactive)
REMARK    1  A    between atoms: C2_2  and  C3_3 
REMARK    2  A    between atoms: C3_3  and  C6_6 
REMARK    3  A    between atoms: C6_6  and  O2_8 
REMARK    4  A    between atoms: O2_8  and  C7_9 
REMARK    5  A    between atoms: C10_12  and  O3_13 
REMARK    6  A    between atoms: C11_15  and  C12_16 
REMARK    7  A    between atoms: C11_15  and  C15_21 
REMARK    8  A    between atoms: C13_17  and  C14_18 
REMARK    9  A    between atoms: C15_21  and  C16_22 
ROOT
HETATM    1  C7  UNL     1       6.217  50.171  19.514  1.00  0.00     0.271 C 
HETATM    2  C8  UNL     1       7.106  50.728  18.432  1.00  0.00     0.064 C 
HETATM    3  C9  UNL     1       8.486  51.070  18.886  1.00  0.00     0.040 C 
HETATM    4  C10 UNL     1       8.870  50.053  19.958  1.00  0.00     0.157 C 
HETATM    5  C11 UNL     1       7.933  50.224  21.093  1.00  0.00     0.108 C 
HETATM    6  O6  UNL     1       6.625  50.417  20.782  1.00  0.00    -0.343 OA
ENDROOT
BRANCH   1   7
HETATM    7  O2  UNL     1       4.943  50.766  19.337  1.00  0.00    -0.289 OA
BRANCH   7   8
HETATM    8  C6  UNL     1       3.839  50.038  18.918  1.00  0.00     0.273 C 
HETATM    9  O1  UNL     1       4.078  49.062  18.144  1.00  0.00    -0.264 OA
BRANCH   8  10
HETATM   10  C3  UNL     1       2.452  50.378  19.350  1.00  0.00     0.058 C 
HETATM   11  C4  UNL     1       1.745  51.242  18.319  1.00  0.00     0.030 C 
HETATM   12  C5  UNL     1       2.461  51.130  20.650  1.00  0.00     0.030 C 
BRANCH  10  13
HETATM   13  C2  UNL     1       1.687  49.104  19.441  1.00  0.00    -0.018 C 
HETATM   14  C1  UNL     1       0.571  49.117  20.162  1.00  0.00     0.008 C 
ENDBRANCH  10  13
ENDBRANCH   8  10
ENDBRANCH   7   8
ENDBRANCH   1   7
BRANCH   5  15
HETATM   15  C12 UNL     1       8.386  51.442  21.860  1.00  0.00     0.020 C 
HETATM   16  C13 UNL     1       7.710  52.573  21.796  1.00  0.00     0.083 C 
BRANCH  16  17
HETATM   17  C14 UNL     1       8.149  53.733  22.532  1.00  0.00     0.198 C 
HETATM   18  O4  UNL     1       8.885  53.592  23.534  1.00  0.00    -0.645 OA
HETATM   19  O5  UNL     1       7.752  54.994  22.124  1.00  0.00    -0.645 OA
ENDBRANCH  16  17
ENDBRANCH   5  15
BRANCH   5  20
HETATM   20  C15 UNL     1       8.109  49.053  22.055  1.00  0.00     0.045 C 
BRANCH  20  21
HETATM   21  C16 UNL     1       8.942  49.459  23.232  1.00  0.00    -0.001 C 
HETATM   22  C17 UNL     1       8.476  48.704  24.450  1.00  0.00     0.005 C 
ENDBRANCH  20  21
ENDBRANCH   5  20
BRANCH   4  23
HETATM   23  O3  UNL     1       8.907  48.824  19.364  1.00  0.00    -0.392 OA
ATOM     24  H3  UNL     1       9.800  48.673  19.077  1.00  0.00     0.210 HD
ENDBRANCH   4  23
TORSDOF 9
ENDMDL
MODEL 3
REMARK VINA RESULT: -6.409371917      1.126      1.802
REMARK  9 active torsions:
REMARK  status: ('A' for Active; 'I' for Inactive)
REMARK    1  A    between atoms: C2_2  and  C3_3 
REMARK    2  A    between atoms: C3_3  and  C6_6 
REMARK    3  A    between atoms: C6_6  and  O2_8 
REMARK    4  A    between atoms: O2_8  and  C7_9 
REMARK    5  A    between atoms: C10_12  and  O3_13 
REMARK    6  A    between atoms: C11_15  and  C12_16 
REMARK    7  A    between atoms: C11_15  and  C15_21 
REMARK    8  A    between atoms: C13_17  and  C14_18 
REMARK    9  A    between atoms: C15_21  and  C16_22 
ROOT
HETATM    1  C7  UNL     1       6.222  50.148  19.533  1.00  0.00     0.271 C 
HETATM    2  C8  UNL     1       7.108  50.696  18.445  1.00  0.00     0.064 C 
HETATM    3  C9  UNL     1       8.482  51.064  18.898  1.00  0.00     0.040 C 
HETATM    4  C10 UNL     1       8.874  50.073  19.992  1.00  0.00     0.157 C 
HETATM    5  C11 UNL     1       7.929  50.254  21.119  1.00  0.00     0.108 C 
HETATM    6  O6  UNL     1       6.620  50.425  20.799  1.00  0.00    -0.343 OA
ENDROOT
BRANCH   1   7
HETATM    7  O2  UNL     1       4.941  50.723  19.339  1.00  0.00    -0.289 OA
BRANCH   7   8
HETATM    8  C6  UNL     1       3.853  49.978  18.909  1.00  0.00     0.273 C 
HETATM    9  O1  UNL     1       4.123  48.948  18.219  1.00  0.00    -0.264 OA
BRANCH   8  10
HETATM   10  C3  UNL     1       2.449  50.358  19.238  1.00  0.00     0.058 C 
HETATM   11  C4  UNL     1       1.595  49.136  19.528  1.00  0.00     0.030 C 
HETATM   12  C5  UNL     1       1.811  51.104  18.100  1.00  0.00     0.030 C 
BRANCH  10  13
HETATM   13  C2  UNL     1       2.485  51.164  20.489  1.00  0.00    -0.018 C 
HETATM   14  C1  UNL     1       1.407  51.127  21.266  1.00  0.00     0.008 C 
ENDBRANCH  10  13
ENDBRANCH   8  10
ENDBRANCH   7   8
ENDBRANCH   1   7
BRANCH   5  15
HETATM   15  C12 UNL     1       8.363  51.493  21.864  1.00  0.00     0.020 C 
HETATM   16  C13 UNL     1       7.669  52.612  21.780  1.00  0.00     0.083 C 
BRANCH  16  17
HETATM   17  C14 UNL     1       8.089  53.792  22.495  1.00  0.00     0.198 C 
HETATM   18  O4  UNL     1       8.811  53.679  23.511  1.00  0.00    -0.645 OA
HETATM   19  O5  UNL     1       7.691  55.041  22.052  1.00  0.00    -0.645 OA
ENDBRANCH  16  17
ENDBRANCH   5  15
BRANCH   5  20
HETATM   20  C15 UNL     1       8.115  49.105  22.104  1.00  0.00     0.045 C 
BRANCH  20  21
HETATM   21  C16 UNL     1       8.885  49.561  23.306  1.00  0.00    -0.001 C 
HETATM   22  C17 UNL     1       8.469  48.741  24.500  1.00  0.00     0.005 C 
ENDBRANCH  20  21
ENDBRANCH   5  20
BRANCH   4  23
HETATM   23  O3  UNL     1       8.930  48.834  19.422  1.00  0.00    -0.392 OA
ATOM     24  H3  UNL     1       9.431  48.274  20.004  1.00  0.00     0.210 HD
ENDBRANCH   4  23
TORSDOF 9
ENDMDL
MODEL 4
REMARK VINA RESULT: -6.388519971      2.762      5.395
REMARK  9 active torsions:
REMARK  status: ('A' for Active; 'I' for Inactive)
REMARK    1  A    between atoms: C2_2  and  C3_3 
REMARK    2  A    between atoms: C3_3  and  C6_6 
REMARK    3  A    between atoms: C6_6  and  O2_8 
REMARK    4  A    between atoms: O2_8  and  C7_9 
REMARK    5  A    between atoms: C10_12  and  O3_13 
REMARK    6  A    between atoms: C11_15  and  C12_16 
REMARK    7  A    between atoms: C11_15  and  C15_21 
REMARK    8  A    between atoms: C13_17  and  C14_18 
REMARK    9  A    between atoms: C15_21  and  C16_22 
ROOT
HETATM    1  C7  UNL     1       8.401  50.310  20.409  1.00  0.00     0.271 C 
HETATM    2  C8  UNL     1       6.978  49.828  20.517  1.00  0.00     0.064 C 
HETATM    3  C9  UNL     1       5.956  50.914  20.468  1.00  0.00     0.040 C 
HETATM    4  C10 UNL     1       6.492  51.993  19.530  1.00  0.00     0.157 C 
HETATM    5  C11 UNL     1       7.737  52.528  20.130  1.00  0.00     0.108 C 
HETATM    6  O6  UNL     1       8.590  51.624  20.678  1.00  0.00    -0.343 OA
ENDROOT
BRANCH   1   7
HETATM    7  O2  UNL     1       9.155  49.555  21.343  1.00  0.00    -0.289 OA
BRANCH   7   8
HETATM    8  C6  UNL     1       8.804  49.473  22.682  1.00  0.00     0.273 C 
HETATM    9  O1  UNL     1       8.722  50.575  23.304  1.00  0.00    -0.264 OA
BRANCH   8  10
HETATM   10  C3  UNL     1       8.537  48.168  23.354  1.00  0.00     0.058 C 
HETATM   11  C4  UNL     1       9.320  47.039  22.708  1.00  0.00     0.030 C 
HETATM   12  C5  UNL     1       7.078  47.814  23.285  1.00  0.00     0.030 C 
BRANCH  10  13
HETATM   13  C2  UNL     1       9.022  48.281  24.757  1.00  0.00    -0.018 C 
HETATM   14  C1  UNL     1       8.676  47.312  25.598  1.00  0.00     0.008 C 
ENDBRANCH  10  13
ENDBRANCH   8  10
ENDBRANCH   7   8
ENDBRANCH   1   7
BRANCH   5  15
HETATM   15  C12 UNL     1       7.325  53.469  21.235  1.00  0.00     0.020 C 
HETATM   16  C13 UNL     1       8.025  53.553  22.350  1.00  0.00     0.083 C 
BRANCH  16  17
HETATM   17  C14 UNL     1       7.626  54.455  23.402  1.00  0.00     0.198 C 
HETATM   18  O4  UNL     1       6.569  55.115  23.287  1.00  0.00    -0.645 OA
HETATM   19  O5  UNL     1       8.415  54.583  24.532  1.00  0.00    -0.645 OA
ENDBRANCH  16  17
ENDBRANCH   5  15
BRANCH   5  20
HETATM   20  C15 UNL     1       8.443  53.402  19.098  1.00  0.00     0.045 C 
BRANCH  20  21
HETATM   21  C16 UNL     1       7.786  54.745  19.008  1.00  0.00    -0.001 C 
HETATM   22  C17 UNL     1       8.829  55.785  18.688  1.00  0.00     0.005 C 
ENDBRANCH  20  21
ENDBRANCH   5  20
BRANCH   4  23
HETATM   23  O3  UNL     1       6.591  51.442  18.284  1.00  0.00    -0.392 OA
ATOM     24  H3  UNL     1       7.357  50.880  18.280  1.00  0.00     0.210 HD
ENDBRANCH   4  23
TORSDOF 9
ENDMDL
MODEL 5
REMARK VINA RESULT: -6.346365699      0.430      1.007
REMARK  9 active torsions:
REMARK  status: ('A' for Active; 'I' for Inactive)
REMARK    1  A    between atoms: C2_2  and  C3_3 
REMARK    2  A    between atoms: C3_3  and  C6_6 
REMARK    3  A    between atoms: C6_6  and  O2_8 
REMARK    4  A    between atoms: O2_8  and  C7_9 
REMARK    5  A    between atoms: C10_12  and  O3_13 
REMARK    6  A    between atoms: C11_15  and  C12_16 
REMARK    7  A    between atoms: C11_15  and  C15_21 
REMARK    8  A    between atoms: C13_17  and  C14_18 
REMARK    9  A    between atoms: C15_21  and  C16_22 
ROOT
HETATM    1  C7  UNL     1       6.199  50.354  19.277  1.00  0.00     0.271 C 
HETATM    2  C8  UNL     1       6.570  51.340  18.199  1.00  0.00     0.064 C 
HETATM    3  C9  UNL     1       7.642  52.301  18.588  1.00  0.00     0.040 C 
HETATM    4  C10 UNL     1       8.595  51.558  19.522  1.00  0.00     0.157 C 
HETATM    5  C11 UNL     1       7.828  51.174  20.730  1.00  0.00     0.108 C 
HETATM    6  O6  UNL     1       6.570  50.703  20.533  1.00  0.00    -0.343 OA
ENDROOT
BRANCH   1   7
HETATM    7  O2  UNL     1       4.786  50.240  19.251  1.00  0.00    -0.289 OA
BRANCH   7   8
HETATM    8  C6  UNL     1       4.138  49.255  18.520  1.00  0.00     0.273 C 
HETATM    9  O1  UNL     1       4.884  48.386  17.974  1.00  0.00    -0.264 OA
BRANCH   8  10
HETATM   10  C3  UNL     1       2.653  49.215  18.382  1.00  0.00     0.058 C 
HETATM   11  C4  UNL     1       2.135  47.787  18.362  1.00  0.00     0.030 C 
HETATM   12  C5  UNL     1       2.211  49.883  17.111  1.00  0.00     0.030 C 
BRANCH  10  13
HETATM   13  C2  UNL     1       2.074  49.865  19.590  1.00  0.00    -0.018 C 
HETATM   14  C1  UNL     1       0.930  49.374  20.054  1.00  0.00     0.008 C 
ENDBRANCH  10  13
ENDBRANCH   8  10
ENDBRANCH   7   8
ENDBRANCH   1   7
BRANCH   5  15
HETATM   15  C12 UNL     1       7.704  52.412  21.585  1.00  0.00     0.020 C 
HETATM   16  C13 UNL     1       8.485  52.595  22.632  1.00  0.00     0.083 C 
BRANCH  16  17
HETATM   17  C14 UNL     1       8.361  53.780  23.444  1.00  0.00     0.198 C 
HETATM   18  O4  UNL     1       7.354  54.513  23.322  1.00  0.00    -0.645 OA
HETATM   19  O5  UNL     1       9.356  54.098  24.351  1.00  0.00    -0.645 OA
ENDBRANCH  16  17
ENDBRANCH   5  15
BRANCH   5  20
HETATM   20  C15 UNL     1       8.665  50.199  21.553  1.00  0.00     0.045 C 
BRANCH  20  21
HETATM   21  C16 UNL     1       7.819  49.065  22.046  1.00  0.00    -0.001 C 
HETATM   22  C17 UNL     1       8.217  48.731  23.461  1.00  0.00     0.005 C 
ENDBRANCH  20  21
ENDBRANCH   5  20
BRANCH   4  23
HETATM   23  O3  UNL     1       9.167  50.547  18.804  1.00  0.00    -0.392 OA
ATOM     24  H3  UNL     1       9.630  49.988  19.417  1.00  0.00     0.210 HD
ENDBRANCH   4  23
TORSDOF 9
ENDMDL
