MODEL 1
REMARK VINA RESULT: -4.920354863      0.000      0.000
REMARK  6 active torsions:
REMARK  status: ('A' for Active; 'I' for Inactive)
REMARK    1  A    between atoms: N1_1  and  C1_5 
REMARK    2  A    between atoms: C1_5  and  C2_6 
REMARK    3  A    between atoms: C2_6  and  C3_7 
REMARK    4  A    between atoms: C3_7  and  C4_8 
REMARK    5  A    between atoms: C4_8  and  C5_9 
REMARK    6  A    between atoms: C6_10  and  C7_11 
ROOT
HETATM    1  C3  UNL     1     -18.264 -11.956  15.689  1.00  0.00     0.014 C 
ENDROOT
BRANCH   1   2
HETATM    2  C2  UNL     1     -18.989 -12.074  14.392  1.00  0.00     0.028 C 
BRANCH   2   3
HETATM    3  C1  UNL     1     -18.053 -12.744  13.400  1.00  0.00     0.229 C 
BRANCH   3   4
HETATM    4  N1  UNL     1     -17.274 -11.688  12.787  1.00  0.00    -0.079 N 
ATOM      5  H13 UNL     1     -17.791 -10.815  12.683  1.00  0.00     0.274 HD
ATOM      6  H12 UNL     1     -16.536 -11.328  13.391  1.00  0.00     0.274 HD
ATOM      7  H11 UNL     1     -16.926 -12.059  11.902  1.00  0.00     0.274 HD
ENDBRANCH   3   4
ENDBRANCH   2   3
ENDBRANCH   1   2
BRANCH   1   8
HETATM    8  C4  UNL     1     -18.714 -12.942  16.734  1.00  0.00     0.094 C 
BRANCH   8   9
HETATM    9  C5  UNL     1     -17.639 -13.923  16.888  1.00  0.00    -0.104 C 
HETATM   10  C6  UNL     1     -16.760 -14.735  17.035  1.00  0.00    -0.074 C 
BRANCH  10  11
HETATM   11  C7  UNL     1     -15.695 -15.738  17.237  1.00  0.00     0.202 C 
HETATM   12  C8  UNL     1     -15.108 -15.582  18.601  1.00  0.00     0.071 C 
HETATM   13  C9  UNL     1     -14.087 -14.827  17.819  1.00  0.00     0.173 C 
HETATM   14  O1  UNL     1     -14.500 -15.390  16.610  1.00  0.00    -0.373 OA
ENDBRANCH  10  11
ENDBRANCH   8   9
ENDBRANCH   1   8
TORSDOF 6
ENDMDL
MODEL 2
REMARK VINA RESULT: -4.909623171      1.964      2.207
REMARK  6 active torsions:
REMARK  status: ('A' for Active; 'I' for Inactive)
REMARK    1  A    between atoms: N1_1  and  C1_5 
REMARK    2  A    between atoms: C1_5  and  C2_6 
REMARK    3  A    between atoms: C2_6  and  C3_7 
REMARK    4  A    between atoms: C3_7  and  C4_8 
REMARK    5  A    between atoms: C4_8  and  C5_9 
REMARK    6  A    between atoms: C6_10  and  C7_11 
ROOT
HETATM    1  C3  UNL     1     -19.143 -13.350  15.475  1.00  0.00     0.014 C 
ENDROOT
BRANCH   1   2
HETATM    2  C2  UNL     1     -18.812 -12.096  14.740  1.00  0.00     0.028 C 
BRANCH   2   3
HETATM    3  C1  UNL     1     -18.538 -12.468  13.293  1.00  0.00     0.229 C 
BRANCH   3   4
HETATM    4  N1  UNL     1     -17.347 -11.743  12.897  1.00  0.00    -0.079 N 
ATOM      5  H13 UNL     1     -16.837 -11.345  13.686  1.00  0.00     0.274 HD
ATOM      6  H12 UNL     1     -16.601 -12.349  12.556  1.00  0.00     0.274 HD
ATOM      7  H11 UNL     1     -17.644 -11.046  12.214  1.00  0.00     0.274 HD
ENDBRANCH   3   4
ENDBRANCH   2   3
ENDBRANCH   1   2
BRANCH   1   8
HETATM    8  C4  UNL     1     -18.062 -13.809  16.417  1.00  0.00     0.094 C 
BRANCH   8   9
HETATM    9  C5  UNL     1     -17.447 -14.995  15.819  1.00  0.00    -0.104 C 
HETATM   10  C6  UNL     1     -16.935 -15.977  15.345  1.00  0.00    -0.074 C 
BRANCH  10  11
HETATM   11  C7  UNL     1     -16.304 -17.191  14.789  1.00  0.00     0.202 C 
HETATM   12  C8  UNL     1     -15.926 -18.116  15.898  1.00  0.00     0.071 C 
HETATM   13  C9  UNL     1     -14.602 -17.467  15.672  1.00  0.00     0.173 C 
HETATM   14  O1  UNL     1     -14.977 -16.987  14.416  1.00  0.00    -0.373 OA
ENDBRANCH  10  11
ENDBRANCH   8   9
ENDBRANCH   1   8
TORSDOF 6
ENDMDL
MODEL 3
REMARK VINA RESULT: -4.833225322      1.247      1.507
REMARK  6 active torsions:
REMARK  status: ('A' for Active; 'I' for Inactive)
REMARK    1  A    between atoms: N1_1  and  C1_5 
REMARK    2  A    between atoms: C1_5  and  C2_6 
REMARK    3  A    between atoms: C2_6  and  C3_7 
REMARK    4  A    between atoms: C3_7  and  C4_8 
REMARK    5  A    between atoms: C4_8  and  C5_9 
REMARK    6  A    between atoms: C6_10  and  C7_11 
ROOT
HETATM    1  C3  UNL     1     -18.089 -11.960  15.677  1.00  0.00     0.014 C 
ENDROOT
BRANCH   1   2
HETATM    2  C2  UNL     1     -18.962 -12.022  14.470  1.00  0.00     0.028 C 
BRANCH   2   3
HETATM    3  C1  UNL     1     -18.167 -12.688  13.360  1.00  0.00     0.229 C 
BRANCH   3   4
HETATM    4  N1  UNL     1     -17.272 -11.680  12.829  1.00  0.00    -0.079 N 
ATOM      5  H13 UNL     1     -16.883 -11.926  11.918  1.00  0.00     0.274 HD
ATOM      6  H12 UNL     1     -17.752 -10.829  12.536  1.00  0.00     0.274 HD
ATOM      7  H11 UNL     1     -16.561 -11.517  13.541  1.00  0.00     0.274 HD
ENDBRANCH   3   4
ENDBRANCH   2   3
ENDBRANCH   1   2
BRANCH   1   8
HETATM    8  C4  UNL     1     -18.517 -12.881  16.789  1.00  0.00     0.094 C 
BRANCH   8   9
HETATM    9  C5  UNL     1     -17.649 -14.058  16.727  1.00  0.00    -0.104 C 
HETATM   10  C6  UNL     1     -16.949 -15.039  16.688  1.00  0.00    -0.074 C 
BRANCH  10  11
HETATM   11  C7  UNL     1     -16.111 -16.254  16.648  1.00  0.00     0.202 C 
HETATM   12  C8  UNL     1     -14.701 -15.884  16.326  1.00  0.00     0.071 C 
HETATM   13  C9  UNL     1     -15.153 -16.292  14.965  1.00  0.00     0.173 C 
HETATM   14  O1  UNL     1     -16.262 -16.975  15.466  1.00  0.00    -0.373 OA
ENDBRANCH  10  11
ENDBRANCH   8   9
ENDBRANCH   1   8
TORSDOF 6
ENDMDL
MODEL 4
REMARK VINA RESULT: -4.816483868      2.925      3.312
REMARK  6 active torsions:
REMARK  status: ('A' for Active; 'I' for Inactive)
REMARK    1  A    between atoms: N1_1  and  C1_5 
REMARK    2  A    between atoms: C1_5  and  C2_6 
REMARK    3  A    between atoms: C2_6  and  C3_7 
REMARK    4  A    between atoms: C3_7  and  C4_8 
REMARK    5  A    between atoms: C4_8  and  C5_9 
REMARK    6  A    between atoms: C6_10  and  C7_11 
ROOT
HETATM    1  C3  UNL     1     -19.070 -11.681  15.261  1.00  0.00     0.014 C 
ENDROOT
BRANCH   1   2
HETATM    2  C2  UNL     1     -19.188 -12.628  14.116  1.00  0.00     0.028 C 
BRANCH   2   3
HETATM    3  C1  UNL     1     -17.795 -12.845  13.550  1.00  0.00     0.229 C 
BRANCH   3   4
HETATM    4  N1  UNL     1     -17.519 -11.716  12.684  1.00  0.00    -0.079 N 
ATOM      5  H13 UNL     1     -18.129 -10.917  12.857  1.00  0.00     0.274 HD
ATOM      6  H12 UNL     1     -16.637 -11.251  12.897  1.00  0.00     0.274 HD
ATOM      7  H11 UNL     1     -17.571 -12.064  11.727  1.00  0.00     0.274 HD
ENDBRANCH   3   4
ENDBRANCH   2   3
ENDBRANCH   1   2
BRANCH   1   8
HETATM    8  C4  UNL     1     -18.149 -12.155  16.353  1.00  0.00     0.094 C 
BRANCH   8   9
HETATM    9  C5  UNL     1     -18.762 -13.346  16.943  1.00  0.00    -0.104 C 
HETATM   10  C6  UNL     1     -19.261 -14.338  17.412  1.00  0.00    -0.074 C 
BRANCH  10  11
HETATM   11  C7  UNL     1     -19.862 -15.567  17.967  1.00  0.00     0.202 C 
HETATM   12  C8  UNL     1     -20.742 -15.220  19.122  1.00  0.00     0.071 C 
HETATM   13  C9  UNL     1     -19.517 -15.620  19.873  1.00  0.00     0.173 C 
HETATM   14  O1  UNL     1     -18.978 -16.284  18.771  1.00  0.00    -0.373 OA
ENDBRANCH  10  11
ENDBRANCH   8   9
ENDBRANCH   1   8
TORSDOF 6
ENDMDL
MODEL 5
REMARK VINA RESULT: -4.741980976      2.272      2.536
REMARK  6 active torsions:
REMARK  status: ('A' for Active; 'I' for Inactive)
REMARK    1  A    between atoms: N1_1  and  C1_5 
REMARK    2  A    between atoms: C1_5  and  C2_6 
REMARK    3  A    between atoms: C2_6  and  C3_7 
REMARK    4  A    between atoms: C3_7  and  C4_8 
REMARK    5  A    between atoms: C4_8  and  C5_9 
REMARK    6  A    between atoms: C6_10  and  C7_11 
ROOT
HETATM    1  C3  UNL     1     -19.314 -12.936  15.321  1.00  0.00     0.014 C 
ENDROOT
BRANCH   1   2
HETATM    2  C2  UNL     1     -19.022 -12.084  14.133  1.00  0.00     0.028 C 
BRANCH   2   3
HETATM    3  C1  UNL     1     -17.888 -12.739  13.362  1.00  0.00     0.229 C 
BRANCH   3   4
HETATM    4  N1  UNL     1     -17.189 -11.675  12.671  1.00  0.00    -0.079 N 
ATOM      5  H13 UNL     1     -17.010 -11.882  11.688  1.00  0.00     0.274 HD
ATOM      6  H12 UNL     1     -17.762 -10.844  12.524  1.00  0.00     0.274 HD
ATOM      7  H11 UNL     1     -16.340 -11.490  13.205  1.00  0.00     0.274 HD
ENDBRANCH   3   4
ENDBRANCH   2   3
ENDBRANCH   1   2
BRANCH   1   8
HETATM    8  C4  UNL     1     -18.720 -12.418  16.604  1.00  0.00     0.094 C 
BRANCH   8   9
HETATM    9  C5  UNL     1     -18.747 -13.523  17.565  1.00  0.00    -0.104 C 
HETATM   10  C6  UNL     1     -18.767 -14.419  18.371  1.00  0.00    -0.074 C 
BRANCH  10  11
HETATM   11  C7  UNL     1     -18.795 -15.499  19.378  1.00  0.00     0.202 C 
HETATM   12  C8  UNL     1     -18.088 -15.053  20.615  1.00  0.00     0.071 C 
HETATM   13  C9  UNL     1     -16.984 -15.830  19.982  1.00  0.00     0.173 C 
HETATM   14  O1  UNL     1     -17.858 -16.498  19.123  1.00  0.00    -0.373 OA
ENDBRANCH  10  11
ENDBRANCH   8   9
ENDBRANCH   1   8
TORSDOF 6
ENDMDL
