MODEL 1
REMARK VINA RESULT: -6.828553064      0.000      0.000
REMARK  9 active torsions:
REMARK  status: ('A' for Active; 'I' for Inactive)
REMARK    1  A    between atoms: C2_2  and  C3_3 
REMARK    2  A    between atoms: C3_3  and  C4_4 
REMARK    3  A    between atoms: C4_4  and  C5_5 
REMARK    4  A    between atoms: C5_5  and  C6_6 
REMARK    5  A    between atoms: C6_6  and  C7_7 
REMARK    6  A    between atoms: C7_7  and  C8_8 
REMARK    7  A    between atoms: C16_19  and  O2_20 
REMARK    8  A    between atoms: C17_22  and  O3_23 
REMARK    9  A    between atoms: O3_23  and  O4_24 
ROOT
HETATM    1  C8  UNL     1      -0.940  76.605   7.352  1.00  0.00     0.045 C 
HETATM    2  N1  UNL     1      -1.172  75.619   8.221  1.00  0.00    -0.271 N 
ATOM      3  H1  UNL     1      -2.126  75.390   8.500  1.00  0.00     0.193 HD
HETATM    4  O1  UNL     1      -0.079  74.898   8.747  1.00  0.00    -0.270 OA
HETATM    5  C9  UNL     1       1.071  74.571   8.013  1.00  0.00     0.187 C 
HETATM    6  C10 UNL     1       0.803  75.269   6.673  1.00  0.00     0.084 C 
HETATM    7  C11 UNL     1       0.514  76.653   7.192  1.00  0.00     0.110 C 
HETATM    8  C12 UNL     1       1.251  77.463   6.217  1.00  0.00     0.071 C 
HETATM    9  C13 UNL     1       2.697  77.188   6.660  1.00  0.00    -0.023 C 
HETATM   10  C14 UNL     1       3.083  76.007   7.353  1.00  0.00     0.004 C 
HETATM   11  C15 UNL     1       2.361  75.237   8.368  1.00  0.00    -0.016 C 
HETATM   12  C16 UNL     1       2.248  75.934   9.732  1.00  0.00     0.207 C 
HETATM   13  C17 UNL     1       1.158  76.992   9.521  1.00  0.00     0.330 C 
HETATM   14  O5  UNL     1       0.902  77.171   8.312  1.00  0.00    -0.338 OA
ENDROOT
BRANCH   1  15
HETATM   15  C7  UNL     1      -1.962  77.416   6.740  1.00  0.00     0.058 C 
BRANCH  15  16
HETATM   16  C6  UNL     1      -3.138  76.701   6.170  1.00  0.00     0.006 C 
BRANCH  16  17
HETATM   17  C5  UNL     1      -2.646  75.776   5.066  1.00  0.00     0.001 C 
BRANCH  17  18
HETATM   18  C4  UNL     1      -3.070  74.374   5.427  1.00  0.00     0.004 C 
BRANCH  18  19
HETATM   19  C3  UNL     1      -4.501  74.162   5.029  1.00  0.00     0.026 C 
BRANCH  19  20
HETATM   20  C2  UNL     1      -4.793  74.655   3.662  1.00  0.00    -0.037 C 
HETATM   21  C1  UNL     1      -5.868  75.375   3.439  1.00  0.00     0.007 C 
ENDBRANCH  19  20
ENDBRANCH  18  19
ENDBRANCH  17  18
ENDBRANCH  16  17
ENDBRANCH  15  16
ENDBRANCH   1  15
BRANCH  13  22
HETATM   22  O3  UNL     1       1.737  78.174  10.065  1.00  0.00    -0.207 OA
BRANCH  22  23
HETATM   23  O4  UNL     1       1.560  78.303  11.333  1.00  0.00    -0.248 OA
ATOM     24  H4  UNL     1       0.758  78.757  11.565  1.00  0.00     0.253 HD
ENDBRANCH  22  23
ENDBRANCH  13  22
BRANCH  12  25
HETATM   25  O2  UNL     1       3.495  76.495   9.971  1.00  0.00    -0.386 OA
ATOM     26  H2  UNL     1       3.494  76.741  10.888  1.00  0.00     0.210 HD
ENDBRANCH  12  25
TORSDOF 9
ENDMDL
MODEL 2
REMARK VINA RESULT: -6.598816930      1.051      1.515
REMARK  9 active torsions:
REMARK  status: ('A' for Active; 'I' for Inactive)
REMARK    1  A    between atoms: C2_2  and  C3_3 
REMARK    2  A    between atoms: C3_3  and  C4_4 
REMARK    3  A    between atoms: C4_4  and  C5_5 
REMARK    4  A    between atoms: C5_5  and  C6_6 
REMARK    5  A    between atoms: C6_6  and  C7_7 
REMARK    6  A    between atoms: C7_7  and  C8_8 
REMARK    7  A    between atoms: C16_19  and  O2_20 
REMARK    8  A    between atoms: C17_22  and  O3_23 
REMARK    9  A    between atoms: O3_23  and  O4_24 
ROOT
HETATM    1  C8  UNL     1      -1.000  75.915   6.941  1.00  0.00     0.045 C 
HETATM    2  N1  UNL     1      -1.027  75.215   8.077  1.00  0.00    -0.271 N 
ATOM      3  H1  UNL     1      -1.916  74.944   8.497  1.00  0.00     0.193 HD
HETATM    4  O1  UNL     1       0.193  74.856   8.690  1.00  0.00    -0.270 OA
HETATM    5  C9  UNL     1       1.349  74.495   7.982  1.00  0.00     0.187 C 
HETATM    6  C10 UNL     1       0.911  74.708   6.526  1.00  0.00     0.084 C 
HETATM    7  C11 UNL     1       0.417  76.125   6.643  1.00  0.00     0.110 C 
HETATM    8  C12 UNL     1       0.966  76.701   5.411  1.00  0.00     0.071 C 
HETATM    9  C13 UNL     1       2.455  76.788   5.782  1.00  0.00    -0.023 C 
HETATM   10  C14 UNL     1       3.062  75.942   6.751  1.00  0.00     0.004 C 
HETATM   11  C15 UNL     1       2.523  75.418   8.008  1.00  0.00    -0.016 C 
HETATM   12  C16 UNL     1       2.354  76.471   9.114  1.00  0.00     0.207 C 
HETATM   13  C17 UNL     1       1.095  77.244   8.703  1.00  0.00     0.330 C 
HETATM   14  O5  UNL     1       0.761  77.009   7.523  1.00  0.00    -0.338 OA
ENDROOT
BRANCH   1  15
HETATM   15  C7  UNL     1      -2.169  76.344   6.215  1.00  0.00     0.058 C 
BRANCH  15  16
HETATM   16  C6  UNL     1      -2.421  77.811   6.152  1.00  0.00     0.006 C 
BRANCH  16  17
HETATM   17  C5  UNL     1      -3.711  78.041   5.377  1.00  0.00     0.001 C 
BRANCH  17  18
HETATM   18  C4  UNL     1      -4.467  76.737   5.357  1.00  0.00     0.004 C 
BRANCH  18  19
HETATM   19  C3  UNL     1      -5.063  76.520   3.998  1.00  0.00     0.026 C 
BRANCH  19  20
HETATM   20  C2  UNL     1      -5.080  75.092   3.602  1.00  0.00    -0.037 C 
HETATM   21  C1  UNL     1      -4.134  74.283   4.019  1.00  0.00     0.007 C 
ENDBRANCH  19  20
ENDBRANCH  18  19
ENDBRANCH  17  18
ENDBRANCH  16  17
ENDBRANCH  15  16
ENDBRANCH   1  15
BRANCH  13  22
HETATM   22  O3  UNL     1       1.490  78.606   8.824  1.00  0.00    -0.207 OA
BRANCH  22  23
HETATM   23  O4  UNL     1       1.287  79.303   7.762  1.00  0.00    -0.248 OA
ATOM     24  H4  UNL     1       1.820  79.039   7.021  1.00  0.00     0.253 HD
ENDBRANCH  22  23
ENDBRANCH  13  22
BRANCH  12  25
HETATM   25  O2  UNL     1       3.499  77.254   9.065  1.00  0.00    -0.386 OA
ATOM     26  H2  UNL     1       4.207  76.660   8.848  1.00  0.00     0.210 HD
ENDBRANCH  12  25
TORSDOF 9
ENDMDL
MODEL 3
REMARK VINA RESULT: -6.593217872      1.550      2.206
REMARK  9 active torsions:
REMARK  status: ('A' for Active; 'I' for Inactive)
REMARK    1  A    between atoms: C2_2  and  C3_3 
REMARK    2  A    between atoms: C3_3  and  C4_4 
REMARK    3  A    between atoms: C4_4  and  C5_5 
REMARK    4  A    between atoms: C5_5  and  C6_6 
REMARK    5  A    between atoms: C6_6  and  C7_7 
REMARK    6  A    between atoms: C7_7  and  C8_8 
REMARK    7  A    between atoms: C16_19  and  O2_20 
REMARK    8  A    between atoms: C17_22  and  O3_23 
REMARK    9  A    between atoms: O3_23  and  O4_24 
ROOT
HETATM    1  C8  UNL     1      -0.744  76.532   6.700  1.00  0.00     0.045 C 
HETATM    2  N1  UNL     1      -0.454  75.392   6.071  1.00  0.00    -0.271 N 
ATOM      3  H1  UNL     1      -1.188  74.853   5.613  1.00  0.00     0.193 HD
HETATM    4  O1  UNL     1       0.883  74.943   6.048  1.00  0.00    -0.270 OA
HETATM    5  C9  UNL     1       1.995  75.793   5.945  1.00  0.00     0.187 C 
HETATM    6  C10 UNL     1       1.338  77.180   5.974  1.00  0.00     0.084 C 
HETATM    7  C11 UNL     1       0.528  77.021   7.234  1.00  0.00     0.110 C 
HETATM    8  C12 UNL     1       0.759  78.324   7.866  1.00  0.00     0.071 C 
HETATM    9  C13 UNL     1       2.215  78.157   8.329  1.00  0.00    -0.023 C 
HETATM   10  C14 UNL     1       3.129  77.265   7.703  1.00  0.00     0.004 C 
HETATM   11  C15 UNL     1       2.899  75.939   7.125  1.00  0.00    -0.016 C 
HETATM   12  C16 UNL     1       2.615  74.837   8.158  1.00  0.00     0.207 C 
HETATM   13  C17 UNL     1       1.163  75.088   8.581  1.00  0.00     0.330 C 
HETATM   14  O5  UNL     1       0.751  76.209   8.216  1.00  0.00    -0.338 OA
ENDROOT
BRANCH   1  15
HETATM   15  C7  UNL     1      -2.064  77.103   6.798  1.00  0.00     0.058 C 
BRANCH  15  16
HETATM   16  C6  UNL     1      -2.329  78.327   5.992  1.00  0.00     0.006 C 
BRANCH  16  17
HETATM   17  C5  UNL     1      -3.713  78.201   5.371  1.00  0.00     0.001 C 
BRANCH  17  18
HETATM   18  C4  UNL     1      -4.147  76.765   5.521  1.00  0.00     0.004 C 
BRANCH  18  19
HETATM   19  C3  UNL     1      -4.432  76.180   4.169  1.00  0.00     0.026 C 
BRANCH  19  20
HETATM   20  C2  UNL     1      -3.823  74.842   3.985  1.00  0.00    -0.037 C 
HETATM   21  C1  UNL     1      -3.594  74.075   5.025  1.00  0.00     0.007 C 
ENDBRANCH  19  20
ENDBRANCH  18  19
ENDBRANCH  17  18
ENDBRANCH  16  17
ENDBRANCH  15  16
ENDBRANCH   1  15
BRANCH  13  22
HETATM   22  O3  UNL     1       1.222  75.043  10.003  1.00  0.00    -0.207 OA
BRANCH  22  23
HETATM   23  O4  UNL     1       1.453  73.869  10.477  1.00  0.00    -0.248 OA
ATOM     24  H4  UNL     1       1.332  73.803  11.417  1.00  0.00     0.253 HD
ENDBRANCH  22  23
ENDBRANCH  13  22
BRANCH  12  25
HETATM   25  O2  UNL     1       3.516  75.051   9.192  1.00  0.00    -0.386 OA
ATOM     26  H2  UNL     1       3.294  74.415   9.861  1.00  0.00     0.210 HD
ENDBRANCH  12  25
TORSDOF 9
ENDMDL
MODEL 4
REMARK VINA RESULT: -6.321333748      1.862      3.101
REMARK  9 active torsions:
REMARK  status: ('A' for Active; 'I' for Inactive)
REMARK    1  A    between atoms: C2_2  and  C3_3 
REMARK    2  A    between atoms: C3_3  and  C4_4 
REMARK    3  A    between atoms: C4_4  and  C5_5 
REMARK    4  A    between atoms: C5_5  and  C6_6 
REMARK    5  A    between atoms: C6_6  and  C7_7 
REMARK    6  A    between atoms: C7_7  and  C8_8 
REMARK    7  A    between atoms: C16_19  and  O2_20 
REMARK    8  A    between atoms: C17_22  and  O3_23 
REMARK    9  A    between atoms: O3_23  and  O4_24 
ROOT
HETATM    1  C8  UNL     1      -0.956  75.759   6.619  1.00  0.00     0.045 C 
HETATM    2  N1  UNL     1      -1.102  75.096   7.767  1.00  0.00    -0.271 N 
ATOM      3  H1  UNL     1      -2.029  74.821   8.092  1.00  0.00     0.193 HD
HETATM    4  O1  UNL     1       0.045  74.778   8.526  1.00  0.00    -0.270 OA
HETATM    5  C9  UNL     1       1.280  74.417   7.967  1.00  0.00     0.187 C 
HETATM    6  C10 UNL     1       1.008  74.575   6.465  1.00  0.00     0.084 C 
HETATM    7  C11 UNL     1       0.483  75.986   6.477  1.00  0.00     0.110 C 
HETATM    8  C12 UNL     1       1.161  76.533   5.297  1.00  0.00     0.071 C 
HETATM    9  C13 UNL     1       2.596  76.660   5.832  1.00  0.00    -0.023 C 
HETATM   10  C14 UNL     1       3.101  75.856   6.892  1.00  0.00     0.004 C 
HETATM   11  C15 UNL     1       2.430  75.362   8.096  1.00  0.00    -0.016 C 
HETATM   12  C16 UNL     1       2.119  76.446   9.140  1.00  0.00     0.207 C 
HETATM   13  C17 UNL     1       0.904  77.182   8.562  1.00  0.00     0.330 C 
HETATM   14  O5  UNL     1       0.711  76.904   7.361  1.00  0.00    -0.338 OA
ENDROOT
BRANCH   1  15
HETATM   15  C7  UNL     1      -2.040  76.144   5.750  1.00  0.00     0.058 C 
BRANCH  15  16
HETATM   16  C6  UNL     1      -3.051  77.084   6.311  1.00  0.00     0.006 C 
BRANCH  16  17
HETATM   17  C5  UNL     1      -2.933  78.409   5.571  1.00  0.00     0.001 C 
BRANCH  17  18
HETATM   18  C4  UNL     1      -1.695  79.103   6.079  1.00  0.00     0.004 C 
BRANCH  18  19
HETATM   19  C3  UNL     1      -1.633  80.495   5.522  1.00  0.00     0.026 C 
BRANCH  19  20
HETATM   20  C2  UNL     1      -2.969  81.126   5.410  1.00  0.00    -0.037 C 
HETATM   21  C1  UNL     1      -3.114  82.406   5.661  1.00  0.00     0.007 C 
ENDBRANCH  19  20
ENDBRANCH  18  19
ENDBRANCH  17  18
ENDBRANCH  16  17
ENDBRANCH  15  16
ENDBRANCH   1  15
BRANCH  13  22
HETATM   22  O3  UNL     1       1.263  78.554   8.682  1.00  0.00    -0.207 OA
BRANCH  22  23
HETATM   23  O4  UNL     1       1.444  79.145   7.553  1.00  0.00    -0.248 OA
ATOM     24  H4  UNL     1       1.194  78.621   6.801  1.00  0.00     0.253 HD
ENDBRANCH  22  23
ENDBRANCH  13  22
BRANCH  12  25
HETATM   25  O2  UNL     1       3.250  77.248   9.195  1.00  0.00    -0.386 OA
ATOM     26  H2  UNL     1       3.236  77.767   8.400  1.00  0.00     0.210 HD
ENDBRANCH  12  25
TORSDOF 9
ENDMDL
MODEL 5
REMARK VINA RESULT: -6.300526004      3.012      5.414
REMARK  9 active torsions:
REMARK  status: ('A' for Active; 'I' for Inactive)
REMARK    1  A    between atoms: C2_2  and  C3_3 
REMARK    2  A    between atoms: C3_3  and  C4_4 
REMARK    3  A    between atoms: C4_4  and  C5_5 
REMARK    4  A    between atoms: C5_5  and  C6_6 
REMARK    5  A    between atoms: C6_6  and  C7_7 
REMARK    6  A    between atoms: C7_7  and  C8_8 
REMARK    7  A    between atoms: C16_19  and  O2_20 
REMARK    8  A    between atoms: C17_22  and  O3_23 
REMARK    9  A    between atoms: O3_23  and  O4_24 
ROOT
HETATM    1  C8  UNL     1       1.886  74.454   7.235  1.00  0.00     0.045 C 
HETATM    2  N1  UNL     1       1.314  74.230   8.420  1.00  0.00    -0.271 N 
ATOM      3  H1  UNL     1       1.548  73.397   8.958  1.00  0.00     0.193 HD
HETATM    4  O1  UNL     1       0.380  75.164   8.917  1.00  0.00    -0.270 OA
HETATM    5  C9  UNL     1       0.487  76.551   8.739  1.00  0.00     0.187 C 
HETATM    6  C10 UNL     1       1.734  76.663   7.851  1.00  0.00     0.084 C 
HETATM    7  C11 UNL     1       1.319  75.715   6.757  1.00  0.00     0.110 C 
HETATM    8  C12 UNL     1       1.753  76.467   5.575  1.00  0.00     0.071 C 
HETATM    9  C13 UNL     1       0.688  77.574   5.540  1.00  0.00    -0.023 C 
HETATM   10  C14 UNL     1      -0.016  78.008   6.697  1.00  0.00     0.004 C 
HETATM   11  C15 UNL     1      -0.495  77.239   7.848  1.00  0.00    -0.016 C 
HETATM   12  C16 UNL     1      -1.682  76.312   7.542  1.00  0.00     0.207 C 
HETATM   13  C17 UNL     1      -1.049  75.128   6.802  1.00  0.00     0.330 C 
HETATM   14  O5  UNL     1       0.116  75.374   6.426  1.00  0.00    -0.338 OA
ENDROOT
BRANCH   1  15
HETATM   15  C7  UNL     1       2.854  73.584   6.615  1.00  0.00     0.058 C 
BRANCH  15  16
HETATM   16  C6  UNL     1       2.558  73.129   5.228  1.00  0.00     0.006 C 
BRANCH  16  17
HETATM   17  C5  UNL     1       3.730  73.517   4.337  1.00  0.00     0.001 C 
BRANCH  17  18
HETATM   18  C4  UNL     1       3.414  73.042   2.941  1.00  0.00     0.004 C 
BRANCH  18  19
HETATM   19  C3  UNL     1       3.767  74.114   1.952  1.00  0.00     0.026 C 
BRANCH  19  20
HETATM   20  C2  UNL     1       3.372  75.467   2.410  1.00  0.00    -0.037 C 
HETATM   21  C1  UNL     1       2.970  76.364   1.540  1.00  0.00     0.007 C 
ENDBRANCH  19  20
ENDBRANCH  18  19
ENDBRANCH  17  18
ENDBRANCH  16  17
ENDBRANCH  15  16
ENDBRANCH   1  15
BRANCH  13  22
HETATM   22  O3  UNL     1      -1.891  74.962   5.666  1.00  0.00    -0.207 OA
BRANCH  22  23
HETATM   23  O4  UNL     1      -3.002  74.366   5.924  1.00  0.00    -0.248 OA
ATOM     24  H4  UNL     1      -3.764  74.929   5.859  1.00  0.00     0.253 HD
ENDBRANCH  22  23
ENDBRANCH  13  22
BRANCH  12  25
HETATM   25  O2  UNL     1      -2.535  77.051   6.733  1.00  0.00    -0.386 OA
ATOM     26  H2  UNL     1      -3.123  77.502   7.327  1.00  0.00     0.210 HD
ENDBRANCH  12  25
TORSDOF 9
ENDMDL
