MODEL 1
REMARK VINA RESULT: -5.436296603      0.000      0.000
REMARK  2 active torsions:
REMARK  status: ('A' for Active; 'I' for Inactive)
REMARK    1  A    between atoms: C4_4  and  O1_5 
REMARK    2  A    between atoms: O1_5  and  C5_6 
ROOT
HETATM    1  C5  UNL     1      10.736  13.674  45.535  1.00  0.00     0.149 C 
HETATM    2  C6  UNL     1      10.242  14.626  46.627  1.00  0.00     0.061 C 
HETATM    3  C7  UNL     1       8.796  14.177  46.718  1.00  0.00     0.235 C 
HETATM    4  N1  UNL     1       8.847  12.739  46.609  1.00  0.00    -0.073 N 
ATOM      5  H11 UNL     1       8.058  12.354  46.089  1.00  0.00     0.277 HD
ATOM      6  H12 UNL     1       8.669  12.269  47.496  1.00  0.00     0.277 HD
HETATM    7  C8  UNL     1      10.114  12.385  46.038  1.00  0.00     0.264 C 
ENDROOT
BRANCH   1   8
HETATM    8  O1  UNL     1      12.101  13.627  45.453  1.00  0.00    -0.379 OA
BRANCH   8   9
HETATM    9  C4  UNL     1      12.523  13.952  44.189  1.00  0.00     0.122 C 
HETATM   10  C3  UNL     1      13.851  14.721  44.197  1.00  0.00     0.032 C 
HETATM   11  C2  UNL     1      14.153  14.732  42.692  1.00  0.00     0.002 C 
HETATM   12  C1  UNL     1      13.743  13.353  42.233  1.00  0.00     0.002 C 
HETATM   13  C9  UNL     1      12.875  12.771  43.331  1.00  0.00     0.032 C 
ENDBRANCH   8   9
ENDBRANCH   1   8
TORSDOF 2
ENDMDL
MODEL 2
REMARK VINA RESULT: -5.321518841      0.844      1.153
REMARK  2 active torsions:
REMARK  status: ('A' for Active; 'I' for Inactive)
REMARK    1  A    between atoms: C4_4  and  O1_5 
REMARK    2  A    between atoms: O1_5  and  C5_6 
ROOT
HETATM    1  C5  UNL     1      10.973  13.455  45.236  1.00  0.00     0.149 C 
HETATM    2  C6  UNL     1      10.720  14.599  46.221  1.00  0.00     0.061 C 
HETATM    3  C7  UNL     1       9.283  14.295  46.597  1.00  0.00     0.235 C 
HETATM    4  N1  UNL     1       9.226  12.858  46.714  1.00  0.00    -0.073 N 
ATOM      5  H11 UNL     1       8.341  12.469  46.386  1.00  0.00     0.277 HD
ATOM      6  H12 UNL     1       9.162  12.543  47.682  1.00  0.00     0.277 HD
HETATM    7  C8  UNL     1      10.360  12.315  46.026  1.00  0.00     0.264 C 
ENDROOT
BRANCH   1   8
HETATM    8  O1  UNL     1      12.302  13.279  44.962  1.00  0.00    -0.379 OA
BRANCH   8   9
HETATM    9  C4  UNL     1      12.483  12.913  43.652  1.00  0.00     0.122 C 
HETATM   10  C3  UNL     1      13.533  13.780  42.945  1.00  0.00     0.032 C 
HETATM   11  C2  UNL     1      13.663  13.004  41.626  1.00  0.00     0.002 C 
HETATM   12  C1  UNL     1      13.615  11.557  42.055  1.00  0.00     0.002 C 
HETATM   13  C9  UNL     1      13.065  11.541  43.466  1.00  0.00     0.032 C 
ENDBRANCH   8   9
ENDBRANCH   1   8
TORSDOF 2
ENDMDL
MODEL 3
REMARK VINA RESULT: -5.268583304      2.181      5.104
REMARK  2 active torsions:
REMARK  status: ('A' for Active; 'I' for Inactive)
REMARK    1  A    between atoms: C4_4  and  O1_5 
REMARK    2  A    between atoms: O1_5  and  C5_6 
ROOT
HETATM    1  C5  UNL     1      12.425  13.446  43.861  1.00  0.00     0.149 C 
HETATM    2  C6  UNL     1      13.020  12.180  43.239  1.00  0.00     0.061 C 
HETATM    3  C7  UNL     1      13.565  12.764  41.950  1.00  0.00     0.235 C 
HETATM    4  N1  UNL     1      14.127  14.038  42.329  1.00  0.00    -0.073 N 
ATOM      5  H11 UNL     1      13.996  14.755  41.616  1.00  0.00     0.277 HD
ATOM      6  H12 UNL     1      15.147  14.034  42.332  1.00  0.00     0.277 HD
HETATM    7  C8  UNL     1      13.569  14.406  43.597  1.00  0.00     0.264 C 
ENDROOT
BRANCH   1   8
HETATM    8  O1  UNL     1      12.132  13.295  45.189  1.00  0.00    -0.379 OA
BRANCH   8   9
HETATM    9  C4  UNL     1      10.775  13.250  45.385  1.00  0.00     0.122 C 
HETATM   10  C3  UNL     1      10.332  11.966  46.098  1.00  0.00     0.032 C 
HETATM   11  C2  UNL     1       8.860  12.312  46.363  1.00  0.00     0.002 C 
HETATM   12  C1  UNL     1       8.898  13.770  46.756  1.00  0.00     0.002 C 
HETATM   13  C9  UNL     1      10.249  14.300  46.321  1.00  0.00     0.032 C 
ENDBRANCH   8   9
ENDBRANCH   1   8
TORSDOF 2
ENDMDL
MODEL 4
REMARK VINA RESULT: -5.157920642      1.319      1.866
REMARK  2 active torsions:
REMARK  status: ('A' for Active; 'I' for Inactive)
REMARK    1  A    between atoms: C4_4  and  O1_5 
REMARK    2  A    between atoms: O1_5  and  C5_6 
ROOT
HETATM    1  C5  UNL     1      11.371  14.642  45.251  1.00  0.00     0.149 C 
HETATM    2  C6  UNL     1      11.174  16.105  45.657  1.00  0.00     0.061 C 
HETATM    3  C7  UNL     1       9.671  16.215  45.484  1.00  0.00     0.235 C 
HETATM    4  N1  UNL     1       9.147  14.969  45.991  1.00  0.00    -0.073 N 
ATOM      5  H11 UNL     1       8.341  14.635  45.462  1.00  0.00     0.277 HD
ATOM      6  H12 UNL     1       8.685  15.073  46.893  1.00  0.00     0.277 HD
HETATM    7  C8  UNL     1      10.222  14.020  46.022  1.00  0.00     0.264 C 
ENDROOT
BRANCH   1   8
HETATM    8  O1  UNL     1      12.598  14.154  45.610  1.00  0.00    -0.379 OA
BRANCH   8   9
HETATM    9  C4  UNL     1      13.250  13.634  44.521  1.00  0.00     0.122 C 
HETATM   10  C3  UNL     1      12.378  12.646  43.736  1.00  0.00     0.032 C 
HETATM   11  C2  UNL     1      13.273  12.430  42.508  1.00  0.00     0.002 C 
HETATM   12  C1  UNL     1      13.820  13.807  42.215  1.00  0.00     0.002 C 
HETATM   13  C9  UNL     1      13.580  14.641  43.457  1.00  0.00     0.032 C 
ENDBRANCH   8   9
ENDBRANCH   1   8
TORSDOF 2
ENDMDL
MODEL 5
REMARK VINA RESULT: -5.066251990      2.663      3.412
REMARK  2 active torsions:
REMARK  status: ('A' for Active; 'I' for Inactive)
REMARK    1  A    between atoms: C4_4  and  O1_5 
REMARK    2  A    between atoms: O1_5  and  C5_6 
ROOT
HETATM    1  C5  UNL     1      13.422  14.607  44.195  1.00  0.00     0.149 C 
HETATM    2  C6  UNL     1      12.423  15.764  44.258  1.00  0.00     0.061 C 
HETATM    3  C7  UNL     1      11.975  15.634  45.701  1.00  0.00     0.235 C 
HETATM    4  N1  UNL     1      13.178  15.325  46.436  1.00  0.00    -0.073 N 
ATOM      5  H11 UNL     1      13.016  14.673  47.204  1.00  0.00     0.277 HD
ATOM      6  H12 UNL     1      13.514  16.110  46.993  1.00  0.00     0.277 HD
HETATM    7  C8  UNL     1      14.155  14.849  45.501  1.00  0.00     0.264 C 
ENDROOT
BRANCH   1   8
HETATM    8  O1  UNL     1      14.232  14.667  43.094  1.00  0.00    -0.379 OA
BRANCH   8   9
HETATM    9  C4  UNL     1      13.767  13.838  42.104  1.00  0.00     0.122 C 
HETATM   10  C3  UNL     1      14.893  13.333  41.192  1.00  0.00     0.032 C 
HETATM   11  C2  UNL     1      14.113  12.295  40.371  1.00  0.00     0.002 C 
HETATM   12  C1  UNL     1      13.212  11.636  41.388  1.00  0.00     0.002 C 
HETATM   13  C9  UNL     1      13.191  12.544  42.601  1.00  0.00     0.032 C 
ENDBRANCH   8   9
ENDBRANCH   1   8
TORSDOF 2
ENDMDL
