MODEL 1
REMARK VINA RESULT: -5.839534103      0.000      0.000
REMARK  2 active torsions:
REMARK  status: ('A' for Active; 'I' for Inactive)
REMARK    1  A    between atoms: C3_4  and  C4_5 
REMARK    2  A    between atoms: C7_11  and  O3_12 
ROOT
HETATM    1  C1  UNL     1      15.716  11.980  39.777  1.00  0.00     0.044 C 
HETATM    2  C2  UNL     1      14.370  11.261  39.881  1.00  0.00     0.177 C 
HETATM    3  O1  UNL     1      13.373  12.052  40.344  1.00  0.00    -0.355 OA
HETATM    4  C3  UNL     1      12.800  11.687  41.540  1.00  0.00     0.246 C 
HETATM    5  N1  UNL     1      12.697  10.284  41.770  1.00  0.00    -0.270 N 
ATOM      6  H1  UNL     1      12.229   9.907  42.594  1.00  0.00     0.190 HD
HETATM    7  O2  UNL     1      13.241   9.497  40.857  1.00  0.00    -0.247 OA
HETATM    8  C7  UNL     1      14.553   9.970  40.627  1.00  0.00     0.314 C 
ENDROOT
BRANCH   4   9
HETATM    9  C4  UNL     1      13.541  12.415  42.631  1.00  0.00     0.036 A 
HETATM   10  C5  UNL     1      12.829  13.304  43.577  1.00  0.00     0.009 A 
HETATM   11  C6  UNL     1      13.598  13.929  42.454  1.00  0.00     0.009 A 
ENDBRANCH   4   9
BRANCH   8  12
HETATM   12  O3  UNL     1      15.209   9.046  39.824  1.00  0.00    -0.367 OA
ATOM     13  H3  UNL     1      14.910   8.167  40.028  1.00  0.00     0.212 HD
ENDBRANCH   8  12
TORSDOF 2
ENDMDL
MODEL 2
REMARK VINA RESULT: -5.587011741      3.503      5.365
REMARK  2 active torsions:
REMARK  status: ('A' for Active; 'I' for Inactive)
REMARK    1  A    between atoms: C3_4  and  C4_5 
REMARK    2  A    between atoms: C7_11  and  O3_12 
ROOT
HETATM    1  C1  UNL     1      13.182  16.837  42.432  1.00  0.00     0.044 C 
HETATM    2  C2  UNL     1      13.485  15.909  43.610  1.00  0.00     0.177 C 
HETATM    3  O1  UNL     1      14.309  14.883  43.287  1.00  0.00    -0.355 OA
HETATM    4  C3  UNL     1      13.791  13.614  43.405  1.00  0.00     0.246 C 
HETATM    5  N1  UNL     1      12.877  13.421  44.482  1.00  0.00    -0.270 N 
ATOM      6  H1  UNL     1      12.487  12.503  44.697  1.00  0.00     0.190 HD
HETATM    7  O2  UNL     1      12.562  14.494  45.186  1.00  0.00    -0.247 OA
HETATM    8  C7  UNL     1      12.196  15.504  44.267  1.00  0.00     0.314 C 
ENDROOT
BRANCH   4   9
HETATM    9  C4  UNL     1      13.216  13.241  42.063  1.00  0.00     0.036 A 
HETATM   10  C5  UNL     1      12.919  11.831  41.725  1.00  0.00     0.009 A 
HETATM   11  C6  UNL     1      14.164  12.448  41.169  1.00  0.00     0.009 A 
ENDBRANCH   4   9
BRANCH   8  12
HETATM   12  O3  UNL     1      11.674  16.571  44.987  1.00  0.00    -0.367 OA
ATOM     13  H3  UNL     1      10.942  16.278  45.517  1.00  0.00     0.212 HD
ENDBRANCH   8  12
TORSDOF 2
ENDMDL
MODEL 3
REMARK VINA RESULT: -5.469946822      4.214      5.182
REMARK  2 active torsions:
REMARK  status: ('A' for Active; 'I' for Inactive)
REMARK    1  A    between atoms: C3_4  and  C4_5 
REMARK    2  A    between atoms: C7_11  and  O3_12 
ROOT
HETATM    1  C1  UNL     1      15.786  13.937  40.303  1.00  0.00     0.044 C 
HETATM    2  C2  UNL     1      16.125  15.051  41.294  1.00  0.00     0.177 C 
HETATM    3  O1  UNL     1      15.877  14.717  42.584  1.00  0.00    -0.355 OA
HETATM    4  C3  UNL     1      14.925  15.461  43.242  1.00  0.00     0.246 C 
HETATM    5  N1  UNL     1      14.871  16.841  42.889  1.00  0.00    -0.270 N 
ATOM      6  H1  UNL     1      14.247  17.493  43.365  1.00  0.00     0.190 HD
HETATM    7  O2  UNL     1      15.673  17.231  41.913  1.00  0.00    -0.247 OA
HETATM    8  C7  UNL     1      15.488  16.333  40.837  1.00  0.00     0.314 C 
ENDROOT
BRANCH   4   9
HETATM    9  C4  UNL     1      13.607  14.752  43.070  1.00  0.00     0.036 A 
HETATM   10  C5  UNL     1      12.408  15.172  43.829  1.00  0.00     0.009 A 
HETATM   11  C6  UNL     1      13.153  13.958  44.290  1.00  0.00     0.009 A 
ENDBRANCH   4   9
BRANCH   8  12
HETATM   12  O3  UNL     1      16.168  16.836  39.736  1.00  0.00    -0.367 OA
ATOM     13  H3  UNL     1      15.878  17.721  39.551  1.00  0.00     0.212 HD
ENDBRANCH   8  12
TORSDOF 2
ENDMDL
MODEL 4
REMARK VINA RESULT: -5.442370380      4.249      6.109
REMARK  2 active torsions:
REMARK  status: ('A' for Active; 'I' for Inactive)
REMARK    1  A    between atoms: C3_4  and  C4_5 
REMARK    2  A    between atoms: C7_11  and  O3_12 
ROOT
HETATM    1  C1  UNL     1      13.145  17.657  43.514  1.00  0.00     0.044 C 
HETATM    2  C2  UNL     1      13.334  16.578  44.581  1.00  0.00     0.177 C 
HETATM    3  O1  UNL     1      14.231  15.625  44.228  1.00  0.00    -0.355 OA
HETATM    4  C3  UNL     1      13.751  14.342  44.102  1.00  0.00     0.246 C 
HETATM    5  N1  UNL     1      12.719  13.979  45.015  1.00  0.00    -0.270 N 
ATOM      6  H1  UNL     1      12.341  13.032  45.050  1.00  0.00     0.190 HD
HETATM    7  O2  UNL     1      12.278  14.935  45.815  1.00  0.00    -0.247 OA
HETATM    8  C7  UNL     1      11.990  16.057  45.005  1.00  0.00     0.314 C 
ENDROOT
BRANCH   4   9
HETATM    9  C4  UNL     1      13.362  14.151  42.659  1.00  0.00     0.036 A 
HETATM   10  C5  UNL     1      13.343  12.805  42.044  1.00  0.00     0.009 A 
HETATM   11  C6  UNL     1      14.503  13.704  41.751  1.00  0.00     0.009 A 
ENDBRANCH   4   9
BRANCH   8  12
HETATM   12  O3  UNL     1      11.342  17.000  45.793  1.00  0.00    -0.367 OA
ATOM     13  H3  UNL     1      11.755  17.050  46.647  1.00  0.00     0.212 HD
ENDBRANCH   8  12
TORSDOF 2
ENDMDL
MODEL 5
REMARK VINA RESULT: -5.324394284      4.176      5.711
REMARK  2 active torsions:
REMARK  status: ('A' for Active; 'I' for Inactive)
REMARK    1  A    between atoms: C3_4  and  C4_5 
REMARK    2  A    between atoms: C7_11  and  O3_12 
ROOT
HETATM    1  C1  UNL     1      15.401  17.323  39.267  1.00  0.00     0.044 C 
HETATM    2  C2  UNL     1      15.915  16.828  40.620  1.00  0.00     0.177 C 
HETATM    3  O1  UNL     1      16.689  15.720  40.528  1.00  0.00    -0.355 OA
HETATM    4  C3  UNL     1      16.219  14.586  41.148  1.00  0.00     0.246 C 
HETATM    5  N1  UNL     1      15.506  14.800  42.364  1.00  0.00    -0.270 N 
ATOM      6  H1  UNL     1      15.174  14.024  42.936  1.00  0.00     0.190 HD
HETATM    7  O2  UNL     1      15.298  16.059  42.709  1.00  0.00    -0.247 OA
HETATM    8  C7  UNL     1      14.765  16.720  41.580  1.00  0.00     0.314 C 
ENDROOT
BRANCH   4   9
HETATM    9  C4  UNL     1      15.430  13.811  40.125  1.00  0.00     0.036 A 
HETATM   10  C5  UNL     1      14.666  12.602  40.504  1.00  0.00     0.009 A 
HETATM   11  C6  UNL     1      15.984  12.424  39.818  1.00  0.00     0.009 A 
ENDBRANCH   4   9
BRANCH   8  12
HETATM   12  O3  UNL     1      14.355  17.987  41.976  1.00  0.00    -0.367 OA
ATOM     13  H3  UNL     1      15.097  18.478  42.309  1.00  0.00     0.212 HD
ENDBRANCH   8  12
TORSDOF 2
ENDMDL
