MODEL 1
REMARK VINA RESULT: -5.384201692      0.000      0.000
REMARK  3 active torsions:
REMARK  status: ('A' for Active; 'I' for Inactive)
REMARK    1  A    between atoms: N1_1  and  N2_4 
REMARK    2  A    between atoms: C1_6  and  N3_7 
REMARK    3  A    between atoms: N3_7  and  C2_9 
ROOT
HETATM    1  C2  UNL     1      15.422  16.771  41.107  1.00  0.00     0.109 C 
HETATM    2  N4  UNL     1      15.733  15.542  40.893  1.00  0.00    -0.378 N 
ATOM      3  H4  UNL     1      16.248  15.208  40.079  1.00  0.00     0.160 HD
HETATM    4  C3  UNL     1      15.248  14.691  41.977  1.00  0.00     0.128 C 
HETATM    5  C4  UNL     1      15.134  15.679  43.136  1.00  0.00     0.043 C 
HETATM    6  C5  UNL     1      14.001  15.370  44.051  1.00  0.00     0.036 C 
HETATM    7  C6  UNL     1      12.796  15.941  43.360  1.00  0.00     0.233 C 
HETATM    8  N5  UNL     1      13.260  16.659  42.212  1.00  0.00    -0.064 N 
ATOM      9  H51 UNL     1      12.731  17.514  42.042  1.00  0.00     0.278 HD
ATOM     10  H52 UNL     1      13.039  16.185  41.336  1.00  0.00     0.278 HD
HETATM   11  C7  UNL     1      14.674  16.902  42.373  1.00  0.00     0.258 C 
ENDROOT
BRANCH   1  12
HETATM   12  N3  UNL     1      15.720  17.907  40.275  1.00  0.00    -0.340 N 
ATOM     13  H3  UNL     1      16.387  18.603  40.608  1.00  0.00     0.168 HD
BRANCH  12  14
HETATM   14  C1  UNL     1      15.113  18.086  39.007  1.00  0.00     0.198 C 
HETATM   15  N2  UNL     1      14.673  19.228  38.602  1.00  0.00    -0.303 N 
ATOM     16  H2  UNL     1      14.240  19.337  37.686  1.00  0.00     0.187 HD
BRANCH  15  17
HETATM   17  N1  UNL     1      14.817  20.309  39.478  1.00  0.00    -0.344 N 
ATOM     18  H12 UNL     1      13.998  20.798  39.837  1.00  0.00     0.176 HD
ATOM     19  H11 UNL     1      15.769  20.574  39.730  1.00  0.00     0.176 HD
ENDBRANCH  15  17
ENDBRANCH  12  14
ENDBRANCH   1  12
TORSDOF 3
ENDMDL
MODEL 2
REMARK VINA RESULT: -5.357641129      5.378      7.149
REMARK  3 active torsions:
REMARK  status: ('A' for Active; 'I' for Inactive)
REMARK    1  A    between atoms: N1_1  and  N2_4 
REMARK    2  A    between atoms: C1_6  and  N3_7 
REMARK    3  A    between atoms: N3_7  and  C2_9 
ROOT
HETATM    1  C2  UNL     1      12.115  15.681  46.383  1.00  0.00     0.109 C 
HETATM    2  N4  UNL     1      12.262  14.850  45.414  1.00  0.00    -0.378 N 
ATOM      3  H4  UNL     1      11.497  14.377  44.933  1.00  0.00     0.160 HD
HETATM    4  C3  UNL     1      13.678  14.674  45.096  1.00  0.00     0.128 C 
HETATM    5  C4  UNL     1      14.289  15.971  45.620  1.00  0.00     0.043 C 
HETATM    6  C5  UNL     1      15.663  15.787  46.163  1.00  0.00     0.036 C 
HETATM    7  C6  UNL     1      15.449  15.251  47.549  1.00  0.00     0.233 C 
HETATM    8  N5  UNL     1      14.042  15.288  47.811  1.00  0.00    -0.064 N 
ATOM      9  H51 UNL     1      13.827  15.545  48.774  1.00  0.00     0.278 HD
ATOM     10  H52 UNL     1      13.619  14.360  47.819  1.00  0.00     0.278 HD
HETATM   11  C7  UNL     1      13.428  16.171  46.848  1.00  0.00     0.258 C 
ENDROOT
BRANCH   1  12
HETATM   12  N3  UNL     1      10.881  16.116  46.983  1.00  0.00    -0.340 N 
ATOM     13  H3  UNL     1      10.488  17.016  46.710  1.00  0.00     0.168 HD
BRANCH  12  14
HETATM   14  C1  UNL     1      10.198  15.328  47.944  1.00  0.00     0.198 C 
HETATM   15  N2  UNL     1       9.148  14.638  47.657  1.00  0.00    -0.303 N 
ATOM     16  H2  UNL     1       8.671  14.077  48.361  1.00  0.00     0.187 HD
BRANCH  15  17
HETATM   17  N1  UNL     1       8.695  14.694  46.335  1.00  0.00    -0.344 N 
ATOM     18  H12 UNL     1       7.922  15.307  46.077  1.00  0.00     0.176 HD
ATOM     19  H11 UNL     1       9.172  14.099  45.658  1.00  0.00     0.176 HD
ENDBRANCH  15  17
ENDBRANCH  12  14
ENDBRANCH   1  12
TORSDOF 3
ENDMDL
MODEL 3
REMARK VINA RESULT: -5.314611218      3.664      6.386
REMARK  3 active torsions:
REMARK  status: ('A' for Active; 'I' for Inactive)
REMARK    1  A    between atoms: N1_1  and  N2_4 
REMARK    2  A    between atoms: C1_6  and  N3_7 
REMARK    3  A    between atoms: N3_7  and  C2_9 
ROOT
HETATM    1  C2  UNL     1      12.109  15.601  45.637  1.00  0.00     0.109 C 
HETATM    2  N4  UNL     1      13.217  15.410  46.260  1.00  0.00    -0.378 N 
ATOM      3  H4  UNL     1      13.345  15.530  47.264  1.00  0.00     0.160 HD
HETATM    4  C3  UNL     1      14.267  14.996  45.331  1.00  0.00     0.128 C 
HETATM    5  C4  UNL     1      13.460  14.401  44.179  1.00  0.00     0.043 C 
HETATM    6  C5  UNL     1      14.094  14.627  42.851  1.00  0.00     0.036 C 
HETATM    7  C6  UNL     1      13.704  16.030  42.485  1.00  0.00     0.233 C 
HETATM    8  N5  UNL     1      12.782  16.492  43.477  1.00  0.00    -0.064 N 
ATOM      9  H51 UNL     1      12.038  17.068  43.085  1.00  0.00     0.278 HD
ATOM     10  H52 UNL     1      13.188  17.194  44.096  1.00  0.00     0.278 HD
HETATM   11  C7  UNL     1      12.277  15.344  44.192  1.00  0.00     0.258 C 
ENDROOT
BRANCH   1  12
HETATM   12  N3  UNL     1      10.849  16.013  46.196  1.00  0.00    -0.340 N 
ATOM     13  H3  UNL     1      10.846  16.606  47.026  1.00  0.00     0.168 HD
BRANCH  12  14
HETATM   14  C1  UNL     1       9.612  15.617  45.628  1.00  0.00     0.198 C 
HETATM   15  N2  UNL     1       8.770  14.866  46.250  1.00  0.00    -0.303 N 
ATOM     16  H2  UNL     1       7.885  14.592  45.825  1.00  0.00     0.187 HD
BRANCH  15  17
HETATM   17  N1  UNL     1       9.127  14.443  47.534  1.00  0.00    -0.344 N 
ATOM     18  H12 UNL     1       9.498  15.106  48.214  1.00  0.00     0.176 HD
ATOM     19  H11 UNL     1       8.998  13.454  47.747  1.00  0.00     0.176 HD
ENDBRANCH  15  17
ENDBRANCH  12  14
ENDBRANCH   1  12
TORSDOF 3
ENDMDL
MODEL 4
REMARK VINA RESULT: -5.264056532      3.514      6.053
REMARK  3 active torsions:
REMARK  status: ('A' for Active; 'I' for Inactive)
REMARK    1  A    between atoms: N1_1  and  N2_4 
REMARK    2  A    between atoms: C1_6  and  N3_7 
REMARK    3  A    between atoms: N3_7  and  C2_9 
ROOT
HETATM    1  C2  UNL     1      12.555  15.405  44.454  1.00  0.00     0.109 C 
HETATM    2  N4  UNL     1      12.415  16.455  43.726  1.00  0.00    -0.378 N 
ATOM      3  H4  UNL     1      11.731  17.192  43.897  1.00  0.00     0.160 HD
HETATM    4  C3  UNL     1      13.371  16.448  42.620  1.00  0.00     0.128 C 
HETATM    5  C4  UNL     1      14.476  15.542  43.157  1.00  0.00     0.043 C 
HETATM    6  C5  UNL     1      15.128  14.730  42.092  1.00  0.00     0.036 C 
HETATM    7  C6  UNL     1      14.193  13.574  41.880  1.00  0.00     0.233 C 
HETATM    8  N5  UNL     1      13.170  13.660  42.878  1.00  0.00    -0.064 N 
ATOM      9  H51 UNL     1      12.890  12.746  43.233  1.00  0.00     0.278 HD
ATOM     10  H52 UNL     1      12.268  13.941  42.492  1.00  0.00     0.278 HD
HETATM   11  C7  UNL     1      13.631  14.546  43.920  1.00  0.00     0.258 C 
ENDROOT
BRANCH   1  12
HETATM   12  N3  UNL     1      11.805  15.047  45.629  1.00  0.00    -0.340 N 
ATOM     13  H3  UNL     1      12.212  14.392  46.296  1.00  0.00     0.168 HD
BRANCH  12  14
HETATM   14  C1  UNL     1      10.517  15.581  45.887  1.00  0.00     0.198 C 
HETATM   15  N2  UNL     1       9.902  15.402  47.004  1.00  0.00    -0.303 N 
ATOM     16  H2  UNL     1       8.976  15.794  47.171  1.00  0.00     0.187 HD
BRANCH  15  17
HETATM   17  N1  UNL     1      10.563  14.645  47.977  1.00  0.00    -0.344 N 
ATOM     18  H12 UNL     1      11.237  13.929  47.708  1.00  0.00     0.176 HD
ATOM     19  H11 UNL     1      10.336  14.846  48.951  1.00  0.00     0.176 HD
ENDBRANCH  15  17
ENDBRANCH  12  14
ENDBRANCH   1  12
TORSDOF 3
ENDMDL
MODEL 5
REMARK VINA RESULT: -5.258618950      3.971      6.758
REMARK  3 active torsions:
REMARK  status: ('A' for Active; 'I' for Inactive)
REMARK    1  A    between atoms: N1_1  and  N2_4 
REMARK    2  A    between atoms: C1_6  and  N3_7 
REMARK    3  A    between atoms: N3_7  and  C2_9 
ROOT
HETATM    1  C2  UNL     1      12.102  15.683  46.032  1.00  0.00     0.109 C 
HETATM    2  N4  UNL     1      13.297  15.449  46.444  1.00  0.00    -0.378 N 
ATOM      3  H4  UNL     1      13.604  15.534  47.413  1.00  0.00     0.160 HD
HETATM    4  C3  UNL     1      14.156  15.045  45.332  1.00  0.00     0.128 C 
HETATM    5  C4  UNL     1      13.144  14.504  44.325  1.00  0.00     0.043 C 
HETATM    6  C5  UNL     1      13.540  14.761  42.912  1.00  0.00     0.036 C 
HETATM    7  C6  UNL     1      13.127  16.183  42.662  1.00  0.00     0.233 C 
HETATM    8  N5  UNL     1      12.406  16.630  43.814  1.00  0.00    -0.064 N 
ATOM      9  H51 UNL     1      11.620  17.234  43.577  1.00  0.00     0.278 HD
ATOM     10  H52 UNL     1      12.933  17.303  44.371  1.00  0.00     0.278 HD
HETATM   11  C7  UNL     1      12.007  15.469  44.574  1.00  0.00     0.258 C 
ENDROOT
BRANCH   1  12
HETATM   12  N3  UNL     1      10.972  16.101  46.818  1.00  0.00    -0.340 N 
ATOM     13  H3  UNL     1      10.464  16.942  46.546  1.00  0.00     0.168 HD
BRANCH  12  14
HETATM   14  C1  UNL     1      10.545  15.377  47.960  1.00  0.00     0.198 C 
HETATM   15  N2  UNL     1       9.459  14.684  47.977  1.00  0.00    -0.303 N 
ATOM     16  H2  UNL     1       9.168  14.169  48.807  1.00  0.00     0.187 HD
BRANCH  15  17
HETATM   17  N1  UNL     1       8.698  14.670  46.804  1.00  0.00    -0.344 N 
ATOM     18  H12 UNL     1       9.123  14.415  45.912  1.00  0.00     0.176 HD
ATOM     19  H11 UNL     1       7.714  14.926  46.888  1.00  0.00     0.176 HD
ENDBRANCH  15  17
ENDBRANCH  12  14
ENDBRANCH   1  12
TORSDOF 3
ENDMDL
