MODEL 1
REMARK VINA RESULT: -4.996911240      0.000      0.000
REMARK  2 active torsions:
REMARK  status: ('A' for Active; 'I' for Inactive)
REMARK    1  A    between atoms: N1_2  and  N2_5 
REMARK    2  A    between atoms: N2_5  and  C3_7 
ROOT
HETATM    1  C3  UNL     1      11.417  15.454  44.967  1.00  0.00     0.700 C 
HETATM    2  N3  UNL     1      11.743  16.426  44.170  1.00  0.00    -0.225 N 
ATOM      3  H3  UNL     1      11.092  17.202  44.045  1.00  0.00     0.177 HD
HETATM    4  C4  UNL     1      13.001  16.447  43.454  1.00  0.00     0.139 C 
HETATM    5  C5  UNL     1      13.360  15.032  43.012  1.00  0.00     0.040 C 
HETATM    6  C6  UNL     1      13.433  14.170  44.228  1.00  0.00     0.139 C 
HETATM    7  N4  UNL     1      12.322  14.371  45.144  1.00  0.00    -0.225 N 
ATOM      8  H4  UNL     1      12.190  13.728  45.925  1.00  0.00     0.177 HD
ENDROOT
BRANCH   1   9
HETATM    9  N2  UNL     1      10.190  15.412  45.677  1.00  0.00     0.003 N 
ATOM     10  H2  UNL     1       9.341  15.220  45.146  1.00  0.00     0.222 HD
BRANCH   9  11
HETATM   11  N1  UNL     1      10.063  15.614  47.033  1.00  0.00     0.115 N 
HETATM   12  C1  UNL     1       8.741  15.198  47.456  1.00  0.00     0.389 C 
HETATM   13  C2  UNL     1      10.216  17.002  47.423  1.00  0.00     0.389 C 
HETATM   14  O1  UNL     1      10.951  14.902  47.763  1.00  0.00    -0.043 OA
ENDBRANCH   9  11
ENDBRANCH   1   9
TORSDOF 2
ENDMDL
MODEL 2
REMARK VINA RESULT: -4.872865758      3.229      4.369
REMARK  2 active torsions:
REMARK  status: ('A' for Active; 'I' for Inactive)
REMARK    1  A    between atoms: N1_2  and  N2_5 
REMARK    2  A    between atoms: N2_5  and  C3_7 
ROOT
HETATM    1  C3  UNL     1      14.227  14.202  42.105  1.00  0.00     0.700 C 
HETATM    2  N3  UNL     1      15.358  14.679  41.677  1.00  0.00    -0.225 N 
ATOM      3  H3  UNL     1      15.626  15.626  41.943  1.00  0.00     0.177 HD
HETATM    4  C4  UNL     1      16.249  13.910  40.835  1.00  0.00     0.139 C 
HETATM    5  C5  UNL     1      15.431  13.069  39.860  1.00  0.00     0.040 C 
HETATM    6  C6  UNL     1      14.526  12.188  40.652  1.00  0.00     0.139 C 
HETATM    7  N4  UNL     1      13.850  12.882  41.736  1.00  0.00    -0.225 N 
ATOM      8  H4  UNL     1      13.095  12.416  42.240  1.00  0.00     0.177 HD
ENDROOT
BRANCH   1   9
HETATM    9  N2  UNL     1      13.338  14.938  42.929  1.00  0.00     0.003 N 
ATOM     10  H2  UNL     1      12.830  15.714  42.504  1.00  0.00     0.222 HD
BRANCH   9  11
HETATM   11  N1  UNL     1      13.112  14.680  44.262  1.00  0.00     0.115 N 
HETATM   12  C1  UNL     1      11.862  15.297  44.662  1.00  0.00     0.389 C 
HETATM   13  C2  UNL     1      14.143  15.211  45.132  1.00  0.00     0.389 C 
HETATM   14  O1  UNL     1      13.005  13.361  44.540  1.00  0.00    -0.043 OA
ENDBRANCH   9  11
ENDBRANCH   1   9
TORSDOF 2
ENDMDL
MODEL 3
REMARK VINA RESULT: -4.738021528      3.156      4.397
REMARK  2 active torsions:
REMARK  status: ('A' for Active; 'I' for Inactive)
REMARK    1  A    between atoms: N1_2  and  N2_5 
REMARK    2  A    between atoms: N2_5  and  C3_7 
ROOT
HETATM    1  C3  UNL     1      13.810  13.796  42.179  1.00  0.00     0.700 C 
HETATM    2  N3  UNL     1      14.810  13.859  41.351  1.00  0.00    -0.225 N 
ATOM      3  H3  UNL     1      15.324  14.736  41.265  1.00  0.00     0.177 HD
HETATM    4  C4  UNL     1      15.216  12.727  40.546  1.00  0.00     0.139 C 
HETATM    5  C5  UNL     1      13.983  11.952  40.094  1.00  0.00     0.040 C 
HETATM    6  C6  UNL     1      13.233  11.522  41.310  1.00  0.00     0.139 C 
HETATM    7  N4  UNL     1      13.090  12.576  42.302  1.00  0.00    -0.225 N 
ATOM      8  H4  UNL     1      12.466  12.439  43.097  1.00  0.00     0.177 HD
ENDROOT
BRANCH   1   9
HETATM    9  N2  UNL     1      13.394  14.892  42.976  1.00  0.00     0.003 N 
ATOM     10  H2  UNL     1      13.116  15.749  42.497  1.00  0.00     0.222 HD
BRANCH   9  11
HETATM   11  N1  UNL     1      13.338  14.884  44.352  1.00  0.00     0.115 N 
HETATM   12  C1  UNL     1      12.390  15.886  44.797  1.00  0.00     0.389 C 
HETATM   13  C2  UNL     1      14.607  15.194  44.979  1.00  0.00     0.389 C 
HETATM   14  O1  UNL     1      12.927  13.701  44.861  1.00  0.00    -0.043 OA
ENDBRANCH   9  11
ENDBRANCH   1   9
TORSDOF 2
ENDMDL
MODEL 4
REMARK VINA RESULT: -4.720543572      1.245      2.100
REMARK  2 active torsions:
REMARK  status: ('A' for Active; 'I' for Inactive)
REMARK    1  A    between atoms: N1_2  and  N2_5 
REMARK    2  A    between atoms: N2_5  and  C3_7 
ROOT
HETATM    1  C3  UNL     1      12.452  15.141  45.006  1.00  0.00     0.700 C 
HETATM    2  N3  UNL     1      12.797  13.933  44.676  1.00  0.00    -0.225 N 
ATOM      3  H3  UNL     1      12.779  13.202  45.387  1.00  0.00     0.177 HD
HETATM    4  C4  UNL     1      13.207  13.589  43.331  1.00  0.00     0.139 C 
HETATM    5  C5  UNL     1      14.019  14.735  42.736  1.00  0.00     0.040 C 
HETATM    6  C6  UNL     1      13.174  15.964  42.757  1.00  0.00     0.139 C 
HETATM    7  N4  UNL     1      12.476  16.162  44.018  1.00  0.00    -0.225 N 
ATOM      8  H4  UNL     1      11.998  17.045  44.195  1.00  0.00     0.177 HD
ENDROOT
BRANCH   1   9
HETATM    9  N2  UNL     1      12.048  15.500  46.318  1.00  0.00     0.003 N 
ATOM     10  H2  UNL     1      12.774  15.591  47.029  1.00  0.00     0.222 HD
BRANCH   9  11
HETATM   11  N1  UNL     1      10.747  15.735  46.699  1.00  0.00     0.115 N 
HETATM   12  C1  UNL     1      10.538  17.163  46.831  1.00  0.00     0.389 C 
HETATM   13  C2  UNL     1      10.407  15.138  47.976  1.00  0.00     0.389 C 
HETATM   14  O1  UNL     1       9.839  15.287  45.803  1.00  0.00    -0.043 OA
ENDBRANCH   9  11
ENDBRANCH   1   9
TORSDOF 2
ENDMDL
MODEL 5
REMARK VINA RESULT: -4.715758007      0.594      1.578
REMARK  2 active torsions:
REMARK  status: ('A' for Active; 'I' for Inactive)
REMARK    1  A    between atoms: N1_2  and  N2_5 
REMARK    2  A    between atoms: N2_5  and  C3_7 
ROOT
HETATM    1  C3  UNL     1      11.502  15.422  45.049  1.00  0.00     0.700 C 
HETATM    2  N3  UNL     1      12.319  14.414  45.130  1.00  0.00    -0.225 N 
ATOM      3  H3  UNL     1      12.035  13.590  45.660  1.00  0.00     0.177 HD
HETATM    4  C4  UNL     1      13.618  14.422  44.492  1.00  0.00     0.139 C 
HETATM    5  C5  UNL     1      14.222  15.820  44.582  1.00  0.00     0.040 C 
HETATM    6  C6  UNL     1      13.282  16.775  43.928  1.00  0.00     0.139 C 
HETATM    7  N4  UNL     1      11.894  16.572  44.311  1.00  0.00    -0.225 N 
ATOM      8  H4  UNL     1      11.192  17.263  44.047  1.00  0.00     0.177 HD
ENDROOT
BRANCH   1   9
HETATM    9  N2  UNL     1      10.226  15.436  45.667  1.00  0.00     0.003 N 
ATOM     10  H2  UNL     1       9.408  15.321  45.067  1.00  0.00     0.222 HD
BRANCH   9  11
HETATM   11  N1  UNL     1      10.011  15.593  47.017  1.00  0.00     0.115 N 
HETATM   12  C1  UNL     1       8.691  15.096  47.352  1.00  0.00     0.389 C 
HETATM   13  C2  UNL     1      10.063  16.976  47.449  1.00  0.00     0.389 C 
HETATM   14  O1  UNL     1      10.893  14.910  47.781  1.00  0.00    -0.043 OA
ENDBRANCH   9  11
ENDBRANCH   1   9
TORSDOF 2
ENDMDL
