MODEL 1
REMARK VINA RESULT: -7.892609002      0.000      0.000
REMARK  11 active torsions:
REMARK  status: ('A' for Active; 'I' for Inactive)
REMARK    1  A    between atoms: C3_3  and  O1_4 
REMARK    2  A    between atoms: C3_3  and  C4_6 
REMARK    3  A    between atoms: C3_3  and  C9_13 
REMARK    4  A    between atoms: C9_13  and  O4_14 
REMARK    5  A    between atoms: C9_13  and  C10_16 
REMARK    6  A    between atoms: C10_16  and  O5_17 
REMARK    7  A    between atoms: C10_16  and  C11_19 
REMARK    8  A    between atoms: C12_23  and  C13_24 
REMARK    9  A    between atoms: C13_24  and  O7_25 
REMARK   10  A    between atoms: C13_24  and  O8_27 
REMARK   11  A    between atoms: C13_24  and  O9_29 
ROOT
HETATM    1  C1  UNL     1       8.126   3.478 -17.406  1.00  0.00     0.015 C 
HETATM    2  C2  UNL     1       8.104   4.653 -17.163  1.00  0.00    -0.073 C 
HETATM    3  C3  UNL     1       8.059   6.145 -16.833  1.00  0.00     0.176 C 
ENDROOT
BRANCH   3   4
HETATM    4  O1  UNL     1       6.730   6.546 -17.042  1.00  0.00    -0.372 OA
ATOM      5  H1  UNL     1       6.497   7.080 -16.291  1.00  0.00     0.212 HD
ENDBRANCH   3   4
BRANCH   3   6
HETATM    6  C4  UNL     1       8.870   6.762 -17.934  1.00  0.00     0.198 C 
HETATM    7  C5  UNL     1      10.240   7.237 -17.505  1.00  0.00     0.207 C 
HETATM    8  O2  UNL     1       9.901   8.321 -16.654  1.00  0.00    -0.353 OA
HETATM    9  C6  UNL     1       8.967   8.966 -17.418  1.00  0.00     0.157 C 
HETATM   10  C7  UNL     1       8.091   9.836 -16.518  1.00  0.00     0.078 C 
HETATM   11  C8  UNL     1       9.749   9.938 -18.316  1.00  0.00     0.078 C 
HETATM   12  O3  UNL     1       8.273   8.047 -18.135  1.00  0.00    -0.344 OA
ENDBRANCH   3   6
BRANCH   3  13
HETATM   13  C9  UNL     1       8.534   6.268 -15.442  1.00  0.00     0.201 C 
BRANCH  13  14
HETATM   14  O4  UNL     1       9.359   5.125 -15.156  1.00  0.00    -0.389 OA
ATOM     15  H4  UNL     1      10.139   5.433 -14.709  1.00  0.00     0.210 HD
ENDBRANCH  13  14
BRANCH  13  16
HETATM   16  C10 UNL     1       7.601   6.517 -14.338  1.00  0.00     0.208 C 
BRANCH  16  17
HETATM   17  O5  UNL     1       7.926   7.639 -13.587  1.00  0.00    -0.388 OA
ATOM     18  H5  UNL     1       7.632   7.586 -12.685  1.00  0.00     0.210 HD
ENDBRANCH  16  17
BRANCH  16  19
HETATM   19  C11 UNL     1       7.495   5.372 -13.354  1.00  0.00     0.328 C 
HETATM   20  O6  UNL     1       6.477   5.568 -12.399  1.00  0.00    -0.242 OA
HETATM   21  N1  UNL     1       6.101   4.279 -12.022  1.00  0.00    -0.238 N 
HETATM   22  C12 UNL     1       6.469   3.439 -12.936  1.00  0.00     0.235 C 
ATOM     23  H1  UNL     1       5.613   4.035 -11.160  1.00  0.00     0.196 HD
HETATM   24  O10 UNL     1       7.108   4.164 -13.958  1.00  0.00    -0.295 OA
BRANCH  22  25
HETATM   25  C13 UNL     1       6.268   1.950 -12.943  1.00  0.00     0.348 C 
BRANCH  25  26
HETATM   26  O7  UNL     1       5.776   1.572 -14.171  1.00  0.00    -0.337 OA
ATOM     27  H7  UNL     1       6.363   0.931 -14.554  1.00  0.00     0.216 HD
ENDBRANCH  25  26
BRANCH  25  28
HETATM   28  O8  UNL     1       7.464   1.284 -12.716  1.00  0.00    -0.337 OA
ATOM     29  H8  UNL     1       7.328   0.345 -12.667  1.00  0.00     0.216 HD
ENDBRANCH  25  28
BRANCH  25  30
HETATM   30  O9  UNL     1       5.384   1.578 -11.921  1.00  0.00    -0.337 OA
ATOM     31  H9  UNL     1       4.489   1.613 -12.235  1.00  0.00     0.216 HD
ENDBRANCH  25  30
ENDBRANCH  22  25
ENDBRANCH  16  19
ENDBRANCH  13  16
ENDBRANCH   3  13
TORSDOF 11
ENDMDL
MODEL 2
REMARK VINA RESULT: -7.697200069      1.845      2.835
REMARK  11 active torsions:
REMARK  status: ('A' for Active; 'I' for Inactive)
REMARK    1  A    between atoms: C3_3  and  O1_4 
REMARK    2  A    between atoms: C3_3  and  C4_6 
REMARK    3  A    between atoms: C3_3  and  C9_13 
REMARK    4  A    between atoms: C9_13  and  O4_14 
REMARK    5  A    between atoms: C9_13  and  C10_16 
REMARK    6  A    between atoms: C10_16  and  O5_17 
REMARK    7  A    between atoms: C10_16  and  C11_19 
REMARK    8  A    between atoms: C12_23  and  C13_24 
REMARK    9  A    between atoms: C13_24  and  O7_25 
REMARK   10  A    between atoms: C13_24  and  O8_27 
REMARK   11  A    between atoms: C13_24  and  O9_29 
ROOT
HETATM    1  C1  UNL     1      10.871   5.618 -16.986  1.00  0.00     0.015 C 
HETATM    2  C2  UNL     1       9.745   5.549 -16.574  1.00  0.00    -0.073 C 
HETATM    3  C3  UNL     1       8.309   5.436 -16.062  1.00  0.00     0.176 C 
ENDROOT
BRANCH   3   4
HETATM    4  O1  UNL     1       7.490   5.471 -17.202  1.00  0.00    -0.372 OA
ATOM      5  H1  UNL     1       6.676   5.049 -16.952  1.00  0.00     0.212 HD
ENDBRANCH   3   4
BRANCH   3   6
HETATM    6  C4  UNL     1       8.099   6.738 -15.346  1.00  0.00     0.198 C 
HETATM    7  C5  UNL     1       6.756   7.382 -15.608  1.00  0.00     0.207 C 
HETATM    8  O2  UNL     1       6.884   7.737 -16.976  1.00  0.00    -0.353 OA
HETATM    9  C6  UNL     1       8.127   8.309 -16.979  1.00  0.00     0.157 C 
HETATM   10  C7  UNL     1       8.691   8.286 -18.399  1.00  0.00     0.078 C 
HETATM   11  C8  UNL     1       7.915   9.791 -16.632  1.00  0.00     0.078 C 
HETATM   12  O3  UNL     1       8.907   7.673 -16.069  1.00  0.00    -0.344 OA
ENDBRANCH   3   6
BRANCH   3  13
HETATM   13  C9  UNL     1       8.248   4.180 -15.292  1.00  0.00     0.201 C 
BRANCH  13  14
HETATM   14  O4  UNL     1       7.357   3.285 -15.980  1.00  0.00    -0.389 OA
ATOM     15  H4  UNL     1       7.759   3.054 -16.809  1.00  0.00     0.210 HD
ENDBRANCH  13  14
BRANCH  13  16
HETATM   16  C10 UNL     1       7.966   4.181 -13.853  1.00  0.00     0.208 C 
BRANCH  16  17
HETATM   17  O5  UNL     1       8.941   3.540 -13.101  1.00  0.00    -0.388 OA
ATOM     18  H5  UNL     1       9.025   3.886 -12.220  1.00  0.00     0.210 HD
ENDBRANCH  16  17
BRANCH  16  19
HETATM   19  C11 UNL     1       6.654   3.524 -13.485  1.00  0.00     0.328 C 
HETATM   20  O6  UNL     1       6.769   2.128 -13.329  1.00  0.00    -0.242 OA
HETATM   21  N1  UNL     1       5.750   1.792 -12.439  1.00  0.00    -0.238 N 
HETATM   22  C12 UNL     1       5.387   2.846 -11.782  1.00  0.00     0.235 C 
ATOM     23  H1  UNL     1       5.351   0.860 -12.324  1.00  0.00     0.196 HD
HETATM   24  O10 UNL     1       6.172   3.925 -12.228  1.00  0.00    -0.295 OA
BRANCH  22  25
HETATM   25  C13 UNL     1       4.325   2.944 -10.724  1.00  0.00     0.348 C 
BRANCH  25  26
HETATM   26  O7  UNL     1       3.097   3.050 -11.333  1.00  0.00    -0.337 OA
ATOM     27  H7  UNL     1       2.621   3.773 -10.944  1.00  0.00     0.216 HD
ENDBRANCH  25  26
BRANCH  25  28
HETATM   28  O8  UNL     1       4.326   1.820  -9.910  1.00  0.00    -0.337 OA
ATOM     29  H8  UNL     1       3.596   1.838  -9.303  1.00  0.00     0.216 HD
ENDBRANCH  25  28
BRANCH  25  30
HETATM   30  O9  UNL     1       4.565   4.053  -9.901  1.00  0.00    -0.337 OA
ATOM     31  H9  UNL     1       3.743   4.459  -9.651  1.00  0.00     0.216 HD
ENDBRANCH  25  30
ENDBRANCH  22  25
ENDBRANCH  16  19
ENDBRANCH  13  16
ENDBRANCH   3  13
TORSDOF 11
ENDMDL
MODEL 3
REMARK VINA RESULT: -7.510334776      1.680      3.097
REMARK  11 active torsions:
REMARK  status: ('A' for Active; 'I' for Inactive)
REMARK    1  A    between atoms: C3_3  and  O1_4 
REMARK    2  A    between atoms: C3_3  and  C4_6 
REMARK    3  A    between atoms: C3_3  and  C9_13 
REMARK    4  A    between atoms: C9_13  and  O4_14 
REMARK    5  A    between atoms: C9_13  and  C10_16 
REMARK    6  A    between atoms: C10_16  and  O5_17 
REMARK    7  A    between atoms: C10_16  and  C11_19 
REMARK    8  A    between atoms: C12_23  and  C13_24 
REMARK    9  A    between atoms: C13_24  and  O7_25 
REMARK   10  A    between atoms: C13_24  and  O8_27 
REMARK   11  A    between atoms: C13_24  and  O9_29 
ROOT
HETATM    1  C1  UNL     1      11.201   5.690 -17.067  1.00  0.00     0.015 C 
HETATM    2  C2  UNL     1      10.061   6.048 -17.189  1.00  0.00    -0.073 C 
HETATM    3  C3  UNL     1       8.607   6.485 -17.364  1.00  0.00     0.176 C 
ENDROOT
BRANCH   3   4
HETATM    4  O1  UNL     1       8.526   7.047 -18.648  1.00  0.00    -0.372 OA
ATOM      5  H1  UNL     1       7.903   6.513 -19.128  1.00  0.00     0.212 HD
ENDBRANCH   3   4
BRANCH   3   6
HETATM    6  C4  UNL     1       8.473   7.621 -16.392  1.00  0.00     0.198 C 
HETATM    7  C5  UNL     1       7.683   8.798 -16.918  1.00  0.00     0.207 C 
HETATM    8  O2  UNL     1       8.554   9.285 -17.926  1.00  0.00    -0.353 OA
HETATM    9  C6  UNL     1       9.749   9.280 -17.260  1.00  0.00     0.157 C 
HETATM   10  C7  UNL     1      10.893   9.256 -18.272  1.00  0.00     0.078 C 
HETATM   11  C8  UNL     1       9.844  10.637 -16.546  1.00  0.00     0.078 C 
HETATM   12  O3  UNL     1       9.764   8.238 -16.391  1.00  0.00    -0.344 OA
ENDBRANCH   3   6
BRANCH   3  13
HETATM   13  C9  UNL     1       7.791   5.273 -17.163  1.00  0.00     0.201 C 
BRANCH  13  14
HETATM   14  O4  UNL     1       6.467   5.692 -16.787  1.00  0.00    -0.389 OA
ATOM     15  H4  UNL     1       5.851   5.277 -17.380  1.00  0.00     0.210 HD
ENDBRANCH  13  14
BRANCH  13  16
HETATM   16  C10 UNL     1       8.248   4.181 -16.299  1.00  0.00     0.208 C 
BRANCH  16  17
HETATM   17  O5  UNL     1       8.248   2.944 -16.930  1.00  0.00    -0.388 OA
ATOM     18  H5  UNL     1       9.013   2.799 -17.475  1.00  0.00     0.210 HD
ENDBRANCH  16  17
BRANCH  16  19
HETATM   19  C11 UNL     1       7.426   4.008 -15.040  1.00  0.00     0.328 C 
HETATM   20  O6  UNL     1       7.810   2.879 -14.290  1.00  0.00    -0.242 OA
HETATM   21  N1  UNL     1       7.455   3.196 -12.979  1.00  0.00    -0.238 N 
HETATM   22  C12 UNL     1       7.331   4.480 -12.865  1.00  0.00     0.235 C 
ATOM     23  H1  UNL     1       7.315   2.522 -12.226  1.00  0.00     0.196 HD
HETATM   24  O10 UNL     1       7.606   5.054 -14.119  1.00  0.00    -0.295 OA
BRANCH  22  25
HETATM   25  C13 UNL     1       6.963   5.257 -11.633  1.00  0.00     0.348 C 
BRANCH  25  26
HETATM   26  O7  UNL     1       6.607   6.533 -12.001  1.00  0.00    -0.337 OA
ATOM     27  H7  UNL     1       7.323   7.123 -11.799  1.00  0.00     0.216 HD
ENDBRANCH  25  26
BRANCH  25  28
HETATM   28  O8  UNL     1       5.896   4.667 -10.971  1.00  0.00    -0.337 OA
ATOM     29  H8  UNL     1       6.199   4.042 -10.324  1.00  0.00     0.216 HD
ENDBRANCH  25  28
BRANCH  25  30
HETATM   30  O9  UNL     1       8.043   5.284 -10.740  1.00  0.00    -0.337 OA
ATOM     31  H9  UNL     1       7.755   5.586  -9.887  1.00  0.00     0.216 HD
ENDBRANCH  25  30
ENDBRANCH  22  25
ENDBRANCH  16  19
ENDBRANCH  13  16
ENDBRANCH   3  13
TORSDOF 11
ENDMDL
MODEL 4
REMARK VINA RESULT: -7.385311431      1.566      2.710
REMARK  11 active torsions:
REMARK  status: ('A' for Active; 'I' for Inactive)
REMARK    1  A    between atoms: C3_3  and  O1_4 
REMARK    2  A    between atoms: C3_3  and  C4_6 
REMARK    3  A    between atoms: C3_3  and  C9_13 
REMARK    4  A    between atoms: C9_13  and  O4_14 
REMARK    5  A    between atoms: C9_13  and  C10_16 
REMARK    6  A    between atoms: C10_16  and  O5_17 
REMARK    7  A    between atoms: C10_16  and  C11_19 
REMARK    8  A    between atoms: C12_23  and  C13_24 
REMARK    9  A    between atoms: C13_24  and  O7_25 
REMARK   10  A    between atoms: C13_24  and  O8_27 
REMARK   11  A    between atoms: C13_24  and  O9_29 
ROOT
HETATM    1  C1  UNL     1      11.049   5.881 -17.061  1.00  0.00     0.015 C 
HETATM    2  C2  UNL     1       9.926   6.299 -17.139  1.00  0.00    -0.073 C 
HETATM    3  C3  UNL     1       8.492   6.812 -17.260  1.00  0.00     0.176 C 
ENDROOT
BRANCH   3   4
HETATM    4  O1  UNL     1       8.405   7.421 -18.522  1.00  0.00    -0.372 OA
ATOM      5  H1  UNL     1       7.822   6.874 -19.036  1.00  0.00     0.212 HD
ENDBRANCH   3   4
BRANCH   3   6
HETATM    6  C4  UNL     1       8.440   7.919 -16.248  1.00  0.00     0.198 C 
HETATM    7  C5  UNL     1       7.692   9.149 -16.711  1.00  0.00     0.207 C 
HETATM    8  O2  UNL     1       8.556   9.629 -17.729  1.00  0.00    -0.353 OA
HETATM    9  C6  UNL     1       9.768   9.546 -17.100  1.00  0.00     0.157 C 
HETATM   10  C7  UNL     1      10.880   9.503 -18.146  1.00  0.00     0.078 C 
HETATM   11  C8  UNL     1       9.948  10.872 -16.346  1.00  0.00     0.078 C 
HETATM   12  O3  UNL     1       9.759   8.476 -16.266  1.00  0.00    -0.344 OA
ENDBRANCH   3   6
BRANCH   3  13
HETATM   13  C9  UNL     1       7.621   5.636 -17.076  1.00  0.00     0.201 C 
BRANCH  13  14
HETATM   14  O4  UNL     1       6.855   5.839 -15.875  1.00  0.00    -0.389 OA
ATOM     15  H4  UNL     1       6.411   6.675 -15.951  1.00  0.00     0.210 HD
ENDBRANCH  13  14
BRANCH  13  16
HETATM   16  C10 UNL     1       8.162   4.274 -17.116  1.00  0.00     0.208 C 
BRANCH  16  17
HETATM   17  O5  UNL     1       7.363   3.385 -17.823  1.00  0.00    -0.388 OA
ATOM     18  H5  UNL     1       6.640   3.040 -17.312  1.00  0.00     0.210 HD
ENDBRANCH  16  17
BRANCH  16  19
HETATM   19  C11 UNL     1       8.369   3.655 -15.751  1.00  0.00     0.328 C 
HETATM   20  O6  UNL     1       8.410   4.614 -14.719  1.00  0.00    -0.242 OA
HETATM   21  N1  UNL     1       7.982   3.924 -13.586  1.00  0.00    -0.238 N 
HETATM   22  C12 UNL     1       7.326   2.868 -13.947  1.00  0.00     0.235 C 
ATOM     23  H1  UNL     1       8.160   4.206 -12.622  1.00  0.00     0.196 HD
HETATM   24  O10 UNL     1       7.301   2.834 -15.353  1.00  0.00    -0.295 OA
BRANCH  22  25
HETATM   25  C13 UNL     1       6.687   1.840 -13.057  1.00  0.00     0.348 C 
BRANCH  25  26
HETATM   26  O7  UNL     1       5.942   2.482 -12.096  1.00  0.00    -0.337 OA
ATOM     27  H7  UNL     1       5.554   1.832 -11.522  1.00  0.00     0.216 HD
ENDBRANCH  25  26
BRANCH  25  28
HETATM   28  O8  UNL     1       5.854   1.000 -13.783  1.00  0.00    -0.337 OA
ATOM     29  H8  UNL     1       5.256   1.499 -14.326  1.00  0.00     0.216 HD
ENDBRANCH  25  28
BRANCH  25  30
HETATM   30  O9  UNL     1       7.672   1.037 -12.465  1.00  0.00    -0.337 OA
ATOM     31  H9  UNL     1       7.267   0.340 -11.963  1.00  0.00     0.216 HD
ENDBRANCH  25  30
ENDBRANCH  22  25
ENDBRANCH  16  19
ENDBRANCH  13  16
ENDBRANCH   3  13
TORSDOF 11
ENDMDL
MODEL 5
REMARK VINA RESULT: -7.366156969      2.906      6.986
REMARK  11 active torsions:
REMARK  status: ('A' for Active; 'I' for Inactive)
REMARK    1  A    between atoms: C3_3  and  O1_4 
REMARK    2  A    between atoms: C3_3  and  C4_6 
REMARK    3  A    between atoms: C3_3  and  C9_13 
REMARK    4  A    between atoms: C9_13  and  O4_14 
REMARK    5  A    between atoms: C9_13  and  C10_16 
REMARK    6  A    between atoms: C10_16  and  O5_17 
REMARK    7  A    between atoms: C10_16  and  C11_19 
REMARK    8  A    between atoms: C12_23  and  C13_24 
REMARK    9  A    between atoms: C13_24  and  O7_25 
REMARK   10  A    between atoms: C13_24  and  O8_27 
REMARK   11  A    between atoms: C13_24  and  O9_29 
ROOT
HETATM    1  C1  UNL     1       7.791   3.189 -17.438  1.00  0.00     0.015 C 
HETATM    2  C2  UNL     1       8.071   4.020 -16.617  1.00  0.00    -0.073 C 
HETATM    3  C3  UNL     1       8.454   5.076 -15.581  1.00  0.00     0.176 C 
ENDROOT
BRANCH   3   4
HETATM    4  O1  UNL     1       9.295   4.428 -14.662  1.00  0.00    -0.372 OA
ATOM      5  H1  UNL     1       9.253   4.941 -13.863  1.00  0.00     0.212 HD
ENDBRANCH   3   4
BRANCH   3   6
HETATM    6  C4  UNL     1       7.161   5.336 -14.866  1.00  0.00     0.198 C 
HETATM    7  C5  UNL     1       7.069   6.703 -14.225  1.00  0.00     0.207 C 
HETATM    8  O2  UNL     1       8.036   6.587 -13.193  1.00  0.00    -0.353 OA
HETATM    9  C6  UNL     1       7.708   5.367 -12.668  1.00  0.00     0.157 C 
HETATM   10  C7  UNL     1       8.911   4.801 -11.914  1.00  0.00     0.078 C 
HETATM   11  C8  UNL     1       6.632   5.636 -11.605  1.00  0.00     0.078 C 
HETATM   12  O3  UNL     1       7.259   4.564 -13.665  1.00  0.00    -0.344 OA
ENDBRANCH   3   6
BRANCH   3  13
HETATM   13  C9  UNL     1       9.087   6.175 -16.334  1.00  0.00     0.201 C 
BRANCH  13  14
HETATM   14  O4  UNL     1       8.102   6.718 -17.232  1.00  0.00    -0.389 OA
ATOM     15  H4  UNL     1       8.255   7.653 -17.300  1.00  0.00     0.210 HD
ENDBRANCH  13  14
BRANCH  13  16
HETATM   16  C10 UNL     1      10.365   5.986 -17.027  1.00  0.00     0.208 C 
BRANCH  16  17
HETATM   17  O5  UNL     1      11.305   5.299 -16.270  1.00  0.00    -0.388 OA
ATOM     18  H5  UNL     1      12.107   5.789 -16.130  1.00  0.00     0.210 HD
ENDBRANCH  16  17
BRANCH  16  19
HETATM   19  C11 UNL     1      11.031   7.278 -17.449  1.00  0.00     0.328 C 
HETATM   20  O6  UNL     1      10.294   8.419 -17.072  1.00  0.00    -0.242 OA
HETATM   21  N1  UNL     1      11.251   9.426 -16.950  1.00  0.00    -0.238 N 
HETATM   22  C12 UNL     1      12.420   8.892 -16.795  1.00  0.00     0.235 C 
ATOM     23  H1  UNL     1      11.060  10.427 -16.979  1.00  0.00     0.196 HD
HETATM   24  O10 UNL     1      12.264   7.495 -16.810  1.00  0.00    -0.295 OA
BRANCH  22  25
HETATM   25  C13 UNL     1      13.734   9.601 -16.625  1.00  0.00     0.348 C 
BRANCH  25  26
HETATM   26  O7  UNL     1      14.450   8.980 -15.628  1.00  0.00    -0.337 OA
ATOM     27  H7  UNL     1      14.142   8.087 -15.538  1.00  0.00     0.216 HD
ENDBRANCH  25  26
BRANCH  25  28
HETATM   28  O8  UNL     1      14.475   9.567 -17.797  1.00  0.00    -0.337 OA
ATOM     29  H8  UNL     1      15.255   9.036 -17.693  1.00  0.00     0.216 HD
ENDBRANCH  25  28
BRANCH  25  30
HETATM   30  O9  UNL     1      13.516  10.950 -16.309  1.00  0.00    -0.337 OA
ATOM     31  H9  UNL     1      14.134  11.234 -15.647  1.00  0.00     0.216 HD
ENDBRANCH  25  30
ENDBRANCH  22  25
ENDBRANCH  16  19
ENDBRANCH  13  16
ENDBRANCH   3  13
TORSDOF 11
ENDMDL
