MODEL 1
REMARK VINA RESULT: -5.726731263      0.000      0.000
REMARK  4 active torsions:
REMARK  status: ('A' for Active; 'I' for Inactive)
REMARK    1  A    between atoms: C2_4  and  N2_5 
REMARK    2  A    between atoms: C2_4  and  C3_10 
REMARK    3  A    between atoms: N2_5  and  N3_7 
REMARK    4  A    between atoms: C3_10  and  C5_12 
REMARK       I    between atoms: C5_12  and  N4_14 
ROOT
HETATM    1  C1  UNL     1      46.277  27.036  44.723  1.00  0.00     0.147 C 
HETATM    2  N1  UNL     1      46.321  26.250  43.504  1.00  0.00    -0.382 N 
ATOM      3  H1  UNL     1      46.473  25.244  43.581  1.00  0.00     0.160 HD
HETATM    4  C2  UNL     1      46.177  26.756  42.336  1.00  0.00     0.103 C 
ENDROOT
BRANCH   4   5
HETATM    5  N2  UNL     1      45.962  28.155  42.188  1.00  0.00    -0.295 N 
ATOM      6  H2  UNL     1      46.720  28.819  42.346  1.00  0.00     0.187 HD
BRANCH   5   7
HETATM    7  N3  UNL     1      44.706  28.592  41.825  1.00  0.00    -0.344 N 
ATOM      8  H32 UNL     1      44.094  27.982  41.283  1.00  0.00     0.176 HD
ATOM      9  H31 UNL     1      44.416  29.526  42.112  1.00  0.00     0.176 HD
ENDBRANCH   5   7
ENDBRANCH   4   5
BRANCH   4  10
HETATM   10  C3  UNL     1      46.246  25.849  41.177  1.00  0.00     0.143 C 
HETATM   11  C4  UNL     1      45.724  24.479  41.581  1.00  0.00     0.028 C 
BRANCH  10  12
HETATM   12  C5  UNL     1      45.658  26.336  39.941  1.00  0.00     0.234 C 
HETATM   13  O1  UNL     1      45.959  27.457  39.468  1.00  0.00    -0.272 OA
HETATM   14  N4  UNL     1      44.712  25.538  39.227  1.00  0.00    -0.303 N 
HETATM   15  C6  UNL     1      43.849  26.087  38.448  1.00  0.00     0.203 C 
ATOM     16  H4  UNL     1      44.722  24.524  39.337  1.00  0.00     0.171 HD
HETATM   17  N5  UNL     1      42.926  25.235  37.760  1.00  0.00    -0.066 NA
HETATM   18  N6  UNL     1      43.789  27.496  38.257  1.00  0.00    -0.066 NA
ENDBRANCH  10  12
ENDBRANCH   4  10
TORSDOF 4
ENDMDL
MODEL 2
REMARK VINA RESULT: -5.674775781      2.052      2.600
REMARK  4 active torsions:
REMARK  status: ('A' for Active; 'I' for Inactive)
REMARK    1  A    between atoms: C2_4  and  N2_5 
REMARK    2  A    between atoms: C2_4  and  C3_10 
REMARK    3  A    between atoms: N2_5  and  N3_7 
REMARK    4  A    between atoms: C3_10  and  C5_12 
REMARK       I    between atoms: C5_12  and  N4_14 
ROOT
HETATM    1  C1  UNL     1      47.440  26.230  45.772  1.00  0.00     0.147 C 
HETATM    2  N1  UNL     1      46.439  26.432  44.742  1.00  0.00    -0.382 N 
ATOM      3  H1  UNL     1      45.607  26.974  44.974  1.00  0.00     0.160 HD
HETATM    4  C2  UNL     1      46.548  25.963  43.554  1.00  0.00     0.103 C 
ENDROOT
BRANCH   4   5
HETATM    5  N2  UNL     1      47.695  25.202  43.192  1.00  0.00    -0.295 N 
ATOM      6  H2  UNL     1      48.631  25.517  43.444  1.00  0.00     0.187 HD
BRANCH   5   7
HETATM    7  N3  UNL     1      47.510  24.028  42.494  1.00  0.00    -0.344 N 
ATOM      8  H32 UNL     1      47.142  24.057  41.543  1.00  0.00     0.176 HD
ATOM      9  H31 UNL     1      47.749  23.148  42.950  1.00  0.00     0.176 HD
ENDBRANCH   5   7
ENDBRANCH   4   5
BRANCH   4  10
HETATM   10  C3  UNL     1      45.458  26.235  42.601  1.00  0.00     0.143 C 
HETATM   11  C4  UNL     1      44.408  27.104  43.276  1.00  0.00     0.028 C 
BRANCH  10  12
HETATM   12  C5  UNL     1      45.852  26.735  41.296  1.00  0.00     0.234 C 
HETATM   13  O1  UNL     1      46.086  27.952  41.102  1.00  0.00    -0.272 OA
HETATM   14  N4  UNL     1      45.983  25.842  40.189  1.00  0.00    -0.303 N 
HETATM   15  C6  UNL     1      45.854  26.271  38.983  1.00  0.00     0.203 C 
ATOM     16  H4  UNL     1      46.181  24.856  40.356  1.00  0.00     0.171 HD
HETATM   17  N5  UNL     1      45.996  25.328  37.915  1.00  0.00    -0.066 NA
HETATM   18  N6  UNL     1      45.578  27.636  38.691  1.00  0.00    -0.066 NA
ENDBRANCH  10  12
ENDBRANCH   4  10
TORSDOF 4
ENDMDL
MODEL 3
REMARK VINA RESULT: -5.392249909      1.597      4.804
REMARK  4 active torsions:
REMARK  status: ('A' for Active; 'I' for Inactive)
REMARK    1  A    between atoms: C2_4  and  N2_5 
REMARK    2  A    between atoms: C2_4  and  C3_10 
REMARK    3  A    between atoms: N2_5  and  N3_7 
REMARK    4  A    between atoms: C3_10  and  C5_12 
REMARK       I    between atoms: C5_12  and  N4_14 
ROOT
HETATM    1  C1  UNL     1      43.973  28.975  38.150  1.00  0.00     0.147 C 
HETATM    2  N1  UNL     1      44.623  27.997  39.003  1.00  0.00    -0.382 N 
ATOM      3  H1  UNL     1      45.306  28.327  39.685  1.00  0.00     0.160 HD
HETATM    4  C2  UNL     1      44.381  26.740  38.943  1.00  0.00     0.103 C 
ENDROOT
BRANCH   4   5
HETATM    5  N2  UNL     1      43.435  26.242  38.005  1.00  0.00    -0.295 N 
ATOM      6  H2  UNL     1      43.394  26.614  37.056  1.00  0.00     0.187 HD
BRANCH   5   7
HETATM    7  N3  UNL     1      42.574  25.245  38.408  1.00  0.00    -0.344 N 
ATOM      8  H32 UNL     1      41.906  25.423  39.158  1.00  0.00     0.176 HD
ATOM      9  H31 UNL     1      42.625  24.340  37.940  1.00  0.00     0.176 HD
ENDBRANCH   5   7
ENDBRANCH   4   5
BRANCH   4  10
HETATM   10  C3  UNL     1      45.112  25.852  39.863  1.00  0.00     0.143 C 
HETATM   11  C4  UNL     1      46.405  25.399  39.202  1.00  0.00     0.028 C 
BRANCH  10  12
HETATM   12  C5  UNL     1      45.311  26.346  41.215  1.00  0.00     0.234 C 
HETATM   13  O1  UNL     1      44.747  27.388  41.622  1.00  0.00    -0.272 OA
HETATM   14  N4  UNL     1      46.165  25.646  42.121  1.00  0.00    -0.303 N 
HETATM   15  C6  UNL     1      46.729  26.265  43.098  1.00  0.00     0.203 C 
ATOM     16  H4  UNL     1      46.329  24.648  41.992  1.00  0.00     0.171 HD
HETATM   17  N5  UNL     1      47.575  25.509  43.973  1.00  0.00    -0.066 NA
HETATM   18  N6  UNL     1      46.537  27.656  43.325  1.00  0.00    -0.066 NA
ENDBRANCH  10  12
ENDBRANCH   4  10
TORSDOF 4
ENDMDL
MODEL 4
REMARK VINA RESULT: -5.349246993      1.691      4.989
REMARK  4 active torsions:
REMARK  status: ('A' for Active; 'I' for Inactive)
REMARK    1  A    between atoms: C2_4  and  N2_5 
REMARK    2  A    between atoms: C2_4  and  C3_10 
REMARK    3  A    between atoms: N2_5  and  N3_7 
REMARK    4  A    between atoms: C3_10  and  C5_12 
REMARK       I    between atoms: C5_12  and  N4_14 
ROOT
HETATM    1  C1  UNL     1      43.894  25.514  38.423  1.00  0.00     0.147 C 
HETATM    2  N1  UNL     1      44.410  26.139  39.626  1.00  0.00    -0.382 N 
ATOM      3  H1  UNL     1      44.413  25.597  40.490  1.00  0.00     0.160 HD
HETATM    4  C2  UNL     1      44.862  27.338  39.657  1.00  0.00     0.103 C 
ENDROOT
BRANCH   4   5
HETATM    5  N2  UNL     1      44.874  28.125  38.472  1.00  0.00    -0.295 N 
ATOM      6  H2  UNL     1      45.674  28.105  37.841  1.00  0.00     0.187 HD
BRANCH   5   7
HETATM    7  N3  UNL     1      43.778  28.914  38.197  1.00  0.00    -0.344 N 
ATOM      8  H32 UNL     1      43.429  29.561  38.904  1.00  0.00     0.176 HD
ATOM      9  H31 UNL     1      43.336  28.830  37.282  1.00  0.00     0.176 HD
ENDBRANCH   5   7
ENDBRANCH   4   5
BRANCH   4  10
HETATM   10  C3  UNL     1      45.355  27.857  40.945  1.00  0.00     0.143 C 
HETATM   11  C4  UNL     1      44.200  28.493  41.704  1.00  0.00     0.028 C 
BRANCH  10  12
HETATM   12  C5  UNL     1      46.126  26.934  41.760  1.00  0.00     0.234 C 
HETATM   13  O1  UNL     1      46.310  25.745  41.409  1.00  0.00    -0.272 OA
HETATM   14  N4  UNL     1      46.699  27.366  42.995  1.00  0.00    -0.303 N 
HETATM   15  C6  UNL     1      46.952  26.519  43.930  1.00  0.00     0.203 C 
ATOM     16  H4  UNL     1      46.908  28.354  43.137  1.00  0.00     0.171 HD
HETATM   17  N5  UNL     1      47.525  27.012  45.146  1.00  0.00    -0.066 NA
HETATM   18  N6  UNL     1      46.680  25.130  43.788  1.00  0.00    -0.066 NA
ENDBRANCH  10  12
ENDBRANCH   4  10
TORSDOF 4
ENDMDL
MODEL 5
REMARK VINA RESULT: -5.191542768      1.657      2.381
REMARK  4 active torsions:
REMARK  status: ('A' for Active; 'I' for Inactive)
REMARK    1  A    between atoms: C2_4  and  N2_5 
REMARK    2  A    between atoms: C2_4  and  C3_10 
REMARK    3  A    between atoms: N2_5  and  N3_7 
REMARK    4  A    between atoms: C3_10  and  C5_12 
REMARK       I    between atoms: C5_12  and  N4_14 
ROOT
HETATM    1  C1  UNL     1      46.920  26.651  45.296  1.00  0.00     0.147 C 
HETATM    2  N1  UNL     1      46.087  26.900  44.135  1.00  0.00    -0.382 N 
ATOM      3  H1  UNL     1      45.512  27.742  44.123  1.00  0.00     0.160 HD
HETATM    4  C2  UNL     1      46.038  26.114  43.124  1.00  0.00     0.103 C 
ENDROOT
BRANCH   4   5
HETATM    5  N2  UNL     1      46.825  24.929  43.105  1.00  0.00    -0.295 N 
ATOM      6  H2  UNL     1      46.385  24.010  43.068  1.00  0.00     0.187 HD
BRANCH   5   7
HETATM    7  N3  UNL     1      48.198  25.053  43.138  1.00  0.00    -0.344 N 
ATOM      8  H32 UNL     1      48.633  25.702  43.794  1.00  0.00     0.176 HD
ATOM      9  H31 UNL     1      48.752  24.484  42.498  1.00  0.00     0.176 HD
ENDBRANCH   5   7
ENDBRANCH   4   5
BRANCH   4  10
HETATM   10  C3  UNL     1      45.146  26.478  42.009  1.00  0.00     0.143 C 
HETATM   11  C4  UNL     1      45.138  27.990  41.847  1.00  0.00     0.028 C 
BRANCH  10  12
HETATM   12  C5  UNL     1      45.362  25.777  40.755  1.00  0.00     0.234 C 
HETATM   13  O1  UNL     1      46.477  25.285  40.462  1.00  0.00    -0.272 OA
HETATM   14  N4  UNL     1      44.295  25.630  39.817  1.00  0.00    -0.303 N 
HETATM   15  C6  UNL     1      44.543  25.465  38.565  1.00  0.00     0.203 C 
ATOM     16  H4  UNL     1      43.329  25.656  40.142  1.00  0.00     0.171 HD
HETATM   17  N5  UNL     1      43.432  25.324  37.673  1.00  0.00    -0.066 NA
HETATM   18  N6  UNL     1      45.870  25.421  38.056  1.00  0.00    -0.066 NA
ENDBRANCH  10  12
ENDBRANCH   4  10
TORSDOF 4
ENDMDL
