MODEL 1
REMARK VINA RESULT: -5.111421176      0.000      0.000
REMARK  2 active torsions:
REMARK  status: ('A' for Active; 'I' for Inactive)
REMARK    1  A    between atoms: N1_2  and  N2_4 
REMARK       I    between atoms: N2_4  and  C3_6 
REMARK       I    between atoms: C3_6  and  N3_7 
REMARK       I    between atoms: C3_6  and  N4_10 
REMARK    2  A    between atoms: N4_10  and  C4_12 
ROOT
HETATM    1  N2  UNL     1      45.618  26.412  43.310  1.00  0.00    -0.153 N 
ATOM      2  H2  UNL     1      44.608  26.422  43.457  1.00  0.00     0.199 HD
HETATM    3  C3  UNL     1      46.118  26.919  42.077  1.00  0.00     0.688 C 
HETATM    4  N3  UNL     1      46.612  28.124  41.988  1.00  0.00    -0.234 N 
ATOM      5  H31 UNL     1      46.971  28.489  41.105  1.00  0.00     0.174 HD
ATOM      6  H32 UNL     1      46.657  28.746  42.796  1.00  0.00     0.174 HD
HETATM    7  N4  UNL     1      46.055  26.054  40.954  1.00  0.00    -0.175 N 
ATOM      8  H4  UNL     1      46.610  25.200  40.919  1.00  0.00     0.186 HD
ENDROOT
BRANCH   1   9
HETATM    9  N1  UNL     1      46.415  25.904  44.323  1.00  0.00    -0.225 NA
HETATM   10  C1  UNL     1      47.561  25.217  43.761  1.00  0.00     0.136 C 
HETATM   11  C2  UNL     1      46.788  26.982  45.192  1.00  0.00     0.136 C 
ENDBRANCH   1   9
BRANCH   7  12
HETATM   12  C4  UNL     1      45.269  26.381  39.974  1.00  0.00     0.137 A 
HETATM   13  C5  UNL     1      44.647  25.520  39.102  1.00  0.00     0.069 A 
HETATM   14  C6  UNL     1      43.915  26.292  38.227  1.00  0.00     0.113 A 
HETATM   15  N5  UNL     1      44.119  27.554  38.595  1.00  0.00    -0.306 N 
HETATM   16  C7  UNL     1      43.535  28.731  37.946  1.00  0.00     0.177 C 
HETATM   17  N6  UNL     1      44.920  27.632  39.631  1.00  0.00    -0.284 N 
ATOM     18  H6  UNL     1      45.224  28.489  40.093  1.00  0.00     0.188 HD
ENDBRANCH   7  12
TORSDOF 2
ENDMDL
MODEL 2
REMARK VINA RESULT: -4.823236824      1.730      2.353
REMARK  2 active torsions:
REMARK  status: ('A' for Active; 'I' for Inactive)
REMARK    1  A    between atoms: N1_2  and  N2_4 
REMARK       I    between atoms: N2_4  and  C3_6 
REMARK       I    between atoms: C3_6  and  N3_7 
REMARK       I    between atoms: C3_6  and  N4_10 
REMARK    2  A    between atoms: N4_10  and  C4_12 
ROOT
HETATM    1  N2  UNL     1      47.329  26.713  43.558  1.00  0.00    -0.153 N 
ATOM      2  H2  UNL     1      47.838  27.445  43.060  1.00  0.00     0.199 HD
HETATM    3  C3  UNL     1      46.688  25.704  42.785  1.00  0.00     0.688 C 
HETATM    4  N3  UNL     1      47.230  24.529  42.616  1.00  0.00    -0.234 N 
ATOM      5  H31 UNL     1      46.770  23.806  42.062  1.00  0.00     0.174 HD
ATOM      6  H32 UNL     1      48.132  24.291  43.028  1.00  0.00     0.174 HD
HETATM    7  N4  UNL     1      45.432  26.036  42.212  1.00  0.00    -0.175 N 
ATOM      8  H4  UNL     1      44.618  26.215  42.800  1.00  0.00     0.186 HD
ENDROOT
BRANCH   1   9
HETATM    9  N1  UNL     1      47.308  26.765  44.942  1.00  0.00    -0.225 NA
HETATM   10  C1  UNL     1      46.059  27.342  45.401  1.00  0.00     0.136 C 
HETATM   11  C2  UNL     1      47.526  25.442  45.451  1.00  0.00     0.136 C 
ENDBRANCH   1   9
BRANCH   7  12
HETATM   12  C4  UNL     1      45.350  26.106  40.919  1.00  0.00     0.137 A 
HETATM   13  C5  UNL     1      45.721  27.171  40.131  1.00  0.00     0.069 A 
HETATM   14  C6  UNL     1      45.462  26.816  38.826  1.00  0.00     0.113 A 
HETATM   15  N5  UNL     1      44.959  25.585  38.876  1.00  0.00    -0.306 N 
HETATM   16  C7  UNL     1      44.534  24.797  37.715  1.00  0.00     0.177 C 
HETATM   17  N6  UNL     1      44.883  25.143  40.108  1.00  0.00    -0.284 N 
ATOM     18  H6  UNL     1      44.532  24.230  40.399  1.00  0.00     0.188 HD
ENDBRANCH   7  12
TORSDOF 2
ENDMDL
MODEL 3
REMARK VINA RESULT: -4.434107276      1.244      1.765
REMARK  2 active torsions:
REMARK  status: ('A' for Active; 'I' for Inactive)
REMARK    1  A    between atoms: N1_2  and  N2_4 
REMARK       I    between atoms: N2_4  and  C3_6 
REMARK       I    between atoms: C3_6  and  N3_7 
REMARK       I    between atoms: C3_6  and  N4_10 
REMARK    2  A    between atoms: N4_10  and  C4_12 
ROOT
HETATM    1  N2  UNL     1      47.337  26.802  43.548  1.00  0.00    -0.153 N 
ATOM      2  H2  UNL     1      47.873  27.529  43.073  1.00  0.00     0.199 HD
HETATM    3  C3  UNL     1      46.581  25.899  42.748  1.00  0.00     0.688 C 
HETATM    4  N3  UNL     1      47.024  24.703  42.470  1.00  0.00    -0.234 N 
ATOM      5  H31 UNL     1      46.483  24.055  41.896  1.00  0.00     0.174 HD
ATOM      6  H32 UNL     1      47.926  24.372  42.813  1.00  0.00     0.174 HD
HETATM    7  N4  UNL     1      45.327  26.360  42.270  1.00  0.00    -0.175 N 
ATOM      8  H4  UNL     1      44.560  26.555  42.913  1.00  0.00     0.186 HD
ENDROOT
BRANCH   1   9
HETATM    9  N1  UNL     1      47.390  26.758  44.932  1.00  0.00    -0.225 NA
HETATM   10  C1  UNL     1      46.203  27.367  45.498  1.00  0.00     0.136 C 
HETATM   11  C2  UNL     1      47.557  25.392  45.337  1.00  0.00     0.136 C 
ENDBRANCH   1   9
BRANCH   7  12
HETATM   12  C4  UNL     1      45.184  26.527  40.991  1.00  0.00     0.137 A 
HETATM   13  C5  UNL     1      45.517  25.628  40.005  1.00  0.00     0.069 A 
HETATM   14  C6  UNL     1      45.199  26.215  38.801  1.00  0.00     0.113 A 
HETATM   15  N5  UNL     1      44.701  27.412  39.098  1.00  0.00    -0.306 N 
HETATM   16  C7  UNL     1      44.223  28.396  38.122  1.00  0.00     0.177 C 
HETATM   17  N6  UNL     1      44.682  27.620  40.393  1.00  0.00    -0.284 N 
ATOM     18  H6  UNL     1      44.345  28.461  40.862  1.00  0.00     0.188 HD
ENDBRANCH   7  12
TORSDOF 2
ENDMDL
MODEL 4
REMARK VINA RESULT: -4.299822355      1.817      5.626
REMARK  2 active torsions:
REMARK  status: ('A' for Active; 'I' for Inactive)
REMARK    1  A    between atoms: N1_2  and  N2_4 
REMARK       I    between atoms: N2_4  and  C3_6 
REMARK       I    between atoms: C3_6  and  N3_7 
REMARK       I    between atoms: C3_6  and  N4_10 
REMARK    2  A    between atoms: N4_10  and  C4_12 
ROOT
HETATM    1  N2  UNL     1      44.657  26.014  39.429  1.00  0.00    -0.153 N 
ATOM      2  H2  UNL     1      44.184  26.877  39.699  1.00  0.00     0.199 HD
HETATM    3  C3  UNL     1      45.111  25.149  40.465  1.00  0.00     0.688 C 
HETATM    4  N3  UNL     1      44.432  24.090  40.813  1.00  0.00    -0.234 N 
ATOM      5  H31 UNL     1      44.757  23.470  41.556  1.00  0.00     0.174 HD
ATOM      6  H32 UNL     1      43.553  23.843  40.358  1.00  0.00     0.174 HD
HETATM    7  N4  UNL     1      46.334  25.493  41.098  1.00  0.00    -0.175 N 
ATOM      8  H4  UNL     1      47.215  25.470  40.584  1.00  0.00     0.186 HD
ENDROOT
BRANCH   1   9
HETATM    9  N1  UNL     1      44.816  25.758  38.077  1.00  0.00    -0.225 NA
HETATM   10  C1  UNL     1      45.962  24.897  37.862  1.00  0.00     0.136 C 
HETATM   11  C2  UNL     1      43.598  25.192  37.575  1.00  0.00     0.136 C 
ENDBRANCH   1   9
BRANCH   7  12
HETATM   12  C4  UNL     1      46.299  25.839  42.348  1.00  0.00     0.137 A 
HETATM   13  C5  UNL     1      45.409  26.708  42.933  1.00  0.00     0.069 A 
HETATM   14  C6  UNL     1      45.737  26.783  44.268  1.00  0.00     0.113 A 
HETATM   15  N5  UNL     1      46.785  25.980  44.432  1.00  0.00    -0.306 N 
HETATM   16  C7  UNL     1      47.479  25.742  45.701  1.00  0.00     0.177 C 
HETATM   17  N6  UNL     1      47.137  25.408  43.306  1.00  0.00    -0.284 N 
ATOM     18  H6  UNL     1      47.908  24.752  43.179  1.00  0.00     0.188 HD
ENDBRANCH   7  12
TORSDOF 2
ENDMDL
MODEL 5
REMARK VINA RESULT: -4.252845027      1.033      1.418
REMARK  2 active torsions:
REMARK  status: ('A' for Active; 'I' for Inactive)
REMARK    1  A    between atoms: N1_2  and  N2_4 
REMARK       I    between atoms: N2_4  and  C3_6 
REMARK       I    between atoms: C3_6  and  N3_7 
REMARK       I    between atoms: C3_6  and  N4_10 
REMARK    2  A    between atoms: N4_10  and  C4_12 
ROOT
HETATM    1  N2  UNL     1      45.669  26.369  43.425  1.00  0.00    -0.153 N 
ATOM      2  H2  UNL     1      44.661  26.274  43.557  1.00  0.00     0.199 HD
HETATM    3  C3  UNL     1      46.132  26.913  42.193  1.00  0.00     0.688 C 
HETATM    4  N3  UNL     1      46.497  28.162  42.096  1.00  0.00    -0.234 N 
ATOM      5  H31 UNL     1      46.829  28.552  41.213  1.00  0.00     0.174 HD
ATOM      6  H32 UNL     1      46.464  28.794  42.896  1.00  0.00     0.174 HD
HETATM    7  N4  UNL     1      46.178  26.033  41.081  1.00  0.00    -0.175 N 
ATOM      8  H4  UNL     1      46.822  25.241  41.064  1.00  0.00     0.186 HD
ENDROOT
BRANCH   1   9
HETATM    9  N1  UNL     1      46.498  25.960  44.456  1.00  0.00    -0.225 NA
HETATM   10  C1  UNL     1      47.646  25.252  43.923  1.00  0.00     0.136 C 
HETATM   11  C2  UNL     1      46.869  27.112  45.226  1.00  0.00     0.136 C 
ENDBRANCH   1   9
BRANCH   7  12
HETATM   12  C4  UNL     1      45.378  26.263  40.085  1.00  0.00     0.137 A 
HETATM   13  C5  UNL     1      44.963  27.495  39.637  1.00  0.00     0.069 A 
HETATM   14  C6  UNL     1      44.125  27.272  38.567  1.00  0.00     0.113 A 
HETATM   15  N5  UNL     1      44.068  25.952  38.416  1.00  0.00    -0.306 N 
HETATM   16  C7  UNL     1      43.290  25.249  37.392  1.00  0.00     0.177 C 
HETATM   17  N6  UNL     1      44.805  25.331  39.306  1.00  0.00    -0.284 N 
ATOM     18  H6  UNL     1      44.922  24.321  39.392  1.00  0.00     0.188 HD
ENDBRANCH   7  12
TORSDOF 2
ENDMDL
