MODEL 1
REMARK VINA RESULT: -6.687709673      0.000      0.000
REMARK  4 active torsions:
REMARK  status: ('A' for Active; 'I' for Inactive)
REMARK    1  A    between atoms: C4_4  and  N1_5 
REMARK    2  A    between atoms: N1_5  and  C5_7 
REMARK    3  A    between atoms: C7_11  and  N3_12 
REMARK    4  A    between atoms: N5_17  and  O1_18 
ROOT
HETATM    1  C1  UNL     1      54.582  26.843  47.605  1.00  0.00     0.019 C 
HETATM    2  C2  UNL     1      55.271  26.809  46.613  1.00  0.00    -0.052 C 
HETATM    3  C3  UNL     1      56.118  26.767  45.437  1.00  0.00     0.178 A 
HETATM    4  C4  UNL     1      57.450  27.119  45.535  1.00  0.00     0.157 A 
HETATM    5  N2  UNL     1      58.231  27.077  44.439  1.00  0.00    -0.173 N 
ATOM      6  H2  UNL     1      59.217  27.333  44.496  1.00  0.00     0.186 HD
HETATM    7  C7  UNL     1      57.693  26.693  43.274  1.00  0.00     0.694 A 
HETATM    8  N4  UNL     1      56.381  26.342  43.158  1.00  0.00    -0.105 N 
ATOM      9  H4  UNL     1      55.990  26.053  42.261  1.00  0.00     0.208 HD
HETATM   10  N5  UNL     1      55.637  26.390  44.238  1.00  0.00    -0.137 N 
ENDROOT
BRANCH   4  11
HETATM   11  N1  UNL     1      57.949  27.489  46.680  1.00  0.00    -0.374 N 
ATOM     12  H1  UNL     1      58.374  26.802  47.302  1.00  0.00     0.161 HD
BRANCH  11  13
HETATM   13  C5  UNL     1      57.893  28.881  47.060  1.00  0.00     0.116 C 
HETATM   14  C6  UNL     1      57.908  29.012  48.564  1.00  0.00     0.026 C 
ENDBRANCH  11  13
ENDBRANCH   4  11
BRANCH  10  15
HETATM   15  O1  UNL     1      54.307  26.031  44.100  1.00  0.00    -0.267 OA
ATOM     16  H1  UNL     1      53.716  26.568  43.586  1.00  0.00     0.247 HD
ENDBRANCH  10  15
BRANCH   7  17
HETATM   17  N3  UNL     1      58.492  26.670  42.248  1.00  0.00    -0.233 N 
ATOM     18  H32 UNL     1      59.338  27.240  42.223  1.00  0.00     0.174 HD
ATOM     19  H31 UNL     1      58.225  26.057  41.478  1.00  0.00     0.174 HD
ENDBRANCH   7  17
TORSDOF 4
ENDMDL
MODEL 2
REMARK VINA RESULT: -6.300996209      2.521      4.833
REMARK  4 active torsions:
REMARK  status: ('A' for Active; 'I' for Inactive)
REMARK    1  A    between atoms: C4_4  and  N1_5 
REMARK    2  A    between atoms: N1_5  and  C5_7 
REMARK    3  A    between atoms: C7_11  and  N3_12 
REMARK    4  A    between atoms: N5_17  and  O1_18 
ROOT
HETATM    1  C1  UNL     1      59.336  28.005  44.480  1.00  0.00     0.019 C 
HETATM    2  C2  UNL     1      58.367  27.878  45.189  1.00  0.00    -0.052 C 
HETATM    3  C3  UNL     1      57.200  27.702  46.033  1.00  0.00     0.178 A 
HETATM    4  C4  UNL     1      56.283  26.712  45.742  1.00  0.00     0.157 A 
HETATM    5  N2  UNL     1      55.203  26.554  46.530  1.00  0.00    -0.173 N 
ATOM      6  H2  UNL     1      54.516  25.827  46.329  1.00  0.00     0.186 HD
HETATM    7  C7  UNL     1      55.044  27.368  47.582  1.00  0.00     0.694 A 
HETATM    8  N4  UNL     1      55.938  28.351  47.885  1.00  0.00    -0.105 N 
ATOM      9  H4  UNL     1      55.799  28.960  48.691  1.00  0.00     0.208 HD
HETATM   10  N5  UNL     1      56.984  28.488  47.105  1.00  0.00    -0.137 N 
ENDROOT
BRANCH   4  11
HETATM   11  N1  UNL     1      56.461  25.934  44.713  1.00  0.00    -0.374 N 
ATOM     12  H1  UNL     1      57.022  25.087  44.799  1.00  0.00     0.161 HD
BRANCH  11  13
HETATM   13  C5  UNL     1      55.858  26.284  43.448  1.00  0.00     0.116 C 
HETATM   14  C6  UNL     1      56.906  26.319  42.362  1.00  0.00     0.026 C 
ENDBRANCH  11  13
ENDBRANCH   4  11
BRANCH  10  15
HETATM   15  O1  UNL     1      57.881  29.491  47.427  1.00  0.00    -0.267 OA
ATOM     16  H1  UNL     1      58.398  29.436  48.223  1.00  0.00     0.247 HD
ENDBRANCH  10  15
BRANCH   7  17
HETATM   17  N3  UNL     1      53.983  27.172  48.309  1.00  0.00    -0.233 N 
ATOM     18  H32 UNL     1      54.027  27.198  49.328  1.00  0.00     0.174 HD
ATOM     19  H31 UNL     1      53.114  26.994  47.806  1.00  0.00     0.174 HD
ENDBRANCH   7  17
TORSDOF 4
ENDMDL
MODEL 3
REMARK VINA RESULT: -6.260989227      2.033      3.146
REMARK  4 active torsions:
REMARK  status: ('A' for Active; 'I' for Inactive)
REMARK    1  A    between atoms: C4_4  and  N1_5 
REMARK    2  A    between atoms: N1_5  and  C5_7 
REMARK    3  A    between atoms: C7_11  and  N3_12 
REMARK    4  A    between atoms: N5_17  and  O1_18 
ROOT
HETATM    1  C1  UNL     1      57.951  28.353  47.441  1.00  0.00     0.019 C 
HETATM    2  C2  UNL     1      57.953  27.836  46.350  1.00  0.00    -0.052 C 
HETATM    3  C3  UNL     1      57.931  27.208  45.043  1.00  0.00     0.178 A 
HETATM    4  C4  UNL     1      56.973  26.257  44.751  1.00  0.00     0.157 A 
HETATM    5  N2  UNL     1      56.959  25.680  43.535  1.00  0.00    -0.173 N 
ATOM      6  H2  UNL     1      56.257  24.976  43.304  1.00  0.00     0.186 HD
HETATM    7  C7  UNL     1      57.880  26.043  42.634  1.00  0.00     0.694 A 
HETATM    8  N4  UNL     1      58.834  26.979  42.903  1.00  0.00    -0.105 N 
ATOM      9  H4  UNL     1      59.527  27.242  42.203  1.00  0.00     0.208 HD
HETATM   10  N5  UNL     1      58.830  27.531  44.094  1.00  0.00    -0.137 N 
ENDROOT
BRANCH   4  11
HETATM   11  N1  UNL     1      56.088  25.922  45.646  1.00  0.00    -0.374 N 
ATOM     12  H1  UNL     1      56.225  25.090  46.218  1.00  0.00     0.161 HD
BRANCH  11  13
HETATM   13  C5  UNL     1      54.911  26.740  45.819  1.00  0.00     0.116 C 
HETATM   14  C6  UNL     1      54.573  26.865  47.285  1.00  0.00     0.026 C 
ENDBRANCH  11  13
ENDBRANCH   4  11
BRANCH  10  15
HETATM   15  O1  UNL     1      59.806  28.479  44.350  1.00  0.00    -0.267 OA
ATOM     16  H1  UNL     1      59.682  29.123  45.037  1.00  0.00     0.247 HD
ENDBRANCH  10  15
BRANCH   7  17
HETATM   17  N3  UNL     1      57.821  25.453  41.476  1.00  0.00    -0.233 N 
ATOM     18  H32 UNL     1      58.214  24.522  41.335  1.00  0.00     0.174 HD
ATOM     19  H31 UNL     1      57.363  25.971  40.726  1.00  0.00     0.174 HD
ENDBRANCH   7  17
TORSDOF 4
ENDMDL
MODEL 4
REMARK VINA RESULT: -5.927231055      1.618      1.961
REMARK  4 active torsions:
REMARK  status: ('A' for Active; 'I' for Inactive)
REMARK    1  A    between atoms: C4_4  and  N1_5 
REMARK    2  A    between atoms: N1_5  and  C5_7 
REMARK    3  A    between atoms: C7_11  and  N3_12 
REMARK    4  A    between atoms: N5_17  and  O1_18 
ROOT
HETATM    1  C1  UNL     1      53.921  25.995  44.644  1.00  0.00     0.019 C 
HETATM    2  C2  UNL     1      55.073  26.340  44.531  1.00  0.00    -0.052 C 
HETATM    3  C3  UNL     1      56.459  26.750  44.420  1.00  0.00     0.178 A 
HETATM    4  C4  UNL     1      57.143  27.179  45.540  1.00  0.00     0.157 A 
HETATM    5  N2  UNL     1      58.430  27.557  45.429  1.00  0.00    -0.173 N 
ATOM      6  H2  UNL     1      58.949  27.876  46.248  1.00  0.00     0.186 HD
HETATM    7  C7  UNL     1      59.019  27.508  44.227  1.00  0.00     0.694 A 
HETATM    8  N4  UNL     1      58.361  27.088  43.110  1.00  0.00    -0.105 N 
ATOM      9  H4  UNL     1      58.827  27.058  42.203  1.00  0.00     0.208 HD
HETATM   10  N5  UNL     1      57.107  26.723  43.240  1.00  0.00    -0.137 N 
ENDROOT
BRANCH   4  11
HETATM   11  N1  UNL     1      56.547  27.217  46.698  1.00  0.00    -0.374 N 
ATOM     12  H1  UNL     1      56.205  26.359  47.129  1.00  0.00     0.161 HD
BRANCH  11  13
HETATM   13  C5  UNL     1      56.374  28.487  47.363  1.00  0.00     0.116 C 
HETATM   14  C6  UNL     1      57.544  28.760  48.278  1.00  0.00     0.026 C 
ENDBRANCH  11  13
ENDBRANCH   4  11
BRANCH  10  15
HETATM   15  O1  UNL     1      56.455  26.300  42.094  1.00  0.00    -0.267 OA
ATOM     16  H1  UNL     1      56.933  25.848  41.409  1.00  0.00     0.247 HD
ENDBRANCH  10  15
BRANCH   7  17
HETATM   17  N3  UNL     1      60.263  27.885  44.177  1.00  0.00    -0.233 N 
ATOM     18  H32 UNL     1      60.896  27.529  43.459  1.00  0.00     0.174 HD
ATOM     19  H31 UNL     1      60.565  28.551  44.889  1.00  0.00     0.174 HD
ENDBRANCH   7  17
TORSDOF 4
ENDMDL
MODEL 5
REMARK VINA RESULT: -5.840621638      2.112      3.320
REMARK  4 active torsions:
REMARK  status: ('A' for Active; 'I' for Inactive)
REMARK    1  A    between atoms: C4_4  and  N1_5 
REMARK    2  A    between atoms: N1_5  and  C5_7 
REMARK    3  A    between atoms: C7_11  and  N3_12 
REMARK    4  A    between atoms: N5_17  and  O1_18 
ROOT
HETATM    1  C1  UNL     1      55.834  28.195  47.432  1.00  0.00     0.019 C 
HETATM    2  C2  UNL     1      56.467  27.841  46.466  1.00  0.00    -0.052 C 
HETATM    3  C3  UNL     1      57.207  27.405  45.297  1.00  0.00     0.178 A 
HETATM    4  C4  UNL     1      56.757  26.327  44.560  1.00  0.00     0.157 A 
HETATM    5  N2  UNL     1      57.449  25.929  43.476  1.00  0.00    -0.173 N 
ATOM      6  H2  UNL     1      57.130  25.135  42.921  1.00  0.00     0.186 HD
HETATM    7  C7  UNL     1      58.563  26.592  43.137  1.00  0.00     0.694 A 
HETATM    8  N4  UNL     1      59.022  27.658  43.852  1.00  0.00    -0.105 N 
ATOM      9  H4  UNL     1      59.872  28.149  43.578  1.00  0.00     0.208 HD
HETATM   10  N5  UNL     1      58.333  28.031  44.906  1.00  0.00    -0.137 N 
ENDROOT
BRANCH   4  11
HETATM   11  N1  UNL     1      55.671  25.700  44.911  1.00  0.00    -0.374 N 
ATOM     12  H1  UNL     1      55.720  24.902  45.543  1.00  0.00     0.161 HD
BRANCH  11  13
HETATM   13  C5  UNL     1      54.398  26.146  44.395  1.00  0.00     0.116 C 
HETATM   14  C6  UNL     1      53.340  26.055  45.468  1.00  0.00     0.026 C 
ENDBRANCH  11  13
ENDBRANCH   4  11
BRANCH  10  15
HETATM   15  O1  UNL     1      58.815  29.114  45.619  1.00  0.00    -0.267 OA
ATOM     16  H1  UNL     1      58.340  29.936  45.623  1.00  0.00     0.247 HD
ENDBRANCH  10  15
BRANCH   7  17
HETATM   17  N3  UNL     1      59.192  26.165  42.082  1.00  0.00    -0.233 N 
ATOM     18  H32 UNL     1      59.583  26.815  41.400  1.00  0.00     0.174 HD
ATOM     19  H31 UNL     1      59.269  25.153  41.978  1.00  0.00     0.174 HD
ENDBRANCH   7  17
TORSDOF 4
ENDMDL
