MODEL 1
REMARK VINA RESULT: -7.733304671      0.000      0.000
REMARK  1 active torsions:
REMARK  status: ('A' for Active; 'I' for Inactive)
REMARK       I    between atoms: C1_4  and  N2_5 
REMARK       I    between atoms: C1_4  and  N3_10 
REMARK       I    between atoms: N2_5  and  C2_7 
REMARK    1  A    between atoms: N3_10  and  N4_12 
ROOT
HETATM    1  N1  UNL     1      57.829  30.006  45.992  1.00  0.00    -0.233 N 
ATOM      2  H11 UNL     1      58.660  30.075  45.402  1.00  0.00     0.174 HD
ATOM      3  H12 UNL     1      57.361  30.819  46.392  1.00  0.00     0.174 HD
HETATM    4  C1  UNL     1      57.331  28.853  46.255  1.00  0.00     0.695 C 
HETATM    5  N2  UNL     1      56.181  28.757  47.072  1.00  0.00    -0.132 N 
ATOM      6  H2  UNL     1      55.779  29.623  47.430  1.00  0.00     0.190 HD
HETATM    7  C2  UNL     1      55.558  27.550  47.420  1.00  0.00     0.302 C 
HETATM    8  O1  UNL     1      56.033  26.478  46.994  1.00  0.00    -0.629 OA
HETATM    9  O2  UNL     1      54.440  27.527  48.219  1.00  0.00    -0.629 OA
HETATM   10  N3  UNL     1      57.984  27.720  45.698  1.00  0.00    -0.126 N 
ATOM     11  H3  UNL     1      58.669  27.225  46.270  1.00  0.00     0.206 HD
ENDROOT
BRANCH  10  12
HETATM   12  N4  UNL     1      57.737  27.252  44.415  1.00  0.00    -0.265 N 
HETATM   13  C3  UNL     1      58.765  27.051  43.579  1.00  0.00     0.116 A 
HETATM   14  C4  UNL     1      58.567  26.583  42.287  1.00  0.00     0.019 A 
HETATM   15  C5  UNL     1      57.274  26.323  41.860  1.00  0.00     0.003 A 
HETATM   16  C6  UNL     1      56.216  26.528  42.715  1.00  0.00     0.019 A 
HETATM   17  C7  UNL     1      56.487  26.995  43.991  1.00  0.00     0.116 A 
ENDBRANCH  10  12
TORSDOF 1
ENDMDL
MODEL 2
REMARK VINA RESULT: -7.728193851      0.070      1.307
REMARK  1 active torsions:
REMARK  status: ('A' for Active; 'I' for Inactive)
REMARK       I    between atoms: C1_4  and  N2_5 
REMARK       I    between atoms: C1_4  and  N3_10 
REMARK       I    between atoms: N2_5  and  C2_7 
REMARK    1  A    between atoms: N3_10  and  N4_12 
ROOT
HETATM    1  N1  UNL     1      57.774  30.011  46.035  1.00  0.00    -0.233 N 
ATOM      2  H11 UNL     1      58.619  30.080  45.467  1.00  0.00     0.174 HD
ATOM      3  H12 UNL     1      57.295  30.823  46.424  1.00  0.00     0.174 HD
HETATM    4  C1  UNL     1      57.269  28.857  46.285  1.00  0.00     0.695 C 
HETATM    5  N2  UNL     1      56.099  28.762  47.072  1.00  0.00    -0.132 N 
ATOM      6  H2  UNL     1      55.687  29.627  47.421  1.00  0.00     0.190 HD
HETATM    7  C2  UNL     1      55.467  27.554  47.404  1.00  0.00     0.302 C 
HETATM    8  O1  UNL     1      55.953  26.483  46.989  1.00  0.00    -0.629 OA
HETATM    9  O2  UNL     1      54.329  27.531  48.173  1.00  0.00    -0.629 OA
HETATM   10  N3  UNL     1      57.936  27.725  45.744  1.00  0.00    -0.126 N 
ATOM     11  H3  UNL     1      58.606  27.230  46.333  1.00  0.00     0.206 HD
ENDROOT
BRANCH  10  12
HETATM   12  N4  UNL     1      57.721  27.257  44.455  1.00  0.00    -0.265 N 
HETATM   13  C3  UNL     1      56.470  26.999  44.050  1.00  0.00     0.116 A 
HETATM   14  C4  UNL     1      56.206  26.531  42.770  1.00  0.00     0.019 A 
HETATM   15  C5  UNL     1      57.265  26.330  41.899  1.00  0.00     0.003 A 
HETATM   16  C6  UNL     1      58.551  26.594  42.312  1.00  0.00     0.019 A 
HETATM   17  C7  UNL     1      58.741  27.059  43.603  1.00  0.00     0.116 A 
ENDBRANCH  10  12
TORSDOF 1
ENDMDL
MODEL 3
REMARK VINA RESULT: -6.840776734      2.487      4.705
REMARK  1 active torsions:
REMARK  status: ('A' for Active; 'I' for Inactive)
REMARK       I    between atoms: C1_4  and  N2_5 
REMARK       I    between atoms: C1_4  and  N3_10 
REMARK       I    between atoms: N2_5  and  C2_7 
REMARK    1  A    between atoms: N3_10  and  N4_12 
ROOT
HETATM    1  N1  UNL     1      60.196  27.572  44.193  1.00  0.00    -0.233 N 
ATOM      2  H11 UNL     1      60.336  28.264  44.930  1.00  0.00     0.174 HD
ATOM      3  H12 UNL     1      60.949  26.989  43.826  1.00  0.00     0.174 HD
HETATM    4  C1  UNL     1      59.027  27.407  43.690  1.00  0.00     0.695 C 
HETATM    5  N2  UNL     1      58.834  26.449  42.669  1.00  0.00    -0.132 N 
ATOM      6  H2  UNL     1      59.643  25.911  42.361  1.00  0.00     0.190 HD
HETATM    7  C2  UNL     1      57.602  26.190  42.052  1.00  0.00     0.302 C 
HETATM    8  O1  UNL     1      56.597  26.837  42.411  1.00  0.00    -0.629 OA
HETATM    9  O2  UNL     1      57.481  25.242  41.064  1.00  0.00    -0.629 OA
HETATM   10  N3  UNL     1      57.979  28.219  44.201  1.00  0.00    -0.126 N 
ATOM     11  H3  UNL     1      57.747  29.080  43.704  1.00  0.00     0.206 HD
ENDROOT
BRANCH  10  12
HETATM   12  N4  UNL     1      57.254  27.901  45.341  1.00  0.00    -0.265 N 
HETATM   13  C3  UNL     1      56.974  28.862  46.232  1.00  0.00     0.116 A 
HETATM   14  C4  UNL     1      56.253  28.591  47.387  1.00  0.00     0.019 A 
HETATM   15  C5  UNL     1      55.817  27.296  47.615  1.00  0.00     0.003 A 
HETATM   16  C6  UNL     1      56.102  26.307  46.703  1.00  0.00     0.019 A 
HETATM   17  C7  UNL     1      56.826  26.648  45.572  1.00  0.00     0.116 A 
ENDBRANCH  10  12
TORSDOF 1
ENDMDL
MODEL 4
REMARK VINA RESULT: -6.666914974      2.482      4.721
REMARK  1 active torsions:
REMARK  status: ('A' for Active; 'I' for Inactive)
REMARK       I    between atoms: C1_4  and  N2_5 
REMARK       I    between atoms: C1_4  and  N3_10 
REMARK       I    between atoms: N2_5  and  C2_7 
REMARK    1  A    between atoms: N3_10  and  N4_12 
ROOT
HETATM    1  N1  UNL     1      60.151  27.574  44.189  1.00  0.00    -0.233 N 
ATOM      2  H11 UNL     1      60.278  28.276  44.918  1.00  0.00     0.174 HD
ATOM      3  H12 UNL     1      60.910  26.986  43.843  1.00  0.00     0.174 HD
HETATM    4  C1  UNL     1      58.991  27.404  43.666  1.00  0.00     0.695 C 
HETATM    5  N2  UNL     1      58.816  26.431  42.656  1.00  0.00    -0.132 N 
ATOM      6  H2  UNL     1      59.630  25.888  42.370  1.00  0.00     0.190 HD
HETATM    7  C2  UNL     1      57.594  26.165  42.020  1.00  0.00     0.302 C 
HETATM    8  O1  UNL     1      56.584  26.817  42.352  1.00  0.00    -0.629 OA
HETATM    9  O2  UNL     1      57.491  25.203  41.044  1.00  0.00    -0.629 OA
HETATM   10  N3  UNL     1      57.935  28.224  44.147  1.00  0.00    -0.126 N 
ATOM     11  H3  UNL     1      57.713  29.077  43.635  1.00  0.00     0.206 HD
ENDROOT
BRANCH  10  12
HETATM   12  N4  UNL     1      57.190  27.921  45.279  1.00  0.00    -0.265 N 
HETATM   13  C3  UNL     1      56.500  26.773  45.324  1.00  0.00     0.116 A 
HETATM   14  C4  UNL     1      55.741  26.427  46.434  1.00  0.00     0.019 A 
HETATM   15  C5  UNL     1      55.702  27.293  47.514  1.00  0.00     0.003 A 
HETATM   16  C6  UNL     1      56.409  28.473  47.471  1.00  0.00     0.019 A 
HETATM   17  C7  UNL     1      57.146  28.754  46.332  1.00  0.00     0.116 A 
ENDBRANCH  10  12
TORSDOF 1
ENDMDL
MODEL 5
REMARK VINA RESULT: -6.055132646      2.731      4.895
REMARK  1 active torsions:
REMARK  status: ('A' for Active; 'I' for Inactive)
REMARK       I    between atoms: C1_4  and  N2_5 
REMARK       I    between atoms: C1_4  and  N3_10 
REMARK       I    between atoms: N2_5  and  C2_7 
REMARK    1  A    between atoms: N3_10  and  N4_12 
ROOT
HETATM    1  N1  UNL     1      54.413  26.283  44.157  1.00  0.00    -0.233 N 
ATOM      2  H11 UNL     1      54.084  26.249  45.122  1.00  0.00     0.174 HD
ATOM      3  H12 UNL     1      53.787  26.391  43.358  1.00  0.00     0.174 HD
HETATM    4  C1  UNL     1      55.669  26.188  43.910  1.00  0.00     0.695 C 
HETATM    5  N2  UNL     1      56.124  26.235  42.573  1.00  0.00    -0.132 N 
ATOM      6  H2  UNL     1      55.429  26.344  41.836  1.00  0.00     0.190 HD
HETATM    7  C2  UNL     1      57.471  26.141  42.194  1.00  0.00     0.302 C 
HETATM    8  O1  UNL     1      58.341  26.006  43.078  1.00  0.00    -0.629 OA
HETATM    9  O2  UNL     1      57.848  26.195  40.873  1.00  0.00    -0.629 OA
HETATM   10  N3  UNL     1      56.541  26.037  45.022  1.00  0.00    -0.126 N 
ATOM     11  H3  UNL     1      56.825  25.094  45.291  1.00  0.00     0.206 HD
ENDROOT
BRANCH  10  12
HETATM   12  N4  UNL     1      57.025  27.106  45.762  1.00  0.00    -0.265 N 
HETATM   13  C3  UNL     1      57.143  26.986  47.092  1.00  0.00     0.116 A 
HETATM   14  C4  UNL     1      57.623  28.028  47.873  1.00  0.00     0.019 A 
HETATM   15  C5  UNL     1      57.985  29.215  47.257  1.00  0.00     0.003 A 
HETATM   16  C6  UNL     1      57.866  29.342  45.892  1.00  0.00     0.019 A 
HETATM   17  C7  UNL     1      57.380  28.262  45.174  1.00  0.00     0.116 A 
ENDBRANCH  10  12
TORSDOF 1
ENDMDL
