MODEL 1
REMARK VINA RESULT: -7.589211789      0.000      0.000
REMARK  12 active torsions:
REMARK  status: ('A' for Active; 'I' for Inactive)
REMARK    1  A    between atoms: N1_1  and  C1_4 
REMARK    2  A    between atoms: C4_12  and  C5_13 
REMARK    3  A    between atoms: C5_13  and  C6_14 
REMARK    4  A    between atoms: C6_14  and  C7_15 
REMARK    5  A    between atoms: C10_18  and  O2_19 
REMARK    6  A    between atoms: O2_19  and  C11_20 
REMARK    7  A    between atoms: C11_20  and  C12_21 
REMARK    8  A    between atoms: C12_21  and  O3_22 
REMARK    9  A    between atoms: O3_22  and  C13_23 
REMARK   10  A    between atoms: C13_23  and  C14_24 
REMARK   11  A    between atoms: C14_24  and  C15_25 
REMARK   12  A    between atoms: C15_25  and  C16_26 
ROOT
HETATM    1  C5  UNL     1       5.123  20.870  70.212  1.00  0.00     0.081 C 
ENDROOT
BRANCH   1   2
HETATM    2  C4  UNL     1       6.097  20.440  69.156  1.00  0.00     0.083 A 
HETATM    3  N3  UNL     1       6.093  20.763  67.855  1.00  0.00    -0.338 N 
HETATM    4  C3  UNL     1       7.138  20.165  67.280  1.00  0.00     0.148 A 
ATOM      5  H3  UNL     1       5.411  21.360  67.387  1.00  0.00     0.167 HD
HETATM    6  C2  UNL     1       7.609  20.148  65.995  1.00  0.00     0.290 A 
HETATM    7  C20 UNL     1       7.808  19.455  68.244  1.00  0.00     0.155 A 
HETATM    8  N2  UNL     1       8.713  19.438  65.708  1.00  0.00    -0.154 N 
HETATM    9  O1  UNL     1       7.038  20.779  65.071  1.00  0.00    -0.265 OA
HETATM   10  C1  UNL     1       9.376  18.738  66.644  1.00  0.00     0.680 A 
ATOM     11  H2  UNL     1       9.059  19.431  64.749  1.00  0.00     0.187 HD
HETATM   12  N6  UNL     1       8.930  18.744  67.909  1.00  0.00    -0.174 N 
ATOM     13  H6  UNL     1       9.428  18.215  68.625  1.00  0.00     0.186 HD
HETATM   14  N5  UNL     1       7.147  19.641  69.391  1.00  0.00    -0.330 N 
ATOM     15  H5  UNL     1       7.400  19.241  70.294  1.00  0.00     0.168 HD
BRANCH  10  16
HETATM   16  N1  UNL     1      10.447  18.057  66.334  1.00  0.00    -0.234 N 
ATOM     17  H12 UNL     1      10.529  17.629  65.412  1.00  0.00     0.174 HD
ATOM     18  H11 UNL     1      11.207  17.948  67.005  1.00  0.00     0.174 HD
ENDBRANCH  10  16
ENDBRANCH   1   2
BRANCH   1  19
HETATM   19  C6  UNL     1       3.871  20.004  70.132  1.00  0.00     0.046 C 
BRANCH  19  20
HETATM   20  C7  UNL     1       2.886  20.715  69.315  1.00  0.00    -0.058 A 
HETATM   21  C8  UNL     1       2.246  21.806  69.867  1.00  0.00     0.010 A 
HETATM   22  C9  UNL     1       1.299  22.511  69.120  1.00  0.00     0.037 A 
HETATM   23  C10 UNL     1       1.026  22.093  67.833  1.00  0.00     0.068 A 
HETATM   24  C18 UNL     1       1.675  21.000  67.299  1.00  0.00     0.037 A 
HETATM   25  C19 UNL     1       2.622  20.283  68.021  1.00  0.00     0.010 A 
BRANCH  23  26
HETATM   26  O2  UNL     1       0.080  22.771  67.043  1.00  0.00    -0.349 OA
BRANCH  26  27
HETATM   27  C11 UNL     1      -1.325  22.420  67.201  1.00  0.00     0.201 C 
BRANCH  27  28
HETATM   28  C12 UNL     1      -1.635  21.618  65.975  1.00  0.00     0.194 C 
BRANCH  28  29
HETATM   29  O3  UNL     1      -1.569  20.313  65.951  1.00  0.00    -0.389 OA
BRANCH  29  30
HETATM   30  C13 UNL     1      -0.693  19.472  65.466  1.00  0.00     0.167 C 
BRANCH  30  31
HETATM   31  C14 UNL     1      -0.596  18.160  66.199  1.00  0.00     0.029 C 
BRANCH  31  32
HETATM   32  C15 UNL     1       0.820  17.634  66.166  1.00  0.00     0.032 C 
BRANCH  32  33
HETATM   33  C16 UNL     1       1.291  17.696  64.718  1.00  0.00     0.119 A 
HETATM   34  C17 UNL     1       2.544  16.919  64.489  1.00  0.00     0.081 A 
HETATM   35  N4  UNL     1       1.391  16.545  63.940  1.00  0.00    -0.391 N 
ATOM     36  H4  UNL     1       0.907  15.871  63.349  1.00  0.00     0.159 HD
ENDBRANCH  32  33
ENDBRANCH  31  32
ENDBRANCH  30  31
ENDBRANCH  29  30
ENDBRANCH  28  29
ENDBRANCH  27  28
ENDBRANCH  26  27
ENDBRANCH  23  26
ENDBRANCH  19  20
ENDBRANCH   1  19
TORSDOF 12
ENDMDL
MODEL 2
REMARK VINA RESULT: -7.580225393      2.787      6.184
REMARK  12 active torsions:
REMARK  status: ('A' for Active; 'I' for Inactive)
REMARK    1  A    between atoms: N1_1  and  C1_4 
REMARK    2  A    between atoms: C4_12  and  C5_13 
REMARK    3  A    between atoms: C5_13  and  C6_14 
REMARK    4  A    between atoms: C6_14  and  C7_15 
REMARK    5  A    between atoms: C10_18  and  O2_19 
REMARK    6  A    between atoms: O2_19  and  C11_20 
REMARK    7  A    between atoms: C11_20  and  C12_21 
REMARK    8  A    between atoms: C12_21  and  O3_22 
REMARK    9  A    between atoms: O3_22  and  C13_23 
REMARK   10  A    between atoms: C13_23  and  C14_24 
REMARK   11  A    between atoms: C14_24  and  C15_25 
REMARK   12  A    between atoms: C15_25  and  C16_26 
ROOT
HETATM    1  C5  UNL     1      -0.166  21.261  67.090  1.00  0.00     0.081 C 
ENDROOT
BRANCH   1   2
HETATM    2  C4  UNL     1       0.539  20.153  66.366  1.00  0.00     0.083 A 
HETATM    3  N3  UNL     1       1.860  19.963  66.244  1.00  0.00    -0.338 N 
HETATM    4  C3  UNL     1       2.050  18.857  65.520  1.00  0.00     0.148 A 
ATOM      5  H3  UNL     1       2.591  20.557  66.635  1.00  0.00     0.167 HD
HETATM    6  C2  UNL     1       3.177  18.206  65.096  1.00  0.00     0.290 A 
HETATM    7  C20 UNL     1       0.821  18.348  65.185  1.00  0.00     0.155 A 
HETATM    8  N2  UNL     1       3.053  17.086  64.364  1.00  0.00    -0.154 N 
HETATM    9  O1  UNL     1       4.329  18.624  65.373  1.00  0.00    -0.265 OA
HETATM   10  C1  UNL     1       1.854  16.580  64.029  1.00  0.00     0.680 A 
ATOM     11  H2  UNL     1       3.896  16.606  64.052  1.00  0.00     0.187 HD
HETATM   12  N6  UNL     1       0.739  17.205  64.436  1.00  0.00    -0.174 N 
ATOM     13  H6  UNL     1      -0.174  16.826  64.186  1.00  0.00     0.186 HD
HETATM   14  N5  UNL     1      -0.094  19.164  65.718  1.00  0.00    -0.330 N 
ATOM     15  H5  UNL     1      -1.105  19.053  65.644  1.00  0.00     0.168 HD
BRANCH  10  16
HETATM   16  N1  UNL     1       1.767  15.489  63.315  1.00  0.00    -0.234 N 
ATOM     17  H12 UNL     1       0.993  14.843  63.466  1.00  0.00     0.174 HD
ATOM     18  H11 UNL     1       2.467  15.274  62.605  1.00  0.00     0.174 HD
ENDBRANCH  10  16
ENDBRANCH   1   2
BRANCH   1  19
HETATM   19  C6  UNL     1       0.656  22.540  66.987  1.00  0.00     0.046 C 
BRANCH  19  20
HETATM   20  C7  UNL     1       1.227  22.813  68.307  1.00  0.00    -0.058 A 
HETATM   21  C8  UNL     1       0.494  22.459  69.422  1.00  0.00     0.010 A 
HETATM   22  C9  UNL     1       1.003  22.704  70.699  1.00  0.00     0.037 A 
HETATM   23  C10 UNL     1       2.244  23.299  70.814  1.00  0.00     0.068 A 
HETATM   24  C18 UNL     1       2.962  23.645  69.689  1.00  0.00     0.037 A 
HETATM   25  C19 UNL     1       2.477  23.412  68.407  1.00  0.00     0.010 A 
BRANCH  23  26
HETATM   26  O2  UNL     1       2.798  23.564  72.079  1.00  0.00    -0.349 OA
BRANCH  26  27
HETATM   27  C11 UNL     1       4.035  22.886  72.444  1.00  0.00     0.201 C 
BRANCH  27  28
HETATM   28  C12 UNL     1       3.576  21.562  72.973  1.00  0.00     0.194 C 
BRANCH  28  29
HETATM   29  O3  UNL     1       3.663  20.458  72.280  1.00  0.00    -0.389 OA
BRANCH  29  30
HETATM   30  C13 UNL     1       4.275  20.147  71.167  1.00  0.00     0.167 C 
BRANCH  30  31
HETATM   31  C14 UNL     1       3.368  19.816  70.011  1.00  0.00     0.029 C 
BRANCH  31  32
HETATM   32  C15 UNL     1       4.176  19.469  68.782  1.00  0.00     0.032 C 
BRANCH  32  33
HETATM   33  C16 UNL     1       4.919  20.729  68.360  1.00  0.00     0.119 A 
HETATM   34  C17 UNL     1       6.228  20.431  67.706  1.00  0.00     0.081 A 
HETATM   35  N4  UNL     1       5.224  20.976  67.023  1.00  0.00    -0.391 N 
ATOM     36  H4  UNL     1       4.897  21.333  66.126  1.00  0.00     0.159 HD
ENDBRANCH  32  33
ENDBRANCH  31  32
ENDBRANCH  30  31
ENDBRANCH  29  30
ENDBRANCH  28  29
ENDBRANCH  27  28
ENDBRANCH  26  27
ENDBRANCH  23  26
ENDBRANCH  19  20
ENDBRANCH   1  19
TORSDOF 12
ENDMDL
MODEL 3
REMARK VINA RESULT: -7.518436949      1.108      1.845
REMARK  12 active torsions:
REMARK  status: ('A' for Active; 'I' for Inactive)
REMARK    1  A    between atoms: N1_1  and  C1_4 
REMARK    2  A    between atoms: C4_12  and  C5_13 
REMARK    3  A    between atoms: C5_13  and  C6_14 
REMARK    4  A    between atoms: C6_14  and  C7_15 
REMARK    5  A    between atoms: C10_18  and  O2_19 
REMARK    6  A    between atoms: O2_19  and  C11_20 
REMARK    7  A    between atoms: C11_20  and  C12_21 
REMARK    8  A    between atoms: C12_21  and  O3_22 
REMARK    9  A    between atoms: O3_22  and  C13_23 
REMARK   10  A    between atoms: C13_23  and  C14_24 
REMARK   11  A    between atoms: C14_24  and  C15_25 
REMARK   12  A    between atoms: C15_25  and  C16_26 
ROOT
HETATM    1  C5  UNL     1       5.072  20.647  70.135  1.00  0.00     0.081 C 
ENDROOT
BRANCH   1   2
HETATM    2  C4  UNL     1       5.989  20.416  68.972  1.00  0.00     0.083 A 
HETATM    3  N3  UNL     1       7.106  19.674  68.942  1.00  0.00    -0.338 N 
HETATM    4  C3  UNL     1       7.611  19.744  67.708  1.00  0.00     0.148 A 
ATOM      5  H3  UNL     1       7.499  19.150  69.723  1.00  0.00     0.167 HD
HETATM    6  C2  UNL     1       8.720  19.192  67.125  1.00  0.00     0.290 A 
HETATM    7  C20 UNL     1       6.792  20.545  66.954  1.00  0.00     0.155 A 
HETATM    8  N2  UNL     1       8.979  19.446  65.832  1.00  0.00    -0.154 N 
HETATM    9  O1  UNL     1       9.506  18.450  67.765  1.00  0.00    -0.265 OA
HETATM   10  C1  UNL     1       8.183  20.230  65.084  1.00  0.00     0.680 A 
ATOM     11  H2  UNL     1       9.805  19.031  65.403  1.00  0.00     0.187 HD
HETATM   12  N6  UNL     1       7.092  20.779  65.639  1.00  0.00    -0.174 N 
ATOM     13  H6  UNL     1       6.483  21.375  65.077  1.00  0.00     0.186 HD
HETATM   14  N5  UNL     1       5.799  20.946  67.755  1.00  0.00    -0.330 N 
ATOM     15  H5  UNL     1       5.027  21.554  67.485  1.00  0.00     0.168 HD
BRANCH  10  16
HETATM   16  N1  UNL     1       8.462  20.458  63.828  1.00  0.00    -0.234 N 
ATOM     17  H12 UNL     1       9.276  20.019  63.400  1.00  0.00     0.174 HD
ATOM     18  H11 UNL     1       7.873  21.075  63.268  1.00  0.00     0.174 HD
ENDBRANCH  10  16
ENDBRANCH   1   2
BRANCH   1  19
HETATM   19  C6  UNL     1       3.812  19.807  69.963  1.00  0.00     0.046 C 
BRANCH  19  20
HETATM   20  C7  UNL     1       2.821  20.624  69.262  1.00  0.00    -0.058 A 
HETATM   21  C8  UNL     1       2.505  20.293  67.960  1.00  0.00     0.010 A 
HETATM   22  C9  UNL     1       1.564  21.049  67.256  1.00  0.00     0.037 A 
HETATM   23  C10 UNL     1       0.967  22.120  67.890  1.00  0.00     0.068 A 
HETATM   24  C18 UNL     1       1.296  22.436  69.191  1.00  0.00     0.037 A 
HETATM   25  C19 UNL     1       2.228  21.699  69.913  1.00  0.00     0.010 A 
BRANCH  23  26
HETATM   26  O2  UNL     1       0.014  22.910  67.222  1.00  0.00    -0.349 OA
BRANCH  26  27
HETATM   27  C11 UNL     1      -1.387  22.518  67.309  1.00  0.00     0.201 C 
BRANCH  27  28
HETATM   28  C12 UNL     1      -1.680  21.933  65.962  1.00  0.00     0.194 C 
BRANCH  28  29
HETATM   29  O3  UNL     1      -1.830  20.649  65.769  1.00  0.00    -0.389 OA
BRANCH  29  30
HETATM   30  C13 UNL     1      -1.497  19.596  66.468  1.00  0.00     0.167 C 
BRANCH  30  31
HETATM   31  C14 UNL     1      -1.076  18.398  65.657  1.00  0.00     0.029 C 
BRANCH  31  32
HETATM   32  C15 UNL     1       0.213  17.819  66.191  1.00  0.00     0.032 C 
BRANCH  32  33
HETATM   33  C16 UNL     1       1.222  17.836  65.050  1.00  0.00     0.119 A 
HETATM   34  C17 UNL     1       2.457  17.059  65.366  1.00  0.00     0.081 A 
HETATM   35  N4  UNL     1       1.616  16.660  64.415  1.00  0.00    -0.391 N 
ATOM     36  H4  UNL     1       1.402  15.963  63.702  1.00  0.00     0.159 HD
ENDBRANCH  32  33
ENDBRANCH  31  32
ENDBRANCH  30  31
ENDBRANCH  29  30
ENDBRANCH  28  29
ENDBRANCH  27  28
ENDBRANCH  26  27
ENDBRANCH  23  26
ENDBRANCH  19  20
ENDBRANCH   1  19
TORSDOF 12
ENDMDL
MODEL 4
REMARK VINA RESULT: -7.449564672      1.322      1.694
REMARK  12 active torsions:
REMARK  status: ('A' for Active; 'I' for Inactive)
REMARK    1  A    between atoms: N1_1  and  C1_4 
REMARK    2  A    between atoms: C4_12  and  C5_13 
REMARK    3  A    between atoms: C5_13  and  C6_14 
REMARK    4  A    between atoms: C6_14  and  C7_15 
REMARK    5  A    between atoms: C10_18  and  O2_19 
REMARK    6  A    between atoms: O2_19  and  C11_20 
REMARK    7  A    between atoms: C11_20  and  C12_21 
REMARK    8  A    between atoms: C12_21  and  O3_22 
REMARK    9  A    between atoms: O3_22  and  C13_23 
REMARK   10  A    between atoms: C13_23  and  C14_24 
REMARK   11  A    between atoms: C14_24  and  C15_25 
REMARK   12  A    between atoms: C15_25  and  C16_26 
ROOT
HETATM    1  C5  UNL     1       5.338  19.767  68.352  1.00  0.00     0.081 C 
ENDROOT
BRANCH   1   2
HETATM    2  C4  UNL     1       6.710  19.556  67.787  1.00  0.00     0.083 A 
HETATM    3  N3  UNL     1       7.340  20.295  66.863  1.00  0.00    -0.338 N 
HETATM    4  C3  UNL     1       8.542  19.752  66.652  1.00  0.00     0.148 A 
ATOM      5  H3  UNL     1       6.968  21.125  66.402  1.00  0.00     0.167 HD
HETATM    6  C2  UNL     1       9.582  20.089  65.829  1.00  0.00     0.290 A 
HETATM    7  C20 UNL     1       8.663  18.652  67.463  1.00  0.00     0.155 A 
HETATM    8  N2  UNL     1      10.695  19.336  65.834  1.00  0.00    -0.154 N 
HETATM    9  O1  UNL     1       9.529  21.085  65.065  1.00  0.00    -0.265 OA
HETATM   10  C1  UNL     1      10.824  18.256  66.624  1.00  0.00     0.680 A 
ATOM     11  H2  UNL     1      11.467  19.593  65.220  1.00  0.00     0.187 HD
HETATM   12  N6  UNL     1       9.814  17.912  67.437  1.00  0.00    -0.174 N 
ATOM     13  H6  UNL     1       9.905  17.093  68.039  1.00  0.00     0.186 HD
HETATM   14  N5  UNL     1       7.522  18.552  68.152  1.00  0.00    -0.330 N 
ATOM     15  H5  UNL     1       7.305  17.833  68.842  1.00  0.00     0.168 HD
BRANCH  10  16
HETATM   16  N1  UNL     1      11.919  17.544  66.606  1.00  0.00    -0.234 N 
ATOM     17  H12 UNL     1      12.737  17.881  66.099  1.00  0.00     0.174 HD
ATOM     18  H11 UNL     1      11.966  16.649  67.094  1.00  0.00     0.174 HD
ENDBRANCH  10  16
ENDBRANCH   1   2
BRANCH   1  19
HETATM   19  C6  UNL     1       5.177  21.225  68.765  1.00  0.00     0.046 C 
BRANCH  19  20
HETATM   20  C7  UNL     1       3.846  21.665  68.343  1.00  0.00    -0.058 A 
HETATM   21  C8  UNL     1       3.061  20.782  67.630  1.00  0.00     0.010 A 
HETATM   22  C9  UNL     1       1.785  21.165  67.210  1.00  0.00     0.037 A 
HETATM   23  C10 UNL     1       1.338  22.433  67.523  1.00  0.00     0.068 A 
HETATM   24  C18 UNL     1       2.137  23.302  68.235  1.00  0.00     0.037 A 
HETATM   25  C19 UNL     1       3.409  22.944  68.665  1.00  0.00     0.010 A 
BRANCH  23  26
HETATM   26  O2  UNL     1       0.061  22.863  67.120  1.00  0.00    -0.349 OA
BRANCH  26  27
HETATM   27  C11 UNL     1      -1.098  22.125  67.606  1.00  0.00     0.201 C 
BRANCH  27  28
HETATM   28  C12 UNL     1      -1.810  21.711  66.355  1.00  0.00     0.194 C 
BRANCH  28  29
HETATM   29  O3  UNL     1      -1.830  20.475  65.931  1.00  0.00    -0.389 OA
BRANCH  29  30
HETATM   30  C13 UNL     1      -1.311  19.366  66.390  1.00  0.00     0.167 C 
BRANCH  30  31
HETATM   31  C14 UNL     1      -0.395  18.647  65.433  1.00  0.00     0.029 C 
BRANCH  31  32
HETATM   32  C15 UNL     1       0.565  17.755  66.184  1.00  0.00     0.032 C 
BRANCH  32  33
HETATM   33  C16 UNL     1       1.832  17.648  65.346  1.00  0.00     0.119 A 
HETATM   34  C17 UNL     1       3.026  17.266  66.157  1.00  0.00     0.081 A 
HETATM   35  N4  UNL     1       2.527  16.446  65.236  1.00  0.00    -0.391 N 
ATOM     36  H4  UNL     1       2.603  15.544  64.766  1.00  0.00     0.159 HD
ENDBRANCH  32  33
ENDBRANCH  31  32
ENDBRANCH  30  31
ENDBRANCH  29  30
ENDBRANCH  28  29
ENDBRANCH  27  28
ENDBRANCH  26  27
ENDBRANCH  23  26
ENDBRANCH  19  20
ENDBRANCH   1  19
TORSDOF 12
ENDMDL
MODEL 5
REMARK VINA RESULT: -7.385807632      2.215      6.952
REMARK  12 active torsions:
REMARK  status: ('A' for Active; 'I' for Inactive)
REMARK    1  A    between atoms: N1_1  and  C1_4 
REMARK    2  A    between atoms: C4_12  and  C5_13 
REMARK    3  A    between atoms: C5_13  and  C6_14 
REMARK    4  A    between atoms: C6_14  and  C7_15 
REMARK    5  A    between atoms: C10_18  and  O2_19 
REMARK    6  A    between atoms: O2_19  and  C11_20 
REMARK    7  A    between atoms: C11_20  and  C12_21 
REMARK    8  A    between atoms: C12_21  and  O3_22 
REMARK    9  A    between atoms: O3_22  and  C13_23 
REMARK   10  A    between atoms: C13_23  and  C14_24 
REMARK   11  A    between atoms: C14_24  and  C15_25 
REMARK   12  A    between atoms: C15_25  and  C16_26 
ROOT
HETATM    1  C5  UNL     1       1.644  22.795  67.980  1.00  0.00     0.081 C 
ENDROOT
BRANCH   1   2
HETATM    2  C4  UNL     1       1.333  21.513  67.268  1.00  0.00     0.083 A 
HETATM    3  N3  UNL     1       0.126  21.021  66.954  1.00  0.00    -0.338 N 
HETATM    4  C3  UNL     1       0.308  19.858  66.324  1.00  0.00     0.148 A 
ATOM      5  H3  UNL     1      -0.772  21.458  67.160  1.00  0.00     0.167 HD
HETATM    6  C2  UNL     1      -0.560  18.943  65.792  1.00  0.00     0.290 A 
HETATM    7  C20 UNL     1       1.657  19.621  66.244  1.00  0.00     0.155 A 
HETATM    8  N2  UNL     1      -0.071  17.838  65.205  1.00  0.00    -0.154 N 
HETATM    9  O1  UNL     1      -1.805  19.106  65.835  1.00  0.00    -0.265 OA
HETATM   10  C1  UNL     1       1.248  17.596  65.121  1.00  0.00     0.680 A 
ATOM     11  H2  UNL     1      -0.723  17.161  64.809  1.00  0.00     0.187 HD
HETATM   12  N6  UNL     1       2.113  18.482  65.637  1.00  0.00    -0.174 N 
ATOM     13  H6  UNL     1       3.116  18.305  65.578  1.00  0.00     0.186 HD
HETATM   14  N5  UNL     1       2.267  20.656  66.832  1.00  0.00    -0.330 N 
ATOM     15  H5  UNL     1       3.275  20.773  66.932  1.00  0.00     0.168 HD
BRANCH  10  16
HETATM   16  N1  UNL     1       1.692  16.511  64.544  1.00  0.00    -0.234 N 
ATOM     17  H12 UNL     1       1.050  15.746  64.336  1.00  0.00     0.174 HD
ATOM     18  H11 UNL     1       2.677  16.418  64.298  1.00  0.00     0.174 HD
ENDBRANCH  10  16
ENDBRANCH   1   2
BRANCH   1  19
HETATM   19  C6  UNL     1       1.618  22.559  69.486  1.00  0.00     0.046 C 
BRANCH  19  20
HETATM   20  C7  UNL     1       2.908  21.985  69.872  1.00  0.00    -0.058 A 
HETATM   21  C8  UNL     1       4.058  22.649  69.496  1.00  0.00     0.010 A 
HETATM   22  C9  UNL     1       5.308  22.133  69.844  1.00  0.00     0.037 A 
HETATM   23  C10 UNL     1       5.361  20.957  70.566  1.00  0.00     0.068 A 
HETATM   24  C18 UNL     1       4.201  20.307  70.932  1.00  0.00     0.037 A 
HETATM   25  C19 UNL     1       2.946  20.801  70.598  1.00  0.00     0.010 A 
BRANCH  23  26
HETATM   26  O2  UNL     1       6.596  20.398  70.939  1.00  0.00    -0.349 OA
BRANCH  26  27
HETATM   27  C11 UNL     1       7.808  20.952  70.348  1.00  0.00     0.201 C 
BRANCH  27  28
HETATM   28  C12 UNL     1       8.304  19.857  69.455  1.00  0.00     0.194 C 
BRANCH  28  29
HETATM   29  O3  UNL     1       7.814  19.643  68.263  1.00  0.00    -0.389 OA
BRANCH  29  30
HETATM   30  C13 UNL     1       6.915  18.814  67.802  1.00  0.00     0.167 C 
BRANCH  30  31
HETATM   31  C14 UNL     1       5.764  19.459  67.075  1.00  0.00     0.029 C 
BRANCH  31  32
HETATM   32  C15 UNL     1       6.219  20.711  66.362  1.00  0.00     0.032 C 
BRANCH  32  33
HETATM   33  C16 UNL     1       7.230  20.286  65.305  1.00  0.00     0.119 A 
HETATM   34  C17 UNL     1       7.812  21.447  64.569  1.00  0.00     0.081 A 
HETATM   35  N4  UNL     1       8.560  20.693  65.370  1.00  0.00    -0.391 N 
ATOM     36  H4  UNL     1       9.485  20.525  65.766  1.00  0.00     0.159 HD
ENDBRANCH  32  33
ENDBRANCH  31  32
ENDBRANCH  30  31
ENDBRANCH  29  30
ENDBRANCH  28  29
ENDBRANCH  27  28
ENDBRANCH  26  27
ENDBRANCH  23  26
ENDBRANCH  19  20
ENDBRANCH   1  19
TORSDOF 12
ENDMDL
