MODEL 1
REMARK VINA RESULT: -7.046018813      0.000      0.000
REMARK  4 active torsions:
REMARK  status: ('A' for Active; 'I' for Inactive)
REMARK    1  A    between atoms: O1_1  and  C1_3 
REMARK    2  A    between atoms: C3_5  and  C4_6 
REMARK    3  A    between atoms: C4_6  and  N1_7 
REMARK    4  A    between atoms: C10_13  and  N2_14 
ROOT
HETATM    1  N1  UNL     1      -6.078   3.229  14.772  1.00  0.00     0.089 N 
HETATM    2  C5  UNL     1      -6.636   4.410  14.079  1.00  0.00     0.277 C 
HETATM    3  C6  UNL     1      -5.387   5.146  13.598  1.00  0.00     0.022 C 
HETATM    4  C7  UNL     1      -5.578   6.096  12.508  1.00  0.00     0.007 C 
HETATM    5  C8  UNL     1      -4.275   6.431  11.849  1.00  0.00     0.002 C 
HETATM    6  C9  UNL     1      -3.429   5.220  11.524  1.00  0.00     0.036 C 
HETATM    7  C10 UNL     1      -3.295   4.268  12.689  1.00  0.00     0.229 C 
HETATM    8  C15 UNL     1      -4.631   3.897  13.150  1.00  0.00     0.053 C 
HETATM    9  C16 UNL     1      -4.670   3.193  14.512  1.00  0.00     0.279 C 
ENDROOT
BRANCH   1  10
HETATM   10  C4  UNL     1      -6.475   3.268  16.157  1.00  0.00     0.279 C 
BRANCH  10  11
HETATM   11  C3  UNL     1      -5.496   2.301  16.850  1.00  0.00     0.045 A 
HETATM   12  C1  UNL     1      -5.988   0.894  17.158  1.00  0.00     0.124 A 
HETATM   13  C2  UNL     1      -5.879   1.897  18.252  1.00  0.00     0.041 A 
BRANCH  12  14
HETATM   14  O1  UNL     1      -7.209   0.527  16.605  1.00  0.00    -0.395 OA
ATOM     15  H1  UNL     1      -7.586  -0.335  16.732  1.00  0.00     0.210 HD
ENDBRANCH  12  14
ENDBRANCH  10  11
ENDBRANCH   1  10
BRANCH   7  16
HETATM   16  N2  UNL     1      -2.591   3.064  12.269  1.00  0.00     0.097 N 
HETATM   17  C11 UNL     1      -1.335   3.485  11.670  1.00  0.00     0.299 C 
HETATM   18  C12 UNL     1      -1.047   2.818  10.362  1.00  0.00     0.198 C 
HETATM   19  O2  UNL     1      -1.230   1.441  10.405  1.00  0.00    -0.388 OA
HETATM   20  C13 UNL     1      -2.454   1.088  10.957  1.00  0.00     0.198 C 
HETATM   21  C14 UNL     1      -3.314   2.325  11.256  1.00  0.00     0.299 C 
ENDBRANCH   7  16
TORSDOF 4
ENDMDL
MODEL 2
REMARK VINA RESULT: -7.028723175      1.159      1.268
REMARK  4 active torsions:
REMARK  status: ('A' for Active; 'I' for Inactive)
REMARK    1  A    between atoms: O1_1  and  C1_3 
REMARK    2  A    between atoms: C3_5  and  C4_6 
REMARK    3  A    between atoms: C4_6  and  N1_7 
REMARK    4  A    between atoms: C10_13  and  N2_14 
ROOT
HETATM    1  N1  UNL     1      -6.393   3.344  14.998  1.00  0.00     0.089 N 
HETATM    2  C5  UNL     1      -6.425   4.691  14.388  1.00  0.00     0.277 C 
HETATM    3  C6  UNL     1      -5.038   4.816  13.762  1.00  0.00     0.022 C 
HETATM    4  C7  UNL     1      -4.893   5.817  12.712  1.00  0.00     0.007 C 
HETATM    5  C8  UNL     1      -3.659   5.572  11.899  1.00  0.00     0.002 C 
HETATM    6  C9  UNL     1      -3.493   4.133  11.462  1.00  0.00     0.036 C 
HETATM    7  C10 UNL     1      -3.682   3.151  12.594  1.00  0.00     0.229 C 
HETATM    8  C15 UNL     1      -4.983   3.391  13.215  1.00  0.00     0.053 C 
HETATM    9  C16 UNL     1      -5.190   2.696  14.565  1.00  0.00     0.279 C 
ENDROOT
BRANCH   1  10
HETATM   10  C4  UNL     1      -6.578   3.471  16.422  1.00  0.00     0.279 C 
BRANCH  10  11
HETATM   11  C3  UNL     1      -5.697   2.351  17.011  1.00  0.00     0.045 A 
HETATM   12  C1  UNL     1      -6.374   1.038  17.380  1.00  0.00     0.124 A 
HETATM   13  C2  UNL     1      -5.985   1.999  18.448  1.00  0.00     0.041 A 
BRANCH  12  14
HETATM   14  O1  UNL     1      -7.691   0.879  16.966  1.00  0.00    -0.395 OA
ATOM     15  H1  UNL     1      -8.082   1.427  16.296  1.00  0.00     0.210 HD
ENDBRANCH  12  14
ENDBRANCH  10  11
ENDBRANCH   1  10
BRANCH   7  16
HETATM   16  N2  UNL     1      -3.649   1.789  12.082  1.00  0.00     0.097 N 
HETATM   17  C11 UNL     1      -2.283   1.517  11.664  1.00  0.00     0.299 C 
HETATM   18  C12 UNL     1      -2.190   0.888  10.310  1.00  0.00     0.198 C 
HETATM   19  O2  UNL     1      -3.063  -0.181  10.148  1.00  0.00    -0.388 OA
HETATM   20  C13 UNL     1      -4.360   0.134  10.532  1.00  0.00     0.198 C 
HETATM   21  C14 UNL     1      -4.488   1.616  10.916  1.00  0.00     0.299 C 
ENDBRANCH   7  16
TORSDOF 4
ENDMDL
MODEL 3
REMARK VINA RESULT: -6.944087672      1.910      3.336
REMARK  4 active torsions:
REMARK  status: ('A' for Active; 'I' for Inactive)
REMARK    1  A    between atoms: O1_1  and  C1_3 
REMARK    2  A    between atoms: C3_5  and  C4_6 
REMARK    3  A    between atoms: C4_6  and  N1_7 
REMARK    4  A    between atoms: C10_13  and  N2_14 
ROOT
HETATM    1  N1  UNL     1      -4.357   2.066  14.666  1.00  0.00     0.089 N 
HETATM    2  C5  UNL     1      -4.422   0.634  14.306  1.00  0.00     0.277 C 
HETATM    3  C6  UNL     1      -4.387   0.662  12.780  1.00  0.00     0.022 C 
HETATM    4  C7  UNL     1      -3.987  -0.575  12.121  1.00  0.00     0.007 C 
HETATM    5  C8  UNL     1      -3.585  -0.324  10.699  1.00  0.00     0.002 C 
HETATM    6  C9  UNL     1      -2.639   0.845  10.531  1.00  0.00     0.036 C 
HETATM    7  C10 UNL     1      -3.104   2.084  11.261  1.00  0.00     0.229 C 
HETATM    8  C15 UNL     1      -3.320   1.750  12.667  1.00  0.00     0.053 C 
HETATM    9  C16 UNL     1      -4.088   2.807  13.469  1.00  0.00     0.279 C 
ENDROOT
BRANCH   1  10
HETATM   10  C4  UNL     1      -5.552   2.423  15.387  1.00  0.00     0.279 C 
BRANCH  10  11
HETATM   11  C3  UNL     1      -5.219   2.078  16.852  1.00  0.00     0.045 A 
HETATM   12  C1  UNL     1      -6.089   1.042  17.551  1.00  0.00     0.124 A 
HETATM   13  C2  UNL     1      -6.262   2.488  17.861  1.00  0.00     0.041 A 
BRANCH  12  14
HETATM   14  O1  UNL     1      -6.984   0.341  16.753  1.00  0.00    -0.395 OA
ATOM     15  H1  UNL     1      -6.700  -0.202  16.027  1.00  0.00     0.210 HD
ENDBRANCH  12  14
ENDBRANCH  10  11
ENDBRANCH   1  10
BRANCH   7  16
HETATM   16  N2  UNL     1      -2.086   3.122  11.175  1.00  0.00     0.097 N 
HETATM   17  C11 UNL     1      -2.582   4.139  10.262  1.00  0.00     0.299 C 
HETATM   18  C12 UNL     1      -1.573   4.564   9.242  1.00  0.00     0.198 C 
HETATM   19  O2  UNL     1      -0.330   4.845   9.794  1.00  0.00    -0.388 OA
HETATM   20  C13 UNL     1       0.116   3.834  10.635  1.00  0.00     0.198 C 
HETATM   21  C14 UNL     1      -0.841   2.632  10.624  1.00  0.00     0.299 C 
ENDBRANCH   7  16
TORSDOF 4
ENDMDL
MODEL 4
REMARK VINA RESULT: -6.887998759      1.738      2.105
REMARK  4 active torsions:
REMARK  status: ('A' for Active; 'I' for Inactive)
REMARK    1  A    between atoms: O1_1  and  C1_3 
REMARK    2  A    between atoms: C3_5  and  C4_6 
REMARK    3  A    between atoms: C4_6  and  N1_7 
REMARK    4  A    between atoms: C10_13  and  N2_14 
ROOT
HETATM    1  N1  UNL     1      -6.507   3.905  15.651  1.00  0.00     0.089 N 
HETATM    2  C5  UNL     1      -5.745   5.171  15.603  1.00  0.00     0.277 C 
HETATM    3  C6  UNL     1      -4.386   4.732  15.063  1.00  0.00     0.022 C 
HETATM    4  C7  UNL     1      -3.558   5.778  14.475  1.00  0.00     0.007 C 
HETATM    5  C8  UNL     1      -2.474   5.193  13.622  1.00  0.00     0.002 C 
HETATM    6  C9  UNL     1      -2.960   4.126  12.666  1.00  0.00     0.036 C 
HETATM    7  C10 UNL     1      -3.832   3.091  13.338  1.00  0.00     0.229 C 
HETATM    8  C15 UNL     1      -4.937   3.770  14.012  1.00  0.00     0.053 C 
HETATM    9  C16 UNL     1      -5.726   2.898  14.995  1.00  0.00     0.279 C 
ENDROOT
BRANCH   1  10
HETATM   10  C4  UNL     1      -6.885   3.637  17.016  1.00  0.00     0.279 C 
BRANCH  10  11
HETATM   11  C3  UNL     1      -5.883   2.558  17.472  1.00  0.00     0.045 A 
HETATM   12  C1  UNL     1      -6.392   1.129  17.603  1.00  0.00     0.124 A 
HETATM   13  C2  UNL     1      -6.166   1.952  18.823  1.00  0.00     0.041 A 
BRANCH  12  14
HETATM   14  O1  UNL     1      -7.663   0.873  17.104  1.00  0.00    -0.395 OA
ATOM     15  H1  UNL     1      -7.929   1.137  16.231  1.00  0.00     0.210 HD
ENDBRANCH  12  14
ENDBRANCH  10  11
ENDBRANCH   1  10
BRANCH   7  16
HETATM   16  N2  UNL     1      -4.378   2.179  12.343  1.00  0.00     0.097 N 
HETATM   17  C11 UNL     1      -4.195   0.828  12.848  1.00  0.00     0.299 C 
HETATM   18  C12 UNL     1      -3.624  -0.113  11.836  1.00  0.00     0.198 C 
HETATM   19  O2  UNL     1      -4.268  -0.042  10.606  1.00  0.00    -0.388 OA
HETATM   20  C13 UNL     1      -4.393   1.263  10.150  1.00  0.00     0.198 C 
HETATM   21  C14 UNL     1      -3.677   2.254  11.079  1.00  0.00     0.299 C 
ENDBRANCH   7  16
TORSDOF 4
ENDMDL
MODEL 5
REMARK VINA RESULT: -6.866656794      2.551      3.249
REMARK  4 active torsions:
REMARK  status: ('A' for Active; 'I' for Inactive)
REMARK    1  A    between atoms: O1_1  and  C1_3 
REMARK    2  A    between atoms: C3_5  and  C4_6 
REMARK    3  A    between atoms: C4_6  and  N1_7 
REMARK    4  A    between atoms: C10_13  and  N2_14 
ROOT
HETATM    1  N1  UNL     1      -5.468   3.219  14.684  1.00  0.00     0.089 N 
HETATM    2  C5  UNL     1      -4.890   4.250  15.573  1.00  0.00     0.277 C 
HETATM    3  C6  UNL     1      -3.844   4.920  14.684  1.00  0.00     0.022 C 
HETATM    4  C7  UNL     1      -3.412   6.253  15.089  1.00  0.00     0.007 C 
HETATM    5  C8  UNL     1      -2.734   6.968  13.960  1.00  0.00     0.002 C 
HETATM    6  C9  UNL     1      -3.490   6.893  12.652  1.00  0.00     0.036 C 
HETATM    7  C10 UNL     1      -3.929   5.488  12.308  1.00  0.00     0.229 C 
HETATM    8  C15 UNL     1      -4.705   4.950  13.422  1.00  0.00     0.053 C 
HETATM    9  C16 UNL     1      -4.953   3.439  13.365  1.00  0.00     0.279 C 
ENDROOT
BRANCH   1  10
HETATM   10  C4  UNL     1      -5.229   1.919  15.259  1.00  0.00     0.279 C 
BRANCH  10  11
HETATM   11  C3  UNL     1      -5.741   2.054  16.707  1.00  0.00     0.045 A 
HETATM   12  C1  UNL     1      -6.077   0.775  17.461  1.00  0.00     0.124 A 
HETATM   13  C2  UNL     1      -7.171   1.629  16.923  1.00  0.00     0.041 A 
BRANCH  12  14
HETATM   14  O1  UNL     1      -5.702  -0.420  16.859  1.00  0.00    -0.395 OA
ATOM     15  H1  UNL     1      -4.792  -0.681  16.772  1.00  0.00     0.210 HD
ENDBRANCH  12  14
ENDBRANCH  10  11
ENDBRANCH   1  10
BRANCH   7  16
HETATM   16  N2  UNL     1      -4.766   5.506  11.116  1.00  0.00     0.097 N 
HETATM   17  C11 UNL     1      -3.910   5.200   9.982  1.00  0.00     0.299 C 
HETATM   18  C12 UNL     1      -4.101   6.130   8.825  1.00  0.00     0.198 C 
HETATM   19  O2  UNL     1      -5.438   6.322   8.500  1.00  0.00    -0.388 OA
HETATM   20  C13 UNL     1      -6.211   6.641   9.609  1.00  0.00     0.198 C 
HETATM   21  C14 UNL     1      -5.346   6.809  10.867  1.00  0.00     0.299 C 
ENDBRANCH   7  16
TORSDOF 4
ENDMDL
