MODEL 1
REMARK VINA RESULT: -6.782720302      0.000      0.000
REMARK  3 active torsions:
REMARK  status: ('A' for Active; 'I' for Inactive)
REMARK       I    between atoms: N1_2  and  C3_4 
REMARK    1  A    between atoms: C3_4  and  C4_6 
REMARK    2  A    between atoms: C4_6  and  N2_7 
REMARK    3  A    between atoms: N2_7  and  C5_10 
ROOT
HETATM    1  C5  UNL     1      -4.581   4.979  13.391  1.00  0.00     0.210 C 
HETATM    2  C6  UNL     1      -4.187   3.574  13.047  1.00  0.00     0.204 C 
HETATM    3  O2  UNL     1      -5.083   2.624  13.600  1.00  0.00    -0.352 OA
HETATM    4  C7  UNL     1      -5.345   2.982  14.894  1.00  0.00     0.171 C 
HETATM    5  O3  UNL     1      -4.222   3.266  15.638  1.00  0.00    -0.354 OA
HETATM    6  C8  UNL     1      -3.696   2.056  16.043  1.00  0.00     0.172 C 
HETATM    7  C9  UNL     1      -4.902   1.279  16.519  1.00  0.00     0.036 C 
HETATM    8  C10 UNL     1      -6.010   1.909  15.713  1.00  0.00     0.050 C 
HETATM    9  C11 UNL     1      -7.018   2.481  16.651  1.00  0.00     0.010 C 
HETATM   10  C12 UNL     1      -6.697   3.820  17.220  1.00  0.00     0.001 C 
HETATM   11  C13 UNL     1      -6.228   4.825  16.175  1.00  0.00     0.010 C 
HETATM   12  C14 UNL     1      -6.347   4.143  14.854  1.00  0.00     0.050 C 
HETATM   13  C15 UNL     1      -6.076   4.972  13.653  1.00  0.00     0.045 C 
ENDROOT
BRANCH   1  14
HETATM   14  N2  UNL     1      -4.272   5.975  12.407  1.00  0.00    -0.061 N 
ATOM     15  H22 UNL     1      -3.724   5.590  11.637  1.00  0.00     0.278 HD
ATOM     16  H21 UNL     1      -3.593   6.653  12.754  1.00  0.00     0.278 HD
BRANCH  14  17
HETATM   17  C4  UNL     1      -5.470   6.612  11.940  1.00  0.00     0.335 C 
BRANCH  17  18
HETATM   18  C3  UNL     1      -5.631   6.470  10.464  1.00  0.00     0.244 C 
HETATM   19  N1  UNL     1      -6.195   7.494   9.660  1.00  0.00    -0.359 N 
HETATM   20  C1  UNL     1      -6.621   8.709  10.335  1.00  0.00     0.152 C 
HETATM   21  C2  UNL     1      -6.346   7.344   8.223  1.00  0.00     0.152 C 
HETATM   22  O1  UNL     1      -5.246   5.397   9.932  1.00  0.00    -0.272 OA
ENDBRANCH  17  18
ENDBRANCH  14  17
ENDBRANCH   1  14
TORSDOF 3
ENDMDL
MODEL 2
REMARK VINA RESULT: -6.737643137      3.129      4.049
REMARK  3 active torsions:
REMARK  status: ('A' for Active; 'I' for Inactive)
REMARK       I    between atoms: N1_2  and  C3_4 
REMARK    1  A    between atoms: C3_4  and  C4_6 
REMARK    2  A    between atoms: C4_6  and  N2_7 
REMARK    3  A    between atoms: N2_7  and  C5_10 
ROOT
HETATM    1  C5  UNL     1      -3.292   2.308  12.201  1.00  0.00     0.210 C 
HETATM    2  C6  UNL     1      -4.138   1.232  12.811  1.00  0.00     0.204 C 
HETATM    3  O2  UNL     1      -5.258   1.767  13.497  1.00  0.00    -0.352 OA
HETATM    4  C7  UNL     1      -4.837   2.832  14.242  1.00  0.00     0.171 C 
HETATM    5  O3  UNL     1      -3.718   2.581  15.003  1.00  0.00    -0.354 OA
HETATM    6  C8  UNL     1      -4.147   1.916  16.135  1.00  0.00     0.172 C 
HETATM    7  C9  UNL     1      -5.362   2.701  16.576  1.00  0.00     0.036 C 
HETATM    8  C10 UNL     1      -5.829   3.301  15.273  1.00  0.00     0.050 C 
HETATM    9  C11 UNL     1      -5.825   4.786  15.402  1.00  0.00     0.010 C 
HETATM   10  C12 UNL     1      -4.507   5.457  15.217  1.00  0.00     0.001 C 
HETATM   11  C13 UNL     1      -3.749   4.970  13.987  1.00  0.00     0.010 C 
HETATM   12  C14 UNL     1      -4.656   4.018  13.285  1.00  0.00     0.050 C 
HETATM   13  C15 UNL     1      -4.192   3.507  11.970  1.00  0.00     0.045 C 
ENDROOT
BRANCH   1  14
HETATM   14  N2  UNL     1      -2.628   1.966  10.977  1.00  0.00    -0.061 N 
ATOM     15  H22 UNL     1      -3.043   2.440  10.176  1.00  0.00     0.278 HD
ATOM     16  H21 UNL     1      -2.817   1.002  10.701  1.00  0.00     0.278 HD
BRANCH  14  17
HETATM   17  C4  UNL     1      -1.220   2.224  11.078  1.00  0.00     0.335 C 
BRANCH  17  18
HETATM   18  C3  UNL     1      -0.788   3.299  10.138  1.00  0.00     0.244 C 
HETATM   19  N1  UNL     1      -0.468   4.610  10.578  1.00  0.00    -0.359 N 
HETATM   20  C1  UNL     1      -0.577   4.877  12.003  1.00  0.00     0.152 C 
HETATM   21  C2  UNL     1      -0.049   5.647   9.652  1.00  0.00     0.152 C 
HETATM   22  O1  UNL     1      -0.711   3.013   8.914  1.00  0.00    -0.272 OA
ENDBRANCH  17  18
ENDBRANCH  14  17
ENDBRANCH   1  14
TORSDOF 3
ENDMDL
MODEL 3
REMARK VINA RESULT: -6.721474017      3.375      4.489
REMARK  3 active torsions:
REMARK  status: ('A' for Active; 'I' for Inactive)
REMARK       I    between atoms: N1_2  and  C3_4 
REMARK    1  A    between atoms: C3_4  and  C4_6 
REMARK    2  A    between atoms: C4_6  and  N2_7 
REMARK    3  A    between atoms: N2_7  and  C5_10 
ROOT
HETATM    1  C5  UNL     1      -4.430   1.274  13.999  1.00  0.00     0.210 C 
HETATM    2  C6  UNL     1      -4.012   2.709  14.114  1.00  0.00     0.204 C 
HETATM    3  O2  UNL     1      -4.068   3.169  15.455  1.00  0.00    -0.352 OA
HETATM    4  C7  UNL     1      -5.240   2.735  16.009  1.00  0.00     0.171 C 
HETATM    5  O3  UNL     1      -6.353   2.974  15.234  1.00  0.00    -0.354 OA
HETATM    6  C8  UNL     1      -6.705   4.293  15.439  1.00  0.00     0.172 C 
HETATM    7  C9  UNL     1      -6.616   4.462  16.939  1.00  0.00     0.036 C 
HETATM    8  C10 UNL     1      -5.601   3.408  17.306  1.00  0.00     0.050 C 
HETATM    9  C11 UNL     1      -6.229   2.453  18.263  1.00  0.00     0.010 C 
HETATM   10  C12 UNL     1      -7.086   1.392  17.662  1.00  0.00     0.001 C 
HETATM   11  C13 UNL     1      -6.438   0.693  16.472  1.00  0.00     0.010 C 
HETATM   12  C14 UNL     1      -5.061   1.252  16.358  1.00  0.00     0.050 C 
HETATM   13  C15 UNL     1      -4.173   0.624  15.346  1.00  0.00     0.045 C 
ENDROOT
BRANCH   1  14
HETATM   14  N2  UNL     1      -3.785   0.513  12.970  1.00  0.00    -0.061 N 
ATOM     15  H22 UNL     1      -4.194  -0.416  12.872  1.00  0.00     0.278 HD
ATOM     16  H21 UNL     1      -2.840   0.237  13.239  1.00  0.00     0.278 HD
BRANCH  14  17
HETATM   17  C4  UNL     1      -3.796   1.232  11.728  1.00  0.00     0.335 C 
BRANCH  17  18
HETATM   18  C3  UNL     1      -2.423   1.377  11.163  1.00  0.00     0.244 C 
HETATM   19  N1  UNL     1      -1.902   2.630  10.745  1.00  0.00    -0.359 N 
HETATM   20  C1  UNL     1      -2.767   3.789  10.889  1.00  0.00     0.152 C 
HETATM   21  C2  UNL     1      -0.563   2.757  10.196  1.00  0.00     0.152 C 
HETATM   22  O1  UNL     1      -1.717   0.340  11.061  1.00  0.00    -0.272 OA
ENDBRANCH  17  18
ENDBRANCH  14  17
ENDBRANCH   1  14
TORSDOF 3
ENDMDL
MODEL 4
REMARK VINA RESULT: -6.697478371      2.498      6.514
REMARK  3 active torsions:
REMARK  status: ('A' for Active; 'I' for Inactive)
REMARK       I    between atoms: N1_2  and  C3_4 
REMARK    1  A    between atoms: C3_4  and  C4_6 
REMARK    2  A    between atoms: C4_6  and  N2_7 
REMARK    3  A    between atoms: N2_7  and  C5_10 
ROOT
HETATM    1  C5  UNL     1      -3.279   4.273  13.657  1.00  0.00     0.210 C 
HETATM    2  C6  UNL     1      -2.135   4.490  12.714  1.00  0.00     0.204 C 
HETATM    3  O2  UNL     1      -2.207   5.757  12.079  1.00  0.00    -0.352 OA
HETATM    4  C7  UNL     1      -3.496   5.961  11.674  1.00  0.00     0.171 C 
HETATM    5  O3  UNL     1      -4.046   4.902  10.988  1.00  0.00    -0.354 OA
HETATM    6  C8  UNL     1      -3.588   4.989   9.688  1.00  0.00     0.172 C 
HETATM    7  C9  UNL     1      -3.754   6.452   9.343  1.00  0.00     0.036 C 
HETATM    8  C10 UNL     1      -3.670   7.099  10.703  1.00  0.00     0.050 C 
HETATM    9  C11 UNL     1      -4.934   7.847  10.956  1.00  0.00     0.010 C 
HETATM   10  C12 UNL     1      -6.090   7.038  11.434  1.00  0.00     0.001 C 
HETATM   11  C13 UNL     1      -5.733   6.084  12.569  1.00  0.00     0.010 C 
HETATM   12  C14 UNL     1      -4.309   6.358  12.913  1.00  0.00     0.050 C 
HETATM   13  C15 UNL     1      -3.763   5.643  14.095  1.00  0.00     0.045 C 
ENDROOT
BRANCH   1  14
HETATM   14  N2  UNL     1      -2.997   3.473  14.813  1.00  0.00    -0.061 N 
ATOM     15  H22 UNL     1      -2.125   3.752  15.263  1.00  0.00     0.278 HD
ATOM     16  H21 UNL     1      -2.739   2.519  14.559  1.00  0.00     0.278 HD
BRANCH  14  17
HETATM   17  C4  UNL     1      -4.100   3.502  15.729  1.00  0.00     0.335 C 
BRANCH  17  18
HETATM   18  C3  UNL     1      -4.393   2.148  16.282  1.00  0.00     0.244 C 
HETATM   19  N1  UNL     1      -5.665   1.801  16.809  1.00  0.00    -0.359 N 
HETATM   20  C1  UNL     1      -6.692   2.829  16.793  1.00  0.00     0.152 C 
HETATM   21  C2  UNL     1      -5.936   0.479  17.345  1.00  0.00     0.152 C 
HETATM   22  O1  UNL     1      -3.466   1.297  16.272  1.00  0.00    -0.272 OA
ENDBRANCH  17  18
ENDBRANCH  14  17
ENDBRANCH   1  14
TORSDOF 3
ENDMDL
MODEL 5
REMARK VINA RESULT: -6.669210864      2.185      6.448
REMARK  3 active torsions:
REMARK  status: ('A' for Active; 'I' for Inactive)
REMARK       I    between atoms: N1_2  and  C3_4 
REMARK    1  A    between atoms: C3_4  and  C4_6 
REMARK    2  A    between atoms: C4_6  and  N2_7 
REMARK    3  A    between atoms: N2_7  and  C5_10 
ROOT
HETATM    1  C5  UNL     1      -4.084   4.140  12.885  1.00  0.00     0.210 C 
HETATM    2  C6  UNL     1      -3.023   4.565  11.915  1.00  0.00     0.204 C 
HETATM    3  O2  UNL     1      -3.122   5.943  11.593  1.00  0.00    -0.352 OA
HETATM    4  C7  UNL     1      -4.437   6.237  11.365  1.00  0.00     0.171 C 
HETATM    5  O3  UNL     1      -5.070   5.364  10.510  1.00  0.00    -0.354 OA
HETATM    6  C8  UNL     1      -4.728   5.744   9.227  1.00  0.00     0.172 C 
HETATM    7  C9  UNL     1      -4.890   7.247   9.240  1.00  0.00     0.036 C 
HETATM    8  C10 UNL     1      -4.670   7.566  10.698  1.00  0.00     0.050 C 
HETATM    9  C11 UNL     1      -5.890   8.240  11.229  1.00  0.00     0.010 C 
HETATM   10  C12 UNL     1      -7.017   7.345  11.615  1.00  0.00     0.001 C 
HETATM   11  C13 UNL     1      -6.582   6.158  12.466  1.00  0.00     0.010 C 
HETATM   12  C14 UNL     1      -5.127   6.343  12.731  1.00  0.00     0.050 C 
HETATM   13  C15 UNL     1      -4.495   5.376  13.665  1.00  0.00     0.045 C 
ENDROOT
BRANCH   1  14
HETATM   14  N2  UNL     1      -3.718   3.098  13.798  1.00  0.00    -0.061 N 
ATOM     15  H22 UNL     1      -2.791   2.723  13.594  1.00  0.00     0.278 HD
ATOM     16  H21 UNL     1      -4.263   2.250  13.642  1.00  0.00     0.278 HD
BRANCH  14  17
HETATM   17  C4  UNL     1      -3.820   3.555  15.153  1.00  0.00     0.335 C 
BRANCH  17  18
HETATM   18  C3  UNL     1      -4.216   2.454  16.079  1.00  0.00     0.244 C 
HETATM   19  N1  UNL     1      -5.467   2.437  16.748  1.00  0.00    -0.359 N 
HETATM   20  C1  UNL     1      -6.369   3.550  16.498  1.00  0.00     0.152 C 
HETATM   21  C2  UNL     1      -5.840   1.359  17.647  1.00  0.00     0.152 C 
HETATM   22  O1  UNL     1      -3.396   1.516  16.259  1.00  0.00    -0.272 OA
ENDBRANCH  17  18
ENDBRANCH  14  17
ENDBRANCH   1  14
TORSDOF 3
ENDMDL
