MODEL 1
REMARK VINA RESULT: -5.328343262      0.000      0.000
REMARK  1 active torsions:
REMARK  status: ('A' for Active; 'I' for Inactive)
REMARK    1  A    between atoms: N1_2  and  C2_4 
ROOT
HETATM    1  C2  UNL     1      28.757  29.936   9.342  1.00  0.00     0.183 C 
HETATM    2  C3  UNL     1      29.850  30.286   8.347  1.00  0.00     0.056 C 
HETATM    3  C4  UNL     1      30.412  28.882   8.119  1.00  0.00     0.106 C 
HETATM    4  C5  UNL     1      30.574  28.447   9.531  1.00  0.00     0.219 C 
HETATM    5  O1  UNL     1      31.480  27.681   9.936  1.00  0.00    -0.274 OA
HETATM    6  N2  UNL     1      29.521  29.071  10.252  1.00  0.00    -0.340 N 
ATOM      7  H2  UNL     1      29.326  28.940  11.244  1.00  0.00     0.164 HD
ENDROOT
BRANCH   1   8
HETATM    8  N1  UNL     1      28.209  31.059   9.990  1.00  0.00    -0.387 N 
HETATM    9  C1  UNL     1      27.367  31.841   9.433  1.00  0.00     0.114 C 
ATOM     10  H1  UNL     1      28.497  31.257  10.948  1.00  0.00     0.160 HD
ENDBRANCH   1   8
TORSDOF 1
ENDMDL
MODEL 2
REMARK VINA RESULT: -5.300921838      1.194      1.194
REMARK  1 active torsions:
REMARK  status: ('A' for Active; 'I' for Inactive)
REMARK    1  A    between atoms: N1_2  and  C2_4 
ROOT
HETATM    1  C2  UNL     1      29.537  30.667   9.524  1.00  0.00     0.183 C 
HETATM    2  C3  UNL     1      30.118  30.374   8.152  1.00  0.00     0.056 C 
HETATM    3  C4  UNL     1      30.063  28.847   8.199  1.00  0.00     0.106 C 
HETATM    4  C5  UNL     1      30.698  28.617   9.522  1.00  0.00     0.219 C 
HETATM    5  O1  UNL     1      31.409  27.623   9.803  1.00  0.00    -0.274 OA
HETATM    6  N2  UNL     1      30.323  29.724  10.330  1.00  0.00    -0.340 N 
ATOM      7  H2  UNL     1      30.563  29.845  11.314  1.00  0.00     0.164 HD
ENDROOT
BRANCH   1   8
HETATM    8  N1  UNL     1      29.706  32.004   9.931  1.00  0.00    -0.387 N 
HETATM    9  C1  UNL     1      29.438  32.999   9.177  1.00  0.00     0.114 C 
ATOM     10  H1  UNL     1      30.058  32.187  10.870  1.00  0.00     0.160 HD
ENDBRANCH   1   8
TORSDOF 1
ENDMDL
MODEL 3
REMARK VINA RESULT: -5.047977673      2.165      2.411
REMARK  1 active torsions:
REMARK  status: ('A' for Active; 'I' for Inactive)
REMARK    1  A    between atoms: N1_2  and  C2_4 
ROOT
HETATM    1  C2  UNL     1      29.887  30.351   8.783  1.00  0.00     0.183 C 
HETATM    2  C3  UNL     1      30.362  28.979   9.229  1.00  0.00     0.056 C 
HETATM    3  C4  UNL     1      30.054  28.201   7.950  1.00  0.00     0.106 C 
HETATM    4  C5  UNL     1      28.656  28.648   7.718  1.00  0.00     0.219 C 
HETATM    5  O1  UNL     1      27.762  27.938   7.199  1.00  0.00    -0.274 OA
HETATM    6  N2  UNL     1      28.591  29.984   8.197  1.00  0.00    -0.340 N 
ATOM      7  H2  UNL     1      27.774  30.592   8.142  1.00  0.00     0.164 HD
ENDROOT
BRANCH   1   8
HETATM    8  N1  UNL     1      29.765  31.273   9.839  1.00  0.00    -0.387 N 
HETATM    9  C1  UNL     1      29.397  32.484   9.668  1.00  0.00     0.114 C 
ATOM     10  H1  UNL     1      29.980  30.960  10.786  1.00  0.00     0.160 HD
ENDBRANCH   1   8
TORSDOF 1
ENDMDL
MODEL 4
REMARK VINA RESULT: -4.809504033      2.470      3.641
REMARK  1 active torsions:
REMARK  status: ('A' for Active; 'I' for Inactive)
REMARK    1  A    between atoms: N1_2  and  C2_4 
ROOT
HETATM    1  C2  UNL     1      29.761  30.489   9.512  1.00  0.00     0.183 C 
HETATM    2  C3  UNL     1      29.573  30.187   8.035  1.00  0.00     0.056 C 
HETATM    3  C4  UNL     1      28.729  31.405   7.657  1.00  0.00     0.106 C 
HETATM    4  C5  UNL     1      27.708  31.344   8.735  1.00  0.00     0.219 C 
HETATM    5  O1  UNL     1      26.513  31.698   8.599  1.00  0.00    -0.274 OA
HETATM    6  N2  UNL     1      28.377  30.820   9.874  1.00  0.00    -0.340 N 
ATOM      7  H2  UNL     1      27.962  30.694  10.796  1.00  0.00     0.164 HD
ENDROOT
BRANCH   1   8
HETATM    8  N1  UNL     1      30.271  29.401  10.245  1.00  0.00    -0.387 N 
HETATM    9  C1  UNL     1      30.756  28.357   9.693  1.00  0.00     0.114 C 
ATOM     10  H1  UNL     1      30.252  29.448  11.263  1.00  0.00     0.160 HD
ENDBRANCH   1   8
TORSDOF 1
ENDMDL
MODEL 5
REMARK VINA RESULT: -4.797264089      1.312      1.624
REMARK  1 active torsions:
REMARK  status: ('A' for Active; 'I' for Inactive)
REMARK    1  A    between atoms: N1_2  and  C2_4 
ROOT
HETATM    1  C2  UNL     1      29.445  30.415   9.115  1.00  0.00     0.183 C 
HETATM    2  C3  UNL     1      28.987  29.200   9.904  1.00  0.00     0.056 C 
HETATM    3  C4  UNL     1      30.335  28.491  10.037  1.00  0.00     0.106 C 
HETATM    4  C5  UNL     1      30.781  28.539   8.620  1.00  0.00     0.219 C 
HETATM    5  O1  UNL     1      31.477  27.655   8.066  1.00  0.00    -0.274 OA
HETATM    6  N2  UNL     1      30.260  29.750   8.090  1.00  0.00    -0.340 N 
ATOM      7  H2  UNL     1      30.425  30.101   7.147  1.00  0.00     0.164 HD
ENDROOT
BRANCH   1   8
HETATM    8  N1  UNL     1      28.383  31.160   8.568  1.00  0.00    -0.387 N 
HETATM    9  C1  UNL     1      27.484  31.717   9.283  1.00  0.00     0.114 C 
ATOM     10  H1  UNL     1      28.330  31.260   7.555  1.00  0.00     0.160 HD
ENDBRANCH   1   8
TORSDOF 1
ENDMDL
