MODEL 1
REMARK VINA RESULT: -7.767766267      0.000      0.000
REMARK  5 active torsions:
REMARK  status: ('A' for Active; 'I' for Inactive)
REMARK    1  A    between atoms: C4_4  and  N1_5 
REMARK       I    between atoms: N1_5  and  C5_7 
REMARK    2  A    between atoms: C5_7  and  C6_9 
REMARK    3  A    between atoms: C9_13  and  O3_14 
REMARK    4  A    between atoms: N3_22  and  C14_23 
REMARK    5  A    between atoms: C14_23  and  C15_24 
ROOT
HETATM    1  C1  UNL     1      25.707  -4.005  -5.924  1.00  0.00     0.043 C 
HETATM    2  C2  UNL     1      26.746  -3.658  -4.921  1.00  0.00     0.221 C 
HETATM    3  C3  UNL     1      27.630  -4.777  -4.488  1.00  0.00     0.060 C 
HETATM    4  C4  UNL     1      29.001  -4.790  -5.117  1.00  0.00     0.088 C 
HETATM    5  C12 UNL     1      29.229  -3.894  -6.248  1.00  0.00     0.055 C 
HETATM    6  C13 UNL     1      28.302  -2.717  -6.381  1.00  0.00     0.275 C 
HETATM    7  N3  UNL     1      27.507  -2.438  -5.197  1.00  0.00     0.093 N 
ENDROOT
BRANCH   4   8
HETATM    8  N1  UNL     1      29.273  -6.184  -5.397  1.00  0.00    -0.355 N 
HETATM    9  C5  UNL     1      30.512  -6.827  -5.476  1.00  0.00     0.240 C 
HETATM   10  O1  UNL     1      31.583  -6.187  -5.268  1.00  0.00    -0.271 OA
ATOM     11  H1  UNL     1      28.455  -6.772  -5.559  1.00  0.00     0.162 HD
BRANCH   9  12
HETATM   12  C6  UNL     1      30.692  -8.264  -5.805  1.00  0.00     0.176 C 
HETATM   13  C7  UNL     1      29.438  -9.083  -5.661  1.00  0.00     0.115 C 
HETATM   14  C8  UNL     1      29.589 -10.450  -6.212  1.00  0.00     0.157 C 
HETATM   15  O2  UNL     1      28.501 -11.012  -6.383  1.00  0.00    -0.295 OA
HETATM   16  C9  UNL     1      30.812 -11.202  -6.572  1.00  0.00     0.189 C 
HETATM   17  C10 UNL     1      31.716 -11.322  -5.348  1.00  0.00     0.058 C 
HETATM   18  C11 UNL     1      31.572 -10.091  -4.473  1.00  0.00     0.117 C 
HETATM   19  N2  UNL     1      31.787  -8.865  -5.150  1.00  0.00    -0.409 N 
ATOM     20  H2  UNL     1      32.708  -8.428  -5.163  1.00  0.00     0.154 HD
BRANCH  16  21
HETATM   21  O3  UNL     1      30.473 -12.464  -7.064  1.00  0.00    -0.388 OA
ATOM     22  H3  UNL     1      30.316 -12.419  -8.000  1.00  0.00     0.210 HD
ENDBRANCH  16  21
ENDBRANCH   9  12
ENDBRANCH   4   8
BRANCH   7  23
HETATM   23  C14 UNL     1      26.531  -1.437  -5.617  1.00  0.00     0.277 C 
BRANCH  23  24
HETATM   24  C15 UNL     1      26.313  -0.376  -4.533  1.00  0.00     0.014 C 
HETATM   25  C16 UNL     1      27.677   0.070  -4.085  1.00  0.00     0.006 C 
HETATM   26  C17 UNL     1      28.479   0.828  -5.077  1.00  0.00     0.000 C 
HETATM   27  C18 UNL     1      28.053   2.259  -5.248  1.00  0.00     0.000 C 
HETATM   28  C19 UNL     1      26.969   2.678  -4.319  1.00  0.00     0.000 C 
HETATM   29  C20 UNL     1      25.633   2.069  -4.540  1.00  0.00     0.000 C 
HETATM   30  C21 UNL     1      25.594   0.766  -5.252  1.00  0.00     0.006 C 
ENDBRANCH  23  24
ENDBRANCH   7  23
TORSDOF 5
ENDMDL
MODEL 2
REMARK VINA RESULT: -7.653402468      1.426      2.024
REMARK  5 active torsions:
REMARK  status: ('A' for Active; 'I' for Inactive)
REMARK    1  A    between atoms: C4_4  and  N1_5 
REMARK       I    between atoms: N1_5  and  C5_7 
REMARK    2  A    between atoms: C5_7  and  C6_9 
REMARK    3  A    between atoms: C9_13  and  O3_14 
REMARK    4  A    between atoms: N3_22  and  C14_23 
REMARK    5  A    between atoms: C14_23  and  C15_24 
ROOT
HETATM    1  C1  UNL     1      27.235  -3.958  -3.342  1.00  0.00     0.043 C 
HETATM    2  C2  UNL     1      28.253  -3.371  -4.251  1.00  0.00     0.221 C 
HETATM    3  C3  UNL     1      29.245  -4.328  -4.817  1.00  0.00     0.060 C 
HETATM    4  C4  UNL     1      28.989  -4.747  -6.243  1.00  0.00     0.088 C 
HETATM    5  C12 UNL     1      27.694  -4.398  -6.822  1.00  0.00     0.055 C 
HETATM    6  C13 UNL     1      26.943  -3.267  -6.176  1.00  0.00     0.275 C 
HETATM    7  N3  UNL     1      27.737  -2.455  -5.269  1.00  0.00     0.093 N 
ENDROOT
BRANCH   4   8
HETATM    8  N1  UNL     1      29.296  -6.161  -6.280  1.00  0.00    -0.355 N 
HETATM    9  C5  UNL     1      30.548  -6.775  -6.399  1.00  0.00     0.240 C 
HETATM   10  O1  UNL     1      31.601  -6.078  -6.468  1.00  0.00    -0.271 OA
ATOM     11  H1  UNL     1      28.497  -6.791  -6.211  1.00  0.00     0.162 HD
BRANCH   9  12
HETATM   12  C6  UNL     1      30.759  -8.244  -6.463  1.00  0.00     0.176 C 
HETATM   13  C7  UNL     1      31.456  -8.811  -5.258  1.00  0.00     0.115 C 
HETATM   14  C8  UNL     1      31.447 -10.293  -5.244  1.00  0.00     0.157 C 
HETATM   15  O2  UNL     1      31.729 -10.756  -4.133  1.00  0.00    -0.295 OA
HETATM   16  C9  UNL     1      31.156 -11.253  -6.332  1.00  0.00     0.189 C 
HETATM   17  C10 UNL     1      32.120 -11.017  -7.492  1.00  0.00     0.058 C 
HETATM   18  C11 UNL     1      32.473  -9.545  -7.583  1.00  0.00     0.117 C 
HETATM   19  N2  UNL     1      31.353  -8.680  -7.665  1.00  0.00    -0.409 N 
ATOM     20  H2  UNL     1      30.987  -8.382  -8.569  1.00  0.00     0.154 HD
BRANCH  16  21
HETATM   21  O3  UNL     1      31.260 -12.562  -5.859  1.00  0.00    -0.388 OA
ATOM     22  H3  UNL     1      30.506 -12.778  -5.322  1.00  0.00     0.210 HD
ENDBRANCH  16  21
ENDBRANCH   9  12
ENDBRANCH   4   8
BRANCH   7  23
HETATM   23  C14 UNL     1      26.778  -1.591  -4.588  1.00  0.00     0.277 C 
BRANCH  23  24
HETATM   24  C15 UNL     1      26.596  -0.262  -5.329  1.00  0.00     0.014 C 
HETATM   25  C16 UNL     1      25.386   0.402  -4.733  1.00  0.00     0.006 C 
HETATM   26  C17 UNL     1      25.516   0.866  -3.330  1.00  0.00     0.000 C 
HETATM   27  C18 UNL     1      26.306   2.135  -3.172  1.00  0.00     0.000 C 
HETATM   28  C19 UNL     1      26.728   2.744  -4.462  1.00  0.00     0.000 C 
HETATM   29  C20 UNL     1      27.745   2.000  -5.247  1.00  0.00     0.000 C 
HETATM   30  C21 UNL     1      27.855   0.540  -4.996  1.00  0.00     0.006 C 
ENDBRANCH  23  24
ENDBRANCH   7  23
TORSDOF 5
ENDMDL
MODEL 3
REMARK VINA RESULT: -7.641529064      0.895      1.515
REMARK  5 active torsions:
REMARK  status: ('A' for Active; 'I' for Inactive)
REMARK    1  A    between atoms: C4_4  and  N1_5 
REMARK       I    between atoms: N1_5  and  C5_7 
REMARK    2  A    between atoms: C5_7  and  C6_9 
REMARK    3  A    between atoms: C9_13  and  O3_14 
REMARK    4  A    between atoms: N3_22  and  C14_23 
REMARK    5  A    between atoms: C14_23  and  C15_24 
ROOT
HETATM    1  C1  UNL     1      27.273  -3.913  -3.267  1.00  0.00     0.043 C 
HETATM    2  C2  UNL     1      28.324  -3.347  -4.152  1.00  0.00     0.221 C 
HETATM    3  C3  UNL     1      29.305  -4.325  -4.700  1.00  0.00     0.060 C 
HETATM    4  C4  UNL     1      29.070  -4.734  -6.132  1.00  0.00     0.088 C 
HETATM    5  C12 UNL     1      27.795  -4.353  -6.738  1.00  0.00     0.055 C 
HETATM    6  C13 UNL     1      27.057  -3.206  -6.104  1.00  0.00     0.275 C 
HETATM    7  N3  UNL     1      27.851  -2.416  -5.177  1.00  0.00     0.093 N 
ENDROOT
BRANCH   4   8
HETATM    8  N1  UNL     1      29.344  -6.155  -6.169  1.00  0.00    -0.355 N 
HETATM    9  C5  UNL     1      30.582  -6.797  -6.277  1.00  0.00     0.240 C 
HETATM   10  O1  UNL     1      31.651  -6.125  -6.335  1.00  0.00    -0.271 OA
ATOM     11  H1  UNL     1      28.530  -6.766  -6.107  1.00  0.00     0.162 HD
BRANCH   9  12
HETATM   12  C6  UNL     1      30.759  -8.271  -6.340  1.00  0.00     0.176 C 
HETATM   13  C7  UNL     1      29.498  -9.047  -6.078  1.00  0.00     0.115 C 
HETATM   14  C8  UNL     1      29.652 -10.491  -6.372  1.00  0.00     0.157 C 
HETATM   15  O2  UNL     1      28.565 -11.072  -6.463  1.00  0.00    -0.295 OA
HETATM   16  C9  UNL     1      30.877 -11.298  -6.567  1.00  0.00     0.189 C 
HETATM   17  C10 UNL     1      31.756 -11.199  -5.322  1.00  0.00     0.058 C 
HETATM   18  C11 UNL     1      31.601  -9.831  -4.684  1.00  0.00     0.117 C 
HETATM   19  N2  UNL     1      31.837  -8.746  -5.565  1.00  0.00    -0.409 N 
ATOM     20  H2  UNL     1      32.761  -8.321  -5.636  1.00  0.00     0.154 HD
BRANCH  16  21
HETATM   21  O3  UNL     1      30.542 -12.627  -6.832  1.00  0.00    -0.388 OA
ATOM     22  H3  UNL     1      29.691 -12.672  -7.254  1.00  0.00     0.210 HD
ENDBRANCH  16  21
ENDBRANCH   9  12
ENDBRANCH   4   8
BRANCH   7  23
HETATM   23  C14 UNL     1      26.898  -1.532  -4.514  1.00  0.00     0.277 C 
BRANCH  23  24
HETATM   24  C15 UNL     1      26.700  -0.230  -5.298  1.00  0.00     0.014 C 
HETATM   25  C16 UNL     1      25.451   0.411  -4.762  1.00  0.00     0.006 C 
HETATM   26  C17 UNL     1      25.519   0.919  -3.370  1.00  0.00     0.000 C 
HETATM   27  C18 UNL     1      26.264   2.216  -3.223  1.00  0.00     0.000 C 
HETATM   28  C19 UNL     1      26.710   2.801  -4.516  1.00  0.00     0.000 C 
HETATM   29  C20 UNL     1      27.775   2.068  -5.245  1.00  0.00     0.000 C 
HETATM   30  C21 UNL     1      27.922   0.620  -4.949  1.00  0.00     0.006 C 
ENDBRANCH  23  24
ENDBRANCH   7  23
TORSDOF 5
ENDMDL
MODEL 4
REMARK VINA RESULT: -7.639973994      1.030      1.296
REMARK  5 active torsions:
REMARK  status: ('A' for Active; 'I' for Inactive)
REMARK    1  A    between atoms: C4_4  and  N1_5 
REMARK       I    between atoms: N1_5  and  C5_7 
REMARK    2  A    between atoms: C5_7  and  C6_9 
REMARK    3  A    between atoms: C9_13  and  O3_14 
REMARK    4  A    between atoms: N3_22  and  C14_23 
REMARK    5  A    between atoms: C14_23  and  C15_24 
ROOT
HETATM    1  C1  UNL     1      25.676  -3.997  -6.012  1.00  0.00     0.043 C 
HETATM    2  C2  UNL     1      26.686  -3.661  -4.976  1.00  0.00     0.221 C 
HETATM    3  C3  UNL     1      27.562  -4.782  -4.536  1.00  0.00     0.060 C 
HETATM    4  C4  UNL     1      28.949  -4.781  -5.127  1.00  0.00     0.088 C 
HETATM    5  C12 UNL     1      29.204  -3.868  -6.239  1.00  0.00     0.055 C 
HETATM    6  C13 UNL     1      28.276  -2.693  -6.380  1.00  0.00     0.275 C 
HETATM    7  N3  UNL     1      27.448  -2.434  -5.213  1.00  0.00     0.093 N 
ENDROOT
BRANCH   4   8
HETATM    8  N1  UNL     1      29.235  -6.170  -5.421  1.00  0.00    -0.355 N 
HETATM    9  C5  UNL     1      30.482  -6.789  -5.554  1.00  0.00     0.240 C 
HETATM   10  O1  UNL     1      31.548  -6.129  -5.393  1.00  0.00    -0.271 OA
ATOM     11  H1  UNL     1      28.422  -6.773  -5.546  1.00  0.00     0.162 HD
BRANCH   9  12
HETATM   12  C6  UNL     1      30.673  -8.223  -5.892  1.00  0.00     0.176 C 
HETATM   13  C7  UNL     1      31.429  -8.999  -4.849  1.00  0.00     0.115 C 
HETATM   14  C8  UNL     1      31.404 -10.459  -5.101  1.00  0.00     0.157 C 
HETATM   15  O2  UNL     1      31.742 -11.115  -4.109  1.00  0.00    -0.295 OA
HETATM   16  C9  UNL     1      31.044 -11.208  -6.326  1.00  0.00     0.189 C 
HETATM   17  C10 UNL     1      31.946 -10.768  -7.477  1.00  0.00     0.058 C 
HETATM   18  C11 UNL     1      32.310  -9.303  -7.321  1.00  0.00     0.117 C 
HETATM   19  N2  UNL     1      31.196  -8.437  -7.185  1.00  0.00    -0.409 N 
ATOM     20  H2  UNL     1      30.785  -7.980  -7.998  1.00  0.00     0.154 HD
BRANCH  16  21
HETATM   21  O3  UNL     1      31.160 -12.581  -6.103  1.00  0.00    -0.388 OA
ATOM     22  H3  UNL     1      31.519 -13.009  -6.871  1.00  0.00     0.210 HD
ENDBRANCH  16  21
ENDBRANCH   9  12
ENDBRANCH   4   8
BRANCH   7  23
HETATM   23  C14 UNL     1      26.480  -1.431  -5.645  1.00  0.00     0.277 C 
BRANCH  23  24
HETATM   24  C15 UNL     1      26.246  -0.373  -4.561  1.00  0.00     0.014 C 
HETATM   25  C16 UNL     1      27.603   0.072  -4.092  1.00  0.00     0.006 C 
HETATM   26  C17 UNL     1      28.418   0.833  -5.069  1.00  0.00     0.000 C 
HETATM   27  C18 UNL     1      27.995   2.265  -5.242  1.00  0.00     0.000 C 
HETATM   28  C19 UNL     1      26.897   2.680  -4.328  1.00  0.00     0.000 C 
HETATM   29  C20 UNL     1      25.565   2.071  -4.570  1.00  0.00     0.000 C 
HETATM   30  C21 UNL     1      25.537   0.771  -5.287  1.00  0.00     0.006 C 
ENDBRANCH  23  24
ENDBRANCH   7  23
TORSDOF 5
ENDMDL
MODEL 5
REMARK VINA RESULT: -7.535560067      1.062      1.429
REMARK  5 active torsions:
REMARK  status: ('A' for Active; 'I' for Inactive)
REMARK    1  A    between atoms: C4_4  and  N1_5 
REMARK       I    between atoms: N1_5  and  C5_7 
REMARK    2  A    between atoms: C5_7  and  C6_9 
REMARK    3  A    between atoms: C9_13  and  O3_14 
REMARK    4  A    between atoms: N3_22  and  C14_23 
REMARK    5  A    between atoms: C14_23  and  C15_24 
ROOT
HETATM    1  C1  UNL     1      25.834  -3.948  -5.848  1.00  0.00     0.043 C 
HETATM    2  C2  UNL     1      26.811  -3.600  -4.783  1.00  0.00     0.221 C 
HETATM    3  C3  UNL     1      27.607  -4.736  -4.238  1.00  0.00     0.060 C 
HETATM    4  C4  UNL     1      29.019  -4.835  -4.758  1.00  0.00     0.088 C 
HETATM    5  C12 UNL     1      29.372  -4.001  -5.905  1.00  0.00     0.055 C 
HETATM    6  C13 UNL     1      28.512  -2.793  -6.157  1.00  0.00     0.275 C 
HETATM    7  N3  UNL     1      27.644  -2.428  -5.050  1.00  0.00     0.093 N 
ENDROOT
BRANCH   4   8
HETATM    8  N1  UNL     1      29.247  -6.250  -4.960  1.00  0.00    -0.355 N 
HETATM    9  C5  UNL     1      30.449  -6.958  -4.857  1.00  0.00     0.240 C 
HETATM   10  O1  UNL     1      31.518  -6.366  -4.531  1.00  0.00    -0.271 OA
ATOM     11  H1  UNL     1      28.426  -6.802  -5.208  1.00  0.00     0.162 HD
BRANCH   9  12
HETATM   12  C6  UNL     1      30.589  -8.414  -5.118  1.00  0.00     0.176 C 
HETATM   13  C7  UNL     1      31.516  -8.743  -6.256  1.00  0.00     0.115 C 
HETATM   14  C8  UNL     1      31.813 -10.191  -6.343  1.00  0.00     0.157 C 
HETATM   15  O2  UNL     1      32.795 -10.430  -7.055  1.00  0.00    -0.295 OA
HETATM   16  C9  UNL     1      31.125 -11.344  -5.718  1.00  0.00     0.189 C 
HETATM   17  C10 UNL     1      29.661 -11.360  -6.151  1.00  0.00     0.058 C 
HETATM   18  C11 UNL     1      29.163  -9.941  -6.351  1.00  0.00     0.117 C 
HETATM   19  N2  UNL     1      29.357  -9.091  -5.234  1.00  0.00    -0.409 N 
ATOM     20  H2  UNL     1      28.626  -8.972  -4.533  1.00  0.00     0.154 HD
BRANCH  16  21
HETATM   21  O3  UNL     1      31.761 -12.535  -6.075  1.00  0.00    -0.388 OA
ATOM     22  H3  UNL     1      32.438 -12.747  -5.443  1.00  0.00     0.210 HD
ENDBRANCH  16  21
ENDBRANCH   9  12
ENDBRANCH   4   8
BRANCH   7  23
HETATM   23  C14 UNL     1      26.750  -1.406  -5.584  1.00  0.00     0.277 C 
BRANCH  23  24
HETATM   24  C15 UNL     1      26.435  -0.332  -4.538  1.00  0.00     0.014 C 
HETATM   25  C16 UNL     1      27.756   0.186  -4.040  1.00  0.00     0.006 C 
HETATM   26  C17 UNL     1      28.567   0.957  -5.014  1.00  0.00     0.000 C 
HETATM   27  C18 UNL     1      28.087   2.363  -5.239  1.00  0.00     0.000 C 
HETATM   28  C19 UNL     1      26.944   2.753  -4.370  1.00  0.00     0.000 C 
HETATM   29  C20 UNL     1      25.648   2.079  -4.635  1.00  0.00     0.000 C 
HETATM   30  C21 UNL     1      25.700   0.760  -5.316  1.00  0.00     0.006 C 
ENDBRANCH  23  24
ENDBRANCH   7  23
TORSDOF 5
ENDMDL
