MODEL 1
REMARK VINA RESULT: -5.989594203      0.000      0.000
REMARK  6 active torsions:
REMARK  status: ('A' for Active; 'I' for Inactive)
REMARK    1  A    between atoms: O1_2  and  C2_3 
REMARK    2  A    between atoms: C2_3  and  C4_5 
REMARK    3  A    between atoms: C2_3  and  C5_8 
REMARK    4  A    between atoms: C4_5  and  O2_6 
REMARK    5  A    between atoms: C14_18  and  C15_19 
REMARK    6  A    between atoms: C15_19  and  O4_20 
ROOT
HETATM    1  C5  UNL     1       0.183   0.228  29.338  1.00  0.00     0.028 C 
HETATM    2  C6  UNL     1       0.313   0.822  27.944  1.00  0.00     0.008 C 
HETATM    3  C7  UNL     1       1.133   2.065  27.891  1.00  0.00     0.006 C 
HETATM    4  C8  UNL     1       2.534   1.692  28.250  1.00  0.00    -0.003 C 
HETATM    5  C9  UNL     1       3.305   1.555  26.956  1.00  0.00     0.011 C 
HETATM    6  C10 UNL     1       2.705   0.490  29.070  1.00  0.00     0.025 C 
HETATM    7  C11 UNL     1       3.306  -0.636  28.210  1.00  0.00     0.024 C 
HETATM    8  C12 UNL     1       3.862   0.826  30.007  1.00  0.00     0.139 C 
HETATM    9  O3  UNL     1       4.543   1.801  29.925  1.00  0.00    -0.297 OA
HETATM   10  C13 UNL     1       4.119  -0.153  31.072  1.00  0.00     0.119 C 
HETATM   11  C14 UNL     1       2.927  -0.060  31.986  1.00  0.00     0.093 C 
HETATM   12  O5  UNL     1       3.199   0.842  32.972  1.00  0.00    -0.367 OA
HETATM   13  C16 UNL     1       2.361   1.918  32.917  1.00  0.00     0.055 C 
HETATM   14  C17 UNL     1       3.072   3.252  33.058  1.00  0.00     0.045 C 
HETATM   15  C18 UNL     1       1.388   1.820  34.074  1.00  0.00     0.045 C 
HETATM   16  C19 UNL     1       1.600   1.839  31.611  1.00  0.00     0.045 C 
HETATM   17  C20 UNL     1       1.684   0.402  31.315  1.00  0.00     0.031 C 
HETATM   18  C21 UNL     1       1.530  -0.014  29.869  1.00  0.00     0.015 C 
ENDROOT
BRANCH   1  19
HETATM   19  C2  UNL     1      -0.789  -0.849  29.116  1.00  0.00     0.082 C 
HETATM   20  C3  UNL     1      -2.035  -0.733  30.021  1.00  0.00     0.049 C 
BRANCH  19  21
HETATM   21  O1  UNL     1      -0.198  -2.021  29.559  1.00  0.00    -0.383 OA
HETATM   22  C1  UNL     1      -0.811  -2.728  30.544  1.00  0.00     0.202 C 
ENDBRANCH  19  21
BRANCH  19  23
HETATM   23  C4  UNL     1      -1.303  -1.155  27.755  1.00  0.00     0.202 C 
BRANCH  23  24
HETATM   24  O2  UNL     1      -2.677  -1.395  27.773  1.00  0.00    -0.398 OA
ATOM     25  H2  UNL     1      -2.882  -2.256  27.429  1.00  0.00     0.209 HD
ENDBRANCH  23  24
ENDBRANCH  19  23
ENDBRANCH   1  19
BRANCH  11  26
HETATM   26  C15 UNL     1       2.758  -1.417  32.636  1.00  0.00     0.203 C 
BRANCH  26  27
HETATM   27  O4  UNL     1       1.457  -1.645  33.036  1.00  0.00    -0.398 OA
ATOM     28  H4  UNL     1       1.119  -2.468  32.706  1.00  0.00     0.209 HD
ENDBRANCH  26  27
ENDBRANCH  11  26
TORSDOF 6
ENDMDL
MODEL 2
REMARK VINA RESULT: -5.763015401      2.736      5.666
REMARK  6 active torsions:
REMARK  status: ('A' for Active; 'I' for Inactive)
REMARK    1  A    between atoms: O1_2  and  C2_3 
REMARK    2  A    between atoms: C2_3  and  C4_5 
REMARK    3  A    between atoms: C2_3  and  C5_8 
REMARK    4  A    between atoms: C4_5  and  O2_6 
REMARK    5  A    between atoms: C14_18  and  C15_19 
REMARK    6  A    between atoms: C15_19  and  O4_20 
ROOT
HETATM    1  C5  UNL     1       0.433  -0.691  27.783  1.00  0.00     0.028 C 
HETATM    2  C6  UNL     1       1.194  -1.102  29.035  1.00  0.00     0.008 C 
HETATM    3  C7  UNL     1       2.673  -1.118  28.865  1.00  0.00     0.006 C 
HETATM    4  C8  UNL     1       3.112   0.290  28.631  1.00  0.00    -0.003 C 
HETATM    5  C9  UNL     1       3.627   0.824  29.949  1.00  0.00     0.011 C 
HETATM    6  C10 UNL     1       2.114   1.205  28.070  1.00  0.00     0.025 C 
HETATM    7  C11 UNL     1       1.667   2.202  29.154  1.00  0.00     0.024 C 
HETATM    8  C12 UNL     1       2.905   2.100  27.121  1.00  0.00     0.139 C 
HETATM    9  O3  UNL     1       4.094   2.113  27.029  1.00  0.00    -0.297 OA
HETATM   10  C13 UNL     1       2.101   2.998  26.279  1.00  0.00     0.119 C 
HETATM   11  C14 UNL     1       1.367   2.090  25.329  1.00  0.00     0.093 C 
HETATM   12  O5  UNL     1       2.109   1.953  24.193  1.00  0.00    -0.367 OA
HETATM   13  C16 UNL     1       2.514   0.662  24.008  1.00  0.00     0.055 C 
HETATM   14  C17 UNL     1       3.979   0.532  23.628  1.00  0.00     0.045 C 
HETATM   15  C18 UNL     1       1.714   0.073  22.864  1.00  0.00     0.045 C 
HETATM   16  C19 UNL     1       2.211  -0.100  25.280  1.00  0.00     0.045 C 
HETATM   17  C20 UNL     1       1.136   0.720  25.857  1.00  0.00     0.031 C 
HETATM   18  C21 UNL     1       0.923   0.624  27.351  1.00  0.00     0.015 C 
ENDROOT
BRANCH   1  19
HETATM   19  C2  UNL     1      -0.958  -0.929  28.184  1.00  0.00     0.082 C 
HETATM   20  C3  UNL     1      -1.365  -0.141  29.448  1.00  0.00     0.049 C 
BRANCH  19  21
HETATM   21  O1  UNL     1      -1.034  -2.246  28.607  1.00  0.00    -0.383 OA
HETATM   22  C1  UNL     1      -2.240  -2.739  28.990  1.00  0.00     0.202 C 
ENDBRANCH  19  21
BRANCH  19  23
HETATM   23  C4  UNL     1      -2.078  -0.759  27.221  1.00  0.00     0.202 C 
BRANCH  23  24
HETATM   24  O2  UNL     1      -1.726  -1.211  25.949  1.00  0.00    -0.398 OA
ATOM     25  H2  UNL     1      -1.204  -0.566  25.486  1.00  0.00     0.209 HD
ENDBRANCH  23  24
ENDBRANCH  19  23
ENDBRANCH   1  19
BRANCH  11  26
HETATM   26  C15 UNL     1       0.076   2.787  24.956  1.00  0.00     0.203 C 
BRANCH  26  27
HETATM   27  O4  UNL     1       0.197   3.519  23.793  1.00  0.00    -0.398 OA
ATOM     28  H4  UNL     1      -0.570   4.054  23.623  1.00  0.00     0.209 HD
ENDBRANCH  26  27
ENDBRANCH  11  26
TORSDOF 6
ENDMDL
MODEL 3
REMARK VINA RESULT: -5.391479280      1.938      5.916
REMARK  6 active torsions:
REMARK  status: ('A' for Active; 'I' for Inactive)
REMARK    1  A    between atoms: O1_2  and  C2_3 
REMARK    2  A    between atoms: C2_3  and  C4_5 
REMARK    3  A    between atoms: C2_3  and  C5_8 
REMARK    4  A    between atoms: C4_5  and  O2_6 
REMARK    5  A    between atoms: C14_18  and  C15_19 
REMARK    6  A    between atoms: C15_19  and  O4_20 
ROOT
HETATM    1  C5  UNL     1       2.568   2.562  31.211  1.00  0.00     0.028 C 
HETATM    2  C6  UNL     1       2.336   1.927  32.574  1.00  0.00     0.008 C 
HETATM    3  C7  UNL     1       1.224   0.937  32.598  1.00  0.00     0.006 C 
HETATM    4  C8  UNL     1       1.632  -0.213  31.737  1.00  0.00    -0.003 C 
HETATM    5  C9  UNL     1       2.144  -1.301  32.654  1.00  0.00     0.011 C 
HETATM    6  C10 UNL     1       2.614   0.067  30.687  1.00  0.00     0.025 C 
HETATM    7  C11 UNL     1       3.964  -0.569  31.066  1.00  0.00     0.024 C 
HETATM    8  C12 UNL     1       2.175  -0.797  29.509  1.00  0.00     0.139 C 
HETATM    9  O3  UNL     1       1.316  -1.622  29.553  1.00  0.00    -0.297 OA
HETATM   10  C13 UNL     1       2.893  -0.562  28.248  1.00  0.00     0.119 C 
HETATM   11  C14 UNL     1       2.474   0.816  27.810  1.00  0.00     0.093 C 
HETATM   12  O5  UNL     1       1.393   0.704  26.986  1.00  0.00    -0.367 OA
HETATM   13  C16 UNL     1       0.288   1.300  27.521  1.00  0.00     0.055 C 
HETATM   14  C17 UNL     1      -0.969   0.453  27.420  1.00  0.00     0.045 C 
HETATM   15  C18 UNL     1       0.016   2.575  26.750  1.00  0.00     0.045 C 
HETATM   16  C19 UNL     1       0.603   1.640  28.962  1.00  0.00     0.045 C 
HETATM   17  C20 UNL     1       2.070   1.709  28.927  1.00  0.00     0.031 C 
HETATM   18  C21 UNL     1       2.801   1.493  30.233  1.00  0.00     0.015 C 
ENDROOT
BRANCH   1  19
HETATM   19  C2  UNL     1       3.570   3.588  31.523  1.00  0.00     0.082 C 
HETATM   20  C3  UNL     1       4.344   4.074  30.278  1.00  0.00     0.049 C 
BRANCH  19  21
HETATM   21  O1  UNL     1       4.556   2.969  32.274  1.00  0.00    -0.383 OA
HETATM   22  C1  UNL     1       5.842   3.033  31.840  1.00  0.00     0.202 C 
ENDBRANCH  19  21
BRANCH  19  23
HETATM   23  C4  UNL     1       3.208   4.814  32.281  1.00  0.00     0.202 C 
BRANCH  23  24
HETATM   24  O2  UNL     1       3.438   5.964  31.524  1.00  0.00    -0.398 OA
ATOM     25  H2  UNL     1       4.153   6.476  31.883  1.00  0.00     0.209 HD
ENDBRANCH  23  24
ENDBRANCH  19  23
ENDBRANCH   1  19
BRANCH  11  26
HETATM   26  C15 UNL     1       3.616   1.390  26.999  1.00  0.00     0.203 C 
BRANCH  26  27
HETATM   27  O4  UNL     1       4.844   0.927  27.427  1.00  0.00    -0.398 OA
ATOM     28  H4  UNL     1       5.496   0.948  26.736  1.00  0.00     0.209 HD
ENDBRANCH  26  27
ENDBRANCH  11  26
TORSDOF 6
ENDMDL
MODEL 4
REMARK VINA RESULT: -5.355036401      5.181      8.834
REMARK  6 active torsions:
REMARK  status: ('A' for Active; 'I' for Inactive)
REMARK    1  A    between atoms: O1_2  and  C2_3 
REMARK    2  A    between atoms: C2_3  and  C4_5 
REMARK    3  A    between atoms: C2_3  and  C5_8 
REMARK    4  A    between atoms: C4_5  and  O2_6 
REMARK    5  A    between atoms: C14_18  and  C15_19 
REMARK    6  A    between atoms: C15_19  and  O4_20 
ROOT
HETATM    1  C5  UNL     1       5.213   1.865  22.664  1.00  0.00     0.028 C 
HETATM    2  C6  UNL     1       4.905   1.023  21.434  1.00  0.00     0.008 C 
HETATM    3  C7  UNL     1       3.844   0.001  21.652  1.00  0.00     0.006 C 
HETATM    4  C8  UNL     1       2.567   0.730  21.912  1.00  0.00    -0.003 C 
HETATM    5  C9  UNL     1       1.787   0.744  20.615  1.00  0.00     0.011 C 
HETATM    6  C10 UNL     1       2.682   2.089  22.447  1.00  0.00     0.025 C 
HETATM    7  C11 UNL     1       2.293   3.104  21.356  1.00  0.00     0.024 C 
HETATM    8  C12 UNL     1       1.521   2.216  23.428  1.00  0.00     0.139 C 
HETATM    9  O3  UNL     1       0.650   1.413  23.560  1.00  0.00    -0.297 OA
HETATM   10  C13 UNL     1       1.516   3.435  24.250  1.00  0.00     0.119 C 
HETATM   11  C14 UNL     1       2.700   3.292  25.168  1.00  0.00     0.093 C 
HETATM   12  O5  UNL     1       2.287   2.703  26.328  1.00  0.00    -0.367 OA
HETATM   13  C16 UNL     1       2.882   1.489  26.516  1.00  0.00     0.055 C 
HETATM   14  C17 UNL     1       1.916   0.397  26.943  1.00  0.00     0.045 C 
HETATM   15  C18 UNL     1       3.901   1.627  27.628  1.00  0.00     0.045 C 
HETATM   16  C19 UNL     1       3.587   1.120  25.228  1.00  0.00     0.045 C 
HETATM   17  C20 UNL     1       3.791   2.444  24.623  1.00  0.00     0.031 C 
HETATM   18  C21 UNL     1       3.969   2.494  23.122  1.00  0.00     0.015 C 
ENDROOT
BRANCH   1  19
HETATM   19  C2  UNL     1       6.377   2.637  22.216  1.00  0.00     0.082 C 
HETATM   20  C3  UNL     1       6.061   3.569  21.026  1.00  0.00     0.049 C 
BRANCH  19  21
HETATM   21  O1  UNL     1       7.272   1.733  21.667  1.00  0.00    -0.383 OA
HETATM   22  C1  UNL     1       8.528   2.157  21.371  1.00  0.00     0.202 C 
ENDBRANCH  19  21
BRANCH  19  23
HETATM   23  C4  UNL     1       7.175   3.453  23.169  1.00  0.00     0.202 C 
BRANCH  23  24
HETATM   24  O2  UNL     1       6.691   4.759  23.248  1.00  0.00    -0.398 OA
ATOM     25  H2  UNL     1       6.319   4.939  24.103  1.00  0.00     0.209 HD
ENDBRANCH  23  24
ENDBRANCH  19  23
ENDBRANCH   1  19
BRANCH  11  26
HETATM   26  C15 UNL     1       3.173   4.690  25.504  1.00  0.00     0.203 C 
BRANCH  26  27
HETATM   27  O4  UNL     1       2.780   5.614  24.557  1.00  0.00    -0.398 OA
ATOM     28  H4  UNL     1       3.249   6.436  24.641  1.00  0.00     0.209 HD
ENDBRANCH  26  27
ENDBRANCH  11  26
TORSDOF 6
ENDMDL
MODEL 5
REMARK VINA RESULT: -5.354494888      2.166      6.174
REMARK  6 active torsions:
REMARK  status: ('A' for Active; 'I' for Inactive)
REMARK    1  A    between atoms: O1_2  and  C2_3 
REMARK    2  A    between atoms: C2_3  and  C4_5 
REMARK    3  A    between atoms: C2_3  and  C5_8 
REMARK    4  A    between atoms: C4_5  and  O2_6 
REMARK    5  A    between atoms: C14_18  and  C15_19 
REMARK    6  A    between atoms: C15_19  and  O4_20 
ROOT
HETATM    1  C5  UNL     1       3.357   3.097  30.422  1.00  0.00     0.028 C 
HETATM    2  C6  UNL     1       3.195   2.812  31.908  1.00  0.00     0.008 C 
HETATM    3  C7  UNL     1       1.967   2.040  32.245  1.00  0.00     0.006 C 
HETATM    4  C8  UNL     1       2.111   0.683  31.638  1.00  0.00    -0.003 C 
HETATM    5  C9  UNL     1       2.569  -0.252  32.736  1.00  0.00     0.011 C 
HETATM    6  C10 UNL     1       2.998   0.573  30.478  1.00  0.00     0.025 C 
HETATM    7  C11 UNL     1       4.281  -0.176  30.883  1.00  0.00     0.024 C 
HETATM    8  C12 UNL     1       2.313  -0.441  29.566  1.00  0.00     0.139 C 
HETATM    9  O3  UNL     1       1.359  -1.090  29.865  1.00  0.00    -0.297 OA
HETATM   10  C13 UNL     1       2.910  -0.598  28.232  1.00  0.00     0.119 C 
HETATM   11  C14 UNL     1       2.639   0.704  27.527  1.00  0.00     0.093 C 
HETATM   12  O5  UNL     1       1.466   0.594  26.838  1.00  0.00    -0.367 OA
HETATM   13  C16 UNL     1       0.522   1.459  27.310  1.00  0.00     0.055 C 
HETATM   14  C17 UNL     1      -0.844   0.822  27.504  1.00  0.00     0.045 C 
HETATM   15  C18 UNL     1       0.344   2.567  26.292  1.00  0.00     0.045 C 
HETATM   16  C19 UNL     1       1.041   2.043  28.606  1.00  0.00     0.045 C 
HETATM   17  C20 UNL     1       2.491   1.868  28.439  1.00  0.00     0.031 C 
HETATM   18  C21 UNL     1       3.328   1.821  29.698  1.00  0.00     0.015 C 
ENDROOT
BRANCH   1  19
HETATM   19  C2  UNL     1       4.520   3.991  30.412  1.00  0.00     0.082 C 
HETATM   20  C3  UNL     1       5.757   3.380  31.106  1.00  0.00     0.049 C 
BRANCH  19  21
HETATM   21  O1  UNL     1       4.208   5.064  31.232  1.00  0.00    -0.383 OA
HETATM   22  C1  UNL     1       4.950   6.198  31.130  1.00  0.00     0.202 C 
ENDBRANCH  19  21
BRANCH  19  23
HETATM   23  C4  UNL     1       5.019   4.592  29.147  1.00  0.00     0.202 C 
BRANCH  23  24
HETATM   24  O2  UNL     1       5.952   3.762  28.525  1.00  0.00    -0.398 OA
ATOM     25  H2  UNL     1       5.893   3.824  27.579  1.00  0.00     0.209 HD
ENDBRANCH  23  24
ENDBRANCH  19  23
ENDBRANCH   1  19
BRANCH  11  26
HETATM   26  C15 UNL     1       3.750   0.903  26.518  1.00  0.00     0.203 C 
BRANCH  26  27
HETATM   27  O4  UNL     1       4.943   1.251  27.119  1.00  0.00    -0.398 OA
ATOM     28  H4  UNL     1       4.976   2.174  27.342  1.00  0.00     0.209 HD
ENDBRANCH  26  27
ENDBRANCH  11  26
TORSDOF 6
ENDMDL
