MODEL 1
REMARK VINA RESULT: -8.039336668      0.000      0.000
REMARK  3 active torsions:
REMARK  status: ('A' for Active; 'I' for Inactive)
REMARK    1  A    between atoms: C3_3  and  C4_4 
REMARK    2  A    between atoms: C7_7  and  C8_8 
REMARK    3  A    between atoms: N1_9  and  C9_11 
ROOT
HETATM    1  C1  UNL     1      24.218  -0.272  21.658  1.00  0.00     0.112 C 
HETATM    2  C2  UNL     1      24.786   1.042  21.350  1.00  0.00    -0.110 C 
HETATM    3  C3  UNL     1      25.272   2.117  21.102  1.00  0.00    -0.094 C 
ENDROOT
BRANCH   3   4
HETATM    4  C4  UNL     1      25.888   3.441  20.819  1.00  0.00     0.145 A 
HETATM    5  C5  UNL     1      25.102   4.518  21.405  1.00  0.00    -0.003 A 
HETATM    6  C6  UNL     1      24.598   5.530  20.734  1.00  0.00     0.028 A 
HETATM    7  C7  UNL     1      24.820   5.621  19.270  1.00  0.00     0.045 A 
HETATM    8  N2  UNL     1      25.498   4.687  18.774  1.00  0.00    -0.354 N 
HETATM    9  C14 UNL     1      26.087   3.561  19.365  1.00  0.00     0.227 A 
ATOM     10  H2  UNL     1      25.646   4.760  17.767  1.00  0.00     0.162 HD
HETATM   11  C15 UNL     1      27.555   3.570  19.075  1.00  0.00     0.108 C 
HETATM   12  C16 UNL     1      25.538   2.335  18.693  1.00  0.00     0.108 C 
HETATM   13  N3  UNL     1      28.680   3.571  18.870  1.00  0.00    -0.193 NA
HETATM   14  N4  UNL     1      25.114   1.404  18.158  1.00  0.00    -0.193 NA
BRANCH   7  15
HETATM   15  C8  UNL     1      24.269   6.736  18.512  1.00  0.00     0.112 C 
HETATM   16  N1  UNL     1      25.027   7.429  17.762  1.00  0.00    -0.392 N 
ATOM     17  H1  UNL     1      26.010   7.157  17.733  1.00  0.00     0.159 HD
BRANCH  16  18
HETATM   18  C9  UNL     1      24.652   8.541  16.962  1.00  0.00     0.081 C 
HETATM   19  C10 UNL     1      24.373   8.225  15.532  1.00  0.00     0.025 C 
HETATM   20  C11 UNL     1      23.357   9.253  15.044  1.00  0.00     0.002 C 
HETATM   21  C12 UNL     1      23.046  10.097  16.254  1.00  0.00     0.002 C 
HETATM   22  C13 UNL     1      23.420   9.258  17.462  1.00  0.00     0.025 C 
ENDBRANCH  16  18
ENDBRANCH   7  15
ENDBRANCH   3   4
TORSDOF 3
ENDMDL
MODEL 2
REMARK VINA RESULT: -7.756064420      1.524      1.720
REMARK  3 active torsions:
REMARK  status: ('A' for Active; 'I' for Inactive)
REMARK    1  A    between atoms: C3_3  and  C4_4 
REMARK    2  A    between atoms: C7_7  and  C8_8 
REMARK    3  A    between atoms: N1_9  and  C9_11 
ROOT
HETATM    1  C1  UNL     1      24.968  -0.971  20.695  1.00  0.00     0.112 C 
HETATM    2  C2  UNL     1      25.613   0.237  20.179  1.00  0.00    -0.110 C 
HETATM    3  C3  UNL     1      26.161   1.228  19.767  1.00  0.00    -0.094 C 
ENDROOT
BRANCH   3   4
HETATM    4  C4  UNL     1      26.846   2.457  19.283  1.00  0.00     0.145 A 
HETATM    5  C5  UNL     1      26.237   3.653  19.852  1.00  0.00    -0.003 A 
HETATM    6  C6  UNL     1      25.740   4.646  19.150  1.00  0.00     0.028 A 
HETATM    7  C7  UNL     1      25.779   4.588  17.668  1.00  0.00     0.045 A 
HETATM    8  N2  UNL     1      26.305   3.554  17.188  1.00  0.00    -0.354 N 
HETATM    9  C14 UNL     1      26.867   2.431  17.812  1.00  0.00     0.227 A 
ATOM     10  H2  UNL     1      26.327   3.525  16.168  1.00  0.00     0.162 HD
HETATM   11  C15 UNL     1      28.280   2.272  17.347  1.00  0.00     0.108 C 
HETATM   12  C16 UNL     1      26.132   1.211  17.333  1.00  0.00     0.108 C 
HETATM   13  N3  UNL     1      29.365   2.146  17.009  1.00  0.00    -0.193 NA
HETATM   14  N4  UNL     1      25.565   0.283  16.947  1.00  0.00    -0.193 NA
BRANCH   7  15
HETATM   15  C8  UNL     1      25.232   5.683  16.876  1.00  0.00     0.112 C 
HETATM   16  N1  UNL     1      25.376   6.883  17.270  1.00  0.00    -0.392 N 
ATOM     17  H1  UNL     1      25.881   7.017  18.146  1.00  0.00     0.159 HD
BRANCH  16  18
HETATM   18  C9  UNL     1      24.908   8.057  16.622  1.00  0.00     0.081 C 
HETATM   19  C10 UNL     1      24.578   7.892  15.177  1.00  0.00     0.025 C 
HETATM   20  C11 UNL     1      23.490   8.911  14.855  1.00  0.00     0.002 C 
HETATM   21  C12 UNL     1      23.194   9.592  16.167  1.00  0.00     0.002 C 
HETATM   22  C13 UNL     1      23.667   8.642  17.252  1.00  0.00     0.025 C 
ENDBRANCH  16  18
ENDBRANCH   7  15
ENDBRANCH   3   4
TORSDOF 3
ENDMDL
MODEL 3
REMARK VINA RESULT: -7.698146359      1.687      2.952
REMARK  3 active torsions:
REMARK  status: ('A' for Active; 'I' for Inactive)
REMARK    1  A    between atoms: C3_3  and  C4_4 
REMARK    2  A    between atoms: C7_7  and  C8_8 
REMARK    3  A    between atoms: N1_9  and  C9_11 
ROOT
HETATM    1  C1  UNL     1      28.641   0.094  16.549  1.00  0.00     0.112 C 
HETATM    2  C2  UNL     1      27.615   0.877  17.240  1.00  0.00    -0.110 C 
HETATM    3  C3  UNL     1      26.759   1.504  17.811  1.00  0.00    -0.094 C 
ENDROOT
BRANCH   3   4
HETATM    4  C4  UNL     1      25.683   2.265  18.502  1.00  0.00     0.145 A 
HETATM    5  C5  UNL     1      24.672   2.716  17.554  1.00  0.00    -0.003 A 
HETATM    6  C6  UNL     1      24.313   3.969  17.382  1.00  0.00     0.028 A 
HETATM    7  C7  UNL     1      24.959   5.034  18.188  1.00  0.00     0.045 A 
HETATM    8  N2  UNL     1      25.829   4.635  19.001  1.00  0.00    -0.354 N 
HETATM    9  C14 UNL     1      26.305   3.347  19.283  1.00  0.00     0.227 A 
ATOM     10  H2  UNL     1      26.266   5.375  19.550  1.00  0.00     0.162 HD
HETATM   11  C15 UNL     1      26.114   3.066  20.740  1.00  0.00     0.108 C 
HETATM   12  C16 UNL     1      27.788   3.331  19.048  1.00  0.00     0.108 C 
HETATM   13  N3  UNL     1      25.963   2.834  21.850  1.00  0.00    -0.193 NA
HETATM   14  N4  UNL     1      28.929   3.339  18.873  1.00  0.00    -0.193 NA
BRANCH   7  15
HETATM   15  C8  UNL     1      24.572   6.428  18.008  1.00  0.00     0.112 C 
HETATM   16  N1  UNL     1      24.774   7.002  16.892  1.00  0.00    -0.392 N 
ATOM     17  H1  UNL     1      25.210   6.439  16.162  1.00  0.00     0.159 HD
BRANCH  16  18
HETATM   18  C9  UNL     1      24.457   8.344  16.553  1.00  0.00     0.081 C 
HETATM   19  C10 UNL     1      23.995   8.550  15.151  1.00  0.00     0.025 C 
HETATM   20  C11 UNL     1      23.068   9.761  15.165  1.00  0.00     0.002 C 
HETATM   21  C12 UNL     1      22.988  10.173  16.613  1.00  0.00     0.002 C 
HETATM   22  C13 UNL     1      23.380   8.950  17.422  1.00  0.00     0.025 C 
ENDBRANCH  16  18
ENDBRANCH   7  15
ENDBRANCH   3   4
TORSDOF 3
ENDMDL
MODEL 4
REMARK VINA RESULT: -7.622454353      0.819      1.058
REMARK  3 active torsions:
REMARK  status: ('A' for Active; 'I' for Inactive)
REMARK    1  A    between atoms: C3_3  and  C4_4 
REMARK    2  A    between atoms: C7_7  and  C8_8 
REMARK    3  A    between atoms: N1_9  and  C9_11 
ROOT
HETATM    1  C1  UNL     1      23.772   0.012  22.128  1.00  0.00     0.112 C 
HETATM    2  C2  UNL     1      24.437   1.250  21.717  1.00  0.00    -0.110 C 
HETATM    3  C3  UNL     1      25.001   2.264  21.392  1.00  0.00    -0.094 C 
ENDROOT
BRANCH   3   4
HETATM    4  C4  UNL     1      25.704   3.520  21.017  1.00  0.00     0.145 A 
HETATM    5  C5  UNL     1      25.023   4.684  21.568  1.00  0.00    -0.003 A 
HETATM    6  C6  UNL     1      24.573   5.695  20.859  1.00  0.00     0.028 A 
HETATM    7  C7  UNL     1      24.749   5.692  19.385  1.00  0.00     0.045 A 
HETATM    8  N2  UNL     1      25.337   4.684  18.920  1.00  0.00    -0.354 N 
HETATM    9  C14 UNL     1      25.861   3.548  19.554  1.00  0.00     0.227 A 
ATOM     10  H2  UNL     1      25.454   4.693  17.907  1.00  0.00     0.162 HD
HETATM   11  C15 UNL     1      27.313   3.429  19.217  1.00  0.00     0.108 C 
HETATM   12  C16 UNL     1      25.197   2.335  18.967  1.00  0.00     0.108 C 
HETATM   13  N3  UNL     1      28.427   3.332  18.977  1.00  0.00    -0.193 NA
HETATM   14  N4  UNL     1      24.685   1.413  18.498  1.00  0.00    -0.193 NA
BRANCH   7  15
HETATM   15  C8  UNL     1      24.257   6.805  18.584  1.00  0.00     0.112 C 
HETATM   16  N1  UNL     1      23.976   7.912  19.144  1.00  0.00    -0.392 N 
ATOM     17  H1  UNL     1      24.115   7.960  20.154  1.00  0.00     0.159 HD
BRANCH  16  18
HETATM   18  C9  UNL     1      23.489   9.088  18.514  1.00  0.00     0.081 C 
HETATM   19  C10 UNL     1      23.884   9.250  17.086  1.00  0.00     0.025 C 
HETATM   20  C11 UNL     1      22.782  10.061  16.413  1.00  0.00     0.002 C 
HETATM   21  C12 UNL     1      21.751  10.285  17.490  1.00  0.00     0.002 C 
HETATM   22  C13 UNL     1      21.983   9.203  18.529  1.00  0.00     0.025 C 
ENDBRANCH  16  18
ENDBRANCH   7  15
ENDBRANCH   3   4
TORSDOF 3
ENDMDL
MODEL 5
REMARK VINA RESULT: -7.548427075      1.694      3.180
REMARK  3 active torsions:
REMARK  status: ('A' for Active; 'I' for Inactive)
REMARK    1  A    between atoms: C3_3  and  C4_4 
REMARK    2  A    between atoms: C7_7  and  C8_8 
REMARK    3  A    between atoms: N1_9  and  C9_11 
ROOT
HETATM    1  C1  UNL     1      29.022   1.328  16.316  1.00  0.00     0.112 C 
HETATM    2  C2  UNL     1      27.847   1.802  17.049  1.00  0.00    -0.110 C 
HETATM    3  C3  UNL     1      26.891   2.191  17.671  1.00  0.00    -0.094 C 
ENDROOT
BRANCH   3   4
HETATM    4  C4  UNL     1      25.715   2.652  18.457  1.00  0.00     0.145 A 
HETATM    5  C5  UNL     1      24.723   3.279  17.593  1.00  0.00    -0.003 A 
HETATM    6  C6  UNL     1      24.265   4.502  17.743  1.00  0.00     0.028 A 
HETATM    7  C7  UNL     1      24.768   5.342  18.858  1.00  0.00     0.045 A 
HETATM    8  N2  UNL     1      25.623   4.792  19.596  1.00  0.00    -0.354 N 
HETATM    9  C14 UNL     1      26.193   3.512  19.551  1.00  0.00     0.227 A 
ATOM     10  H2  UNL     1      25.961   5.377  20.360  1.00  0.00     0.162 HD
HETATM   11  C15 UNL     1      25.946   2.823  20.856  1.00  0.00     0.108 C 
HETATM   12  C16 UNL     1      27.683   3.665  19.438  1.00  0.00     0.108 C 
HETATM   13  N3  UNL     1      25.755   2.280  21.844  1.00  0.00    -0.193 NA
HETATM   14  N4  UNL     1      28.827   3.801  19.362  1.00  0.00    -0.193 NA
BRANCH   7  15
HETATM   15  C8  UNL     1      24.270   6.699  19.038  1.00  0.00     0.112 C 
HETATM   16  N1  UNL     1      24.261   7.505  18.054  1.00  0.00    -0.392 N 
ATOM     17  H1  UNL     1      24.614   7.146  17.167  1.00  0.00     0.159 HD
BRANCH  16  18
HETATM   18  C9  UNL     1      23.811   8.852  18.058  1.00  0.00     0.081 C 
HETATM   19  C10 UNL     1      23.827   9.529  16.730  1.00  0.00     0.025 C 
HETATM   20  C11 UNL     1      22.724  10.581  16.758  1.00  0.00     0.002 C 
HETATM   21  C12 UNL     1      22.069  10.422  18.106  1.00  0.00     0.002 C 
HETATM   22  C13 UNL     1      22.401   9.018  18.575  1.00  0.00     0.025 C 
ENDBRANCH  16  18
ENDBRANCH   7  15
ENDBRANCH   3   4
TORSDOF 3
ENDMDL
