MODEL 1
REMARK VINA RESULT: -5.692919509      0.000      0.000
REMARK  5 active torsions:
REMARK  status: ('A' for Active; 'I' for Inactive)
REMARK    1  A    between atoms: N2_8  and  C5_9 
REMARK    2  A    between atoms: C5_9  and  C6_10 
REMARK    3  A    between atoms: C6_10  and  N3_11 
REMARK    4  A    between atoms: C10_16  and  C11_17 
REMARK    5  A    between atoms: C11_17  and  O1_18 
ROOT
HETATM    1  C6  UNL     1      28.432   7.964  67.399  1.00  0.00     0.079 C 
ENDROOT
BRANCH   1   2
HETATM    2  C5  UNL     1      27.278   8.131  68.347  1.00  0.00     0.168 C 
BRANCH   2   3
HETATM    3  N2  UNL     1      27.573   9.034  69.434  1.00  0.00    -0.366 N 
HETATM    4  C1  UNL     1      26.815   9.060  70.647  1.00  0.00     0.073 C 
HETATM    5  N1  UNL     1      26.093   8.074  71.104  1.00  0.00    -0.389 N 
HETATM    6  C2  UNL     1      27.017  10.401  71.244  1.00  0.00     0.077 C 
ATOM      7  H12 UNL     1      25.552   8.093  71.969  1.00  0.00     0.157 HD
ATOM      8  H11 UNL     1      25.954   7.150  70.693  1.00  0.00     0.157 HD
HETATM    9  C3  UNL     1      28.417  10.736  70.809  1.00  0.00     0.027 C 
HETATM   10  C4  UNL     1      28.625  10.023  69.505  1.00  0.00     0.125 C 
ENDBRANCH   2   3
ENDBRANCH   1   2
BRANCH   1  11
HETATM   11  N3  UNL     1      29.322   6.923  67.720  1.00  0.00    -0.371 N 
HETATM   12  C7  UNL     1      30.659   7.218  67.999  1.00  0.00     0.156 C 
HETATM   13 BR1  UNL     1      31.296   8.769  66.993  1.00  0.00    -0.069 Br
HETATM   14  C8  UNL     1      31.452   6.042  67.480  1.00  0.00     0.039 C 
HETATM   15  C9  UNL     1      30.427   4.939  67.359  1.00  0.00     0.030 C 
HETATM   16  C10 UNL     1      29.201   5.715  66.980  1.00  0.00     0.108 C 
BRANCH  16  17
HETATM   17  C11 UNL     1      29.318   6.115  65.502  1.00  0.00     0.189 C 
BRANCH  17  18
HETATM   18  O1  UNL     1      28.909   5.093  64.678  1.00  0.00    -0.399 OA
ATOM     19  H1  UNL     1      28.173   5.361  64.139  1.00  0.00     0.209 HD
ENDBRANCH  17  18
ENDBRANCH  16  17
ENDBRANCH   1  11
TORSDOF 5
ENDMDL
MODEL 2
REMARK VINA RESULT: -5.434709996      2.226      2.757
REMARK  5 active torsions:
REMARK  status: ('A' for Active; 'I' for Inactive)
REMARK    1  A    between atoms: N2_8  and  C5_9 
REMARK    2  A    between atoms: C5_9  and  C6_10 
REMARK    3  A    between atoms: C6_10  and  N3_11 
REMARK    4  A    between atoms: C10_16  and  C11_17 
REMARK    5  A    between atoms: C11_17  and  O1_18 
ROOT
HETATM    1  C6  UNL     1      28.931   7.807  67.876  1.00  0.00     0.079 C 
ENDROOT
BRANCH   1   2
HETATM    2  C5  UNL     1      27.619   8.371  68.340  1.00  0.00     0.168 C 
BRANCH   2   3
HETATM    3  N2  UNL     1      27.755   9.226  69.496  1.00  0.00    -0.366 N 
HETATM    4  C1  UNL     1      26.879   9.149  70.624  1.00  0.00     0.073 C 
HETATM    5  N1  UNL     1      26.168   8.105  70.956  1.00  0.00    -0.389 N 
HETATM    6  C2  UNL     1      26.948  10.463  71.304  1.00  0.00     0.077 C 
ATOM      7  H12 UNL     1      25.544   8.050  71.760  1.00  0.00     0.157 HD
ATOM      8  H11 UNL     1      26.121   7.200  70.487  1.00  0.00     0.157 HD
HETATM    9  C3  UNL     1      28.364  10.889  71.033  1.00  0.00     0.027 C 
HETATM   10  C4  UNL     1      28.739  10.259  69.723  1.00  0.00     0.125 C 
ENDBRANCH   2   3
ENDBRANCH   1   2
BRANCH   1  11
HETATM   11  N3  UNL     1      29.158   7.888  66.489  1.00  0.00    -0.371 N 
HETATM   12  C7  UNL     1      29.780   6.826  65.829  1.00  0.00     0.156 C 
HETATM   13 BR1  UNL     1      31.065   5.897  66.974  1.00  0.00    -0.069 Br
HETATM   14  C8  UNL     1      30.599   7.456  64.726  1.00  0.00     0.039 C 
HETATM   15  C9  UNL     1      29.991   8.829  64.564  1.00  0.00     0.030 C 
HETATM   16  C10 UNL     1      29.585   9.141  65.974  1.00  0.00     0.108 C 
BRANCH  16  17
HETATM   17  C11 UNL     1      30.845   9.515  66.769  1.00  0.00     0.189 C 
BRANCH  17  18
HETATM   18  O1  UNL     1      31.053  10.874  66.759  1.00  0.00    -0.399 OA
ATOM     19  H1  UNL     1      30.269  11.338  66.488  1.00  0.00     0.209 HD
ENDBRANCH  17  18
ENDBRANCH  16  17
ENDBRANCH   1  11
TORSDOF 5
ENDMDL
MODEL 3
REMARK VINA RESULT: -5.370916143      1.313      1.848
REMARK  5 active torsions:
REMARK  status: ('A' for Active; 'I' for Inactive)
REMARK    1  A    between atoms: N2_8  and  C5_9 
REMARK    2  A    between atoms: C5_9  and  C6_10 
REMARK    3  A    between atoms: C6_10  and  N3_11 
REMARK    4  A    between atoms: C10_16  and  C11_17 
REMARK    5  A    between atoms: C11_17  and  O1_18 
ROOT
HETATM    1  C6  UNL     1      29.124   8.373  67.275  1.00  0.00     0.079 C 
ENDROOT
BRANCH   1   2
HETATM    2  C5  UNL     1      28.944   9.325  68.423  1.00  0.00     0.168 C 
BRANCH   2   3
HETATM    3  N2  UNL     1      27.720   9.094  69.154  1.00  0.00    -0.366 N 
HETATM    4  C1  UNL     1      27.461   9.678  70.434  1.00  0.00     0.073 C 
HETATM    5  N1  UNL     1      28.030  10.758  70.898  1.00  0.00    -0.389 N 
HETATM    6  C2  UNL     1      26.448   8.821  71.093  1.00  0.00     0.077 C 
ATOM      7  H12 UNL     1      27.845  11.174  71.810  1.00  0.00     0.157 HD
ATOM      8  H11 UNL     1      28.727  11.348  70.444  1.00  0.00     0.157 HD
HETATM    9  C3  UNL     1      25.645   8.319  69.924  1.00  0.00     0.027 C 
HETATM   10  C4  UNL     1      26.593   8.280  68.760  1.00  0.00     0.125 C 
ENDBRANCH   2   3
ENDBRANCH   1   2
BRANCH   1  11
HETATM   11  N3  UNL     1      29.873   7.218  67.570  1.00  0.00    -0.371 N 
HETATM   12  C7  UNL     1      31.170   7.090  67.069  1.00  0.00     0.156 C 
HETATM   13 BR1  UNL     1      31.382   7.972  65.336  1.00  0.00    -0.069 Br
HETATM   14  C8  UNL     1      31.358   5.615  66.800  1.00  0.00     0.039 C 
HETATM   15  C9  UNL     1      30.280   4.956  67.627  1.00  0.00     0.030 C 
HETATM   16  C10 UNL     1      29.183   5.976  67.549  1.00  0.00     0.108 C 
BRANCH  16  17
HETATM   17  C11 UNL     1      28.531   5.881  66.161  1.00  0.00     0.189 C 
BRANCH  17  18
HETATM   18  O1  UNL     1      27.183   5.630  66.262  1.00  0.00    -0.399 OA
ATOM     19  H1  UNL     1      26.763   5.666  65.411  1.00  0.00     0.209 HD
ENDBRANCH  17  18
ENDBRANCH  16  17
ENDBRANCH   1  11
TORSDOF 5
ENDMDL
MODEL 4
REMARK VINA RESULT: -5.310999877      2.924      3.724
REMARK  5 active torsions:
REMARK  status: ('A' for Active; 'I' for Inactive)
REMARK    1  A    between atoms: N2_8  and  C5_9 
REMARK    2  A    between atoms: C5_9  and  C6_10 
REMARK    3  A    between atoms: C6_10  and  N3_11 
REMARK    4  A    between atoms: C10_16  and  C11_17 
REMARK    5  A    between atoms: C11_17  and  O1_18 
ROOT
HETATM    1  C6  UNL     1      30.013   9.429  68.741  1.00  0.00     0.079 C 
ENDROOT
BRANCH   1   2
HETATM    2  C5  UNL     1      29.041  10.302  69.482  1.00  0.00     0.168 C 
BRANCH   2   3
HETATM    3  N2  UNL     1      27.802   9.625  69.786  1.00  0.00    -0.366 N 
HETATM    4  C1  UNL     1      27.031   9.911  70.957  1.00  0.00     0.073 C 
HETATM    5  N1  UNL     1      27.080  11.023  71.638  1.00  0.00    -0.389 N 
HETATM    6  C2  UNL     1      26.201   8.712  71.219  1.00  0.00     0.077 C 
ATOM      7  H12 UNL     1      26.531  11.227  72.473  1.00  0.00     0.157 HD
ATOM      8  H11 UNL     1      27.652  11.849  71.457  1.00  0.00     0.157 HD
HETATM    9  C3  UNL     1      25.950   8.188  69.833  1.00  0.00     0.027 C 
HETATM   10  C4  UNL     1      27.142   8.595  69.016  1.00  0.00     0.125 C 
ENDBRANCH   2   3
ENDBRANCH   1   2
BRANCH   1  11
HETATM   11  N3  UNL     1      30.093   9.666  67.356  1.00  0.00    -0.371 N 
HETATM   12  C7  UNL     1      29.725   8.659  66.461  1.00  0.00     0.156 C 
HETATM   13 BR1  UNL     1      30.098   6.874  67.167  1.00  0.00    -0.069 Br
HETATM   14  C8  UNL     1      30.636   8.823  65.267  1.00  0.00     0.039 C 
HETATM   15  C9  UNL     1      31.150  10.238  65.396  1.00  0.00     0.030 C 
HETATM   16  C10 UNL     1      31.221  10.392  66.886  1.00  0.00     0.108 C 
BRANCH  16  17
HETATM   17  C11 UNL     1      32.453   9.627  67.394  1.00  0.00     0.189 C 
BRANCH  17  18
HETATM   18  O1  UNL     1      33.575  10.422  67.368  1.00  0.00    -0.399 OA
ATOM     19  H1  UNL     1      34.364   9.904  67.480  1.00  0.00     0.209 HD
ENDBRANCH  17  18
ENDBRANCH  16  17
ENDBRANCH   1  11
TORSDOF 5
ENDMDL
MODEL 5
REMARK VINA RESULT: -5.297772292      2.375      3.160
REMARK  5 active torsions:
REMARK  status: ('A' for Active; 'I' for Inactive)
REMARK    1  A    between atoms: N2_8  and  C5_9 
REMARK    2  A    between atoms: C5_9  and  C6_10 
REMARK    3  A    between atoms: C6_10  and  N3_11 
REMARK    4  A    between atoms: C10_16  and  C11_17 
REMARK    5  A    between atoms: C11_17  and  O1_18 
ROOT
HETATM    1  C6  UNL     1      29.161   9.215  67.759  1.00  0.00     0.079 C 
ENDROOT
BRANCH   1   2
HETATM    2  C5  UNL     1      28.649   9.646  69.103  1.00  0.00     0.168 C 
BRANCH   2   3
HETATM    3  N2  UNL     1      27.362   9.074  69.422  1.00  0.00    -0.366 N 
HETATM    4  C1  UNL     1      26.668   9.358  70.640  1.00  0.00     0.073 C 
HETATM    5  N1  UNL     1      26.852  10.416  71.382  1.00  0.00    -0.389 N 
HETATM    6  C2  UNL     1      25.734   8.231  70.868  1.00  0.00     0.077 C 
ATOM      7  H12 UNL     1      26.358  10.618  72.251  1.00  0.00     0.157 HD
ATOM      8  H11 UNL     1      27.495  11.192  71.225  1.00  0.00     0.157 HD
HETATM    9  C3  UNL     1      25.380   7.821  69.465  1.00  0.00     0.027 C 
HETATM   10  C4  UNL     1      26.575   8.163  68.622  1.00  0.00     0.125 C 
ENDBRANCH   2   3
ENDBRANCH   1   2
BRANCH   1  11
HETATM   11  N3  UNL     1      30.490   9.583  67.480  1.00  0.00    -0.371 N 
HETATM   12  C7  UNL     1      30.805  10.145  66.240  1.00  0.00     0.156 C 
HETATM   13 BR1  UNL     1      29.663   9.459  64.808  1.00  0.00    -0.069 Br
HETATM   14  C8  UNL     1      32.199   9.661  65.917  1.00  0.00     0.039 C 
HETATM   15  C9  UNL     1      32.749   9.224  67.254  1.00  0.00     0.030 C 
HETATM   16  C10 UNL     1      31.514   8.705  67.927  1.00  0.00     0.108 C 
BRANCH  16  17
HETATM   17  C11 UNL     1      31.178   7.330  67.329  1.00  0.00     0.189 C 
BRANCH  17  18
HETATM   18  O1  UNL     1      31.473   6.320  68.214  1.00  0.00    -0.399 OA
ATOM     19  H1  UNL     1      30.897   5.574  68.087  1.00  0.00     0.209 HD
ENDBRANCH  17  18
ENDBRANCH  16  17
ENDBRANCH   1  11
TORSDOF 5
ENDMDL
