MODEL 1
REMARK VINA RESULT: -7.397829348      0.000      0.000
REMARK  14 active torsions:
REMARK  status: ('A' for Active; 'I' for Inactive)
REMARK    1  A    between atoms: C2_2  and  N1_3 
REMARK    2  A    between atoms: N1_3  and  C3_5 
REMARK    3  A    between atoms: C3_5  and  C4_7 
REMARK    4  A    between atoms: N2_11  and  C8_12 
REMARK    5  A    between atoms: C8_12  and  C9_13 
REMARK    6  A    between atoms: C9_13  and  C10_14 
REMARK    7  A    between atoms: C10_14  and  C11_15 
REMARK    8  A    between atoms: C11_15  and  C12_16 
REMARK    9  A    between atoms: C12_16  and  N3_17 
REMARK   10  A    between atoms: N3_17  and  C13_19 
REMARK   11  A    between atoms: C13_19  and  N4_21 
REMARK   12  A    between atoms: N4_21  and  C14_23 
REMARK   13  A    between atoms: C14_23  and  C15_24 
REMARK   14  A    between atoms: C15_24  and  C16_25 
ROOT
HETATM    1  C11 UNL     1      12.145  11.898  12.857  1.00  0.00     0.020 C 
ENDROOT
BRANCH   1   2
HETATM    2  C10 UNL     1      12.879  12.327  14.086  1.00  0.00     0.003 C 
BRANCH   2   3
HETATM    3  C9  UNL     1      12.151  12.021  15.374  1.00  0.00     0.030 C 
BRANCH   3   4
HETATM    4  C8  UNL     1      13.012  11.020  16.118  1.00  0.00     0.272 C 
BRANCH   4   5
HETATM    5  N2  UNL     1      12.512  10.659  17.402  1.00  0.00     0.089 N 
HETATM    6  C7  UNL     1      11.289  11.321  17.705  1.00  0.00     0.272 C 
HETATM    7  C6  UNL     1      10.747  10.916  19.058  1.00  0.00     0.031 C 
HETATM    8  C5  UNL     1      11.814  11.023  20.130  1.00  0.00     0.015 C 
HETATM    9  C4  UNL     1      13.074  10.273  19.698  1.00  0.00     0.075 C 
HETATM   10  C19 UNL     1      13.531  10.888  18.398  1.00  0.00     0.284 C 
BRANCH   9  11
HETATM   11  C3  UNL     1      12.815   8.843  19.503  1.00  0.00     0.079 C 
HETATM   12  S1  UNL     1      13.891   7.919  18.681  1.00  0.00    -0.065 SA
BRANCH  11  13
HETATM   13  N1  UNL     1      11.630   8.223  20.024  1.00  0.00    -0.384 N 
ATOM     14  H1  UNL     1      10.719   8.490  19.649  1.00  0.00     0.160 HD
BRANCH  13  15
HETATM   15  C2  UNL     1      11.704   7.237  21.058  1.00  0.00     0.116 C 
HETATM   16  C1  UNL     1      11.322   7.820  22.397  1.00  0.00     0.026 C 
ENDBRANCH  13  15
ENDBRANCH  11  13
ENDBRANCH   9  11
ENDBRANCH   4   5
ENDBRANCH   3   4
ENDBRANCH   2   3
ENDBRANCH   1   2
BRANCH   1  17
HETATM   17  C12 UNL     1      13.079  11.922  11.685  1.00  0.00     0.122 C 
BRANCH  17  18
HETATM   18  N3  UNL     1      13.683  10.638  11.399  1.00  0.00    -0.367 N 
ATOM     19  H3  UNL     1      13.145   9.901  10.943  1.00  0.00     0.161 HD
BRANCH  18  20
HETATM   20  C13 UNL     1      15.026  10.427  11.764  1.00  0.00     0.167 C 
HETATM   21  S2  UNL     1      15.350   9.430  13.026  1.00  0.00    -0.041 SA
BRANCH  20  22
HETATM   22  N4  UNL     1      16.053  11.073  11.037  1.00  0.00    -0.367 N 
ATOM     23  H4  UNL     1      15.999  12.074  10.847  1.00  0.00     0.161 HD
BRANCH  22  24
HETATM   24  C14 UNL     1      17.178  10.299  10.569  1.00  0.00     0.128 C 
BRANCH  24  25
HETATM   25  C15 UNL     1      17.075  10.254   9.061  1.00  0.00     0.078 C 
BRANCH  25  26
HETATM   26  C16 UNL     1      16.620   8.951   8.556  1.00  0.00     0.027 A 
HETATM   27  C17 UNL     1      15.757   8.017   9.060  1.00  0.00     0.114 A 
HETATM   28  N5  UNL     1      15.685   6.998   8.207  1.00  0.00    -0.360 N 
HETATM   29  C18 UNL     1      16.488   7.259   7.161  1.00  0.00     0.180 A 
ATOM     30  H5  UNL     1      15.116   6.160   8.327  1.00  0.00     0.166 HD
HETATM   31  N6  UNL     1      17.054   8.447   7.377  1.00  0.00    -0.355 N 
ATOM     32  H6  UNL     1      17.714   8.906   6.750  1.00  0.00     0.166 HD
ENDBRANCH  25  26
ENDBRANCH  24  25
ENDBRANCH  22  24
ENDBRANCH  20  22
ENDBRANCH  18  20
ENDBRANCH  17  18
ENDBRANCH   1  17
TORSDOF 14
ENDMDL
MODEL 2
REMARK VINA RESULT: -7.162991078      2.017      3.184
REMARK  14 active torsions:
REMARK  status: ('A' for Active; 'I' for Inactive)
REMARK    1  A    between atoms: C2_2  and  N1_3 
REMARK    2  A    between atoms: N1_3  and  C3_5 
REMARK    3  A    between atoms: C3_5  and  C4_7 
REMARK    4  A    between atoms: N2_11  and  C8_12 
REMARK    5  A    between atoms: C8_12  and  C9_13 
REMARK    6  A    between atoms: C9_13  and  C10_14 
REMARK    7  A    between atoms: C10_14  and  C11_15 
REMARK    8  A    between atoms: C11_15  and  C12_16 
REMARK    9  A    between atoms: C12_16  and  N3_17 
REMARK   10  A    between atoms: N3_17  and  C13_19 
REMARK   11  A    between atoms: C13_19  and  N4_21 
REMARK   12  A    between atoms: N4_21  and  C14_23 
REMARK   13  A    between atoms: C14_23  and  C15_24 
REMARK   14  A    between atoms: C15_24  and  C16_25 
ROOT
HETATM    1  C11 UNL     1      12.414  12.508  15.673  1.00  0.00     0.020 C 
ENDROOT
BRANCH   1   2
HETATM    2  C10 UNL     1      11.825  11.975  16.939  1.00  0.00     0.003 C 
BRANCH   2   3
HETATM    3  C9  UNL     1      12.649  10.889  17.590  1.00  0.00     0.030 C 
BRANCH   3   4
HETATM    4  C8  UNL     1      11.738  10.211  18.593  1.00  0.00     0.272 C 
BRANCH   4   5
HETATM    5  N2  UNL     1      12.296   9.049  19.198  1.00  0.00     0.089 N 
HETATM    6  C7  UNL     1      11.446   8.508  20.204  1.00  0.00     0.272 C 
HETATM    7  C6  UNL     1      12.031   7.260  20.826  1.00  0.00     0.031 C 
HETATM    8  C5  UNL     1      13.468   7.482  21.255  1.00  0.00     0.015 C 
HETATM    9  C4  UNL     1      14.282   8.057  20.098  1.00  0.00     0.075 C 
HETATM   10  C19 UNL     1      13.620   9.349  19.690  1.00  0.00     0.284 C 
BRANCH   9  11
HETATM   11  C3  UNL     1      14.322   7.142  18.954  1.00  0.00     0.079 C 
HETATM   12  S1  UNL     1      14.589   5.542  19.190  1.00  0.00    -0.065 SA
BRANCH  11  13
HETATM   13  N1  UNL     1      14.126   7.617  17.613  1.00  0.00    -0.384 N 
ATOM     14  H1  UNL     1      13.708   8.536  17.463  1.00  0.00     0.160 HD
BRANCH  13  15
HETATM   15  C2  UNL     1      14.506   6.825  16.483  1.00  0.00     0.116 C 
HETATM   16  C1  UNL     1      14.156   7.516  15.189  1.00  0.00     0.026 C 
ENDBRANCH  13  15
ENDBRANCH  11  13
ENDBRANCH   9  11
ENDBRANCH   4   5
ENDBRANCH   3   4
ENDBRANCH   2   3
ENDBRANCH   1   2
BRANCH   1  17
HETATM   17  C12 UNL     1      12.100  11.571  14.545  1.00  0.00     0.122 C 
BRANCH  17  18
HETATM   18  N3  UNL     1      13.249  10.831  14.070  1.00  0.00    -0.367 N 
ATOM     19  H3  UNL     1      13.641  10.068  14.623  1.00  0.00     0.161 HD
BRANCH  18  20
HETATM   20  C13 UNL     1      13.817  11.185  12.831  1.00  0.00     0.167 C 
HETATM   21  S2  UNL     1      12.877  11.952  11.727  1.00  0.00    -0.041 SA
BRANCH  20  22
HETATM   22  N4  UNL     1      15.171  10.872  12.573  1.00  0.00    -0.367 N 
ATOM     23  H4  UNL     1      15.811  10.672  13.342  1.00  0.00     0.161 HD
BRANCH  22  24
HETATM   24  C14 UNL     1      15.638  10.838  11.207  1.00  0.00     0.128 C 
BRANCH  24  25
HETATM   25  C15 UNL     1      15.403   9.432  10.703  1.00  0.00     0.078 C 
BRANCH  25  26
HETATM   26  C16 UNL     1      16.068   9.165   9.420  1.00  0.00     0.027 A 
HETATM   27  C17 UNL     1      16.140   8.049   8.632  1.00  0.00     0.114 A 
HETATM   28  N5  UNL     1      16.875   8.330   7.559  1.00  0.00    -0.360 N 
HETATM   29  C18 UNL     1      17.279   9.609   7.641  1.00  0.00     0.180 A 
ATOM     30  H5  UNL     1      17.095   7.682   6.802  1.00  0.00     0.166 HD
HETATM   31  N6  UNL     1      16.787  10.113   8.773  1.00  0.00    -0.355 N 
ATOM     32  H6  UNL     1      16.929  11.067   9.102  1.00  0.00     0.166 HD
ENDBRANCH  25  26
ENDBRANCH  24  25
ENDBRANCH  22  24
ENDBRANCH  20  22
ENDBRANCH  18  20
ENDBRANCH  17  18
ENDBRANCH   1  17
TORSDOF 14
ENDMDL
MODEL 3
REMARK VINA RESULT: -7.122296386      2.454      3.397
REMARK  14 active torsions:
REMARK  status: ('A' for Active; 'I' for Inactive)
REMARK    1  A    between atoms: C2_2  and  N1_3 
REMARK    2  A    between atoms: N1_3  and  C3_5 
REMARK    3  A    between atoms: C3_5  and  C4_7 
REMARK    4  A    between atoms: N2_11  and  C8_12 
REMARK    5  A    between atoms: C8_12  and  C9_13 
REMARK    6  A    between atoms: C9_13  and  C10_14 
REMARK    7  A    between atoms: C10_14  and  C11_15 
REMARK    8  A    between atoms: C11_15  and  C12_16 
REMARK    9  A    between atoms: C12_16  and  N3_17 
REMARK   10  A    between atoms: N3_17  and  C13_19 
REMARK   11  A    between atoms: C13_19  and  N4_21 
REMARK   12  A    between atoms: N4_21  and  C14_23 
REMARK   13  A    between atoms: C14_23  and  C15_24 
REMARK   14  A    between atoms: C15_24  and  C16_25 
ROOT
HETATM    1  C11 UNL     1      12.797  11.657  16.449  1.00  0.00     0.020 C 
ENDROOT
BRANCH   1   2
HETATM    2  C10 UNL     1      11.621  11.547  17.364  1.00  0.00     0.003 C 
BRANCH   2   3
HETATM    3  C9  UNL     1      11.721  10.416  18.359  1.00  0.00     0.030 C 
BRANCH   3   4
HETATM    4  C8  UNL     1      12.953   9.622  17.975  1.00  0.00     0.272 C 
BRANCH   4   5
HETATM    5  N2  UNL     1      13.183   8.471  18.782  1.00  0.00     0.089 N 
HETATM    6  C7  UNL     1      12.223   8.349  19.826  1.00  0.00     0.272 C 
HETATM    7  C6  UNL     1      12.455   7.112  20.665  1.00  0.00     0.031 C 
HETATM    8  C5  UNL     1      13.900   7.015  21.111  1.00  0.00     0.015 C 
HETATM    9  C4  UNL     1      14.834   7.153  19.910  1.00  0.00     0.075 C 
HETATM   10  C19 UNL     1      14.540   8.488  19.272  1.00  0.00     0.284 C 
BRANCH   9  11
HETATM   11  C3  UNL     1      14.624   6.083  18.932  1.00  0.00     0.079 C 
HETATM   12  S1  UNL     1      14.967   6.337  17.350  1.00  0.00    -0.065 SA
BRANCH  11  13
HETATM   13  N1  UNL     1      14.123   4.798  19.330  1.00  0.00    -0.384 N 
ATOM     14  H1  UNL     1      13.206   4.733  19.773  1.00  0.00     0.160 HD
BRANCH  13  15
HETATM   15  C2  UNL     1      14.886   3.606  19.117  1.00  0.00     0.116 C 
HETATM   16  C1  UNL     1      15.879   3.387  20.231  1.00  0.00     0.026 C 
ENDBRANCH  13  15
ENDBRANCH  11  13
ENDBRANCH   9  11
ENDBRANCH   4   5
ENDBRANCH   3   4
ENDBRANCH   2   3
ENDBRANCH   1   2
BRANCH   1  17
HETATM   17  C12 UNL     1      12.333  11.563  15.027  1.00  0.00     0.122 C 
BRANCH  17  18
HETATM   18  N3  UNL     1      13.254  10.858  14.162  1.00  0.00    -0.367 N 
ATOM     19  H3  UNL     1      13.744  10.026  14.491  1.00  0.00     0.161 HD
BRANCH  18  20
HETATM   20  C13 UNL     1      13.462  11.344  12.857  1.00  0.00     0.167 C 
HETATM   21  S2  UNL     1      12.316  12.305  12.184  1.00  0.00    -0.041 SA
BRANCH  20  22
HETATM   22  N4  UNL     1      14.646  10.994  12.166  1.00  0.00    -0.367 N 
ATOM     23  H4  UNL     1      15.553  11.063  12.628  1.00  0.00     0.161 HD
BRANCH  22  24
HETATM   24  C14 UNL     1      14.553  10.536  10.799  1.00  0.00     0.128 C 
BRANCH  24  25
HETATM   25  C15 UNL     1      15.407   9.292  10.701  1.00  0.00     0.078 C 
BRANCH  25  26
HETATM   26  C16 UNL     1      16.090   9.168   9.405  1.00  0.00     0.027 A 
HETATM   27  C17 UNL     1      16.225   8.127   8.528  1.00  0.00     0.114 A 
HETATM   28  N5  UNL     1      16.947   8.534   7.488  1.00  0.00    -0.360 N 
HETATM   29  C18 UNL     1      17.281   9.823   7.678  1.00  0.00     0.180 A 
ATOM     30  H5  UNL     1      17.204   7.965   6.681  1.00  0.00     0.166 HD
HETATM   31  N6  UNL     1      16.758  10.203   8.844  1.00  0.00    -0.355 N 
ATOM     32  H6  UNL     1      16.847  11.134   9.252  1.00  0.00     0.166 HD
ENDBRANCH  25  26
ENDBRANCH  24  25
ENDBRANCH  22  24
ENDBRANCH  20  22
ENDBRANCH  18  20
ENDBRANCH  17  18
ENDBRANCH   1  17
TORSDOF 14
ENDMDL
MODEL 4
REMARK VINA RESULT: -7.079232542      3.395      6.743
REMARK  14 active torsions:
REMARK  status: ('A' for Active; 'I' for Inactive)
REMARK    1  A    between atoms: C2_2  and  N1_3 
REMARK    2  A    between atoms: N1_3  and  C3_5 
REMARK    3  A    between atoms: C3_5  and  C4_7 
REMARK    4  A    between atoms: N2_11  and  C8_12 
REMARK    5  A    between atoms: C8_12  and  C9_13 
REMARK    6  A    between atoms: C9_13  and  C10_14 
REMARK    7  A    between atoms: C10_14  and  C11_15 
REMARK    8  A    between atoms: C11_15  and  C12_16 
REMARK    9  A    between atoms: C12_16  and  N3_17 
REMARK   10  A    between atoms: N3_17  and  C13_19 
REMARK   11  A    between atoms: C13_19  and  N4_21 
REMARK   12  A    between atoms: N4_21  and  C14_23 
REMARK   13  A    between atoms: C14_23  and  C15_24 
REMARK   14  A    between atoms: C15_24  and  C16_25 
ROOT
HETATM    1  C11 UNL     1      11.276   9.707  19.718  1.00  0.00     0.020 C 
ENDROOT
BRANCH   1   2
HETATM    2  C10 UNL     1      11.774   8.360  20.129  1.00  0.00     0.003 C 
BRANCH   2   3
HETATM    3  C9  UNL     1      13.229   8.117  19.801  1.00  0.00     0.030 C 
BRANCH   3   4
HETATM    4  C8  UNL     1      13.454   6.626  19.954  1.00  0.00     0.272 C 
BRANCH   4   5
HETATM    5  N2  UNL     1      14.238   6.044  18.917  1.00  0.00     0.089 N 
HETATM    6  C7  UNL     1      14.699   4.742  19.262  1.00  0.00     0.272 C 
HETATM    7  C6  UNL     1      15.510   4.117  18.148  1.00  0.00     0.031 C 
HETATM    8  C5  UNL     1      16.583   5.065  17.652  1.00  0.00     0.015 C 
HETATM    9  C4  UNL     1      15.971   6.422  17.309  1.00  0.00     0.075 C 
HETATM   10  C19 UNL     1      15.312   6.940  18.563  1.00  0.00     0.284 C 
BRANCH   9  11
HETATM   11  C3  UNL     1      14.977   6.316  16.237  1.00  0.00     0.079 C 
HETATM   12  S1  UNL     1      14.057   7.612  15.839  1.00  0.00    -0.065 SA
BRANCH  11  13
HETATM   13  N1  UNL     1      14.790   5.089  15.515  1.00  0.00    -0.384 N 
ATOM     14  H1  UNL     1      15.114   4.212  15.924  1.00  0.00     0.160 HD
BRANCH  13  15
HETATM   15  C2  UNL     1      14.157   5.075  14.231  1.00  0.00     0.116 C 
HETATM   16  C1  UNL     1      15.176   5.096  13.119  1.00  0.00     0.026 C 
ENDBRANCH  13  15
ENDBRANCH  11  13
ENDBRANCH   9  11
ENDBRANCH   4   5
ENDBRANCH   3   4
ENDBRANCH   2   3
ENDBRANCH   1   2
BRANCH   1  17
HETATM   17  C12 UNL     1      12.040  10.176  18.517  1.00  0.00     0.122 C 
BRANCH  17  18
HETATM   18  N3  UNL     1      11.902  11.593  18.259  1.00  0.00    -0.367 N 
ATOM     19  H3  UNL     1      11.007  12.062  18.398  1.00  0.00     0.161 HD
BRANCH  18  20
HETATM   20  C13 UNL     1      13.028  12.312  17.812  1.00  0.00     0.167 C 
HETATM   21  S2  UNL     1      14.188  12.713  18.901  1.00  0.00    -0.041 SA
BRANCH  20  22
HETATM   22  N4  UNL     1      13.127  12.667  16.447  1.00  0.00    -0.367 N 
ATOM     23  H4  UNL     1      13.866  13.293  16.128  1.00  0.00     0.161 HD
BRANCH  22  24
HETATM   24  C14 UNL     1      12.169  12.129  15.509  1.00  0.00     0.128 C 
BRANCH  24  25
HETATM   25  C15 UNL     1      12.908  11.110  14.671  1.00  0.00     0.078 C 
BRANCH  25  26
HETATM   26  C16 UNL     1      13.081  11.535  13.275  1.00  0.00     0.027 A 
HETATM   27  C17 UNL     1      12.691  12.657  12.596  1.00  0.00     0.114 A 
HETATM   28  N5  UNL     1      13.099  12.556  11.333  1.00  0.00    -0.360 N 
HETATM   29  C18 UNL     1      13.746  11.386  11.185  1.00  0.00     0.180 A 
ATOM     30  H5  UNL     1      12.946  13.249  10.601  1.00  0.00     0.166 HD
HETATM   31  N6  UNL     1      13.733  10.770  12.367  1.00  0.00    -0.355 N 
ATOM     32  H6  UNL     1      14.150   9.859  12.559  1.00  0.00     0.166 HD
ENDBRANCH  25  26
ENDBRANCH  24  25
ENDBRANCH  22  24
ENDBRANCH  20  22
ENDBRANCH  18  20
ENDBRANCH  17  18
ENDBRANCH   1  17
TORSDOF 14
ENDMDL
MODEL 5
REMARK VINA RESULT: -7.077358062      1.303      1.465
REMARK  14 active torsions:
REMARK  status: ('A' for Active; 'I' for Inactive)
REMARK    1  A    between atoms: C2_2  and  N1_3 
REMARK    2  A    between atoms: N1_3  and  C3_5 
REMARK    3  A    between atoms: C3_5  and  C4_7 
REMARK    4  A    between atoms: N2_11  and  C8_12 
REMARK    5  A    between atoms: C8_12  and  C9_13 
REMARK    6  A    between atoms: C9_13  and  C10_14 
REMARK    7  A    between atoms: C10_14  and  C11_15 
REMARK    8  A    between atoms: C11_15  and  C12_16 
REMARK    9  A    between atoms: C12_16  and  N3_17 
REMARK   10  A    between atoms: N3_17  and  C13_19 
REMARK   11  A    between atoms: C13_19  and  N4_21 
REMARK   12  A    between atoms: N4_21  and  C14_23 
REMARK   13  A    between atoms: C14_23  and  C15_24 
REMARK   14  A    between atoms: C15_24  and  C16_25 
ROOT
HETATM    1  C11 UNL     1      12.710  12.490  13.324  1.00  0.00     0.020 C 
ENDROOT
BRANCH   1   2
HETATM    2  C10 UNL     1      12.168  11.551  14.353  1.00  0.00     0.003 C 
BRANCH   2   3
HETATM    3  C9  UNL     1      12.443  11.974  15.776  1.00  0.00     0.030 C 
BRANCH   3   4
HETATM    4  C8  UNL     1      13.103  10.788  16.451  1.00  0.00     0.272 C 
BRANCH   4   5
HETATM    5  N2  UNL     1      12.526  10.432  17.704  1.00  0.00     0.089 N 
HETATM    6  C7  UNL     1      11.305  11.124  17.946  1.00  0.00     0.272 C 
HETATM    7  C6  UNL     1      10.683  10.725  19.265  1.00  0.00     0.031 C 
HETATM    8  C5  UNL     1      11.693  10.797  20.393  1.00  0.00     0.015 C 
HETATM    9  C4  UNL     1      12.954  10.017  20.023  1.00  0.00     0.075 C 
HETATM   10  C19 UNL     1      13.495  10.628  18.754  1.00  0.00     0.284 C 
BRANCH   9  11
HETATM   11  C3  UNL     1      12.671   8.596  19.803  1.00  0.00     0.079 C 
HETATM   12  S1  UNL     1      11.399   7.887  20.554  1.00  0.00    -0.065 SA
BRANCH  11  13
HETATM   13  N1  UNL     1      13.488   7.800  18.931  1.00  0.00    -0.384 N 
ATOM     14  H1  UNL     1      13.591   8.073  17.953  1.00  0.00     0.160 HD
BRANCH  13  15
HETATM   15  C2  UNL     1      14.161   6.631  19.410  1.00  0.00     0.116 C 
HETATM   16  C1  UNL     1      15.136   6.974  20.509  1.00  0.00     0.026 C 
ENDBRANCH  13  15
ENDBRANCH  11  13
ENDBRANCH   9  11
ENDBRANCH   4   5
ENDBRANCH   3   4
ENDBRANCH   2   3
ENDBRANCH   1   2
BRANCH   1  17
HETATM   17  C12 UNL     1      12.699  11.821  11.983  1.00  0.00     0.122 C 
BRANCH  17  18
HETATM   18  N3  UNL     1      13.951  11.937  11.268  1.00  0.00    -0.367 N 
ATOM     19  H3  UNL     1      14.220  12.818  10.828  1.00  0.00     0.161 HD
BRANCH  18  20
HETATM   20  C13 UNL     1      14.793  10.811  11.191  1.00  0.00     0.167 C 
HETATM   21  S2  UNL     1      15.144   9.996  12.570  1.00  0.00    -0.041 SA
BRANCH  20  22
HETATM   22  N4  UNL     1      15.308  10.414   9.935  1.00  0.00    -0.367 N 
ATOM     23  H4  UNL     1      14.756  10.541   9.086  1.00  0.00     0.161 HD
BRANCH  22  24
HETATM   24  C14 UNL     1      16.626   9.828   9.869  1.00  0.00     0.128 C 
BRANCH  24  25
HETATM   25  C15 UNL     1      16.899   9.537   8.410  1.00  0.00     0.078 C 
BRANCH  25  26
HETATM   26  C16 UNL     1      16.537   8.167   8.022  1.00  0.00     0.027 A 
HETATM   27  C17 UNL     1      15.868   7.168   8.675  1.00  0.00     0.114 A 
HETATM   28  N5  UNL     1      15.803   6.105   7.879  1.00  0.00    -0.360 N 
HETATM   29  C18 UNL     1      16.420   6.399   6.721  1.00  0.00     0.180 A 
ATOM     30  H5  UNL     1      15.359   5.215   8.108  1.00  0.00     0.166 HD
HETATM   31  N6  UNL     1      16.865   7.653   6.813  1.00  0.00    -0.355 N 
ATOM     32  H6  UNL     1      17.374   8.150   6.083  1.00  0.00     0.166 HD
ENDBRANCH  25  26
ENDBRANCH  24  25
ENDBRANCH  22  24
ENDBRANCH  20  22
ENDBRANCH  18  20
ENDBRANCH  17  18
ENDBRANCH   1  17
TORSDOF 14
ENDMDL
