MODEL 1
REMARK VINA RESULT: -9.137347207      0.000      0.000
REMARK  10 active torsions:
REMARK  status: ('A' for Active; 'I' for Inactive)
REMARK    1  A    between atoms: C4_5  and  C5_6 
REMARK       I    between atoms: C5_6  and  N1_8 
REMARK    2  A    between atoms: N1_8  and  C6_10 
REMARK    3  A    between atoms: C10_14  and  C11_15 
REMARK    4  A    between atoms: C12_16  and  C13_17 
REMARK    5  A    between atoms: C13_17  and  C14_18 
REMARK    6  A    between atoms: C14_18  and  C15_19 
REMARK    7  A    between atoms: C15_19  and  C16_20 
REMARK    8  A    between atoms: C16_20  and  N2_21 
REMARK       I    between atoms: N2_21  and  C17_23 
REMARK    9  A    between atoms: C17_23  and  C18_25 
REMARK   10  A    between atoms: C19_26  and  C20_27 
ROOT
HETATM    1  C6  UNL     1      12.069  11.339  19.746  1.00  0.00     0.092 C 
HETATM    2  C7  UNL     1      13.555  11.094  19.664  1.00  0.00     0.026 C 
HETATM    3  C8  UNL     1      13.733   9.755  19.018  1.00  0.00     0.003 C 
HETATM    4  C9  UNL     1      12.433   9.541  18.296  1.00  0.00     0.010 C 
HETATM    5  C10 UNL     1      11.518  10.644  18.525  1.00  0.00     0.030 C 
ENDROOT
BRANCH   5   6
HETATM    6  C11 UNL     1      11.115  11.574  17.450  1.00  0.00    -0.024 C 
HETATM    7  C12 UNL     1      12.015  12.435  16.735  1.00  0.00    -0.030 C 
BRANCH   7   8
HETATM    8  C13 UNL     1      13.138  11.923  15.903  1.00  0.00     0.027 C 
BRANCH   8   9
HETATM    9  C14 UNL     1      12.793  10.998  14.820  1.00  0.00     0.005 C 
BRANCH   9  10
HETATM   10  C15 UNL     1      12.060  11.604  13.679  1.00  0.00     0.020 C 
BRANCH  10  11
HETATM   11  C16 UNL     1      12.761  11.902  12.422  1.00  0.00     0.123 C 
BRANCH  11  12
HETATM   12  N2  UNL     1      14.128  11.582  12.277  1.00  0.00    -0.358 N 
HETATM   13  C17 UNL     1      14.537  10.780  11.180  1.00  0.00     0.241 C 
HETATM   14  O3  UNL     1      13.674  10.360  10.342  1.00  0.00    -0.269 OA
ATOM     15  H2  UNL     1      14.813  11.921  12.952  1.00  0.00     0.162 HD
BRANCH  13  16
HETATM   16  C18 UNL     1      15.954  10.422  10.989  1.00  0.00     0.079 C 
HETATM   17  C19 UNL     1      16.317   9.720   9.938  1.00  0.00     0.076 C 
BRANCH  17  18
HETATM   18  C20 UNL     1      17.712   9.366   9.750  1.00  0.00     0.254 C 
HETATM   19  N3  UNL     1      18.070   8.286   8.916  1.00  0.00    -0.058 NA
HETATM   20  O4  UNL     1      18.606  10.020  10.327  1.00  0.00    -0.272 OA
ENDBRANCH  17  18
ENDBRANCH  13  16
ENDBRANCH  11  12
ENDBRANCH  10  11
ENDBRANCH   9  10
ENDBRANCH   8   9
ENDBRANCH   7   8
ENDBRANCH   5   6
BRANCH   1  21
HETATM   21  N1  UNL     1      11.494  10.692  20.928  1.00  0.00    -0.354 N 
HETATM   22  C5  UNL     1      10.618  11.353  21.803  1.00  0.00     0.248 C 
HETATM   23  O2  UNL     1      10.289  12.566  21.589  1.00  0.00    -0.271 OA
ATOM     24  H1  UNL     1      11.741   9.722  21.123  1.00  0.00     0.163 HD
BRANCH  22  25
HETATM   25  C4  UNL     1      10.068  10.673  22.966  1.00  0.00     0.230 C 
HETATM   26  O1  UNL     1      10.128  11.458  24.132  1.00  0.00    -0.373 OA
HETATM   27  C3  UNL     1       9.226  10.931  25.018  1.00  0.00     0.193 C 
HETATM   28  C2  UNL     1       9.269   9.468  25.234  1.00  0.00     0.096 C 
HETATM   29  C1  UNL     1       7.824   8.985  25.430  1.00  0.00     0.034 C 
HETATM   30  N4  UNL     1       9.844   8.668  24.211  1.00  0.00    -0.412 N 
HETATM   31  C21 UNL     1      10.746   9.366  23.321  1.00  0.00     0.156 C 
ATOM     32  H4  UNL     1       9.637   7.674  24.111  1.00  0.00     0.153 HD
ENDBRANCH  22  25
ENDBRANCH   1  21
TORSDOF 10
ENDMDL
MODEL 2
REMARK VINA RESULT: -8.844170827      4.332      6.994
REMARK  10 active torsions:
REMARK  status: ('A' for Active; 'I' for Inactive)
REMARK    1  A    between atoms: C4_5  and  C5_6 
REMARK       I    between atoms: C5_6  and  N1_8 
REMARK    2  A    between atoms: N1_8  and  C6_10 
REMARK    3  A    between atoms: C10_14  and  C11_15 
REMARK    4  A    between atoms: C12_16  and  C13_17 
REMARK    5  A    between atoms: C13_17  and  C14_18 
REMARK    6  A    between atoms: C14_18  and  C15_19 
REMARK    7  A    between atoms: C15_19  and  C16_20 
REMARK    8  A    between atoms: C16_20  and  N2_21 
REMARK       I    between atoms: N2_21  and  C17_23 
REMARK    9  A    between atoms: C17_23  and  C18_25 
REMARK   10  A    between atoms: C19_26  and  C20_27 
ROOT
HETATM    1  C6  UNL     1      15.767   5.629  15.342  1.00  0.00     0.092 C 
HETATM    2  C7  UNL     1      15.872   4.127  15.253  1.00  0.00     0.026 C 
HETATM    3  C8  UNL     1      14.682   3.660  14.474  1.00  0.00     0.003 C 
HETATM    4  C9  UNL     1      14.258   4.887  13.717  1.00  0.00     0.010 C 
HETATM    5  C10 UNL     1      15.097   6.023  14.048  1.00  0.00     0.030 C 
ENDROOT
BRANCH   5   6
HETATM    6  C11 UNL     1      16.020   6.637  13.072  1.00  0.00    -0.024 C 
HETATM    7  C12 UNL     1      15.692   7.749  12.226  1.00  0.00    -0.030 C 
BRANCH   7   8
HETATM    8  C13 UNL     1      15.323   9.092  12.756  1.00  0.00     0.027 C 
BRANCH   8   9
HETATM    9  C14 UNL     1      15.449  10.225  11.837  1.00  0.00     0.005 C 
BRANCH   9  10
HETATM   10  C15 UNL     1      14.221  10.558  11.069  1.00  0.00     0.020 C 
BRANCH  10  11
HETATM   11  C16 UNL     1      13.354  11.663  11.500  1.00  0.00     0.123 C 
BRANCH  11  12
HETATM   12  N2  UNL     1      13.461  12.181  12.809  1.00  0.00    -0.358 N 
HETATM   13  C17 UNL     1      12.463  11.856  13.764  1.00  0.00     0.241 C 
HETATM   14  O3  UNL     1      11.487  11.107  13.435  1.00  0.00    -0.269 OA
ATOM     15  H2  UNL     1      14.245  12.781  13.065  1.00  0.00     0.162 HD
BRANCH  13  16
HETATM   16  C18 UNL     1      12.534  12.375  15.142  1.00  0.00     0.079 C 
HETATM   17  C19 UNL     1      12.759  11.552  16.142  1.00  0.00     0.076 C 
BRANCH  17  18
HETATM   18  C20 UNL     1      12.829  12.062  17.499  1.00  0.00     0.254 C 
HETATM   19  N3  UNL     1      13.749  13.076  17.836  1.00  0.00    -0.058 NA
HETATM   20  O4  UNL     1      12.070  11.603  18.379  1.00  0.00    -0.272 OA
ENDBRANCH  17  18
ENDBRANCH  13  16
ENDBRANCH  11  12
ENDBRANCH  10  11
ENDBRANCH   9  10
ENDBRANCH   8   9
ENDBRANCH   7   8
ENDBRANCH   5   6
BRANCH   1  21
HETATM   21  N1  UNL     1      14.888   6.030  16.443  1.00  0.00    -0.354 N 
HETATM   22  C5  UNL     1      15.377   6.427  17.697  1.00  0.00     0.248 C 
HETATM   23  O2  UNL     1      16.633   6.450  17.921  1.00  0.00    -0.271 OA
ATOM     24  H1  UNL     1      13.880   6.021  16.293  1.00  0.00     0.163 HD
BRANCH  22  25
HETATM   25  C4  UNL     1      14.469   6.819  18.765  1.00  0.00     0.230 C 
HETATM   26  O1  UNL     1      14.100   8.174  18.693  1.00  0.00    -0.373 OA
HETATM   27  C3  UNL     1      12.957   8.319  19.432  1.00  0.00     0.193 C 
HETATM   28  C2  UNL     1      12.952   7.730  20.790  1.00  0.00     0.096 C 
HETATM   29  C1  UNL     1      11.540   7.185  21.056  1.00  0.00     0.034 C 
HETATM   30  N4  UNL     1      13.866   6.675  21.053  1.00  0.00    -0.412 N 
HETATM   31  C21 UNL     1      15.007   6.617  20.166  1.00  0.00     0.156 C 
ATOM     32  H4  UNL     1      13.728   6.008  21.812  1.00  0.00     0.153 HD
ENDBRANCH  22  25
ENDBRANCH   1  21
TORSDOF 10
ENDMDL
MODEL 3
REMARK VINA RESULT: -8.543240108      6.017      9.862
REMARK  10 active torsions:
REMARK  status: ('A' for Active; 'I' for Inactive)
REMARK    1  A    between atoms: C4_5  and  C5_6 
REMARK       I    between atoms: C5_6  and  N1_8 
REMARK    2  A    between atoms: N1_8  and  C6_10 
REMARK    3  A    between atoms: C10_14  and  C11_15 
REMARK    4  A    between atoms: C12_16  and  C13_17 
REMARK    5  A    between atoms: C13_17  and  C14_18 
REMARK    6  A    between atoms: C14_18  and  C15_19 
REMARK    7  A    between atoms: C15_19  and  C16_20 
REMARK    8  A    between atoms: C16_20  and  N2_21 
REMARK       I    between atoms: N2_21  and  C17_23 
REMARK    9  A    between atoms: C17_23  and  C18_25 
REMARK   10  A    between atoms: C19_26  and  C20_27 
ROOT
HETATM    1  C6  UNL     1      16.420   9.648  10.444  1.00  0.00     0.092 C 
HETATM    2  C7  UNL     1      17.903   9.559  10.701  1.00  0.00     0.026 C 
HETATM    3  C8  UNL     1      18.140   8.255  11.397  1.00  0.00     0.003 C 
HETATM    4  C9  UNL     1      16.927   7.444  11.038  1.00  0.00     0.010 C 
HETATM    5  C10 UNL     1      16.003   8.213  10.227  1.00  0.00     0.030 C 
ENDROOT
BRANCH   5   6
HETATM    6  C11 UNL     1      15.731   7.888   8.811  1.00  0.00    -0.024 C 
HETATM    7  C12 UNL     1      16.604   8.209   7.718  1.00  0.00    -0.030 C 
BRANCH   7   8
HETATM    8  C13 UNL     1      17.989   7.672   7.600  1.00  0.00     0.027 C 
BRANCH   8   9
HETATM    9  C14 UNL     1      18.140   6.215   7.640  1.00  0.00     0.005 C 
BRANCH   9  10
HETATM   10  C15 UNL     1      17.269   5.461   6.703  1.00  0.00     0.020 C 
BRANCH  10  11
HETATM   11  C16 UNL     1      16.459   4.334   7.186  1.00  0.00     0.123 C 
BRANCH  11  12
HETATM   12  N2  UNL     1      15.747   4.440   8.401  1.00  0.00    -0.358 N 
HETATM   13  C17 UNL     1      16.284   3.843   9.570  1.00  0.00     0.241 C 
HETATM   14  O3  UNL     1      17.394   3.221   9.515  1.00  0.00    -0.269 OA
ATOM     15  H2  UNL     1      14.859   4.939   8.438  1.00  0.00     0.162 HD
BRANCH  13  16
HETATM   16  C18 UNL     1      15.576   3.929  10.860  1.00  0.00     0.079 C 
HETATM   17  C19 UNL     1      15.810   3.039  11.799  1.00  0.00     0.076 C 
BRANCH  17  18
HETATM   18  C20 UNL     1      15.112   3.123  13.069  1.00  0.00     0.254 C 
HETATM   19  N3  UNL     1      15.449   2.255  14.129  1.00  0.00    -0.058 NA
HETATM   20  O4  UNL     1      14.207   3.969  13.230  1.00  0.00    -0.272 OA
ENDBRANCH  17  18
ENDBRANCH  13  16
ENDBRANCH  11  12
ENDBRANCH  10  11
ENDBRANCH   9  10
ENDBRANCH   8   9
ENDBRANCH   7   8
ENDBRANCH   5   6
BRANCH   1  21
HETATM   21  N1  UNL     1      15.710  10.147  11.624  1.00  0.00    -0.354 N 
HETATM   22  C5  UNL     1      14.427  10.711  11.555  1.00  0.00     0.248 C 
HETATM   23  O2  UNL     1      13.827  10.809  10.434  1.00  0.00    -0.271 OA
ATOM     24  H1  UNL     1      16.167  10.082  12.534  1.00  0.00     0.163 HD
BRANCH  22  25
HETATM   25  C4  UNL     1      13.757  11.195  12.752  1.00  0.00     0.230 C 
HETATM   26  O1  UNL     1      13.556  10.184  13.709  1.00  0.00    -0.373 OA
HETATM   27  C3  UNL     1      13.339  10.803  14.910  1.00  0.00     0.193 C 
HETATM   28  C2  UNL     1      12.351  11.904  14.933  1.00  0.00     0.096 C 
HETATM   29  C1  UNL     1      12.860  12.967  15.918  1.00  0.00     0.034 C 
HETATM   30  N4  UNL     1      12.074  12.566  13.707  1.00  0.00    -0.412 N 
HETATM   31  C21 UNL     1      12.392  11.808  12.516  1.00  0.00     0.156 C 
ATOM     32  H4  UNL     1      11.679  13.506  13.668  1.00  0.00     0.153 HD
ENDBRANCH  22  25
ENDBRANCH   1  21
TORSDOF 10
ENDMDL
MODEL 4
REMARK VINA RESULT: -8.442036846      1.720      2.263
REMARK  10 active torsions:
REMARK  status: ('A' for Active; 'I' for Inactive)
REMARK    1  A    between atoms: C4_5  and  C5_6 
REMARK       I    between atoms: C5_6  and  N1_8 
REMARK    2  A    between atoms: N1_8  and  C6_10 
REMARK    3  A    between atoms: C10_14  and  C11_15 
REMARK    4  A    between atoms: C12_16  and  C13_17 
REMARK    5  A    between atoms: C13_17  and  C14_18 
REMARK    6  A    between atoms: C14_18  and  C15_19 
REMARK    7  A    between atoms: C15_19  and  C16_20 
REMARK    8  A    between atoms: C16_20  and  N2_21 
REMARK       I    between atoms: N2_21  and  C17_23 
REMARK    9  A    between atoms: C17_23  and  C18_25 
REMARK   10  A    between atoms: C19_26  and  C20_27 
ROOT
HETATM    1  C6  UNL     1      12.391  11.500  19.096  1.00  0.00     0.092 C 
HETATM    2  C7  UNL     1      12.938  12.706  18.373  1.00  0.00     0.026 C 
HETATM    3  C8  UNL     1      14.384  12.809  18.745  1.00  0.00     0.003 C 
HETATM    4  C9  UNL     1      14.725  11.418  19.204  1.00  0.00     0.010 C 
HETATM    5  C10 UNL     1      13.563  10.552  19.158  1.00  0.00     0.030 C 
ENDROOT
BRANCH   5   6
HETATM    6  C11 UNL     1      13.455   9.421  18.213  1.00  0.00    -0.024 C 
HETATM    7  C12 UNL     1      12.894   9.509  16.895  1.00  0.00    -0.030 C 
BRANCH   7   8
HETATM    8  C13 UNL     1      13.464  10.378  15.827  1.00  0.00     0.027 C 
BRANCH   8   9
HETATM    9  C14 UNL     1      12.527  11.243  15.107  1.00  0.00     0.005 C 
BRANCH   9  10
HETATM   10  C15 UNL     1      13.141  12.138  14.093  1.00  0.00     0.020 C 
BRANCH  10  11
HETATM   11  C16 UNL     1      13.294  11.689  12.702  1.00  0.00     0.123 C 
BRANCH  11  12
HETATM   12  N2  UNL     1      14.548  11.236  12.235  1.00  0.00    -0.358 N 
HETATM   13  C17 UNL     1      14.603  10.456  11.051  1.00  0.00     0.241 C 
HETATM   14  O3  UNL     1      13.530  10.172  10.426  1.00  0.00    -0.269 OA
ATOM     15  H2  UNL     1      15.402  11.468  12.741  1.00  0.00     0.162 HD
BRANCH  13  16
HETATM   16  C18 UNL     1      15.890   9.964  10.527  1.00  0.00     0.079 C 
HETATM   17  C19 UNL     1      16.040   9.766   9.236  1.00  0.00     0.076 C 
BRANCH  17  18
HETATM   18  C20 UNL     1      17.306   9.281   8.719  1.00  0.00     0.254 C 
HETATM   19  N3  UNL     1      18.364   8.967   9.597  1.00  0.00    -0.058 NA
HETATM   20  O4  UNL     1      17.465   9.138   7.488  1.00  0.00    -0.272 OA
ENDBRANCH  17  18
ENDBRANCH  13  16
ENDBRANCH  11  12
ENDBRANCH  10  11
ENDBRANCH   9  10
ENDBRANCH   8   9
ENDBRANCH   7   8
ENDBRANCH   5   6
BRANCH   1  21
HETATM   21  N1  UNL     1      12.014  11.839  20.471  1.00  0.00    -0.354 N 
HETATM   22  C5  UNL     1      10.766  11.504  21.019  1.00  0.00     0.248 C 
HETATM   23  O2  UNL     1       9.902  10.880  20.318  1.00  0.00    -0.271 OA
ATOM     24  H1  UNL     1      12.685  12.337  21.054  1.00  0.00     0.163 HD
BRANCH  22  25
HETATM   25  C4  UNL     1      10.431  11.858  22.390  1.00  0.00     0.230 C 
HETATM   26  O1  UNL     1       9.257  11.229  22.842  1.00  0.00    -0.373 OA
HETATM   27  C3  UNL     1       9.279  11.271  24.210  1.00  0.00     0.193 C 
HETATM   28  C2  UNL     1       9.585  12.575  24.840  1.00  0.00     0.096 C 
HETATM   29  C1  UNL     1      10.418  12.299  26.100  1.00  0.00     0.034 C 
HETATM   30  N4  UNL     1      10.297  13.530  24.065  1.00  0.00    -0.412 N 
HETATM   31  C21 UNL     1      10.220  13.338  22.634  1.00  0.00     0.156 C 
ATOM     32  H4  UNL     1      10.824  14.294  24.487  1.00  0.00     0.153 HD
ENDBRANCH  22  25
ENDBRANCH   1  21
TORSDOF 10
ENDMDL
MODEL 5
REMARK VINA RESULT: -8.441922243      3.445      5.133
REMARK  10 active torsions:
REMARK  status: ('A' for Active; 'I' for Inactive)
REMARK    1  A    between atoms: C4_5  and  C5_6 
REMARK       I    between atoms: C5_6  and  N1_8 
REMARK    2  A    between atoms: N1_8  and  C6_10 
REMARK    3  A    between atoms: C10_14  and  C11_15 
REMARK    4  A    between atoms: C12_16  and  C13_17 
REMARK    5  A    between atoms: C13_17  and  C14_18 
REMARK    6  A    between atoms: C14_18  and  C15_19 
REMARK    7  A    between atoms: C15_19  and  C16_20 
REMARK    8  A    between atoms: C16_20  and  N2_21 
REMARK       I    between atoms: N2_21  and  C17_23 
REMARK    9  A    between atoms: C17_23  and  C18_25 
REMARK   10  A    between atoms: C19_26  and  C20_27 
ROOT
HETATM    1  C6  UNL     1      12.188  10.484  18.070  1.00  0.00     0.092 C 
HETATM    2  C7  UNL     1      10.966  10.700  18.928  1.00  0.00     0.026 C 
HETATM    3  C8  UNL     1      11.446  11.303  20.212  1.00  0.00     0.003 C 
HETATM    4  C9  UNL     1      12.782  11.885  19.845  1.00  0.00     0.010 C 
HETATM    5  C10 UNL     1      13.109  11.615  18.457  1.00  0.00     0.030 C 
ENDROOT
BRANCH   5   6
HETATM    6  C11 UNL     1      13.188  12.684  17.440  1.00  0.00    -0.024 C 
HETATM    7  C12 UNL     1      13.180  12.463  16.022  1.00  0.00    -0.030 C 
BRANCH   7   8
HETATM    8  C13 UNL     1      12.037  11.833  15.305  1.00  0.00     0.027 C 
BRANCH   8   9
HETATM    9  C14 UNL     1      12.268  11.425  13.917  1.00  0.00     0.005 C 
BRANCH   9  10
HETATM   10  C15 UNL     1      12.594  12.529  12.977  1.00  0.00     0.020 C 
BRANCH  10  11
HETATM   11  C16 UNL     1      13.076  12.232  11.622  1.00  0.00     0.123 C 
BRANCH  11  12
HETATM   12  N2  UNL     1      14.383  11.733  11.426  1.00  0.00    -0.358 N 
HETATM   13  C17 UNL     1      14.554  10.492  10.760  1.00  0.00     0.241 C 
HETATM   14  O3  UNL     1      13.538   9.844  10.348  1.00  0.00    -0.269 OA
ATOM     15  H2  UNL     1      15.191  12.257  11.759  1.00  0.00     0.162 HD
BRANCH  13  16
HETATM   16  C18 UNL     1      15.900   9.933  10.533  1.00  0.00     0.079 C 
HETATM   17  C19 UNL     1      16.611   9.499  11.550  1.00  0.00     0.076 C 
BRANCH  17  18
HETATM   18  C20 UNL     1      17.935   8.950  11.327  1.00  0.00     0.254 C 
HETATM   19  N3  UNL     1      18.708   8.482  12.411  1.00  0.00    -0.058 NA
HETATM   20  O4  UNL     1      18.399   8.887  10.169  1.00  0.00    -0.272 OA
ENDBRANCH  17  18
ENDBRANCH  13  16
ENDBRANCH  11  12
ENDBRANCH  10  11
ENDBRANCH   9  10
ENDBRANCH   8   9
ENDBRANCH   7   8
ENDBRANCH   5   6
BRANCH   1  21
HETATM   21  N1  UNL     1      12.854   9.225  18.412  1.00  0.00    -0.354 N 
HETATM   22  C5  UNL     1      13.558   8.460  17.469  1.00  0.00     0.248 C 
HETATM   23  O2  UNL     1      13.639   8.847  16.257  1.00  0.00    -0.271 OA
ATOM     24  H1  UNL     1      12.806   8.892  19.374  1.00  0.00     0.163 HD
BRANCH  22  25
HETATM   25  C4  UNL     1      14.207   7.214  17.851  1.00  0.00     0.230 C 
HETATM   26  O1  UNL     1      15.172   7.392  18.859  1.00  0.00    -0.373 OA
HETATM   27  C3  UNL     1      15.388   6.166  19.430  1.00  0.00     0.193 C 
HETATM   28  C2  UNL     1      15.627   5.028  18.514  1.00  0.00     0.096 C 
HETATM   29  C1  UNL     1      14.965   3.787  19.132  1.00  0.00     0.034 C 
HETATM   30  N4  UNL     1      15.146   5.142  17.183  1.00  0.00    -0.412 N 
HETATM   31  C21 UNL     1      14.922   6.497  16.725  1.00  0.00     0.156 C 
ATOM     32  H4  UNL     1      14.971   4.330  16.592  1.00  0.00     0.153 HD
ENDBRANCH  22  25
ENDBRANCH   1  21
TORSDOF 10
ENDMDL
