MODEL 1
REMARK VINA RESULT: -6.994956652      0.000      0.000
REMARK  9 active torsions:
REMARK  status: ('A' for Active; 'I' for Inactive)
REMARK    1  A    between atoms: C2_2  and  C3_3 
REMARK    2  A    between atoms: C3_3  and  C4_4 
REMARK    3  A    between atoms: C4_4  and  C5_5 
REMARK    4  A    between atoms: C7_7  and  O1_8 
REMARK    5  A    between atoms: O1_8  and  C8_9 
REMARK       I    between atoms: C8_9  and  N1_11 
REMARK    6  A    between atoms: C18_22  and  C19_23 
REMARK       I    between atoms: C19_23  and  N3_25 
REMARK    7  A    between atoms: N3_25  and  C20_27 
REMARK    8  A    between atoms: C20_27  and  C21_28 
REMARK       I    between atoms: C21_28  and  N4_30 
REMARK    9  A    between atoms: N4_30  and  O5_32 
ROOT
HETATM    1  C5  UNL     1      -1.166  -6.147 -16.745  1.00  0.00    -0.011 C 
HETATM    2  C6  UNL     1      -2.405  -6.750 -16.144  1.00  0.00     0.037 C 
HETATM    3  C7  UNL     1      -3.116  -7.709 -17.054  1.00  0.00     0.135 C 
HETATM    4  C17 UNL     1      -2.248  -8.757 -17.657  1.00  0.00     0.046 C 
HETATM    5  C18 UNL     1      -0.800  -8.355 -17.768  1.00  0.00     0.080 C 
HETATM    6  C28 UNL     1      -0.606  -6.884 -17.909  1.00  0.00     0.018 C 
ENDROOT
BRANCH   5   7
HETATM    7  C19 UNL     1      -0.129  -9.057 -18.924  1.00  0.00     0.223 C 
HETATM    8  O3  UNL     1      -0.851  -9.782 -19.660  1.00  0.00    -0.273 OA
HETATM    9  N3  UNL     1       1.257  -8.858 -19.105  1.00  0.00    -0.343 N 
ATOM     10  H3  UNL     1       1.779  -8.258 -18.465  1.00  0.00     0.163 HD
BRANCH   9  11
HETATM   11  C20 UNL     1       1.935  -9.515 -20.211  1.00  0.00     0.116 C 
HETATM   12  C23 UNL     1       3.445  -9.391 -20.034  1.00  0.00     0.041 C 
HETATM   13  C24 UNL     1       3.903 -10.111 -18.782  1.00  0.00     0.003 C 
HETATM   14  C25 UNL     1       3.185 -11.424 -18.594  1.00  0.00     0.000 C 
HETATM   15  C26 UNL     1       2.609 -11.906 -19.909  1.00  0.00     0.003 C 
HETATM   16  C27 UNL     1       1.497 -10.938 -20.288  1.00  0.00     0.041 C 
BRANCH  11  17
HETATM   17  C21 UNL     1       1.563  -8.815 -21.457  1.00  0.00     0.271 C 
HETATM   18  O4  UNL     1       1.168  -9.465 -22.488  1.00  0.00    -0.268 OA
HETATM   19  N4  UNL     1       1.607  -7.409 -21.623  1.00  0.00    -0.231 N 
HETATM   20  C22 UNL     1       1.227  -6.743 -22.852  1.00  0.00     0.188 C 
BRANCH  19  21
HETATM   21  O5  UNL     1       2.023  -6.627 -20.611  1.00  0.00    -0.285 OA
ATOM     22  H5  UNL     1       2.117  -5.691 -20.744  1.00  0.00     0.245 HD
ENDBRANCH  19  21
ENDBRANCH  11  17
ENDBRANCH   9  11
ENDBRANCH   5   7
BRANCH   3  23
HETATM   23  O1  UNL     1      -4.093  -8.385 -16.247  1.00  0.00    -0.298 OA
BRANCH  23  24
HETATM   24  C8  UNL     1      -5.426  -7.999 -16.255  1.00  0.00     0.363 C 
HETATM   25  O2  UNL     1      -6.081  -8.253 -17.281  1.00  0.00    -0.238 OA
HETATM   26  N1  UNL     1      -6.028  -7.341 -15.148  1.00  0.00    -0.326 N 
HETATM   27  C9  UNL     1      -5.127  -7.126 -14.039  1.00  0.00     0.130 C 
HETATM   28  C16 UNL     1      -7.400  -7.013 -15.325  1.00  0.00     0.163 C 
HETATM   29  C10 UNL     1      -4.901  -5.637 -13.866  1.00  0.00     0.050 C 
HETATM   30  C11 UNL     1      -6.130  -5.090 -13.199  1.00  0.00     0.274 C 
HETATM   31  N2  UNL     1      -7.244  -4.878 -14.068  1.00  0.00     0.094 N 
HETATM   32  C12 UNL     1      -8.236  -4.140 -13.256  1.00  0.00     0.273 C 
HETATM   33  C15 UNL     1      -8.004  -6.027 -14.418  1.00  0.00     0.241 C 
HETATM   34  C13 UNL     1      -8.885  -5.238 -12.402  1.00  0.00     0.032 C 
HETATM   35  C14 UNL     1      -8.476  -6.537 -13.084  1.00  0.00     0.039 C 
ENDBRANCH  23  24
ENDBRANCH   3  23
BRANCH   1  36
HETATM   36  C4  UNL     1      -1.316  -4.691 -17.092  1.00  0.00     0.005 C 
BRANCH  36  37
HETATM   37  C3  UNL     1      -2.413  -4.013 -16.340  1.00  0.00     0.000 C 
BRANCH  37  38
HETATM   38  C2  UNL     1      -1.921  -3.237 -15.150  1.00  0.00    -0.005 C 
HETATM   39  C1  UNL     1      -2.961  -2.362 -14.527  1.00  0.00     0.005 C 
ENDBRANCH  37  38
ENDBRANCH  36  37
ENDBRANCH   1  36
TORSDOF 9
ENDMDL
MODEL 2
REMARK VINA RESULT: -6.992892764      1.085      2.387
REMARK  9 active torsions:
REMARK  status: ('A' for Active; 'I' for Inactive)
REMARK    1  A    between atoms: C2_2  and  C3_3 
REMARK    2  A    between atoms: C3_3  and  C4_4 
REMARK    3  A    between atoms: C4_4  and  C5_5 
REMARK    4  A    between atoms: C7_7  and  O1_8 
REMARK    5  A    between atoms: O1_8  and  C8_9 
REMARK       I    between atoms: C8_9  and  N1_11 
REMARK    6  A    between atoms: C18_22  and  C19_23 
REMARK       I    between atoms: C19_23  and  N3_25 
REMARK    7  A    between atoms: N3_25  and  C20_27 
REMARK    8  A    between atoms: C20_27  and  C21_28 
REMARK       I    between atoms: C21_28  and  N4_30 
REMARK    9  A    between atoms: N4_30  and  O5_32 
ROOT
HETATM    1  C5  UNL     1      -1.151  -6.107 -16.765  1.00  0.00    -0.011 C 
HETATM    2  C6  UNL     1      -2.385  -6.744 -16.189  1.00  0.00     0.037 C 
HETATM    3  C7  UNL     1      -3.068  -7.700 -17.123  1.00  0.00     0.135 C 
HETATM    4  C17 UNL     1      -2.174  -8.721 -17.733  1.00  0.00     0.046 C 
HETATM    5  C18 UNL     1      -0.732  -8.290 -17.820  1.00  0.00     0.080 C 
HETATM    6  C28 UNL     1      -0.564  -6.814 -17.935  1.00  0.00     0.018 C 
ENDROOT
BRANCH   5   7
HETATM    7  C19 UNL     1      -0.035  -8.960 -18.981  1.00  0.00     0.223 C 
HETATM    8  O3  UNL     1      -0.601  -9.961 -19.496  1.00  0.00    -0.273 OA
HETATM    9  N3  UNL     1       1.199  -8.425 -19.410  1.00  0.00    -0.343 N 
ATOM     10  H3  UNL     1       1.599  -7.613 -18.940  1.00  0.00     0.163 HD
BRANCH   9  11
HETATM   11  C20 UNL     1       1.895  -9.043 -20.527  1.00  0.00     0.116 C 
HETATM   12  C23 UNL     1       0.965  -9.118 -21.733  1.00  0.00     0.041 C 
HETATM   13  C24 UNL     1       0.576  -7.732 -22.203  1.00  0.00     0.003 C 
HETATM   14  C25 UNL     1       1.741  -6.775 -22.156  1.00  0.00     0.000 C 
HETATM   15  C26 UNL     1       3.051  -7.535 -22.155  1.00  0.00     0.003 C 
HETATM   16  C27 UNL     1       3.136  -8.272 -20.827  1.00  0.00     0.041 C 
BRANCH  11  17
HETATM   17  C21 UNL     1       2.253 -10.422 -20.139  1.00  0.00     0.271 C 
HETATM   18  O4  UNL     1       1.981 -11.415 -20.899  1.00  0.00    -0.268 OA
HETATM   19  N4  UNL     1       2.907 -10.763 -18.929  1.00  0.00    -0.231 N 
HETATM   20  C22 UNL     1       3.257 -12.123 -18.573  1.00  0.00     0.188 C 
BRANCH  19  21
HETATM   21  O5  UNL     1       3.225  -9.802 -18.045  1.00  0.00    -0.285 OA
ATOM     22  H5  UNL     1       3.937  -9.201 -18.234  1.00  0.00     0.245 HD
ENDBRANCH  19  21
ENDBRANCH  11  17
ENDBRANCH   9  11
ENDBRANCH   5   7
BRANCH   3  23
HETATM   23  O1  UNL     1      -4.041  -8.407 -16.339  1.00  0.00    -0.298 OA
BRANCH  23  24
HETATM   24  C8  UNL     1      -5.377  -8.034 -16.340  1.00  0.00     0.363 C 
HETATM   25  O2  UNL     1      -6.029  -8.276 -17.371  1.00  0.00    -0.238 OA
HETATM   26  N1  UNL     1      -5.987  -7.402 -15.222  1.00  0.00    -0.326 N 
HETATM   27  C9  UNL     1      -5.088  -7.198 -14.109  1.00  0.00     0.130 C 
HETATM   28  C16 UNL     1      -7.361  -7.084 -15.394  1.00  0.00     0.163 C 
HETATM   29  C10 UNL     1      -4.877  -5.710 -13.910  1.00  0.00     0.050 C 
HETATM   30  C11 UNL     1      -6.111  -5.187 -13.234  1.00  0.00     0.274 C 
HETATM   31  N2  UNL     1      -7.226  -4.970 -14.100  1.00  0.00     0.094 N 
HETATM   32  C12 UNL     1      -8.226  -4.256 -13.276  1.00  0.00     0.273 C 
HETATM   33  C15 UNL     1      -7.975  -6.120 -14.471  1.00  0.00     0.241 C 
HETATM   34  C13 UNL     1      -8.865  -5.375 -12.441  1.00  0.00     0.032 C 
HETATM   35  C14 UNL     1      -8.442  -6.657 -13.146  1.00  0.00     0.039 C 
ENDBRANCH  23  24
ENDBRANCH   3  23
BRANCH   1  36
HETATM   36  C4  UNL     1      -1.325  -4.648 -17.090  1.00  0.00     0.005 C 
BRANCH  36  37
HETATM   37  C3  UNL     1      -2.423  -3.997 -16.318  1.00  0.00     0.000 C 
BRANCH  37  38
HETATM   38  C2  UNL     1      -1.932  -3.245 -15.113  1.00  0.00    -0.005 C 
HETATM   39  C1  UNL     1      -2.968  -2.372 -14.480  1.00  0.00     0.005 C 
ENDBRANCH  37  38
ENDBRANCH  36  37
ENDBRANCH   1  36
TORSDOF 9
ENDMDL
MODEL 3
REMARK VINA RESULT: -6.964397480      1.513      2.913
REMARK  9 active torsions:
REMARK  status: ('A' for Active; 'I' for Inactive)
REMARK    1  A    between atoms: C2_2  and  C3_3 
REMARK    2  A    between atoms: C3_3  and  C4_4 
REMARK    3  A    between atoms: C4_4  and  C5_5 
REMARK    4  A    between atoms: C7_7  and  O1_8 
REMARK    5  A    between atoms: O1_8  and  C8_9 
REMARK       I    between atoms: C8_9  and  N1_11 
REMARK    6  A    between atoms: C18_22  and  C19_23 
REMARK       I    between atoms: C19_23  and  N3_25 
REMARK    7  A    between atoms: N3_25  and  C20_27 
REMARK    8  A    between atoms: C20_27  and  C21_28 
REMARK       I    between atoms: C21_28  and  N4_30 
REMARK    9  A    between atoms: N4_30  and  O5_32 
ROOT
HETATM    1  C5  UNL     1      -0.853  -6.069 -17.086  1.00  0.00    -0.011 C 
HETATM    2  C6  UNL     1      -2.062  -6.550 -16.333  1.00  0.00     0.037 C 
HETATM    3  C7  UNL     1      -2.836  -7.619 -17.048  1.00  0.00     0.135 C 
HETATM    4  C17 UNL     1      -2.017  -8.763 -17.535  1.00  0.00     0.046 C 
HETATM    5  C18 UNL     1      -0.574  -8.411 -17.786  1.00  0.00     0.080 C 
HETATM    6  C28 UNL     1      -0.371  -6.981 -18.157  1.00  0.00     0.018 C 
ENDROOT
BRANCH   5   7
HETATM    7  C19 UNL     1       0.021  -9.291 -18.860  1.00  0.00     0.223 C 
HETATM    8  O3  UNL     1      -0.781  -9.892 -19.625  1.00  0.00    -0.273 OA
HETATM    9  N3  UNL     1       1.427  -9.383 -18.937  1.00  0.00    -0.343 N 
ATOM     10  H3  UNL     1       2.014  -8.869 -18.280  1.00  0.00     0.163 HD
BRANCH   9  11
HETATM   11  C20 UNL     1       2.033 -10.217 -19.962  1.00  0.00     0.116 C 
HETATM   12  C23 UNL     1       1.480  -9.833 -21.331  1.00  0.00     0.041 C 
HETATM   13  C24 UNL     1       1.852  -8.408 -21.684  1.00  0.00     0.003 C 
HETATM   14  C25 UNL     1       3.267  -8.080 -21.278  1.00  0.00     0.000 C 
HETATM   15  C26 UNL     1       4.079  -9.348 -21.112  1.00  0.00     0.003 C 
HETATM   16  C27 UNL     1       3.517 -10.080 -19.903  1.00  0.00     0.041 C 
BRANCH  11  17
HETATM   17  C21 UNL     1       1.656 -11.619 -19.694  1.00  0.00     0.271 C 
HETATM   18  O4  UNL     1       1.174 -12.363 -20.618  1.00  0.00    -0.268 OA
HETATM   19  N4  UNL     1       1.787 -12.251 -18.432  1.00  0.00    -0.231 N 
HETATM   20  C22 UNL     1       1.420 -13.631 -18.194  1.00  0.00     0.188 C 
BRANCH  19  21
HETATM   21  O5  UNL     1       2.267 -11.559 -17.384  1.00  0.00    -0.285 OA
ATOM     22  H5  UNL     1       2.530 -12.018 -16.594  1.00  0.00     0.245 HD
ENDBRANCH  19  21
ENDBRANCH  11  17
ENDBRANCH   9  11
ENDBRANCH   5   7
BRANCH   3  23
HETATM   23  O1  UNL     1      -3.772  -8.147 -16.095  1.00  0.00    -0.298 OA
BRANCH  23  24
HETATM   24  C8  UNL     1      -5.126  -7.856 -16.176  1.00  0.00     0.363 C 
HETATM   25  O2  UNL     1      -5.705  -8.159 -17.234  1.00  0.00    -0.238 OA
HETATM   26  N1  UNL     1      -5.831  -7.237 -15.109  1.00  0.00    -0.326 N 
HETATM   27  C9  UNL     1      -5.008  -6.956 -13.955  1.00  0.00     0.130 C 
HETATM   28  C16 UNL     1      -7.210  -7.006 -15.361  1.00  0.00     0.163 C 
HETATM   29  C10 UNL     1      -4.896  -5.454 -13.781  1.00  0.00     0.050 C 
HETATM   30  C11 UNL     1      -6.194  -4.992 -13.185  1.00  0.00     0.274 C 
HETATM   31  N2  UNL     1      -7.271  -4.861 -14.114  1.00  0.00     0.094 N 
HETATM   32  C12 UNL     1      -8.355  -4.191 -13.362  1.00  0.00     0.273 C 
HETATM   33  C15 UNL     1      -7.930  -6.061 -14.495  1.00  0.00     0.241 C 
HETATM   34  C13 UNL     1      -8.971  -5.328 -12.534  1.00  0.00     0.032 C 
HETATM   35  C14 UNL     1      -8.436  -6.598 -13.185  1.00  0.00     0.039 C 
ENDBRANCH  23  24
ENDBRANCH   3  23
BRANCH   1  36
HETATM   36  C4  UNL     1      -1.007  -4.677 -17.638  1.00  0.00     0.005 C 
BRANCH  36  37
HETATM   37  C3  UNL     1       0.212  -4.182 -18.343  1.00  0.00     0.000 C 
BRANCH  37  38
HETATM   38  C2  UNL     1       0.001  -3.981 -19.817  1.00  0.00    -0.005 C 
HETATM   39  C1  UNL     1       1.039  -4.635 -20.672  1.00  0.00     0.005 C 
ENDBRANCH  37  38
ENDBRANCH  36  37
ENDBRANCH   1  36
TORSDOF 9
ENDMDL
MODEL 4
REMARK VINA RESULT: -6.926110125      0.951      1.492
REMARK  9 active torsions:
REMARK  status: ('A' for Active; 'I' for Inactive)
REMARK    1  A    between atoms: C2_2  and  C3_3 
REMARK    2  A    between atoms: C3_3  and  C4_4 
REMARK    3  A    between atoms: C4_4  and  C5_5 
REMARK    4  A    between atoms: C7_7  and  O1_8 
REMARK    5  A    between atoms: O1_8  and  C8_9 
REMARK       I    between atoms: C8_9  and  N1_11 
REMARK    6  A    between atoms: C18_22  and  C19_23 
REMARK       I    between atoms: C19_23  and  N3_25 
REMARK    7  A    between atoms: N3_25  and  C20_27 
REMARK    8  A    between atoms: C20_27  and  C21_28 
REMARK       I    between atoms: C21_28  and  N4_30 
REMARK    9  A    between atoms: N4_30  and  O5_32 
ROOT
HETATM    1  C5  UNL     1      -0.890  -6.084 -17.022  1.00  0.00    -0.011 C 
HETATM    2  C6  UNL     1      -2.110  -6.621 -16.326  1.00  0.00     0.037 C 
HETATM    3  C7  UNL     1      -2.882  -7.619 -17.139  1.00  0.00     0.135 C 
HETATM    4  C17 UNL     1      -2.064  -8.722 -17.714  1.00  0.00     0.046 C 
HETATM    5  C18 UNL     1      -0.616  -8.358 -17.918  1.00  0.00     0.080 C 
HETATM    6  C28 UNL     1      -0.401  -6.904 -18.162  1.00  0.00     0.018 C 
ENDROOT
BRANCH   5   7
HETATM    7  C19 UNL     1      -0.014  -9.147 -19.057  1.00  0.00     0.223 C 
HETATM    8  O3  UNL     1      -0.773  -9.940 -19.677  1.00  0.00    -0.273 OA
HETATM    9  N3  UNL     1       1.351  -8.945 -19.353  1.00  0.00    -0.343 N 
ATOM     10  H3  UNL     1       1.905  -8.288 -18.804  1.00  0.00     0.163 HD
BRANCH   9  11
HETATM   11  C20 UNL     1       1.962  -9.684 -20.446  1.00  0.00     0.116 C 
HETATM   12  C23 UNL     1       3.474  -9.482 -20.421  1.00  0.00     0.041 C 
HETATM   13  C24 UNL     1       4.074 -10.051 -19.152  1.00  0.00     0.003 C 
HETATM   14  C25 UNL     1       3.440 -11.366 -18.771  1.00  0.00     0.000 C 
HETATM   15  C26 UNL     1       2.777 -12.002 -19.975  1.00  0.00     0.003 C 
HETATM   16  C27 UNL     1       1.590 -11.124 -20.344  1.00  0.00     0.041 C 
BRANCH  11  17
HETATM   17  C21 UNL     1       1.448  -9.131 -21.716  1.00  0.00     0.271 C 
HETATM   18  O4  UNL     1       0.995  -9.897 -22.636  1.00  0.00    -0.268 OA
HETATM   19  N4  UNL     1       1.412  -7.748 -22.024  1.00  0.00    -0.231 N 
HETATM   20  C22 UNL     1       0.895  -7.228 -23.273  1.00  0.00     0.188 C 
BRANCH  19  21
HETATM   21  O5  UNL     1       1.879  -6.852 -21.138  1.00  0.00    -0.285 OA
ATOM     22  H5  UNL     1       2.754  -6.951 -20.781  1.00  0.00     0.245 HD
ENDBRANCH  19  21
ENDBRANCH  11  17
ENDBRANCH   9  11
ENDBRANCH   5   7
BRANCH   3  23
HETATM   23  O1  UNL     1      -3.832  -8.221 -16.245  1.00  0.00    -0.298 OA
BRANCH  23  24
HETATM   24  C8  UNL     1      -5.179  -7.893 -16.297  1.00  0.00     0.363 C 
HETATM   25  O2  UNL     1      -5.782  -8.150 -17.354  1.00  0.00    -0.238 OA
HETATM   26  N1  UNL     1      -5.852  -7.290 -15.200  1.00  0.00    -0.326 N 
HETATM   27  C9  UNL     1      -5.005  -7.064 -14.051  1.00  0.00     0.130 C 
HETATM   28  C16 UNL     1      -7.229  -7.017 -15.424  1.00  0.00     0.163 C 
HETATM   29  C10 UNL     1      -4.852  -5.571 -13.836  1.00  0.00     0.050 C 
HETATM   30  C11 UNL     1      -6.129  -5.094 -13.206  1.00  0.00     0.274 C 
HETATM   31  N2  UNL     1      -7.216  -4.908 -14.113  1.00  0.00     0.094 N 
HETATM   32  C12 UNL     1      -8.270  -4.235 -13.324  1.00  0.00     0.273 C 
HETATM   33  C15 UNL     1      -7.910  -6.080 -14.519  1.00  0.00     0.241 C 
HETATM   34  C13 UNL     1      -8.903  -5.381 -12.522  1.00  0.00     0.032 C 
HETATM   35  C14 UNL     1      -8.411  -6.643 -13.218  1.00  0.00     0.039 C 
ENDBRANCH  23  24
ENDBRANCH   3  23
BRANCH   1  36
HETATM   36  C4  UNL     1      -1.030  -4.649 -17.454  1.00  0.00     0.005 C 
BRANCH  36  37
HETATM   37  C3  UNL     1      -0.032  -4.241 -18.485  1.00  0.00     0.000 C 
BRANCH  37  38
HETATM   38  C2  UNL     1       1.291  -3.836 -17.899  1.00  0.00    -0.005 C 
HETATM   39  C1  UNL     1       2.422  -3.866 -18.877  1.00  0.00     0.005 C 
ENDBRANCH  37  38
ENDBRANCH  36  37
ENDBRANCH   1  36
TORSDOF 9
ENDMDL
MODEL 5
REMARK VINA RESULT: -6.768100423      3.009      7.179
REMARK  9 active torsions:
REMARK  status: ('A' for Active; 'I' for Inactive)
REMARK    1  A    between atoms: C2_2  and  C3_3 
REMARK    2  A    between atoms: C3_3  and  C4_4 
REMARK    3  A    between atoms: C4_4  and  C5_5 
REMARK    4  A    between atoms: C7_7  and  O1_8 
REMARK    5  A    between atoms: O1_8  and  C8_9 
REMARK       I    between atoms: C8_9  and  N1_11 
REMARK    6  A    between atoms: C18_22  and  C19_23 
REMARK       I    between atoms: C19_23  and  N3_25 
REMARK    7  A    between atoms: N3_25  and  C20_27 
REMARK    8  A    between atoms: C20_27  and  C21_28 
REMARK       I    between atoms: C21_28  and  N4_30 
REMARK    9  A    between atoms: N4_30  and  O5_32 
ROOT
HETATM    1  C5  UNL     1      -3.518  -7.044 -16.530  1.00  0.00    -0.011 C 
HETATM    2  C6  UNL     1      -2.956  -5.721 -16.971  1.00  0.00     0.037 C 
HETATM    3  C7  UNL     1      -1.468  -5.608 -16.807  1.00  0.00     0.135 C 
HETATM    4  C17 UNL     1      -0.690  -6.739 -17.384  1.00  0.00     0.046 C 
HETATM    5  C18 UNL     1      -1.467  -8.027 -17.469  1.00  0.00     0.080 C 
HETATM    6  C28 UNL     1      -2.526  -8.148 -16.427  1.00  0.00     0.018 C 
ENDROOT
BRANCH   5   7
HETATM    7  C19 UNL     1      -0.548  -9.222 -17.381  1.00  0.00     0.223 C 
HETATM    8  O3  UNL     1      -0.995 -10.256 -16.816  1.00  0.00    -0.273 OA
HETATM    9  N3  UNL     1       0.746  -9.104 -17.934  1.00  0.00    -0.343 N 
ATOM     10  H3  UNL     1       1.040  -8.232 -18.374  1.00  0.00     0.163 HD
BRANCH   9  11
HETATM   11  C20 UNL     1       1.656 -10.237 -17.872  1.00  0.00     0.116 C 
HETATM   12  C23 UNL     1       3.060  -9.789 -18.264  1.00  0.00     0.041 C 
HETATM   13  C24 UNL     1       3.598  -8.771 -17.280  1.00  0.00     0.003 C 
HETATM   14  C25 UNL     1       3.245  -9.125 -15.857  1.00  0.00     0.000 C 
HETATM   15  C26 UNL     1       2.919 -10.599 -15.743  1.00  0.00     0.003 C 
HETATM   16  C27 UNL     1       1.621 -10.828 -16.503  1.00  0.00     0.041 C 
BRANCH  11  17
HETATM   17  C21 UNL     1       1.205 -11.242 -18.855  1.00  0.00     0.271 C 
HETATM   18  O4  UNL     1       1.068 -12.472 -18.529  1.00  0.00    -0.268 OA
HETATM   19  N4  UNL     1       0.893 -10.949 -20.206  1.00  0.00    -0.231 N 
HETATM   20  C22 UNL     1       0.443 -11.949 -21.151  1.00  0.00     0.188 C 
BRANCH  19  21
HETATM   21  O5  UNL     1       1.017  -9.691 -20.664  1.00  0.00    -0.285 OA
ATOM     22  H5  UNL     1       1.429  -9.532 -21.507  1.00  0.00     0.245 HD
ENDBRANCH  19  21
ENDBRANCH  11  17
ENDBRANCH   9  11
ENDBRANCH   5   7
BRANCH   3  23
HETATM   23  O1  UNL     1      -1.071  -4.422 -17.513  1.00  0.00    -0.298 OA
BRANCH  23  24
HETATM   24  C8  UNL     1       0.255  -4.019 -17.558  1.00  0.00     0.363 C 
HETATM   25  O2  UNL     1       0.712  -3.470 -16.540  1.00  0.00    -0.238 OA
HETATM   26  N1  UNL     1       1.067  -4.217 -18.707  1.00  0.00    -0.326 N 
HETATM   27  C9  UNL     1       0.381  -4.871 -19.798  1.00  0.00     0.130 C 
HETATM   28  C16 UNL     1       2.400  -3.741 -18.584  1.00  0.00     0.163 C 
HETATM   29  C10 UNL     1       0.252  -3.900 -20.955  1.00  0.00     0.050 C 
HETATM   30  C11 UNL     1       1.600  -3.835 -21.613  1.00  0.00     0.274 C 
HETATM   31  N2  UNL     1       2.556  -3.006 -20.950  1.00  0.00     0.094 N 
HETATM   32  C12 UNL     1       3.704  -2.916 -21.878  1.00  0.00     0.273 C 
HETATM   33  C15 UNL     1       3.194  -3.562 -19.808  1.00  0.00     0.241 C 
HETATM   34  C13 UNL     1       4.442  -4.244 -21.663  1.00  0.00     0.032 C 
HETATM   35  C14 UNL     1       3.866  -4.788 -20.362  1.00  0.00     0.039 C 
ENDBRANCH  23  24
ENDBRANCH   3  23
BRANCH   1  36
HETATM   36  C4  UNL     1      -4.318  -6.961 -15.258  1.00  0.00     0.005 C 
BRANCH  36  37
HETATM   37  C3  UNL     1      -5.752  -7.333 -15.436  1.00  0.00     0.000 C 
BRANCH  37  38
HETATM   38  C2  UNL     1      -6.674  -6.589 -14.510  1.00  0.00    -0.005 C 
HETATM   39  C1  UNL     1      -5.972  -5.648 -13.584  1.00  0.00     0.005 C 
ENDBRANCH  37  38
ENDBRANCH  36  37
ENDBRANCH   1  36
TORSDOF 9
ENDMDL
