MODEL 1
REMARK VINA RESULT: -6.798324907      0.000      0.000
REMARK  11 active torsions:
REMARK  status: ('A' for Active; 'I' for Inactive)
REMARK    1  A    between atoms: O1_2  and  C2_3 
REMARK    2  A    between atoms: C2_3  and  C3_4 
REMARK    3  A    between atoms: C3_4  and  N1_5 
REMARK    4  A    between atoms: C3_4  and  C24_33 
REMARK       I    between atoms: N1_5  and  C4_7 
REMARK    5  A    between atoms: C4_7  and  C5_9 
REMARK    6  A    between atoms: C7_11  and  C8_12 
REMARK       I    between atoms: C8_12  and  N2_14 
REMARK    7  A    between atoms: C11_17  and  C12_18 
REMARK       I    between atoms: N3_24  and  C18_25 
REMARK    8  A    between atoms: C18_25  and  O5_27 
REMARK    9  A    between atoms: O5_27  and  C19_28 
REMARK   10  A    between atoms: C24_33  and  O6_35 
REMARK   11  A    between atoms: C24_33  and  C26_37 
ROOT
HETATM    1  C5  UNL     1      -1.824  -5.736 -17.365  1.00  0.00     0.099 C 
HETATM    2  C6  UNL     1      -0.524  -6.410 -17.754  1.00  0.00     0.051 C 
HETATM    3  C7  UNL     1       0.526  -5.318 -17.710  1.00  0.00     0.182 C 
HETATM    4  N3  UNL     1       0.025  -4.356 -16.751  1.00  0.00    -0.314 N 
HETATM    5  C18 UNL     1       0.782  -3.309 -16.121  1.00  0.00     0.364 C 
HETATM    6  O4  UNL     1       2.004  -3.128 -16.356  1.00  0.00    -0.238 OA
HETATM    7  C23 UNL     1      -1.357  -4.609 -16.520  1.00  0.00     0.143 C 
ENDROOT
BRANCH   1   8
HETATM    8  C4  UNL     1      -2.709  -6.615 -16.571  1.00  0.00     0.227 C 
HETATM    9  N1  UNL     1      -3.916  -6.160 -15.975  1.00  0.00    -0.329 N 
ATOM     10  H1  UNL     1      -4.177  -5.183 -16.106  1.00  0.00     0.168 HD
HETATM   11  O2  UNL     1      -2.381  -7.816 -16.416  1.00  0.00    -0.273 OA
BRANCH   9  12
HETATM   12  C3  UNL     1      -4.780  -6.985 -15.208  1.00  0.00     0.047 C 
BRANCH  12  13
HETATM   13  C2  UNL     1      -4.989  -6.518 -13.771  1.00  0.00     0.222 C 
BRANCH  13  14
HETATM   14  O1  UNL     1      -4.783  -5.137 -13.750  1.00  0.00    -0.390 OA
HETATM   15  C1  UNL     1      -5.745  -4.565 -12.903  1.00  0.00     0.201 C 
ENDBRANCH  13  14
ENDBRANCH  12  13
BRANCH  12  16
HETATM   16  C24 UNL     1      -5.996  -7.523 -15.861  1.00  0.00     0.098 C 
HETATM   17  C25 UNL     1      -5.751  -8.995 -16.146  1.00  0.00     0.053 C 
BRANCH  16  18
HETATM   18  O6  UNL     1      -6.037  -6.919 -17.163  1.00  0.00    -0.384 OA
ATOM     19  H6  UNL     1      -5.134  -6.720 -17.383  1.00  0.00     0.211 HD
ENDBRANCH  16  18
BRANCH  16  20
HETATM   20  C26 UNL     1      -7.311  -7.370 -15.221  1.00  0.00     0.025 A 
HETATM   21  C27 UNL     1      -8.610  -7.342 -15.981  1.00  0.00     0.008 A 
HETATM   22  C28 UNL     1      -8.134  -6.153 -15.215  1.00  0.00     0.008 A 
ENDBRANCH  16  20
ENDBRANCH  12  16
ENDBRANCH   9  12
ENDBRANCH   1   8
BRANCH   3  23
HETATM   23  C8  UNL     1       0.610  -4.734 -19.072  1.00  0.00     0.242 C 
HETATM   24  O3  UNL     1      -0.452  -4.171 -19.506  1.00  0.00    -0.271 OA
HETATM   25  N2  UNL     1       1.758  -4.762 -19.888  1.00  0.00    -0.350 N 
HETATM   26  C9  UNL     1       1.699  -4.163 -21.207  1.00  0.00     0.126 C 
HETATM   27  C17 UNL     1       2.967  -5.379 -19.380  1.00  0.00     0.126 C 
HETATM   28  C10 UNL     1       2.872  -3.230 -21.437  1.00  0.00     0.025 C 
HETATM   29  C11 UNL     1       3.852  -3.286 -20.284  1.00  0.00    -0.004 C 
HETATM   30  C16 UNL     1       4.190  -4.717 -20.018  1.00  0.00     0.025 C 
BRANCH  29  31
HETATM   31  C12 UNL     1       5.061  -2.470 -20.682  1.00  0.00    -0.048 C 
HETATM   32  C13 UNL     1       4.706  -1.669 -21.909  1.00  0.00     0.015 C 
HETATM   33  C14 UNL     1       5.506  -1.520 -19.603  1.00  0.00     0.015 C 
HETATM   34  C15 UNL     1       6.225  -3.368 -21.065  1.00  0.00     0.015 C 
ENDBRANCH  29  31
ENDBRANCH   3  23
BRANCH   5  35
HETATM   35  O5  UNL     1       0.193  -2.439 -15.214  1.00  0.00    -0.294 OA
BRANCH  35  36
HETATM   36  C19 UNL     1       0.511  -2.388 -13.845  1.00  0.00     0.061 C 
HETATM   37  C20 UNL     1      -0.730  -1.888 -13.124  1.00  0.00     0.046 C 
HETATM   38  C21 UNL     1       1.636  -1.464 -13.517  1.00  0.00     0.046 C 
HETATM   39  C22 UNL     1       0.836  -3.755 -13.282  1.00  0.00     0.046 C 
ENDBRANCH  35  36
ENDBRANCH   5  35
TORSDOF 11
ENDMDL
MODEL 2
REMARK VINA RESULT: -6.719090161      5.891      8.076
REMARK  11 active torsions:
REMARK  status: ('A' for Active; 'I' for Inactive)
REMARK    1  A    between atoms: O1_2  and  C2_3 
REMARK    2  A    between atoms: C2_3  and  C3_4 
REMARK    3  A    between atoms: C3_4  and  N1_5 
REMARK    4  A    between atoms: C3_4  and  C24_33 
REMARK       I    between atoms: N1_5  and  C4_7 
REMARK    5  A    between atoms: C4_7  and  C5_9 
REMARK    6  A    between atoms: C7_11  and  C8_12 
REMARK       I    between atoms: C8_12  and  N2_14 
REMARK    7  A    between atoms: C11_17  and  C12_18 
REMARK       I    between atoms: N3_24  and  C18_25 
REMARK    8  A    between atoms: C18_25  and  O5_27 
REMARK    9  A    between atoms: O5_27  and  C19_28 
REMARK   10  A    between atoms: C24_33  and  O6_35 
REMARK   11  A    between atoms: C24_33  and  C26_37 
ROOT
HETATM    1  C5  UNL     1      -3.012  -0.214 -12.708  1.00  0.00     0.099 C 
HETATM    2  C6  UNL     1      -2.759   0.887 -13.717  1.00  0.00     0.051 C 
HETATM    3  C7  UNL     1      -1.295   1.248 -13.562  1.00  0.00     0.182 C 
HETATM    4  N3  UNL     1      -0.665   0.047 -13.058  1.00  0.00    -0.314 N 
HETATM    5  C18 UNL     1       0.745  -0.230 -13.040  1.00  0.00     0.364 C 
HETATM    6  O4  UNL     1       1.596   0.582 -13.484  1.00  0.00    -0.238 OA
HETATM    7  C23 UNL     1      -1.671  -0.836 -12.573  1.00  0.00     0.143 C 
ENDROOT
BRANCH   1   8
HETATM    8  C4  UNL     1      -3.978  -1.224 -13.192  1.00  0.00     0.227 C 
HETATM    9  N1  UNL     1      -4.900  -1.884 -12.335  1.00  0.00    -0.329 N 
ATOM     10  H1  UNL     1      -4.889  -1.645 -11.344  1.00  0.00     0.168 HD
HETATM   11  O2  UNL     1      -3.985  -1.511 -14.414  1.00  0.00    -0.273 OA
BRANCH   9  12
HETATM   12  C3  UNL     1      -5.835  -2.856 -12.777  1.00  0.00     0.047 C 
BRANCH  12  13
HETATM   13  C2  UNL     1      -5.377  -4.300 -12.598  1.00  0.00     0.222 C 
BRANCH  13  14
HETATM   14  O1  UNL     1      -4.973  -4.766 -13.851  1.00  0.00    -0.390 OA
HETATM   15  C1  UNL     1      -5.111  -6.162 -13.864  1.00  0.00     0.201 C 
ENDBRANCH  13  14
ENDBRANCH  12  13
BRANCH  12  16
HETATM   16  C24 UNL     1      -7.270  -2.628 -12.494  1.00  0.00     0.098 C 
HETATM   17  C25 UNL     1      -7.736  -1.481 -13.374  1.00  0.00     0.053 C 
BRANCH  16  18
HETATM   18  O6  UNL     1      -7.321  -2.087 -11.164  1.00  0.00    -0.384 OA
ATOM     19  H6  UNL     1      -6.907  -2.736 -10.607  1.00  0.00     0.211 HD
ENDBRANCH  16  18
BRANCH  16  20
HETATM   20  C26 UNL     1      -8.232  -3.735 -12.598  1.00  0.00     0.025 A 
HETATM   21  C27 UNL     1      -8.708  -4.306 -13.907  1.00  0.00     0.008 A 
HETATM   22  C28 UNL     1      -9.647  -3.619 -12.972  1.00  0.00     0.008 A 
ENDBRANCH  16  20
ENDBRANCH  12  16
ENDBRANCH   9  12
ENDBRANCH   1   8
BRANCH   3  23
HETATM   23  C8  UNL     1      -1.219   2.356 -12.578  1.00  0.00     0.242 C 
HETATM   24  O3  UNL     1      -1.284   2.018 -11.347  1.00  0.00    -0.271 OA
HETATM   25  N2  UNL     1      -1.084   3.719 -12.911  1.00  0.00    -0.350 N 
HETATM   26  C9  UNL     1      -1.034   4.702 -11.847  1.00  0.00     0.126 C 
HETATM   27  C17 UNL     1      -0.986   4.094 -14.308  1.00  0.00     0.126 C 
HETATM   28  C10 UNL     1       0.137   5.648 -12.031  1.00  0.00     0.025 C 
HETATM   29  C11 UNL     1       0.849   5.392 -13.343  1.00  0.00    -0.004 C 
HETATM   30  C16 UNL     1      -0.166   5.380 -14.439  1.00  0.00     0.025 C 
BRANCH  29  31
HETATM   31  C12 UNL     1       1.877   6.487 -13.517  1.00  0.00    -0.048 C 
HETATM   32  C13 UNL     1       2.159   7.090 -12.164  1.00  0.00     0.015 C 
HETATM   33  C14 UNL     1       3.172   5.987 -14.098  1.00  0.00     0.015 C 
HETATM   34  C15 UNL     1       1.339   7.607 -14.392  1.00  0.00     0.015 C 
ENDBRANCH  29  31
ENDBRANCH   3  23
BRANCH   5  35
HETATM   35  O5  UNL     1       1.239  -1.422 -12.525  1.00  0.00    -0.294 OA
BRANCH  35  36
HETATM   36  C19 UNL     1       1.733  -1.575 -11.217  1.00  0.00     0.061 C 
HETATM   37  C20 UNL     1       0.890  -2.651 -10.553  1.00  0.00     0.046 C 
HETATM   38  C21 UNL     1       1.640  -0.339 -10.385  1.00  0.00     0.046 C 
HETATM   39  C22 UNL     1       3.167  -2.056 -11.199  1.00  0.00     0.046 C 
ENDBRANCH  35  36
ENDBRANCH   5  35
TORSDOF 11
ENDMDL
MODEL 3
REMARK VINA RESULT: -6.479737966      5.694      8.003
REMARK  11 active torsions:
REMARK  status: ('A' for Active; 'I' for Inactive)
REMARK    1  A    between atoms: O1_2  and  C2_3 
REMARK    2  A    between atoms: C2_3  and  C3_4 
REMARK    3  A    between atoms: C3_4  and  N1_5 
REMARK    4  A    between atoms: C3_4  and  C24_33 
REMARK       I    between atoms: N1_5  and  C4_7 
REMARK    5  A    between atoms: C4_7  and  C5_9 
REMARK    6  A    between atoms: C7_11  and  C8_12 
REMARK       I    between atoms: C8_12  and  N2_14 
REMARK    7  A    between atoms: C11_17  and  C12_18 
REMARK       I    between atoms: N3_24  and  C18_25 
REMARK    8  A    between atoms: C18_25  and  O5_27 
REMARK    9  A    between atoms: O5_27  and  C19_28 
REMARK   10  A    between atoms: C24_33  and  O6_35 
REMARK   11  A    between atoms: C24_33  and  C26_37 
ROOT
HETATM    1  C5  UNL     1      -4.285  -1.511 -13.520  1.00  0.00     0.099 C 
HETATM    2  C6  UNL     1      -2.862  -1.399 -13.012  1.00  0.00     0.051 C 
HETATM    3  C7  UNL     1      -2.649   0.074 -12.728  1.00  0.00     0.182 C 
HETATM    4  N3  UNL     1      -3.969   0.594 -12.437  1.00  0.00    -0.314 N 
HETATM    5  C18 UNL     1      -4.269   1.850 -11.807  1.00  0.00     0.364 C 
HETATM    6  O4  UNL     1      -3.372   2.645 -11.431  1.00  0.00    -0.238 OA
HETATM    7  C23 UNL     1      -4.944  -0.347 -12.878  1.00  0.00     0.143 C 
ENDROOT
BRANCH   1   8
HETATM    8  C4  UNL     1      -4.952  -2.757 -13.084  1.00  0.00     0.227 C 
HETATM    9  N1  UNL     1      -5.327  -3.789 -13.987  1.00  0.00    -0.329 N 
ATOM     10  H1  UNL     1      -5.124  -3.656 -14.978  1.00  0.00     0.168 HD
HETATM   11  O2  UNL     1      -5.196  -2.913 -11.863  1.00  0.00    -0.273 OA
BRANCH   9  12
HETATM   12  C3  UNL     1      -5.968  -4.992 -13.592  1.00  0.00     0.047 C 
BRANCH  12  13
HETATM   13  C2  UNL     1      -7.492  -4.941 -13.638  1.00  0.00     0.222 C 
BRANCH  13  14
HETATM   14  O1  UNL     1      -7.918  -4.267 -12.491  1.00  0.00    -0.390 OA
HETATM   15  C1  UNL     1      -8.852  -3.293 -12.879  1.00  0.00     0.201 C 
ENDBRANCH  13  14
ENDBRANCH  12  13
BRANCH  12  16
HETATM   16  C24 UNL     1      -5.383  -6.276 -14.040  1.00  0.00     0.098 C 
HETATM   17  C25 UNL     1      -6.470  -7.334 -13.945  1.00  0.00     0.053 C 
BRANCH  16  18
HETATM   18  O6  UNL     1      -4.443  -6.651 -13.021  1.00  0.00    -0.384 OA
ATOM     19  H6  UNL     1      -3.590  -6.399 -13.354  1.00  0.00     0.211 HD
ENDBRANCH  16  18
BRANCH  16  20
HETATM   20  C26 UNL     1      -4.730  -6.375 -15.354  1.00  0.00     0.025 A 
HETATM   21  C27 UNL     1      -5.182  -7.313 -16.441  1.00  0.00     0.008 A 
HETATM   22  C28 UNL     1      -3.843  -7.458 -15.799  1.00  0.00     0.008 A 
ENDBRANCH  16  20
ENDBRANCH  12  16
ENDBRANCH   9  12
ENDBRANCH   1   8
BRANCH   3  23
HETATM   23  C8  UNL     1      -2.086   0.682 -13.959  1.00  0.00     0.242 C 
HETATM   24  O3  UNL     1      -2.625   0.321 -15.060  1.00  0.00    -0.271 OA
HETATM   25  N2  UNL     1      -1.023   1.606 -13.984  1.00  0.00    -0.350 N 
HETATM   26  C9  UNL     1      -0.560   2.113 -15.261  1.00  0.00     0.126 C 
HETATM   27  C17 UNL     1      -0.432   2.031 -12.730  1.00  0.00     0.126 C 
HETATM   28  C10 UNL     1      -0.456   3.626 -15.243  1.00  0.00     0.025 C 
HETATM   29  C11 UNL     1      -0.731   4.180 -13.861  1.00  0.00    -0.004 C 
HETATM   30  C16 UNL     1       0.126   3.449 -12.879  1.00  0.00     0.025 C 
BRANCH  29  31
HETATM   31  C12 UNL     1      -0.431   5.661 -13.902  1.00  0.00    -0.048 C 
HETATM   32  C13 UNL     1      -1.035   6.230 -15.161  1.00  0.00     0.015 C 
HETATM   33  C14 UNL     1      -0.995   6.405 -12.723  1.00  0.00     0.015 C 
HETATM   34  C15 UNL     1       1.066   5.913 -13.981  1.00  0.00     0.015 C 
ENDBRANCH  29  31
ENDBRANCH   3  23
BRANCH   5  35
HETATM   35  O5  UNL     1      -5.581   2.247 -11.581  1.00  0.00    -0.294 OA
BRANCH  35  36
HETATM   36  C19 UNL     1      -6.051   2.767 -10.361  1.00  0.00     0.061 C 
HETATM   37  C20 UNL     1      -7.327   2.014 -10.026  1.00  0.00     0.046 C 
HETATM   38  C21 UNL     1      -6.374   4.223 -10.406  1.00  0.00     0.046 C 
HETATM   39  C22 UNL     1      -5.079   2.528  -9.226  1.00  0.00     0.046 C 
ENDBRANCH  35  36
ENDBRANCH   5  35
TORSDOF 11
ENDMDL
MODEL 4
REMARK VINA RESULT: -6.478998119      5.750      7.526
REMARK  11 active torsions:
REMARK  status: ('A' for Active; 'I' for Inactive)
REMARK    1  A    between atoms: O1_2  and  C2_3 
REMARK    2  A    between atoms: C2_3  and  C3_4 
REMARK    3  A    between atoms: C3_4  and  N1_5 
REMARK    4  A    between atoms: C3_4  and  C24_33 
REMARK       I    between atoms: N1_5  and  C4_7 
REMARK    5  A    between atoms: C4_7  and  C5_9 
REMARK    6  A    between atoms: C7_11  and  C8_12 
REMARK       I    between atoms: C8_12  and  N2_14 
REMARK    7  A    between atoms: C11_17  and  C12_18 
REMARK       I    between atoms: N3_24  and  C18_25 
REMARK    8  A    between atoms: C18_25  and  O5_27 
REMARK    9  A    between atoms: O5_27  and  C19_28 
REMARK   10  A    between atoms: C24_33  and  O6_35 
REMARK   11  A    between atoms: C24_33  and  C26_37 
ROOT
HETATM    1  C5  UNL     1      -3.184  -0.171 -13.199  1.00  0.00     0.099 C 
HETATM    2  C6  UNL     1      -2.510   0.398 -14.431  1.00  0.00     0.051 C 
HETATM    3  C7  UNL     1      -1.132   0.833 -13.973  1.00  0.00     0.182 C 
HETATM    4  N3  UNL     1      -0.828  -0.019 -12.842  1.00  0.00    -0.314 N 
HETATM    5  C18 UNL     1       0.467  -0.222 -12.254  1.00  0.00     0.364 C 
HETATM    6  O4  UNL     1       1.501   0.345 -12.691  1.00  0.00    -0.238 OA
HETATM    7  C23 UNL     1      -2.029  -0.637 -12.393  1.00  0.00     0.143 C 
ENDROOT
BRANCH   1   8
HETATM    8  C4  UNL     1      -4.065  -1.318 -13.508  1.00  0.00     0.227 C 
HETATM    9  N1  UNL     1      -5.045  -1.805 -12.601  1.00  0.00    -0.329 N 
ATOM     10  H1  UNL     1      -5.137  -1.338 -11.699  1.00  0.00     0.168 HD
HETATM   11  O2  UNL     1      -3.946  -1.885 -14.621  1.00  0.00    -0.273 OA
BRANCH   9  12
HETATM   12  C3  UNL     1      -5.901  -2.904 -12.875  1.00  0.00     0.047 C 
BRANCH  12  13
HETATM   13  C2  UNL     1      -5.305  -4.267 -12.541  1.00  0.00     0.222 C 
BRANCH  13  14
HETATM   14  O1  UNL     1      -4.922  -4.858 -13.747  1.00  0.00    -0.390 OA
HETATM   15  C1  UNL     1      -5.128  -6.243 -13.641  1.00  0.00     0.201 C 
ENDBRANCH  13  14
ENDBRANCH  12  13
BRANCH  12  16
HETATM   16  C24 UNL     1      -7.340  -2.767 -12.553  1.00  0.00     0.098 C 
HETATM   17  C25 UNL     1      -7.900  -1.651 -13.418  1.00  0.00     0.053 C 
BRANCH  16  18
HETATM   18  O6  UNL     1      -7.391  -2.233 -11.221  1.00  0.00    -0.384 OA
ATOM     19  H6  UNL     1      -8.312  -2.101 -11.032  1.00  0.00     0.211 HD
ENDBRANCH  16  18
BRANCH  16  20
HETATM   20  C26 UNL     1      -8.232  -3.934 -12.635  1.00  0.00     0.025 A 
HETATM   21  C27 UNL     1      -8.601  -4.611 -13.928  1.00  0.00     0.008 A 
HETATM   22  C28 UNL     1      -9.628  -3.925 -13.090  1.00  0.00     0.008 A 
ENDBRANCH  16  20
ENDBRANCH  12  16
ENDBRANCH   9  12
ENDBRANCH   1   8
BRANCH   3  23
HETATM   23  C8  UNL     1      -1.233   2.257 -13.568  1.00  0.00     0.242 C 
HETATM   24  O3  UNL     1      -2.201   2.551 -12.788  1.00  0.00    -0.271 OA
HETATM   25  N2  UNL     1      -0.349   3.273 -13.982  1.00  0.00    -0.350 N 
HETATM   26  C9  UNL     1      -0.570   4.630 -13.520  1.00  0.00     0.126 C 
HETATM   27  C17 UNL     1       0.762   2.929 -14.846  1.00  0.00     0.126 C 
HETATM   28  C10 UNL     1       0.704   5.232 -12.962  1.00  0.00     0.025 C 
HETATM   29  C11 UNL     1       1.885   4.306 -13.164  1.00  0.00    -0.004 C 
HETATM   30  C16 UNL     1       1.924   3.895 -14.601  1.00  0.00     0.025 C 
BRANCH  29  31
HETATM   31  C12 UNL     1       3.125   5.060 -12.744  1.00  0.00    -0.048 C 
HETATM   32  C13 UNL     1       2.994   5.406 -11.282  1.00  0.00     0.015 C 
HETATM   33  C14 UNL     1       4.387   4.264 -12.935  1.00  0.00     0.015 C 
HETATM   34  C15 UNL     1       3.247   6.375 -13.496  1.00  0.00     0.015 C 
ENDBRANCH  29  31
ENDBRANCH   3  23
BRANCH   5  35
HETATM   35  O5  UNL     1       0.640  -1.065 -11.164  1.00  0.00    -0.294 OA
BRANCH  35  36
HETATM   36  C19 UNL     1       1.266  -2.323 -11.228  1.00  0.00     0.061 C 
HETATM   37  C20 UNL     1       0.811  -3.102 -10.005  1.00  0.00     0.046 C 
HETATM   38  C21 UNL     1       2.757  -2.261 -11.205  1.00  0.00     0.046 C 
HETATM   39  C22 UNL     1       0.840  -3.113 -12.445  1.00  0.00     0.046 C 
ENDBRANCH  35  36
ENDBRANCH   5  35
TORSDOF 11
ENDMDL
MODEL 5
REMARK VINA RESULT: -6.394119829      3.113      3.950
REMARK  11 active torsions:
REMARK  status: ('A' for Active; 'I' for Inactive)
REMARK    1  A    between atoms: O1_2  and  C2_3 
REMARK    2  A    between atoms: C2_3  and  C3_4 
REMARK    3  A    between atoms: C3_4  and  N1_5 
REMARK    4  A    between atoms: C3_4  and  C24_33 
REMARK       I    between atoms: N1_5  and  C4_7 
REMARK    5  A    between atoms: C4_7  and  C5_9 
REMARK    6  A    between atoms: C7_11  and  C8_12 
REMARK       I    between atoms: C8_12  and  N2_14 
REMARK    7  A    between atoms: C11_17  and  C12_18 
REMARK       I    between atoms: N3_24  and  C18_25 
REMARK    8  A    between atoms: C18_25  and  O5_27 
REMARK    9  A    between atoms: O5_27  and  C19_28 
REMARK   10  A    between atoms: C24_33  and  O6_35 
REMARK   11  A    between atoms: C24_33  and  C26_37 
ROOT
HETATM    1  C5  UNL     1      -1.492  -7.318 -17.285  1.00  0.00     0.099 C 
HETATM    2  C6  UNL     1      -1.135  -8.148 -18.501  1.00  0.00     0.051 C 
HETATM    3  C7  UNL     1       0.380  -8.182 -18.535  1.00  0.00     0.182 C 
HETATM    4  N3  UNL     1       0.789  -8.009 -17.157  1.00  0.00    -0.314 N 
HETATM    5  C18 UNL     1       2.093  -8.279 -16.616  1.00  0.00     0.364 C 
HETATM    6  O4  UNL     1       3.038  -8.712 -17.323  1.00  0.00    -0.238 OA
HETATM    7  C23 UNL     1      -0.317  -7.523 -16.404  1.00  0.00     0.143 C 
ENDROOT
BRANCH   1   8
HETATM    8  C4  UNL     1      -2.712  -7.801 -16.601  1.00  0.00     0.227 C 
HETATM    9  N1  UNL     1      -3.641  -6.928 -15.973  1.00  0.00    -0.329 N 
ATOM     10  H1  UNL     1      -3.452  -5.927 -15.998  1.00  0.00     0.168 HD
HETATM   11  O2  UNL     1      -2.938  -9.035 -16.576  1.00  0.00    -0.273 OA
BRANCH   9  12
HETATM   12  C3  UNL     1      -4.817  -7.369 -15.310  1.00  0.00     0.047 C 
BRANCH  12  13
HETATM   13  C2  UNL     1      -5.069  -6.704 -13.961  1.00  0.00     0.222 C 
BRANCH  13  14
HETATM   14  O1  UNL     1      -4.715  -5.359 -14.089  1.00  0.00    -0.390 OA
HETATM   15  C1  UNL     1      -5.429  -4.626 -13.128  1.00  0.00     0.201 C 
ENDBRANCH  13  14
ENDBRANCH  12  13
BRANCH  12  16
HETATM   16  C24 UNL     1      -6.036  -7.591 -16.121  1.00  0.00     0.098 C 
HETATM   17  C25 UNL     1      -6.416  -9.055 -15.988  1.00  0.00     0.053 C 
BRANCH  16  18
HETATM   18  O6  UNL     1      -5.620  -7.464 -17.490  1.00  0.00    -0.384 OA
ATOM     19  H6  UNL     1      -5.873  -6.587 -17.755  1.00  0.00     0.211 HD
ENDBRANCH  16  18
BRANCH  16  20
HETATM   20  C26 UNL     1      -7.231  -6.762 -15.906  1.00  0.00     0.025 A 
HETATM   21  C27 UNL     1      -8.124  -6.884 -14.700  1.00  0.00     0.008 A 
HETATM   22  C28 UNL     1      -8.625  -7.194 -16.071  1.00  0.00     0.008 A 
ENDBRANCH  16  20
ENDBRANCH  12  16
ENDBRANCH   9  12
ENDBRANCH   1   8
BRANCH   3  23
HETATM   23  C8  UNL     1       0.826  -7.047 -19.380  1.00  0.00     0.242 C 
HETATM   24  O3  UNL     1       1.230  -6.008 -18.756  1.00  0.00    -0.271 OA
HETATM   25  N2  UNL     1       0.829  -7.048 -20.789  1.00  0.00    -0.350 N 
HETATM   26  C9  UNL     1       1.279  -5.863 -21.493  1.00  0.00     0.126 C 
HETATM   27  C17 UNL     1       0.393  -8.238 -21.492  1.00  0.00     0.126 C 
HETATM   28  C10 UNL     1       2.297  -6.216 -22.561  1.00  0.00     0.025 C 
HETATM   29  C11 UNL     1       2.460  -7.716 -22.691  1.00  0.00    -0.004 C 
HETATM   30  C16 UNL     1       1.105  -8.328 -22.844  1.00  0.00     0.025 C 
BRANCH  29  31
HETATM   31  C12 UNL     1       3.348  -7.969 -23.888  1.00  0.00    -0.048 C 
HETATM   32  C13 UNL     1       4.216  -9.165 -23.587  1.00  0.00     0.015 C 
HETATM   33  C14 UNL     1       2.570  -8.247 -25.145  1.00  0.00     0.015 C 
HETATM   34  C15 UNL     1       4.285  -6.797 -24.131  1.00  0.00     0.015 C 
ENDBRANCH  29  31
ENDBRANCH   3  23
BRANCH   5  35
HETATM   35  O5  UNL     1       2.373  -8.071 -15.272  1.00  0.00    -0.294 OA
BRANCH  35  36
HETATM   36  C19 UNL     1       3.014  -6.927 -14.765  1.00  0.00     0.061 C 
HETATM   37  C20 UNL     1       2.217  -6.480 -13.550  1.00  0.00     0.046 C 
HETATM   38  C21 UNL     1       3.066  -5.785 -15.725  1.00  0.00     0.046 C 
HETATM   39  C22 UNL     1       4.421  -7.220 -14.294  1.00  0.00     0.046 C 
ENDBRANCH  35  36
ENDBRANCH   5  35
TORSDOF 11
ENDMDL
