MODEL 1
REMARK VINA RESULT: -6.805989948      0.000      0.000
REMARK  18 active torsions:
REMARK  status: ('A' for Active; 'I' for Inactive)
REMARK    1  A    between atoms: C2_2  and  O1_3 
REMARK    2  A    between atoms: O1_3  and  C3_4 
REMARK    3  A    between atoms: C3_4  and  C4_6 
REMARK    4  A    between atoms: C4_6  and  N1_7 
REMARK    5  A    between atoms: N1_7  and  N2_8 
REMARK    6  A    between atoms: N1_7  and  N6_27 
REMARK    7  A    between atoms: N2_8  and  C5_10 
REMARK    8  A    between atoms: C6_13  and  N4_14 
REMARK    9  A    between atoms: C8_21  and  C9_22 
REMARK   10  A    between atoms: C9_22  and  O4_23 
REMARK   11  A    between atoms: C9_22  and  O5_25 
REMARK   12  A    between atoms: C10_28  and  O6_29 
REMARK   13  A    between atoms: O6_29  and  C11_30 
REMARK   14  A    between atoms: C15_37  and  O10_38 
REMARK   15  A    between atoms: C17_42  and  O12_43 
REMARK   16  A    between atoms: C18_45  and  C19_46 
REMARK   17  A    between atoms: C19_46  and  O13_47 
REMARK   18  A    between atoms: C19_46  and  O14_49 
ROOT
HETATM    1  N1  UNL     1      14.448  22.323  13.918  1.00  0.00    -0.214 N 
ENDROOT
BRANCH   1   2
HETATM    2  C4  UNL     1      13.825  22.428  12.644  1.00  0.00     0.281 C 
BRANCH   2   3
HETATM    3  C3  UNL     1      14.165  21.512  11.572  1.00  0.00     0.280 C 
HETATM    4  O2  UNL     1      13.457  21.206  10.589  1.00  0.00    -0.263 OA
BRANCH   3   5
HETATM    5  O1  UNL     1      15.426  20.840  11.567  1.00  0.00    -0.320 OA
BRANCH   5   6
HETATM    6  C2  UNL     1      15.810  19.945  10.586  1.00  0.00     0.174 C 
HETATM    7  C1  UNL     1      17.215  19.454  10.620  1.00  0.00     0.034 C 
ENDBRANCH   5   6
ENDBRANCH   3   5
ENDBRANCH   2   3
ENDBRANCH   1   2
BRANCH   1   8
HETATM    8  N2  UNL     1      15.781  22.343  14.220  1.00  0.00    -0.267 N 
ATOM      9  H2  UNL     1      16.381  22.075  13.440  1.00  0.00     0.190 HD
BRANCH   8  10
HETATM   10  C5  UNL     1      16.485  22.659  15.391  1.00  0.00     0.153 A 
HETATM   11  N3  UNL     1      16.666  21.750  16.350  1.00  0.00    -0.175 N 
HETATM   12  C6  UNL     1      17.373  22.012  17.481  1.00  0.00     0.680 A 
ATOM     13  H3  UNL     1      16.258  20.823  16.229  1.00  0.00     0.186 HD
HETATM   14  N5  UNL     1      17.922  23.233  17.661  1.00  0.00    -0.156 N 
HETATM   15  C7  UNL     1      17.769  24.177  16.730  1.00  0.00     0.274 A 
ATOM     16  H5  UNL     1      18.453  23.434  18.508  1.00  0.00     0.187 HD
HETATM   17  O3  UNL     1      18.273  25.302  16.890  1.00  0.00    -0.267 OA
HETATM   18  C8  UNL     1      17.051  23.895  15.590  1.00  0.00     0.110 A 
BRANCH  12  19
HETATM   19  N4  UNL     1      17.493  21.127  18.307  1.00  0.00    -0.234 N 
ATOM     20  H42 UNL     1      17.267  20.157  18.092  1.00  0.00     0.174 HD
ATOM     21  H41 UNL     1      17.829  21.374  19.238  1.00  0.00     0.174 HD
ENDBRANCH  12  19
BRANCH  18  22
HETATM   22  C9  UNL     1      16.919  24.955  14.575  1.00  0.00     0.297 C 
BRANCH  22  23
HETATM   23  O4  UNL     1      18.220  25.324  14.196  1.00  0.00    -0.367 OA
ATOM     24  H4  UNL     1      18.337  26.231  14.453  1.00  0.00     0.213 HD
ENDBRANCH  22  23
BRANCH  22  25
HETATM   25  O5  UNL     1      16.398  26.089  15.227  1.00  0.00    -0.367 OA
ATOM     26  H5  UNL     1      15.800  26.509  14.620  1.00  0.00     0.213 HD
ENDBRANCH  22  25
ENDBRANCH  18  22
ENDBRANCH   8  10
ENDBRANCH   1   8
BRANCH   1  27
HETATM   27  N6  UNL     1      13.507  22.151  14.996  1.00  0.00    -0.211 N 
HETATM   28  C10 UNL     1      13.272  20.850  15.422  1.00  0.00     0.207 A 
HETATM   29  C15 UNL     1      12.349  20.638  16.426  1.00  0.00     0.172 A 
HETATM   30  C16 UNL     1      11.713  21.777  16.944  1.00  0.00     0.244 A 
HETATM   31  O11 UNL     1      10.857  21.597  17.873  1.00  0.00    -0.282 OA
HETATM   32  C17 UNL     1      11.966  23.042  16.505  1.00  0.00     0.149 A 
HETATM   33  C18 UNL     1      12.910  23.209  15.485  1.00  0.00     0.130 A 
BRANCH  28  34
HETATM   34  O6  UNL     1      13.949  19.884  14.845  1.00  0.00    -0.284 OA
BRANCH  34  35
HETATM   35  C11 UNL     1      14.882  18.995  14.729  1.00  0.00     0.268 C 
HETATM   36  C12 UNL     1      14.971  18.009  13.592  1.00  0.00     0.141 C 
HETATM   37  C13 UNL     1      16.386  18.053  14.041  1.00  0.00     0.279 C 
HETATM   38  O7  UNL     1      16.384  17.485  15.361  1.00  0.00    -0.285 OA
HETATM   39  O9  UNL     1      16.198  19.398  14.341  1.00  0.00    -0.315 OA
HETATM   40  C14 UNL     1      15.291  18.146  15.914  1.00  0.00     0.325 C 
HETATM   41  O8  UNL     1      14.775  18.080  17.053  1.00  0.00    -0.259 OA
ENDBRANCH  34  35
ENDBRANCH  28  34
BRANCH  29  42
HETATM   42  O10 UNL     1      12.012  19.411  16.950  1.00  0.00    -0.354 OA
ATOM     43  H10 UNL     1      11.498  19.273  17.737  1.00  0.00     0.218 HD
ENDBRANCH  29  42
BRANCH  32  44
HETATM   44  O12 UNL     1      11.332  24.162  17.026  1.00  0.00    -0.355 OA
ATOM     45  H12 UNL     1      11.717  24.705  17.705  1.00  0.00     0.218 HD
ENDBRANCH  32  44
BRANCH  33  46
HETATM   46  C19 UNL     1      13.169  24.595  15.059  1.00  0.00     0.310 C 
BRANCH  46  47
HETATM   47  O13 UNL     1      11.943  25.199  14.691  1.00  0.00    -0.366 OA
ATOM     48  H13 UNL     1      12.105  26.104  14.449  1.00  0.00     0.213 HD
ENDBRANCH  46  47
BRANCH  46  49
HETATM   49  O14 UNL     1      13.622  25.324  16.199  1.00  0.00    -0.366 OA
ATOM     50  H14 UNL     1      14.138  24.733  16.734  1.00  0.00     0.213 HD
ENDBRANCH  46  49
ENDBRANCH  33  46
ENDBRANCH   1  27
TORSDOF 18
ENDMDL
MODEL 2
REMARK VINA RESULT: -6.792718301      1.624      2.968
REMARK  18 active torsions:
REMARK  status: ('A' for Active; 'I' for Inactive)
REMARK    1  A    between atoms: C2_2  and  O1_3 
REMARK    2  A    between atoms: O1_3  and  C3_4 
REMARK    3  A    between atoms: C3_4  and  C4_6 
REMARK    4  A    between atoms: C4_6  and  N1_7 
REMARK    5  A    between atoms: N1_7  and  N2_8 
REMARK    6  A    between atoms: N1_7  and  N6_27 
REMARK    7  A    between atoms: N2_8  and  C5_10 
REMARK    8  A    between atoms: C6_13  and  N4_14 
REMARK    9  A    between atoms: C8_21  and  C9_22 
REMARK   10  A    between atoms: C9_22  and  O4_23 
REMARK   11  A    between atoms: C9_22  and  O5_25 
REMARK   12  A    between atoms: C10_28  and  O6_29 
REMARK   13  A    between atoms: O6_29  and  C11_30 
REMARK   14  A    between atoms: C15_37  and  O10_38 
REMARK   15  A    between atoms: C17_42  and  O12_43 
REMARK   16  A    between atoms: C18_45  and  C19_46 
REMARK   17  A    between atoms: C19_46  and  O13_47 
REMARK   18  A    between atoms: C19_46  and  O14_49 
ROOT
HETATM    1  N1  UNL     1      14.385  22.722  14.310  1.00  0.00    -0.214 N 
ENDROOT
BRANCH   1   2
HETATM    2  C4  UNL     1      13.520  23.481  13.474  1.00  0.00     0.281 C 
BRANCH   2   3
HETATM    3  C3  UNL     1      14.041  24.221  12.341  1.00  0.00     0.280 C 
HETATM    4  O2  UNL     1      13.692  24.112  11.146  1.00  0.00    -0.263 OA
BRANCH   3   5
HETATM    5  O1  UNL     1      15.072  25.193  12.523  1.00  0.00    -0.320 OA
BRANCH   5   6
HETATM    6  C2  UNL     1      15.066  26.436  11.916  1.00  0.00     0.174 C 
HETATM    7  C1  UNL     1      16.371  26.972  11.442  1.00  0.00     0.034 C 
ENDBRANCH   5   6
ENDBRANCH   3   5
ENDBRANCH   2   3
ENDBRANCH   1   2
BRANCH   1   8
HETATM    8  N2  UNL     1      15.724  22.890  14.528  1.00  0.00    -0.267 N 
ATOM      9  H2  UNL     1      16.258  23.063  13.677  1.00  0.00     0.190 HD
BRANCH   8  10
HETATM   10  C5  UNL     1      16.507  22.871  15.692  1.00  0.00     0.153 A 
HETATM   11  N3  UNL     1      16.596  21.773  16.441  1.00  0.00    -0.175 N 
HETATM   12  C6  UNL     1      17.373  21.709  17.555  1.00  0.00     0.680 A 
ATOM     13  H3  UNL     1      16.061  20.948  16.168  1.00  0.00     0.186 HD
HETATM   14  N5  UNL     1      18.090  22.790  17.935  1.00  0.00    -0.156 N 
HETATM   15  C7  UNL     1      18.034  23.913  17.218  1.00  0.00     0.274 A 
ATOM     16  H5  UNL     1      18.674  22.747  18.770  1.00  0.00     0.187 HD
HETATM   17  O3  UNL     1      18.692  24.911  17.563  1.00  0.00    -0.267 OA
HETATM   18  C8  UNL     1      17.243  23.960  16.093  1.00  0.00     0.110 A 
BRANCH  12  19
HETATM   19  N4  UNL     1      17.402  20.668  18.183  1.00  0.00    -0.234 N 
ATOM     20  H42 UNL     1      17.462  19.762  17.719  1.00  0.00     0.174 HD
ATOM     21  H41 UNL     1      17.362  20.713  19.201  1.00  0.00     0.174 HD
ENDBRANCH  12  19
BRANCH  18  22
HETATM   22  C9  UNL     1      17.220  25.211  15.314  1.00  0.00     0.297 C 
BRANCH  22  23
HETATM   23  O4  UNL     1      15.877  25.606  15.210  1.00  0.00    -0.367 OA
ATOM     24  H4  UNL     1      15.871  26.471  14.818  1.00  0.00     0.213 HD
ENDBRANCH  22  23
BRANCH  22  25
HETATM   25  O5  UNL     1      17.603  24.886  13.998  1.00  0.00    -0.367 OA
ATOM     26  H5  UNL     1      17.882  25.692  13.581  1.00  0.00     0.213 HD
ENDBRANCH  22  25
ENDBRANCH  18  22
ENDBRANCH   8  10
ENDBRANCH   1   8
BRANCH   1  27
HETATM   27  N6  UNL     1      13.718  21.630  14.974  1.00  0.00    -0.211 N 
HETATM   28  C10 UNL     1      13.897  20.364  14.433  1.00  0.00     0.207 A 
HETATM   29  C15 UNL     1      13.245  19.297  15.015  1.00  0.00     0.172 A 
HETATM   30  C16 UNL     1      12.438  19.585  16.126  1.00  0.00     0.244 A 
HETATM   31  O11 UNL     1      11.828  18.608  16.676  1.00  0.00    -0.282 OA
HETATM   32  C17 UNL     1      12.283  20.840  16.635  1.00  0.00     0.149 A 
HETATM   33  C18 UNL     1      12.964  21.892  16.012  1.00  0.00     0.130 A 
BRANCH  28  34
HETATM   34  O6  UNL     1      14.688  20.249  13.391  1.00  0.00    -0.284 OA
BRANCH  34  35
HETATM   35  C11 UNL     1      15.006  19.968  12.169  1.00  0.00     0.268 C 
HETATM   36  C12 UNL     1      14.442  20.682  10.966  1.00  0.00     0.141 C 
HETATM   37  C13 UNL     1      15.715  20.153  10.412  1.00  0.00     0.279 C 
HETATM   38  O7  UNL     1      15.567  18.725  10.415  1.00  0.00    -0.285 OA
HETATM   39  O9  UNL     1      16.286  20.355  11.664  1.00  0.00    -0.315 OA
HETATM   40  C14 UNL     1      15.045  18.532  11.691  1.00  0.00     0.325 C 
HETATM   41  O8  UNL     1      14.701  17.490  12.295  1.00  0.00    -0.259 OA
ENDBRANCH  34  35
ENDBRANCH  28  34
BRANCH  29  42
HETATM   42  O10 UNL     1      13.325  17.989  14.592  1.00  0.00    -0.354 OA
ATOM     43  H10 UNL     1      12.945  17.243  15.041  1.00  0.00     0.218 HD
ENDBRANCH  29  42
BRANCH  32  44
HETATM   44  O12 UNL     1      11.483  21.113  17.737  1.00  0.00    -0.355 OA
ATOM     45  H12 UNL     1      11.620  21.867  18.300  1.00  0.00     0.218 HD
ENDBRANCH  32  44
BRANCH  33  46
HETATM   46  C19 UNL     1      12.785  23.226  16.609  1.00  0.00     0.310 C 
BRANCH  46  47
HETATM   47  O13 UNL     1      11.403  23.529  16.653  1.00  0.00    -0.366 OA
ATOM     48  H13 UNL     1      11.204  23.942  17.485  1.00  0.00     0.213 HD
ENDBRANCH  46  47
BRANCH  46  49
HETATM   49  O14 UNL     1      13.199  23.153  17.973  1.00  0.00    -0.366 OA
ATOM     50  H14 UNL     1      12.465  23.423  18.513  1.00  0.00     0.213 HD
ENDBRANCH  46  49
ENDBRANCH  33  46
ENDBRANCH   1  27
TORSDOF 18
ENDMDL
MODEL 3
REMARK VINA RESULT: -6.682812953      1.605      2.802
REMARK  18 active torsions:
REMARK  status: ('A' for Active; 'I' for Inactive)
REMARK    1  A    between atoms: C2_2  and  O1_3 
REMARK    2  A    between atoms: O1_3  and  C3_4 
REMARK    3  A    between atoms: C3_4  and  C4_6 
REMARK    4  A    between atoms: C4_6  and  N1_7 
REMARK    5  A    between atoms: N1_7  and  N2_8 
REMARK    6  A    between atoms: N1_7  and  N6_27 
REMARK    7  A    between atoms: N2_8  and  C5_10 
REMARK    8  A    between atoms: C6_13  and  N4_14 
REMARK    9  A    between atoms: C8_21  and  C9_22 
REMARK   10  A    between atoms: C9_22  and  O4_23 
REMARK   11  A    between atoms: C9_22  and  O5_25 
REMARK   12  A    between atoms: C10_28  and  O6_29 
REMARK   13  A    between atoms: O6_29  and  C11_30 
REMARK   14  A    between atoms: C15_37  and  O10_38 
REMARK   15  A    between atoms: C17_42  and  O12_43 
REMARK   16  A    between atoms: C18_45  and  C19_46 
REMARK   17  A    between atoms: C19_46  and  O13_47 
REMARK   18  A    between atoms: C19_46  and  O14_49 
ROOT
HETATM    1  N1  UNL     1      14.525  22.460  14.170  1.00  0.00    -0.214 N 
ENDROOT
BRANCH   1   2
HETATM    2  C4  UNL     1      13.681  23.058  13.194  1.00  0.00     0.281 C 
BRANCH   2   3
HETATM    3  C3  UNL     1      14.145  24.174  12.393  1.00  0.00     0.280 C 
HETATM    4  O2  UNL     1      15.033  25.000  12.694  1.00  0.00    -0.263 OA
BRANCH   3   5
HETATM    5  O1  UNL     1      13.573  24.432  11.109  1.00  0.00    -0.320 OA
BRANCH   5   6
HETATM    6  C2  UNL     1      13.152  23.436  10.247  1.00  0.00     0.174 C 
HETATM    7  C1  UNL     1      11.690  23.327   9.989  1.00  0.00     0.034 C 
ENDBRANCH   5   6
ENDBRANCH   3   5
ENDBRANCH   2   3
ENDBRANCH   1   2
BRANCH   1   8
HETATM    8  N2  UNL     1      15.830  22.744  14.457  1.00  0.00    -0.267 N 
ATOM      9  H2  UNL     1      16.376  23.028  13.644  1.00  0.00     0.190 HD
BRANCH   8  10
HETATM   10  C5  UNL     1      16.567  22.722  15.651  1.00  0.00     0.153 A 
HETATM   11  N3  UNL     1      16.663  21.608  16.378  1.00  0.00    -0.175 N 
HETATM   12  C6  UNL     1      17.397  21.542  17.521  1.00  0.00     0.680 A 
ATOM     13  H3  UNL     1      16.167  20.774  16.064  1.00  0.00     0.186 HD
HETATM   14  N5  UNL     1      18.062  22.636  17.954  1.00  0.00    -0.156 N 
HETATM   15  C7  UNL     1      17.997  23.774  17.262  1.00  0.00     0.274 A 
ATOM     16  H5  UNL     1      18.613  22.591  18.811  1.00  0.00     0.187 HD
HETATM   17  O3  UNL     1      18.607  24.783  17.656  1.00  0.00    -0.267 OA
HETATM   18  C8  UNL     1      17.250  23.823  16.107  1.00  0.00     0.110 A 
BRANCH  12  19
HETATM   19  N4  UNL     1      17.435  20.487  18.124  1.00  0.00    -0.234 N 
ATOM     20  H42 UNL     1      16.606  19.906  18.244  1.00  0.00     0.174 HD
ATOM     21  H41 UNL     1      18.326  20.185  18.519  1.00  0.00     0.174 HD
ENDBRANCH  12  19
BRANCH  18  22
HETATM   22  C9  UNL     1      17.217  25.092  15.358  1.00  0.00     0.297 C 
BRANCH  22  23
HETATM   23  O4  UNL     1      15.867  25.462  15.237  1.00  0.00    -0.367 OA
ATOM     24  H4  UNL     1      15.843  26.256  14.716  1.00  0.00     0.213 HD
ENDBRANCH  22  23
BRANCH  22  25
HETATM   25  O5  UNL     1      17.631  24.805  14.042  1.00  0.00    -0.367 OA
ATOM     26  H5  UNL     1      17.065  25.296  13.458  1.00  0.00     0.213 HD
ENDBRANCH  22  25
ENDBRANCH  18  22
ENDBRANCH   8  10
ENDBRANCH   1   8
BRANCH   1  27
HETATM   27  N6  UNL     1      13.878  21.406  14.910  1.00  0.00    -0.211 N 
HETATM   28  C10 UNL     1      14.124  20.104  14.493  1.00  0.00     0.207 A 
HETATM   29  C15 UNL     1      13.492  19.068  15.151  1.00  0.00     0.172 A 
HETATM   30  C16 UNL     1      12.637  19.422  16.206  1.00  0.00     0.244 A 
HETATM   31  O11 UNL     1      12.046  18.475  16.823  1.00  0.00    -0.282 OA
HETATM   32  C17 UNL     1      12.417  20.711  16.592  1.00  0.00     0.149 A 
HETATM   33  C18 UNL     1      13.079  21.729  15.897  1.00  0.00     0.130 A 
BRANCH  28  34
HETATM   34  O6  UNL     1      14.954  19.928  13.492  1.00  0.00    -0.284 OA
BRANCH  34  35
HETATM   35  C11 UNL     1      15.311  19.606  12.290  1.00  0.00     0.268 C 
HETATM   36  C12 UNL     1      14.950  20.401  11.061  1.00  0.00     0.141 C 
HETATM   37  C13 UNL     1      16.164  19.687  10.590  1.00  0.00     0.279 C 
HETATM   38  O7  UNL     1      15.801  18.297  10.563  1.00  0.00    -0.285 OA
HETATM   39  O9  UNL     1      16.668  19.795  11.882  1.00  0.00    -0.315 OA
HETATM   40  C14 UNL     1      15.166  18.182  11.797  1.00  0.00     0.325 C 
HETATM   41  O8  UNL     1      14.626  17.203  12.360  1.00  0.00    -0.259 OA
ENDBRANCH  34  35
ENDBRANCH  28  34
BRANCH  29  42
HETATM   42  O10 UNL     1      13.637  17.732  14.853  1.00  0.00    -0.354 OA
ATOM     43  H10 UNL     1      13.935  17.064  15.458  1.00  0.00     0.218 HD
ENDBRANCH  29  42
BRANCH  32  44
HETATM   44  O12 UNL     1      11.570  21.050  17.639  1.00  0.00    -0.355 OA
ATOM     45  H12 UNL     1      11.276  21.940  17.798  1.00  0.00     0.218 HD
ENDBRANCH  32  44
BRANCH  33  46
HETATM   46  C19 UNL     1      12.829  23.104  16.362  1.00  0.00     0.310 C 
BRANCH  46  47
HETATM   47  O13 UNL     1      11.441  23.370  16.286  1.00  0.00    -0.366 OA
ATOM     48  H13 UNL     1      11.147  23.720  17.119  1.00  0.00     0.213 HD
ENDBRANCH  46  47
BRANCH  46  49
HETATM   49  O14 UNL     1      13.147  23.157  17.753  1.00  0.00    -0.366 OA
ATOM     50  H14 UNL     1      13.367  24.057  17.965  1.00  0.00     0.213 HD
ENDBRANCH  46  49
ENDBRANCH  33  46
ENDBRANCH   1  27
TORSDOF 18
ENDMDL
MODEL 4
REMARK VINA RESULT: -6.492858769      2.568      6.339
REMARK  18 active torsions:
REMARK  status: ('A' for Active; 'I' for Inactive)
REMARK    1  A    between atoms: C2_2  and  O1_3 
REMARK    2  A    between atoms: O1_3  and  C3_4 
REMARK    3  A    between atoms: C3_4  and  C4_6 
REMARK    4  A    between atoms: C4_6  and  N1_7 
REMARK    5  A    between atoms: N1_7  and  N2_8 
REMARK    6  A    between atoms: N1_7  and  N6_27 
REMARK    7  A    between atoms: N2_8  and  C5_10 
REMARK    8  A    between atoms: C6_13  and  N4_14 
REMARK    9  A    between atoms: C8_21  and  C9_22 
REMARK   10  A    between atoms: C9_22  and  O4_23 
REMARK   11  A    between atoms: C9_22  and  O5_25 
REMARK   12  A    between atoms: C10_28  and  O6_29 
REMARK   13  A    between atoms: O6_29  and  C11_30 
REMARK   14  A    between atoms: C15_37  and  O10_38 
REMARK   15  A    between atoms: C17_42  and  O12_43 
REMARK   16  A    between atoms: C18_45  and  C19_46 
REMARK   17  A    between atoms: C19_46  and  O13_47 
REMARK   18  A    between atoms: C19_46  and  O14_49 
ROOT
HETATM    1  N1  UNL     1      14.258  20.772  13.949  1.00  0.00    -0.214 N 
ENDROOT
BRANCH   1   2
HETATM    2  C4  UNL     1      13.213  20.607  14.899  1.00  0.00     0.281 C 
BRANCH   2   3
HETATM    3  C3  UNL     1      13.070  19.368  15.639  1.00  0.00     0.280 C 
HETATM    4  O2  UNL     1      13.967  18.539  15.900  1.00  0.00    -0.263 OA
BRANCH   3   5
HETATM    5  O1  UNL     1      11.797  18.976  16.156  1.00  0.00    -0.320 OA
BRANCH   5   6
HETATM    6  C2  UNL     1      10.594  19.447  15.661  1.00  0.00     0.174 C 
HETATM    7  C1  UNL     1       9.356  18.739  16.087  1.00  0.00     0.034 C 
ENDBRANCH   5   6
ENDBRANCH   3   5
ENDBRANCH   2   3
ENDBRANCH   1   2
BRANCH   1   8
HETATM    8  N2  UNL     1      15.128  19.836  13.467  1.00  0.00    -0.267 N 
ATOM      9  H2  UNL     1      15.728  19.427  14.183  1.00  0.00     0.190 HD
BRANCH   8  10
HETATM   10  C5  UNL     1      15.360  19.326  12.180  1.00  0.00     0.153 A 
HETATM   11  N3  UNL     1      15.592  20.140  11.151  1.00  0.00    -0.175 N 
HETATM   12  C6  UNL     1      15.854  19.678   9.899  1.00  0.00     0.680 A 
ATOM     13  H3  UNL     1      15.572  21.147  11.309  1.00  0.00     0.186 HD
HETATM   14  N5  UNL     1      15.885  18.348   9.668  1.00  0.00    -0.156 N 
HETATM   15  C7  UNL     1      15.659  17.492  10.666  1.00  0.00     0.274 A 
ATOM     16  H5  UNL     1      16.081  17.997   8.731  1.00  0.00     0.187 HD
HETATM   17  O3  UNL     1      15.687  16.266  10.459  1.00  0.00    -0.267 OA
HETATM   18  C8  UNL     1      15.396  17.975  11.927  1.00  0.00     0.110 A 
BRANCH  12  19
HETATM   19  N4  UNL     1      16.057  20.488   9.014  1.00  0.00    -0.234 N 
ATOM     20  H42 UNL     1      16.281  20.199   8.062  1.00  0.00     0.174 HD
ATOM     21  H41 UNL     1      16.002  21.480   9.241  1.00  0.00     0.174 HD
ENDBRANCH  12  19
BRANCH  18  22
HETATM   22  C9  UNL     1      15.170  17.001  13.009  1.00  0.00     0.297 C 
BRANCH  22  23
HETATM   23  O4  UNL     1      13.883  17.242  13.517  1.00  0.00    -0.367 OA
ATOM     24  H4  UNL     1      13.823  18.174  13.691  1.00  0.00     0.213 HD
ENDBRANCH  22  23
BRANCH  22  25
HETATM   25  O5  UNL     1      16.043  17.343  14.061  1.00  0.00    -0.367 OA
ATOM     26  H5  UNL     1      15.914  18.267  14.240  1.00  0.00     0.213 HD
ENDBRANCH  22  25
ENDBRANCH  18  22
ENDBRANCH   8  10
ENDBRANCH   1   8
BRANCH   1  27
HETATM   27  N6  UNL     1      14.389  22.129  13.481  1.00  0.00    -0.211 N 
HETATM   28  C10 UNL     1      15.395  22.896  14.054  1.00  0.00     0.207 A 
HETATM   29  C15 UNL     1      15.530  24.212  13.663  1.00  0.00     0.172 A 
HETATM   30  C16 UNL     1      14.622  24.676  12.699  1.00  0.00     0.244 A 
HETATM   31  O11 UNL     1      14.733  25.892  12.326  1.00  0.00    -0.282 OA
HETATM   32  C17 UNL     1      13.644  23.898  12.153  1.00  0.00     0.149 A 
HETATM   33  C18 UNL     1      13.546  22.569  12.581  1.00  0.00     0.130 A 
BRANCH  28  34
HETATM   34  O6  UNL     1      16.173  22.321  14.942  1.00  0.00    -0.284 OA
BRANCH  34  35
HETATM   35  C11 UNL     1      16.706  22.131  16.106  1.00  0.00     0.268 C 
HETATM   36  C12 UNL     1      17.862  22.935  16.646  1.00  0.00     0.141 C 
HETATM   37  C13 UNL     1      17.244  22.445  17.905  1.00  0.00     0.279 C 
HETATM   38  O7  UNL     1      17.428  21.020  17.890  1.00  0.00    -0.285 OA
HETATM   39  O9  UNL     1      16.006  22.551  17.280  1.00  0.00    -0.315 OA
HETATM   40  C14 UNL     1      17.044  20.735  16.582  1.00  0.00     0.325 C 
HETATM   41  O8  UNL     1      16.986  19.651  15.956  1.00  0.00    -0.259 OA
ENDBRANCH  34  35
ENDBRANCH  28  34
BRANCH  29  42
HETATM   42  O10 UNL     1      16.476  25.091  14.140  1.00  0.00    -0.354 OA
ATOM     43  H10 UNL     1      16.369  25.654  14.898  1.00  0.00     0.218 HD
ENDBRANCH  29  42
BRANCH  32  44
HETATM   44  O12 UNL     1      12.752  24.367  11.198  1.00  0.00    -0.355 OA
ATOM     45  H12 UNL     1      11.818  24.442  11.357  1.00  0.00     0.218 HD
ENDBRANCH  32  44
BRANCH  33  46
HETATM   46  C19 UNL     1      12.490  21.759  11.948  1.00  0.00     0.310 C 
BRANCH  46  47
HETATM   47  O13 UNL     1      11.252  22.429  12.086  1.00  0.00    -0.366 OA
ATOM     48  H13 UNL     1      11.375  23.351  11.890  1.00  0.00     0.213 HD
ENDBRANCH  46  47
BRANCH  46  49
HETATM   49  O14 UNL     1      12.748  21.728  10.545  1.00  0.00    -0.366 OA
ATOM     50  H14 UNL     1      13.432  21.087  10.390  1.00  0.00     0.213 HD
ENDBRANCH  46  49
ENDBRANCH  33  46
ENDBRANCH   1  27
TORSDOF 18
ENDMDL
MODEL 5
REMARK VINA RESULT: -6.487651444      1.773      6.349
REMARK  18 active torsions:
REMARK  status: ('A' for Active; 'I' for Inactive)
REMARK    1  A    between atoms: C2_2  and  O1_3 
REMARK    2  A    between atoms: O1_3  and  C3_4 
REMARK    3  A    between atoms: C3_4  and  C4_6 
REMARK    4  A    between atoms: C4_6  and  N1_7 
REMARK    5  A    between atoms: N1_7  and  N2_8 
REMARK    6  A    between atoms: N1_7  and  N6_27 
REMARK    7  A    between atoms: N2_8  and  C5_10 
REMARK    8  A    between atoms: C6_13  and  N4_14 
REMARK    9  A    between atoms: C8_21  and  C9_22 
REMARK   10  A    between atoms: C9_22  and  O4_23 
REMARK   11  A    between atoms: C9_22  and  O5_25 
REMARK   12  A    between atoms: C10_28  and  O6_29 
REMARK   13  A    between atoms: O6_29  and  C11_30 
REMARK   14  A    between atoms: C15_37  and  O10_38 
REMARK   15  A    between atoms: C17_42  and  O12_43 
REMARK   16  A    between atoms: C18_45  and  C19_46 
REMARK   17  A    between atoms: C19_46  and  O13_47 
REMARK   18  A    between atoms: C19_46  and  O14_49 
ROOT
HETATM    1  N1  UNL     1      15.603  21.509  15.323  1.00  0.00    -0.214 N 
ENDROOT
BRANCH   1   2
HETATM    2  C4  UNL     1      16.549  21.353  16.373  1.00  0.00     0.281 C 
BRANCH   2   3
HETATM    3  C3  UNL     1      17.146  22.508  17.015  1.00  0.00     0.280 C 
HETATM    4  O2  UNL     1      17.524  23.564  16.465  1.00  0.00    -0.263 OA
BRANCH   3   5
HETATM    5  O1  UNL     1      17.366  22.519  18.427  1.00  0.00    -0.320 OA
BRANCH   5   6
HETATM    6  C2  UNL     1      18.620  22.456  19.005  1.00  0.00     0.174 C 
HETATM    7  C1  UNL     1      18.987  21.197  19.708  1.00  0.00     0.034 C 
ENDBRANCH   5   6
ENDBRANCH   3   5
ENDBRANCH   2   3
ENDBRANCH   1   2
BRANCH   1   8
HETATM    8  N2  UNL     1      15.824  21.859  14.020  1.00  0.00    -0.267 N 
ATOM      9  H2  UNL     1      16.737  22.285  13.861  1.00  0.00     0.190 HD
BRANCH   8  10
HETATM   10  C5  UNL     1      15.043  21.746  12.860  1.00  0.00     0.153 A 
HETATM   11  N3  UNL     1      14.139  22.675  12.549  1.00  0.00    -0.175 N 
HETATM   12  C6  UNL     1      13.390  22.615  11.415  1.00  0.00     0.680 A 
ATOM     13  H3  UNL     1      14.004  23.460  13.186  1.00  0.00     0.186 HD
HETATM   14  N5  UNL     1      13.553  21.584  10.558  1.00  0.00    -0.156 N 
HETATM   15  C7  UNL     1      14.446  20.629  10.825  1.00  0.00     0.274 A 
ATOM     16  H5  UNL     1      12.994  21.535   9.707  1.00  0.00     0.187 HD
HETATM   17  O3  UNL     1      14.600  19.678  10.040  1.00  0.00    -0.267 OA
HETATM   18  C8  UNL     1      15.196  20.705  11.977  1.00  0.00     0.110 A 
BRANCH  12  19
HETATM   19  N4  UNL     1      12.588  23.505  11.204  1.00  0.00    -0.234 N 
ATOM     20  H42 UNL     1      12.746  24.459  11.526  1.00  0.00     0.174 HD
ATOM     21  H41 UNL     1      11.736  23.279  10.690  1.00  0.00     0.174 HD
ENDBRANCH  12  19
BRANCH  18  22
HETATM   22  C9  UNL     1      16.186  19.643  12.230  1.00  0.00     0.297 C 
BRANCH  22  23
HETATM   23  O4  UNL     1      17.067  19.634  11.137  1.00  0.00    -0.367 OA
ATOM     24  H4  UNL     1      17.820  19.113  11.391  1.00  0.00     0.213 HD
ENDBRANCH  22  23
BRANCH  22  25
HETATM   25  O5  UNL     1      15.502  18.414  12.152  1.00  0.00    -0.367 OA
ATOM     26  H5  UNL     1      16.139  17.729  12.319  1.00  0.00     0.213 HD
ENDBRANCH  22  25
ENDBRANCH  18  22
ENDBRANCH   8  10
ENDBRANCH   1   8
BRANCH   1  27
HETATM   27  N6  UNL     1      14.244  21.281  15.746  1.00  0.00    -0.211 N 
HETATM   28  C10 UNL     1      13.473  22.405  16.013  1.00  0.00     0.207 A 
HETATM   29  C15 UNL     1      12.179  22.230  16.459  1.00  0.00     0.172 A 
HETATM   30  C16 UNL     1      11.740  20.905  16.607  1.00  0.00     0.244 A 
HETATM   31  O11 UNL     1      10.545  20.727  17.018  1.00  0.00    -0.282 OA
HETATM   32  C17 UNL     1      12.521  19.821  16.335  1.00  0.00     0.149 A 
HETATM   33  C18 UNL     1      13.827  20.047  15.885  1.00  0.00     0.130 A 
BRANCH  28  34
HETATM   34  O6  UNL     1      14.021  23.583  15.823  1.00  0.00    -0.284 OA
BRANCH  34  35
HETATM   35  C11 UNL     1      14.191  24.733  15.255  1.00  0.00     0.268 C 
HETATM   36  C12 UNL     1      14.650  25.972  15.982  1.00  0.00     0.141 C 
HETATM   37  C13 UNL     1      15.053  26.294  14.589  1.00  0.00     0.279 C 
HETATM   38  O7  UNL     1      13.824  26.421  13.857  1.00  0.00    -0.285 OA
HETATM   39  O9  UNL     1      15.323  24.942  14.407  1.00  0.00    -0.315 OA
HETATM   40  C14 UNL     1      13.147  25.292  14.312  1.00  0.00     0.325 C 
HETATM   41  O8  UNL     1      12.010  24.843  14.038  1.00  0.00    -0.259 OA
ENDBRANCH  34  35
ENDBRANCH  28  34
BRANCH  29  42
HETATM   42  O10 UNL     1      11.298  23.243  16.763  1.00  0.00    -0.354 OA
ATOM     43  H10 UNL     1      10.708  23.660  16.148  1.00  0.00     0.218 HD
ENDBRANCH  29  42
BRANCH  32  44
HETATM   44  O12 UNL     1      12.076  18.514  16.483  1.00  0.00    -0.355 OA
ATOM     45  H12 UNL     1      12.663  17.784  16.639  1.00  0.00     0.218 HD
ENDBRANCH  32  44
BRANCH  33  46
HETATM   46  C19 UNL     1      14.627  18.848  15.582  1.00  0.00     0.310 C 
BRANCH  46  47
HETATM   47  O13 UNL     1      14.725  18.054  16.749  1.00  0.00    -0.366 OA
ATOM     48  H13 UNL     1      14.137  17.312  16.668  1.00  0.00     0.213 HD
ENDBRANCH  46  47
BRANCH  46  49
HETATM   49  O14 UNL     1      13.891  18.059  14.649  1.00  0.00    -0.366 OA
ATOM     50  H14 UNL     1      13.669  18.614  13.911  1.00  0.00     0.213 HD
ENDBRANCH  46  49
ENDBRANCH  33  46
ENDBRANCH   1  27
TORSDOF 18
ENDMDL
