MODEL 1
REMARK VINA RESULT: -8.658172462      0.000      0.000
REMARK  16 active torsions:
REMARK  status: ('A' for Active; 'I' for Inactive)
REMARK    1  A    between atoms: C2_2  and  C3_3 
REMARK    2  A    between atoms: C3_3  and  C4_4 
REMARK    3  A    between atoms: C4_4  and  N1_5 
REMARK    4  A    between atoms: N1_5  and  C5_7 
REMARK    5  A    between atoms: C8_12  and  N3_13 
REMARK    6  A    between atoms: N3_13  and  C9_15 
REMARK    7  A    between atoms: C9_15  and  C10_16 
REMARK    8  A    between atoms: C10_16  and  C11_17 
REMARK    9  A    between atoms: C11_17  and  N4_18 
REMARK   10  A    between atoms: N5_21  and  C14_22 
REMARK   11  A    between atoms: C17_25  and  N6_26 
REMARK   12  A    between atoms: C18_29  and  N7_30 
REMARK   13  A    between atoms: N7_30  and  C20_32 
REMARK   14  A    between atoms: C20_32  and  C21_33 
REMARK   15  A    between atoms: C21_33  and  C22_34 
REMARK   16  A    between atoms: C22_34  and  N8_35 
ROOT
HETATM    1  N4  UNL     1      13.656  21.809  14.885  1.00  0.00     0.091 N 
HETATM    2  C12 UNL     1      13.369  23.011  15.589  1.00  0.00     0.292 C 
HETATM    3  C13 UNL     1      14.285  23.181  16.759  1.00  0.00     0.153 C 
HETATM    4  N5  UNL     1      15.629  22.782  16.427  1.00  0.00    -0.377 N 
HETATM    5  C30 UNL     1      15.960  22.620  15.014  1.00  0.00     0.153 C 
HETATM    6  C31 UNL     1      14.980  21.685  14.356  1.00  0.00     0.292 C 
ENDROOT
BRANCH   4   7
HETATM    7  C14 UNL     1      16.658  22.545  17.372  1.00  0.00     0.038 A 
HETATM    8  C15 UNL     1      17.055  21.236  17.528  1.00  0.00     0.032 A 
HETATM    9  C16 UNL     1      18.034  20.970  18.433  1.00  0.00     0.041 A 
HETATM   10  C17 UNL     1      18.653  21.994  19.212  1.00  0.00     0.130 A 
HETATM   11  C18 UNL     1      18.264  23.281  19.065  1.00  0.00     0.071 A 
HETATM   12  C28 UNL     1      17.240  23.538  18.114  1.00  0.00    -0.006 A 
HETATM   13  C29 UNL     1      16.836  24.960  17.960  1.00  0.00     0.053 C 
BRANCH  10  14
HETATM   14  N6  UNL     1      19.701  21.569  20.045  1.00  0.00    -0.113 N 
HETATM   15  O1  UNL     1      20.866  21.801  19.890  1.00  0.00    -0.532 OA
HETATM   16  O2  UNL     1      19.358  20.809  21.170  1.00  0.00    -0.532 OA
ENDBRANCH  10  14
BRANCH  11  17
HETATM   17  N7  UNL     1      18.753  24.371  19.816  1.00  0.00    -0.383 N 
HETATM   18  C19 UNL     1      18.093  24.632  21.113  1.00  0.00     0.150 C 
BRANCH  17  19
HETATM   19  C20 UNL     1      19.914  25.151  19.554  1.00  0.00     0.124 C 
BRANCH  19  20
HETATM   20  C21 UNL     1      20.587  24.854  18.281  1.00  0.00     0.040 C 
BRANCH  20  21
HETATM   21  C22 UNL     1      21.523  25.984  17.841  1.00  0.00     0.127 C 
BRANCH  21  22
HETATM   22  N8  UNL     1      21.158  26.411  16.493  1.00  0.00    -0.352 N 
HETATM   23  C23 UNL     1      19.817  26.268  15.967  1.00  0.00     0.125 C 
HETATM   24  C24 UNL     1      19.909  26.579  14.469  1.00  0.00     0.020 C 
HETATM   25  C25 UNL     1      20.363  28.024  14.359  1.00  0.00     0.011 C 
HETATM   26  C26 UNL     1      21.862  28.036  14.631  1.00  0.00     0.103 C 
HETATM   27  C27 UNL     1      22.150  26.991  15.654  1.00  0.00     0.219 C 
HETATM   28  O3  UNL     1      23.364  26.606  15.770  1.00  0.00    -0.273 OA
ENDBRANCH  21  22
ENDBRANCH  20  21
ENDBRANCH  19  20
ENDBRANCH  17  19
ENDBRANCH  11  17
ENDBRANCH   4   7
BRANCH   1  29
HETATM   29  C11 UNL     1      12.706  21.398  13.909  1.00  0.00     0.274 C 
BRANCH  29  30
HETATM   30  C10 UNL     1      11.298  21.261  14.368  1.00  0.00     0.050 C 
BRANCH  30  31
HETATM   31  C9  UNL     1      10.961  19.820  14.713  1.00  0.00     0.123 C 
BRANCH  31  32
HETATM   32  N3  UNL     1      10.361  19.684  15.990  1.00  0.00    -0.376 N 
ATOM     33  H3  UNL     1       9.766  20.455  16.292  1.00  0.00     0.161 HD
BRANCH  32  34
HETATM   34  C8  UNL     1      10.478  18.711  16.808  1.00  0.00     0.118 A 
HETATM   35  C7  UNL     1      10.317  17.420  16.372  1.00  0.00     0.066 A 
HETATM   36  C6  UNL     1      10.461  16.349  17.240  1.00  0.00     0.110 A 
HETATM   37  N2  UNL     1      10.768  16.653  18.529  1.00  0.00    -0.202 N 
HETATM   38  C5  UNL     1      10.921  17.917  18.940  1.00  0.00     0.679 A 
ATOM     39  H2  UNL     1      10.884  15.896  19.203  1.00  0.00     0.183 HD
HETATM   40  N9  UNL     1      10.784  18.955  18.113  1.00  0.00    -0.177 N 
ATOM     41  H9  UNL     1      10.906  19.910  18.450  1.00  0.00     0.185 HD
BRANCH  38  42
HETATM   42  N1  UNL     1      11.232  18.191  20.186  1.00  0.00    -0.226 N 
ATOM     43  H1  UNL     1      10.665  18.840  20.733  1.00  0.00     0.177 HD
BRANCH  42  44
HETATM   44  C4  UNL     1      12.395  17.556  20.770  1.00  0.00     0.138 C 
BRANCH  44  45
HETATM   45  C3  UNL     1      13.654  18.245  20.239  1.00  0.00     0.020 C 
BRANCH  45  46
HETATM   46  C2  UNL     1      13.938  19.477  21.049  1.00  0.00    -0.003 C 
HETATM   47  C1  UNL     1      14.536  20.558  20.167  1.00  0.00     0.005 C 
ENDBRANCH  45  46
ENDBRANCH  44  45
ENDBRANCH  42  44
ENDBRANCH  38  42
ENDBRANCH  32  34
ENDBRANCH  31  32
ENDBRANCH  30  31
ENDBRANCH  29  30
ENDBRANCH   1  29
TORSDOF 16
ENDMDL
MODEL 2
REMARK VINA RESULT: -8.437891250      2.765      5.622
REMARK  16 active torsions:
REMARK  status: ('A' for Active; 'I' for Inactive)
REMARK    1  A    between atoms: C2_2  and  C3_3 
REMARK    2  A    between atoms: C3_3  and  C4_4 
REMARK    3  A    between atoms: C4_4  and  N1_5 
REMARK    4  A    between atoms: N1_5  and  C5_7 
REMARK    5  A    between atoms: C8_12  and  N3_13 
REMARK    6  A    between atoms: N3_13  and  C9_15 
REMARK    7  A    between atoms: C9_15  and  C10_16 
REMARK    8  A    between atoms: C10_16  and  C11_17 
REMARK    9  A    between atoms: C11_17  and  N4_18 
REMARK   10  A    between atoms: N5_21  and  C14_22 
REMARK   11  A    between atoms: C17_25  and  N6_26 
REMARK   12  A    between atoms: C18_29  and  N7_30 
REMARK   13  A    between atoms: N7_30  and  C20_32 
REMARK   14  A    between atoms: C20_32  and  C21_33 
REMARK   15  A    between atoms: C21_33  and  C22_34 
REMARK   16  A    between atoms: C22_34  and  N8_35 
ROOT
HETATM    1  N4  UNL     1      16.171  21.803  18.264  1.00  0.00     0.091 N 
HETATM    2  C12 UNL     1      15.201  22.832  18.117  1.00  0.00     0.292 C 
HETATM    3  C13 UNL     1      15.841  24.119  17.705  1.00  0.00     0.153 C 
HETATM    4  N5  UNL     1      16.882  23.893  16.735  1.00  0.00    -0.377 N 
HETATM    5  C30 UNL     1      16.925  22.592  16.076  1.00  0.00     0.153 C 
HETATM    6  C31 UNL     1      16.946  21.490  17.102  1.00  0.00     0.292 C 
ENDROOT
BRANCH   4   7
HETATM    7  C14 UNL     1      17.864  24.847  16.366  1.00  0.00     0.038 A 
HETATM    8  C15 UNL     1      17.652  25.516  15.182  1.00  0.00     0.032 A 
HETATM    9  C16 UNL     1      18.577  26.432  14.792  1.00  0.00     0.041 A 
HETATM   10  C17 UNL     1      19.743  26.716  15.565  1.00  0.00     0.130 A 
HETATM   11  C18 UNL     1      19.958  26.060  16.728  1.00  0.00     0.071 A 
HETATM   12  C28 UNL     1      18.979  25.107  17.118  1.00  0.00    -0.006 A 
HETATM   13  C29 UNL     1      19.229  24.406  18.404  1.00  0.00     0.053 C 
BRANCH  10  14
HETATM   14  N6  UNL     1      20.562  27.743  15.067  1.00  0.00    -0.113 N 
HETATM   15  O1  UNL     1      20.651  28.853  15.509  1.00  0.00    -0.532 OA
HETATM   16  O2  UNL     1      21.358  27.446  13.955  1.00  0.00    -0.532 OA
ENDBRANCH  10  14
BRANCH  11  17
HETATM   17  N7  UNL     1      21.097  26.207  17.548  1.00  0.00    -0.383 N 
HETATM   18  C19 UNL     1      20.988  27.166  18.668  1.00  0.00     0.150 C 
BRANCH  17  19
HETATM   19  C20 UNL     1      22.282  25.421  17.530  1.00  0.00     0.124 C 
BRANCH  19  20
HETATM   20  C21 UNL     1      22.834  25.098  18.854  1.00  0.00     0.040 C 
BRANCH  20  21
HETATM   21  C22 UNL     1      23.220  23.621  18.979  1.00  0.00     0.127 C 
BRANCH  21  22
HETATM   22  N8  UNL     1      24.671  23.494  18.881  1.00  0.00    -0.352 N 
HETATM   23  C23 UNL     1      25.550  24.643  18.811  1.00  0.00     0.125 C 
HETATM   24  C24 UNL     1      26.938  24.099  18.456  1.00  0.00     0.020 C 
HETATM   25  C25 UNL     1      27.349  23.192  19.603  1.00  0.00     0.011 C 
HETATM   26  C26 UNL     1      26.597  21.881  19.418  1.00  0.00     0.103 C 
HETATM   27  C27 UNL     1      25.257  22.197  18.850  1.00  0.00     0.219 C 
HETATM   28  O3  UNL     1      24.610  21.237  18.307  1.00  0.00    -0.273 OA
ENDBRANCH  21  22
ENDBRANCH  20  21
ENDBRANCH  19  20
ENDBRANCH  17  19
ENDBRANCH  11  17
ENDBRANCH   4   7
BRANCH   1  29
HETATM   29  C11 UNL     1      15.737  20.602  18.892  1.00  0.00     0.274 C 
BRANCH  29  30
HETATM   30  C10 UNL     1      14.607  20.724  19.852  1.00  0.00     0.050 C 
BRANCH  30  31
HETATM   31  C9  UNL     1      13.597  19.604  19.669  1.00  0.00     0.123 C 
BRANCH  31  32
HETATM   32  N3  UNL     1      13.386  19.269  18.307  1.00  0.00    -0.376 N 
ATOM     33  H3  UNL     1      14.060  18.627  17.893  1.00  0.00     0.161 HD
BRANCH  32  34
HETATM   34  C8  UNL     1      12.452  19.677  17.539  1.00  0.00     0.118 A 
HETATM   35  C7  UNL     1      11.207  19.105  17.603  1.00  0.00     0.066 A 
HETATM   36  C6  UNL     1      10.174  19.549  16.791  1.00  0.00     0.110 A 
HETATM   37  N2  UNL     1      10.468  20.569  15.943  1.00  0.00    -0.202 N 
HETATM   38  C5  UNL     1      11.687  21.117  15.891  1.00  0.00     0.679 A 
ATOM     39  H2  UNL     1       9.737  20.927  15.328  1.00  0.00     0.183 HD
HETATM   40  N9  UNL     1      12.688  20.697  16.667  1.00  0.00    -0.177 N 
ATOM     41  H9  UNL     1      13.609  21.130  16.609  1.00  0.00     0.185 HD
BRANCH  38  42
HETATM   42  N1  UNL     1      11.949  22.112  15.075  1.00  0.00    -0.226 N 
ATOM     43  H1  UNL     1      11.192  22.643  14.643  1.00  0.00     0.177 HD
BRANCH  42  44
HETATM   44  C4  UNL     1      13.332  22.442  14.801  1.00  0.00     0.138 C 
BRANCH  44  45
HETATM   45  C3  UNL     1      13.633  22.130  13.333  1.00  0.00     0.020 C 
BRANCH  45  46
HETATM   46  C2  UNL     1      14.499  20.908  13.241  1.00  0.00    -0.003 C 
HETATM   47  C1  UNL     1      13.639  19.660  13.156  1.00  0.00     0.005 C 
ENDBRANCH  45  46
ENDBRANCH  44  45
ENDBRANCH  42  44
ENDBRANCH  38  42
ENDBRANCH  32  34
ENDBRANCH  31  32
ENDBRANCH  30  31
ENDBRANCH  29  30
ENDBRANCH   1  29
TORSDOF 16
ENDMDL
MODEL 3
REMARK VINA RESULT: -8.413101193      2.704      5.456
REMARK  16 active torsions:
REMARK  status: ('A' for Active; 'I' for Inactive)
REMARK    1  A    between atoms: C2_2  and  C3_3 
REMARK    2  A    between atoms: C3_3  and  C4_4 
REMARK    3  A    between atoms: C4_4  and  N1_5 
REMARK    4  A    between atoms: N1_5  and  C5_7 
REMARK    5  A    between atoms: C8_12  and  N3_13 
REMARK    6  A    between atoms: N3_13  and  C9_15 
REMARK    7  A    between atoms: C9_15  and  C10_16 
REMARK    8  A    between atoms: C10_16  and  C11_17 
REMARK    9  A    between atoms: C11_17  and  N4_18 
REMARK   10  A    between atoms: N5_21  and  C14_22 
REMARK   11  A    between atoms: C17_25  and  N6_26 
REMARK   12  A    between atoms: C18_29  and  N7_30 
REMARK   13  A    between atoms: N7_30  and  C20_32 
REMARK   14  A    between atoms: C20_32  and  C21_33 
REMARK   15  A    between atoms: C21_33  and  C22_34 
REMARK   16  A    between atoms: C22_34  and  N8_35 
ROOT
HETATM    1  N4  UNL     1      16.181  21.860  18.531  1.00  0.00     0.091 N 
HETATM    2  C12 UNL     1      15.191  22.844  18.263  1.00  0.00     0.292 C 
HETATM    3  C13 UNL     1      15.812  24.115  17.777  1.00  0.00     0.153 C 
HETATM    4  N5  UNL     1      16.900  23.845  16.871  1.00  0.00    -0.377 N 
HETATM    5  C30 UNL     1      17.006  22.498  16.319  1.00  0.00     0.153 C 
HETATM    6  C31 UNL     1      17.013  21.481  17.430  1.00  0.00     0.292 C 
ENDROOT
BRANCH   4   7
HETATM    7  C14 UNL     1      17.870  24.797  16.468  1.00  0.00     0.038 A 
HETATM    8  C15 UNL     1      17.642  25.431  15.268  1.00  0.00     0.032 A 
HETATM    9  C16 UNL     1      18.556  26.345  14.845  1.00  0.00     0.041 A 
HETATM   10  C17 UNL     1      19.726  26.660  15.600  1.00  0.00     0.130 A 
HETATM   11  C18 UNL     1      19.956  26.037  16.779  1.00  0.00     0.071 A 
HETATM   12  C28 UNL     1      18.989  25.087  17.203  1.00  0.00    -0.006 A 
HETATM   13  C29 UNL     1      19.256  24.423  18.505  1.00  0.00     0.053 C 
BRANCH  10  14
HETATM   14  N6  UNL     1      20.531  27.680  15.067  1.00  0.00    -0.113 N 
HETATM   15  O1  UNL     1      20.590  28.811  15.458  1.00  0.00    -0.532 OA
HETATM   16  O2  UNL     1      21.352  27.348  13.983  1.00  0.00    -0.532 OA
ENDBRANCH  10  14
BRANCH  11  17
HETATM   17  N7  UNL     1      21.100  26.216  17.585  1.00  0.00    -0.383 N 
HETATM   18  C19 UNL     1      20.982  27.180  18.700  1.00  0.00     0.150 C 
BRANCH  17  19
HETATM   19  C20 UNL     1      22.304  25.459  17.558  1.00  0.00     0.124 C 
BRANCH  19  20
HETATM   20  C21 UNL     1      22.840  25.095  18.878  1.00  0.00     0.040 C 
BRANCH  20  21
HETATM   21  C22 UNL     1      23.226  23.616  18.962  1.00  0.00     0.127 C 
BRANCH  21  22
HETATM   22  N8  UNL     1      24.679  23.495  18.881  1.00  0.00    -0.352 N 
HETATM   23  C23 UNL     1      25.555  24.646  18.825  1.00  0.00     0.125 C 
HETATM   24  C24 UNL     1      26.949  24.108  18.485  1.00  0.00     0.020 C 
HETATM   25  C25 UNL     1      27.349  23.201  19.635  1.00  0.00     0.011 C 
HETATM   26  C26 UNL     1      26.604  21.887  19.439  1.00  0.00     0.103 C 
HETATM   27  C27 UNL     1      25.270  22.200  18.855  1.00  0.00     0.219 C 
HETATM   28  O3  UNL     1      24.634  21.239  18.302  1.00  0.00    -0.273 OA
ENDBRANCH  21  22
ENDBRANCH  20  21
ENDBRANCH  19  20
ENDBRANCH  17  19
ENDBRANCH  11  17
ENDBRANCH   4   7
BRANCH   1  29
HETATM   29  C11 UNL     1      15.753  20.699  19.234  1.00  0.00     0.274 C 
BRANCH  29  30
HETATM   30  C10 UNL     1      14.633  20.879  20.197  1.00  0.00     0.050 C 
BRANCH  30  31
HETATM   31  C9  UNL     1      14.218  19.557  20.822  1.00  0.00     0.123 C 
BRANCH  31  32
HETATM   32  N3  UNL     1      12.880  19.200  20.518  1.00  0.00    -0.376 N 
ATOM     33  H3  UNL     1      12.210  19.275  21.283  1.00  0.00     0.161 HD
BRANCH  32  34
HETATM   34  C8  UNL     1      12.415  18.796  19.400  1.00  0.00     0.118 A 
HETATM   35  C7  UNL     1      12.253  17.454  19.166  1.00  0.00     0.066 A 
HETATM   36  C6  UNL     1      11.730  16.996  17.966  1.00  0.00     0.110 A 
HETATM   37  N2  UNL     1      11.392  17.945  17.053  1.00  0.00    -0.202 N 
HETATM   38  C5  UNL     1      11.555  19.250  17.296  1.00  0.00     0.679 A 
ATOM     39  H2  UNL     1      11.002  17.653  16.156  1.00  0.00     0.183 HD
HETATM   40  N9  UNL     1      12.059  19.701  18.446  1.00  0.00    -0.177 N 
ATOM     41  H9  UNL     1      12.175  20.701  18.607  1.00  0.00     0.185 HD
BRANCH  38  42
HETATM   42  N1  UNL     1      11.210  20.153  16.408  1.00  0.00    -0.226 N 
ATOM     43  H1  UNL     1      10.318  20.644  16.484  1.00  0.00     0.177 HD
BRANCH  42  44
HETATM   44  C4  UNL     1      12.118  20.440  15.317  1.00  0.00     0.138 C 
BRANCH  44  45
HETATM   45  C3  UNL     1      11.534  21.574  14.471  1.00  0.00     0.020 C 
BRANCH  45  46
HETATM   46  C2  UNL     1      12.639  22.460  13.976  1.00  0.00    -0.003 C 
HETATM   47  C1  UNL     1      13.239  23.244  15.129  1.00  0.00     0.005 C 
ENDBRANCH  45  46
ENDBRANCH  44  45
ENDBRANCH  42  44
ENDBRANCH  38  42
ENDBRANCH  32  34
ENDBRANCH  31  32
ENDBRANCH  30  31
ENDBRANCH  29  30
ENDBRANCH   1  29
TORSDOF 16
ENDMDL
MODEL 4
REMARK VINA RESULT: -8.407534423      2.806      5.758
REMARK  16 active torsions:
REMARK  status: ('A' for Active; 'I' for Inactive)
REMARK    1  A    between atoms: C2_2  and  C3_3 
REMARK    2  A    between atoms: C3_3  and  C4_4 
REMARK    3  A    between atoms: C4_4  and  N1_5 
REMARK    4  A    between atoms: N1_5  and  C5_7 
REMARK    5  A    between atoms: C8_12  and  N3_13 
REMARK    6  A    between atoms: N3_13  and  C9_15 
REMARK    7  A    between atoms: C9_15  and  C10_16 
REMARK    8  A    between atoms: C10_16  and  C11_17 
REMARK    9  A    between atoms: C11_17  and  N4_18 
REMARK   10  A    between atoms: N5_21  and  C14_22 
REMARK   11  A    between atoms: C17_25  and  N6_26 
REMARK   12  A    between atoms: C18_29  and  N7_30 
REMARK   13  A    between atoms: N7_30  and  C20_32 
REMARK   14  A    between atoms: C20_32  and  C21_33 
REMARK   15  A    between atoms: C21_33  and  C22_34 
REMARK   16  A    between atoms: C22_34  and  N8_35 
ROOT
HETATM    1  N4  UNL     1      18.389  23.005  18.910  1.00  0.00     0.091 N 
HETATM    2  C12 UNL     1      18.825  21.888  19.673  1.00  0.00     0.292 C 
HETATM    3  C13 UNL     1      20.256  22.039  20.080  1.00  0.00     0.153 C 
HETATM    4  N5  UNL     1      20.545  23.398  20.463  1.00  0.00    -0.377 N 
HETATM    5  C30 UNL     1      19.415  24.284  20.724  1.00  0.00     0.153 C 
HETATM    6  C31 UNL     1      18.472  24.282  19.550  1.00  0.00     0.292 C 
ENDROOT
BRANCH   4   7
HETATM    7  C14 UNL     1      21.848  23.935  20.616  1.00  0.00     0.038 A 
HETATM    8  C15 UNL     1      22.358  23.946  21.894  1.00  0.00     0.032 A 
HETATM    9  C16 UNL     1      23.603  24.462  22.079  1.00  0.00     0.041 A 
HETATM   10  C17 UNL     1      24.382  24.983  21.002  1.00  0.00     0.130 A 
HETATM   11  C18 UNL     1      23.884  24.977  19.745  1.00  0.00     0.071 A 
HETATM   12  C28 UNL     1      22.582  24.433  19.572  1.00  0.00    -0.006 A 
HETATM   13  C29 UNL     1      22.058  24.426  18.182  1.00  0.00     0.053 C 
BRANCH  10  14
HETATM   14  N6  UNL     1      25.676  25.407  21.344  1.00  0.00    -0.113 N 
HETATM   15  O1  UNL     1      25.984  26.498  21.730  1.00  0.00    -0.532 OA
HETATM   16  O2  UNL     1      26.708  24.467  21.235  1.00  0.00    -0.532 OA
ENDBRANCH  10  14
BRANCH  11  17
HETATM   17  N7  UNL     1      24.527  25.515  18.611  1.00  0.00    -0.383 N 
HETATM   18  C19 UNL     1      25.296  24.570  17.774  1.00  0.00     0.150 C 
BRANCH  17  19
HETATM   19  C20 UNL     1      24.390  26.828  18.080  1.00  0.00     0.124 C 
BRANCH  19  20
HETATM   20  C21 UNL     1      23.970  26.889  16.672  1.00  0.00     0.040 C 
BRANCH  20  21
HETATM   21  C22 UNL     1      23.250  28.198  16.336  1.00  0.00     0.127 C 
BRANCH  21  22
HETATM   22  N8  UNL     1      21.943  27.892  15.762  1.00  0.00    -0.352 N 
HETATM   23  C23 UNL     1      21.663  28.031  14.348  1.00  0.00     0.125 C 
HETATM   24  C24 UNL     1      20.146  27.875  14.195  1.00  0.00     0.020 C 
HETATM   25  C25 UNL     1      19.812  26.468  14.659  1.00  0.00     0.011 C 
HETATM   26  C26 UNL     1      19.831  26.491  16.183  1.00  0.00     0.103 C 
HETATM   27  C27 UNL     1      20.896  27.440  16.613  1.00  0.00     0.219 C 
HETATM   28  O3  UNL     1      20.851  27.862  17.819  1.00  0.00    -0.273 OA
ENDBRANCH  21  22
ENDBRANCH  20  21
ENDBRANCH  19  20
ENDBRANCH  17  19
ENDBRANCH  11  17
ENDBRANCH   4   7
BRANCH   1  29
HETATM   29  C11 UNL     1      17.135  22.877  18.249  1.00  0.00     0.274 C 
BRANCH  29  30
HETATM   30  C10 UNL     1      16.237  24.061  18.293  1.00  0.00     0.050 C 
BRANCH  30  31
HETATM   31  C9  UNL     1      14.820  23.701  17.876  1.00  0.00     0.123 C 
BRANCH  31  32
HETATM   32  N3  UNL     1      14.241  22.702  18.698  1.00  0.00    -0.376 N 
ATOM     33  H3  UNL     1      14.088  22.955  19.674  1.00  0.00     0.161 HD
BRANCH  32  34
HETATM   34  C8  UNL     1      13.888  21.522  18.361  1.00  0.00     0.118 A 
HETATM   35  C7  UNL     1      13.918  20.505  19.281  1.00  0.00     0.066 A 
HETATM   36  C6  UNL     1      13.518  19.222  18.940  1.00  0.00     0.110 A 
HETATM   37  N2  UNL     1      13.102  19.039  17.660  1.00  0.00    -0.202 N 
HETATM   38  C5  UNL     1      13.079  20.041  16.774  1.00  0.00     0.679 A 
ATOM     39  H2  UNL     1      12.798  18.110  17.366  1.00  0.00     0.183 HD
HETATM   40  N9  UNL     1      13.462  21.279  17.090  1.00  0.00    -0.177 N 
ATOM     41  H9  UNL     1      13.436  22.026  16.397  1.00  0.00     0.185 HD
BRANCH  38  42
HETATM   42  N1  UNL     1      12.660  19.848  15.544  1.00  0.00    -0.226 N 
ATOM     43  H1  UNL     1      12.180  18.985  15.287  1.00  0.00     0.177 HD
BRANCH  42  44
HETATM   44  C4  UNL     1      12.891  20.885  14.559  1.00  0.00     0.138 C 
BRANCH  44  45
HETATM   45  C3  UNL     1      13.939  20.392  13.559  1.00  0.00     0.020 C 
BRANCH  45  46
HETATM   46  C2  UNL     1      14.844  21.525  13.172  1.00  0.00    -0.003 C 
HETATM   47  C1  UNL     1      15.629  22.006  14.379  1.00  0.00     0.005 C 
ENDBRANCH  45  46
ENDBRANCH  44  45
ENDBRANCH  42  44
ENDBRANCH  38  42
ENDBRANCH  32  34
ENDBRANCH  31  32
ENDBRANCH  30  31
ENDBRANCH  29  30
ENDBRANCH   1  29
TORSDOF 16
ENDMDL
MODEL 5
REMARK VINA RESULT: -8.387390049      2.632      4.789
REMARK  16 active torsions:
REMARK  status: ('A' for Active; 'I' for Inactive)
REMARK    1  A    between atoms: C2_2  and  C3_3 
REMARK    2  A    between atoms: C3_3  and  C4_4 
REMARK    3  A    between atoms: C4_4  and  N1_5 
REMARK    4  A    between atoms: N1_5  and  C5_7 
REMARK    5  A    between atoms: C8_12  and  N3_13 
REMARK    6  A    between atoms: N3_13  and  C9_15 
REMARK    7  A    between atoms: C9_15  and  C10_16 
REMARK    8  A    between atoms: C10_16  and  C11_17 
REMARK    9  A    between atoms: C11_17  and  N4_18 
REMARK   10  A    between atoms: N5_21  and  C14_22 
REMARK   11  A    between atoms: C17_25  and  N6_26 
REMARK   12  A    between atoms: C18_29  and  N7_30 
REMARK   13  A    between atoms: N7_30  and  C20_32 
REMARK   14  A    between atoms: C20_32  and  C21_33 
REMARK   15  A    between atoms: C21_33  and  C22_34 
REMARK   16  A    between atoms: C22_34  and  N8_35 
ROOT
HETATM    1  N4  UNL     1      15.958  21.811  18.307  1.00  0.00     0.091 N 
HETATM    2  C12 UNL     1      15.029  22.878  18.165  1.00  0.00     0.292 C 
HETATM    3  C13 UNL     1      15.720  24.144  17.769  1.00  0.00     0.153 C 
HETATM    4  N5  UNL     1      16.757  23.887  16.802  1.00  0.00    -0.377 N 
HETATM    5  C30 UNL     1      16.753  22.591  16.130  1.00  0.00     0.153 C 
HETATM    6  C31 UNL     1      16.727  21.480  17.146  1.00  0.00     0.292 C 
ENDROOT
BRANCH   4   7
HETATM    7  C14 UNL     1      17.776  24.806  16.447  1.00  0.00     0.038 A 
HETATM    8  C15 UNL     1      17.630  25.443  15.235  1.00  0.00     0.032 A 
HETATM    9  C16 UNL     1      18.593  26.325  14.858  1.00  0.00     0.041 A 
HETATM   10  C17 UNL     1      19.732  26.606  15.672  1.00  0.00     0.130 A 
HETATM   11  C18 UNL     1      19.882  25.981  16.862  1.00  0.00     0.071 A 
HETATM   12  C28 UNL     1      18.864  25.064  17.238  1.00  0.00    -0.006 A 
HETATM   13  C29 UNL     1      19.043  24.397  18.554  1.00  0.00     0.053 C 
BRANCH  10  14
HETATM   14  N6  UNL     1      20.596  27.598  15.179  1.00  0.00    -0.113 N 
HETATM   15  O1  UNL     1      20.613  28.749  15.511  1.00  0.00    -0.532 OA
HETATM   16  O2  UNL     1      21.534  27.210  14.215  1.00  0.00    -0.532 OA
ENDBRANCH  10  14
BRANCH  11  17
HETATM   17  N7  UNL     1      20.988  26.127  17.726  1.00  0.00    -0.383 N 
HETATM   18  C19 UNL     1      20.935  27.248  18.688  1.00  0.00     0.150 C 
BRANCH  17  19
HETATM   19  C20 UNL     1      22.076  25.226  17.897  1.00  0.00     0.124 C 
BRANCH  19  20
HETATM   20  C21 UNL     1      23.329  25.845  18.353  1.00  0.00     0.040 C 
BRANCH  20  21
HETATM   21  C22 UNL     1      24.505  25.530  17.424  1.00  0.00     0.127 C 
BRANCH  21  22
HETATM   22  N8  UNL     1      24.871  26.736  16.688  1.00  0.00    -0.352 N 
HETATM   23  C23 UNL     1      24.011  27.899  16.621  1.00  0.00     0.125 C 
HETATM   24  C24 UNL     1      24.621  28.823  15.561  1.00  0.00     0.020 C 
HETATM   25  C25 UNL     1      25.995  29.216  16.075  1.00  0.00     0.011 C 
HETATM   26  C26 UNL     1      26.916  28.029  15.822  1.00  0.00     0.103 C 
HETATM   27  C27 UNL     1      26.119  26.784  16.004  1.00  0.00     0.219 C 
HETATM   28  O3  UNL     1      26.598  25.705  15.512  1.00  0.00    -0.273 OA
ENDBRANCH  21  22
ENDBRANCH  20  21
ENDBRANCH  19  20
ENDBRANCH  17  19
ENDBRANCH  11  17
ENDBRANCH   4   7
BRANCH   1  29
HETATM   29  C11 UNL     1      15.475  20.621  18.922  1.00  0.00     0.274 C 
BRANCH  29  30
HETATM   30  C10 UNL     1      14.623  20.795  20.128  1.00  0.00     0.050 C 
BRANCH  30  31
HETATM   31  C9  UNL     1      13.853  19.526  20.453  1.00  0.00     0.123 C 
BRANCH  31  32
HETATM   32  N3  UNL     1      13.569  18.744  19.305  1.00  0.00    -0.376 N 
ATOM     33  H3  UNL     1      14.347  18.209  18.921  1.00  0.00     0.161 HD
BRANCH  32  34
HETATM   34  C8  UNL     1      12.454  18.631  18.694  1.00  0.00     0.118 A 
HETATM   35  C7  UNL     1      11.644  17.549  18.932  1.00  0.00     0.066 A 
HETATM   36  C6  UNL     1      10.420  17.419  18.294  1.00  0.00     0.110 A 
HETATM   37  N2  UNL     1      10.078  18.414  17.433  1.00  0.00    -0.202 N 
HETATM   38  C5  UNL     1      10.879  19.462  17.211  1.00  0.00     0.679 A 
ATOM     39  H2  UNL     1       9.186  18.359  16.942  1.00  0.00     0.183 HD
HETATM   40  N9  UNL     1      12.059  19.597  17.819  1.00  0.00    -0.177 N 
ATOM     41  H9  UNL     1      12.652  20.405  17.632  1.00  0.00     0.185 HD
BRANCH  38  42
HETATM   42  N1  UNL     1      10.526  20.422  16.387  1.00  0.00    -0.226 N 
ATOM     43  H1  UNL     1      10.005  21.232  16.723  1.00  0.00     0.177 HD
BRANCH  42  44
HETATM   44  C4  UNL     1      10.890  20.308  14.990  1.00  0.00     0.138 C 
BRANCH  44  45
HETATM   45  C3  UNL     1      11.271  21.693  14.463  1.00  0.00     0.020 C 
BRANCH  45  46
HETATM   46  C2  UNL     1      12.765  21.813  14.385  1.00  0.00    -0.003 C 
HETATM   47  C1  UNL     1      13.213  23.158  14.929  1.00  0.00     0.005 C 
ENDBRANCH  45  46
ENDBRANCH  44  45
ENDBRANCH  42  44
ENDBRANCH  38  42
ENDBRANCH  32  34
ENDBRANCH  31  32
ENDBRANCH  30  31
ENDBRANCH  29  30
ENDBRANCH   1  29
TORSDOF 16
ENDMDL
