MODEL 1
REMARK VINA RESULT: -5.182877817      0.000      0.000
REMARK  4 active torsions:
REMARK  status: ('A' for Active; 'I' for Inactive)
REMARK    1  A    between atoms: O1_1  and  C1_3 
REMARK    2  A    between atoms: C7_9  and  O2_10 
REMARK    3  A    between atoms: C8_12  and  O3_13 
REMARK    4  A    between atoms: C9_15  and  O4_16 
ROOT
HETATM    1  C1  UNL     1       3.627  -0.079  14.652  1.00  0.00     0.123 C 
HETATM    2  C2  UNL     1       3.006   1.206  14.184  1.00  0.00     0.040 C 
HETATM    3  C3  UNL     1       1.524   0.977  14.156  1.00  0.00     0.033 A 
HETATM    4  C4  UNL     1       1.217  -0.327  14.761  1.00  0.00     0.037 A 
HETATM    5  C5  UNL     1       2.513  -1.020  15.010  1.00  0.00     0.024 C 
HETATM    6  C6  UNL     1       2.696  -2.285  14.219  1.00  0.00     0.042 C 
HETATM    7  C7  UNL     1       1.785  -2.296  13.037  1.00  0.00     0.150 C 
HETATM    8  C8  UNL     1       1.656  -0.928  12.379  1.00  0.00     0.181 C 
HETATM    9  C9  UNL     1       0.887  -0.062  13.351  1.00  0.00     0.095 A 
ENDROOT
BRANCH   1  10
HETATM   10  O1  UNL     1       4.410   0.111  15.796  1.00  0.00    -0.395 OA
ATOM     11  H1  UNL     1       4.187  -0.507  16.482  1.00  0.00     0.210 HD
ENDBRANCH   1  10
BRANCH   9  12
HETATM   12  O4  UNL     1      -0.466   0.112  13.025  1.00  0.00    -0.386 OA
ATOM     13  H4  UNL     1      -0.750   0.987  12.785  1.00  0.00     0.210 HD
ENDBRANCH   9  12
BRANCH   7  14
HETATM   14  O2  UNL     1       2.233  -3.258  12.123  1.00  0.00    -0.393 OA
ATOM     15  H2  UNL     1       2.160  -2.908  11.243  1.00  0.00     0.210 HD
ENDBRANCH   7  14
BRANCH   8  16
HETATM   16  O3  UNL     1       0.918  -1.128  11.217  1.00  0.00    -0.390 OA
ATOM     17  H3  UNL     1       1.255  -0.507  10.581  1.00  0.00     0.210 HD
ENDBRANCH   8  16
TORSDOF 4
ENDMDL
MODEL 2
REMARK VINA RESULT: -5.171479981      1.739      2.379
REMARK  4 active torsions:
REMARK  status: ('A' for Active; 'I' for Inactive)
REMARK    1  A    between atoms: O1_1  and  C1_3 
REMARK    2  A    between atoms: C7_9  and  O2_10 
REMARK    3  A    between atoms: C8_12  and  O3_13 
REMARK    4  A    between atoms: C9_15  and  O4_16 
ROOT
HETATM    1  C1  UNL     1       2.731  -0.858  14.128  1.00  0.00     0.123 C 
HETATM    2  C2  UNL     1       3.035   0.450  14.802  1.00  0.00     0.040 C 
HETATM    3  C3  UNL     1       1.759   1.238  14.798  1.00  0.00     0.033 A 
HETATM    4  C4  UNL     1       0.659   0.389  14.318  1.00  0.00     0.037 A 
HETATM    5  C5  UNL     1       1.259  -0.887  13.836  1.00  0.00     0.024 C 
HETATM    6  C6  UNL     1       1.078  -1.134  12.364  1.00  0.00     0.042 C 
HETATM    7  C7  UNL     1       0.784   0.145  11.654  1.00  0.00     0.150 C 
HETATM    8  C8  UNL     1       1.589   1.319  12.197  1.00  0.00     0.181 C 
HETATM    9  C9  UNL     1       1.044   1.603  13.579  1.00  0.00     0.095 A 
ENDROOT
BRANCH   1  10
HETATM   10  O1  UNL     1       3.024  -1.947  14.956  1.00  0.00    -0.395 OA
ATOM     11  H1  UNL     1       2.697  -1.817  15.838  1.00  0.00     0.210 HD
ENDBRANCH   1  10
BRANCH   9  12
HETATM   12  O4  UNL     1       0.176   2.703  13.643  1.00  0.00    -0.386 OA
ATOM     13  H4  UNL     1       0.505   3.539  13.333  1.00  0.00     0.210 HD
ENDBRANCH   9  12
BRANCH   7  14
HETATM   14  O2  UNL     1       1.007  -0.031  10.282  1.00  0.00    -0.393 OA
ATOM     15  H2  UNL     1       1.702  -0.667  10.160  1.00  0.00     0.210 HD
ENDBRANCH   7  14
BRANCH   8  16
HETATM   16  O3  UNL     1       1.333   2.389  11.344  1.00  0.00    -0.390 OA
ATOM     17  H3  UNL     1       0.991   2.010  10.543  1.00  0.00     0.210 HD
ENDBRANCH   8  16
TORSDOF 4
ENDMDL
MODEL 3
REMARK VINA RESULT: -4.898554591      1.401      1.704
REMARK  4 active torsions:
REMARK  status: ('A' for Active; 'I' for Inactive)
REMARK    1  A    between atoms: O1_1  and  C1_3 
REMARK    2  A    between atoms: C7_9  and  O2_10 
REMARK    3  A    between atoms: C8_12  and  O3_13 
REMARK    4  A    between atoms: C9_15  and  O4_16 
ROOT
HETATM    1  C1  UNL     1       2.875   1.373  13.444  1.00  0.00     0.123 C 
HETATM    2  C2  UNL     1       2.205   1.976  12.242  1.00  0.00     0.040 C 
HETATM    3  C3  UNL     1       0.794   1.468  12.242  1.00  0.00     0.033 A 
HETATM    4  C4  UNL     1       0.535   0.736  13.490  1.00  0.00     0.037 A 
HETATM    5  C5  UNL     1       1.833   0.611  14.211  1.00  0.00     0.024 C 
HETATM    6  C6  UNL     1       2.313  -0.804  14.374  1.00  0.00     0.042 C 
HETATM    7  C7  UNL     1       1.652  -1.696  13.376  1.00  0.00     0.150 C 
HETATM    8  C8  UNL     1       1.488  -1.035  12.013  1.00  0.00     0.181 C 
HETATM    9  C9  UNL     1       0.450   0.050  12.190  1.00  0.00     0.095 A 
ENDROOT
BRANCH   1  10
HETATM   10  O1  UNL     1       3.397   2.355  14.292  1.00  0.00    -0.395 OA
ATOM     11  H1  UNL     1       3.245   2.148  15.207  1.00  0.00     0.210 HD
ENDBRANCH   1  10
BRANCH   9  12
HETATM   12  O4  UNL     1      -0.826  -0.289  11.719  1.00  0.00    -0.386 OA
ATOM     13  H4  UNL     1      -0.989  -1.202  11.513  1.00  0.00     0.210 HD
ENDBRANCH   9  12
BRANCH   7  14
HETATM   14  O2  UNL     1       2.378  -2.890  13.277  1.00  0.00    -0.393 OA
ATOM     15  H2  UNL     1       2.351  -3.196  12.379  1.00  0.00     0.210 HD
ENDBRANCH   7  14
BRANCH   8  16
HETATM   16  O3  UNL     1       1.014  -2.027  11.159  1.00  0.00    -0.390 OA
ATOM     17  H3  UNL     1       0.758  -1.584  10.358  1.00  0.00     0.210 HD
ENDBRANCH   8  16
TORSDOF 4
ENDMDL
MODEL 4
REMARK VINA RESULT: -4.864525836      1.888      2.538
REMARK  4 active torsions:
REMARK  status: ('A' for Active; 'I' for Inactive)
REMARK    1  A    between atoms: O1_1  and  C1_3 
REMARK    2  A    between atoms: C7_9  and  O2_10 
REMARK    3  A    between atoms: C8_12  and  O3_13 
REMARK    4  A    between atoms: C9_15  and  O4_16 
ROOT
HETATM    1  C1  UNL     1       2.712   0.241  14.158  1.00  0.00     0.123 C 
HETATM    2  C2  UNL     1       3.349   1.587  13.961  1.00  0.00     0.040 C 
HETATM    3  C3  UNL     1       2.242   2.532  13.594  1.00  0.00     0.033 A 
HETATM    4  C4  UNL     1       0.947   1.852  13.743  1.00  0.00     0.037 A 
HETATM    5  C5  UNL     1       1.227   0.416  14.025  1.00  0.00     0.024 C 
HETATM    6  C6  UNL     1       0.738  -0.527  12.960  1.00  0.00     0.042 C 
HETATM    7  C7  UNL     1       0.534   0.203  11.674  1.00  0.00     0.150 C 
HETATM    8  C8  UNL     1       1.608   1.250  11.413  1.00  0.00     0.181 C 
HETATM    9  C9  UNL     1       1.384   2.349  12.428  1.00  0.00     0.095 A 
ENDROOT
BRANCH   1  10
HETATM   10  O1  UNL     1       2.969  -0.271  15.435  1.00  0.00    -0.395 OA
ATOM     11  H1  UNL     1       3.779  -0.769  15.458  1.00  0.00     0.210 HD
ENDBRANCH   1  10
BRANCH   9  12
HETATM   12  O4  UNL     1       0.738   3.484  11.916  1.00  0.00    -0.386 OA
ATOM     13  H4  UNL     1       1.065   4.334  12.188  1.00  0.00     0.210 HD
ENDBRANCH   9  12
BRANCH   7  14
HETATM   14  O2  UNL     1       0.466  -0.726  10.628  1.00  0.00    -0.393 OA
ATOM     15  H2  UNL     1      -0.206  -0.454  10.015  1.00  0.00     0.210 HD
ENDBRANCH   7  14
BRANCH   8  16
HETATM   16  O3  UNL     1       1.380   1.724  10.124  1.00  0.00    -0.390 OA
ATOM     17  H3  UNL     1       1.559   0.995   9.541  1.00  0.00     0.210 HD
ENDBRANCH   8  16
TORSDOF 4
ENDMDL
MODEL 5
REMARK VINA RESULT: -4.836471466      1.894      3.197
REMARK  4 active torsions:
REMARK  status: ('A' for Active; 'I' for Inactive)
REMARK    1  A    between atoms: O1_1  and  C1_3 
REMARK    2  A    between atoms: C7_9  and  O2_10 
REMARK    3  A    between atoms: C8_12  and  O3_13 
REMARK    4  A    between atoms: C9_15  and  O4_16 
ROOT
HETATM    1  C1  UNL     1       0.862   1.918  14.411  1.00  0.00     0.123 C 
HETATM    2  C2  UNL     1       0.356   0.628  14.991  1.00  0.00     0.040 C 
HETATM    3  C3  UNL     1       1.194  -0.464  14.395  1.00  0.00     0.033 A 
HETATM    4  C4  UNL     1       2.298   0.128  13.626  1.00  0.00     0.037 A 
HETATM    5  C5  UNL     1       2.065   1.599  13.571  1.00  0.00     0.024 C 
HETATM    6  C6  UNL     1       1.825   2.132  12.186  1.00  0.00     0.042 C 
HETATM    7  C7  UNL     1       1.396   1.032  11.272  1.00  0.00     0.150 C 
HETATM    8  C8  UNL     1       0.456   0.040  11.945  1.00  0.00     0.181 C 
HETATM    9  C9  UNL     1       1.289  -0.711  12.960  1.00  0.00     0.095 A 
ENDROOT
BRANCH   1  10
HETATM   10  O1  UNL     1       1.263   2.813  15.409  1.00  0.00    -0.395 OA
ATOM     11  H1  UNL     1       0.522   3.140  15.906  1.00  0.00     0.210 HD
ENDBRANCH   1  10
BRANCH   9  12
HETATM   12  O4  UNL     1       1.681  -1.993  12.549  1.00  0.00    -0.386 OA
ATOM     13  H4  UNL     1       1.959  -2.099  11.647  1.00  0.00     0.210 HD
ENDBRANCH   9  12
BRANCH   7  14
HETATM   14  O2  UNL     1       0.811   1.590  10.128  1.00  0.00    -0.393 OA
ATOM     15  H2  UNL     1      -0.108   1.756  10.300  1.00  0.00     0.210 HD
ENDBRANCH   7  14
BRANCH   8  16
HETATM   16  O3  UNL     1       0.021  -0.820  10.941  1.00  0.00    -0.390 OA
ATOM     17  H3  UNL     1      -0.903  -0.968  11.104  1.00  0.00     0.210 HD
ENDBRANCH   8  16
TORSDOF 4
ENDMDL
