MODEL 1
REMARK VINA RESULT: -6.952662658      0.000      0.000
REMARK  4 active torsions:
REMARK  status: ('A' for Active; 'I' for Inactive)
REMARK    1  A    between atoms: N1_5  and  C5_6 
REMARK    2  A    between atoms: C5_6  and  C6_11 
REMARK    3  A    between atoms: N2_7  and  O1_9 
REMARK    4  A    between atoms: N3_15  and  C10_16 
ROOT
HETATM    1  C6  UNL     1      -0.539  36.146  25.993  1.00  0.00     0.155 C 
HETATM    2  C7  UNL     1       0.154  37.138  26.944  1.00  0.00     0.035 C 
HETATM    3  C8  UNL     1       0.924  36.227  27.882  1.00  0.00     0.022 C 
HETATM    4  C9  UNL     1       0.807  34.814  27.290  1.00  0.00     0.126 C 
HETATM    5  N3  UNL     1       0.453  35.128  25.940  1.00  0.00    -0.349 N 
ENDROOT
BRANCH   1   6
HETATM    6  C5  UNL     1      -0.893  36.781  24.723  1.00  0.00     0.122 C 
HETATM    7  N2  UNL     1      -0.171  37.586  24.061  1.00  0.00    -0.255 N 
ATOM      8  H2  UNL     1       0.749  37.832  24.427  1.00  0.00     0.195 HD
BRANCH   6   9
HETATM    9  N1  UNL     1      -2.175  36.456  24.183  1.00  0.00    -0.367 N 
HETATM   10  C4  UNL     1      -3.379  37.245  24.464  1.00  0.00     0.124 C 
HETATM   11  C3  UNL     1      -4.424  36.143  24.525  1.00  0.00     0.026 C 
HETATM   12  C2  UNL     1      -4.026  35.305  23.320  1.00  0.00     0.001 C 
HETATM   13  C1  UNL     1      -4.538  35.964  22.073  1.00  0.00     0.011 C 
HETATM   14  C12 UNL     1      -2.510  35.357  23.312  1.00  0.00     0.128 C 
ENDBRANCH   6   9
BRANCH   7  15
HETATM   15  O1  UNL     1      -0.573  38.139  22.874  1.00  0.00    -0.288 OA
ATOM     16  H1  UNL     1      -1.453  38.037  22.531  1.00  0.00     0.244 HD
ENDBRANCH   7  15
ENDBRANCH   1   6
BRANCH   5  17
HETATM   17  C10 UNL     1       1.015  34.518  24.797  1.00  0.00     0.165 A 
HETATM   18  N4  UNL     1       2.211  34.699  24.237  1.00  0.00    -0.278 N 
HETATM   19  N5  UNL     1       2.539  34.059  23.206  1.00  0.00    -0.282 N 
ATOM     20  H4  UNL     1       2.866  35.362  24.649  1.00  0.00     0.189 HD
HETATM   21  C11 UNL     1       1.698  33.193  22.661  1.00  0.00     0.163 A 
ATOM     22  H5  UNL     1       3.458  34.207  22.788  1.00  0.00     0.188 HD
HETATM   23 CL1  UNL     1       2.017  32.235  21.232  1.00  0.00    -0.055 Cl
HETATM   24  S1  UNL     1       0.367  33.330  23.713  1.00  0.00    -0.021 SA
ENDBRANCH   5  17
TORSDOF 4
ENDMDL
MODEL 2
REMARK VINA RESULT: -6.926429515      0.495      1.107
REMARK  4 active torsions:
REMARK  status: ('A' for Active; 'I' for Inactive)
REMARK    1  A    between atoms: N1_5  and  C5_6 
REMARK    2  A    between atoms: C5_6  and  C6_11 
REMARK    3  A    between atoms: N2_7  and  O1_9 
REMARK    4  A    between atoms: N3_15  and  C10_16 
ROOT
HETATM    1  C6  UNL     1      -0.595  35.956  26.006  1.00  0.00     0.155 C 
HETATM    2  C7  UNL     1       0.078  37.001  26.914  1.00  0.00     0.035 C 
HETATM    3  C8  UNL     1       0.948  36.150  27.821  1.00  0.00     0.022 C 
HETATM    4  C9  UNL     1       0.891  34.726  27.248  1.00  0.00     0.126 C 
HETATM    5  N3  UNL     1       0.455  35.001  25.914  1.00  0.00    -0.349 N 
ENDROOT
BRANCH   1   6
HETATM    6  C5  UNL     1      -1.048  36.552  24.750  1.00  0.00     0.122 C 
HETATM    7  N2  UNL     1      -0.399  37.371  24.031  1.00  0.00    -0.255 N 
ATOM      8  H2  UNL     1       0.531  37.659  24.337  1.00  0.00     0.195 HD
BRANCH   6   9
HETATM    9  N1  UNL     1      -2.347  36.170  24.292  1.00  0.00    -0.367 N 
HETATM   10  C4  UNL     1      -2.559  35.123  23.288  1.00  0.00     0.124 C 
HETATM   11  C3  UNL     1      -3.746  35.701  22.533  1.00  0.00     0.026 C 
HETATM   12  C2  UNL     1      -4.611  36.182  23.687  1.00  0.00     0.001 C 
HETATM   13  C1  UNL     1      -5.335  35.008  24.280  1.00  0.00     0.011 C 
HETATM   14  C12 UNL     1      -3.618  36.708  24.706  1.00  0.00     0.128 C 
ENDBRANCH   6   9
BRANCH   7  15
HETATM   15  O1  UNL     1      -0.892  37.886  22.862  1.00  0.00    -0.288 OA
ATOM     16  H1  UNL     1      -0.875  38.814  22.661  1.00  0.00     0.244 HD
ENDBRANCH   7  15
ENDBRANCH   1   6
BRANCH   5  17
HETATM   17  C10 UNL     1       0.998  34.413  24.751  1.00  0.00     0.165 A 
HETATM   18  N4  UNL     1       2.159  34.651  24.140  1.00  0.00    -0.278 N 
HETATM   19  N5  UNL     1       2.476  34.022  23.099  1.00  0.00    -0.282 N 
ATOM     20  H4  UNL     1       2.797  35.349  24.522  1.00  0.00     0.189 HD
HETATM   21  C11 UNL     1       1.658  33.113  22.592  1.00  0.00     0.163 A 
ATOM     22  H5  UNL     1       3.368  34.215  22.642  1.00  0.00     0.188 HD
HETATM   23 CL1  UNL     1       1.965  32.164  21.156  1.00  0.00    -0.055 Cl
HETATM   24  S1  UNL     1       0.366  33.188  23.699  1.00  0.00    -0.021 SA
ENDBRANCH   5  17
TORSDOF 4
ENDMDL
MODEL 3
REMARK VINA RESULT: -6.693787955      3.830      6.355
REMARK  4 active torsions:
REMARK  status: ('A' for Active; 'I' for Inactive)
REMARK    1  A    between atoms: N1_5  and  C5_6 
REMARK    2  A    between atoms: C5_6  and  C6_11 
REMARK    3  A    between atoms: N2_7  and  O1_9 
REMARK    4  A    between atoms: N3_15  and  C10_16 
ROOT
HETATM    1  C6  UNL     1      -4.896  35.146  24.195  1.00  0.00     0.155 C 
HETATM    2  C7  UNL     1      -5.788  33.931  23.884  1.00  0.00     0.035 C 
HETATM    3  C8  UNL     1      -7.167  34.549  23.749  1.00  0.00     0.022 C 
HETATM    4  C9  UNL     1      -6.952  36.071  23.770  1.00  0.00     0.126 C 
HETATM    5  N3  UNL     1      -5.564  36.141  23.429  1.00  0.00    -0.349 N 
ENDROOT
BRANCH   1   6
HETATM    6  C5  UNL     1      -3.498  34.885  23.849  1.00  0.00     0.122 C 
HETATM    7  N2  UNL     1      -3.079  34.015  23.027  1.00  0.00    -0.255 N 
ATOM      8  H2  UNL     1      -3.761  33.427  22.549  1.00  0.00     0.195 HD
BRANCH   6   9
HETATM    9  N1  UNL     1      -2.517  35.693  24.502  1.00  0.00    -0.367 N 
HETATM   10  C4  UNL     1      -1.671  36.652  23.783  1.00  0.00     0.124 C 
HETATM   11  C3  UNL     1      -0.371  36.508  24.558  1.00  0.00     0.026 C 
HETATM   12  C2  UNL     1      -0.890  36.494  25.987  1.00  0.00     0.001 C 
HETATM   13  C1  UNL     1      -1.193  37.902  26.412  1.00  0.00     0.011 C 
HETATM   14  C12 UNL     1      -2.191  35.718  25.905  1.00  0.00     0.128 C 
ENDBRANCH   6   9
BRANCH   7  15
HETATM   15  O1  UNL     1      -1.750  33.832  22.754  1.00  0.00    -0.288 OA
ATOM     16  H1  UNL     1      -1.322  32.987  22.824  1.00  0.00     0.244 HD
ENDBRANCH   7  15
ENDBRANCH   1   6
BRANCH   5  17
HETATM   17  C10 UNL     1      -5.008  37.043  22.497  1.00  0.00     0.165 A 
HETATM   18  N4  UNL     1      -4.737  36.871  21.204  1.00  0.00    -0.278 N 
HETATM   19  N5  UNL     1      -4.233  37.801  20.525  1.00  0.00    -0.282 N 
ATOM     20  H4  UNL     1      -4.940  35.975  20.760  1.00  0.00     0.189 HD
HETATM   21  C11 UNL     1      -3.964  38.969  21.088  1.00  0.00     0.163 A 
ATOM     22  H5  UNL     1      -4.030  37.655  19.536  1.00  0.00     0.188 HD
HETATM   23 CL1  UNL     1      -3.266  40.349  20.270  1.00  0.00    -0.055 Cl
HETATM   24  S1  UNL     1      -4.475  38.682  22.686  1.00  0.00    -0.021 SA
ENDBRANCH   5  17
TORSDOF 4
ENDMDL
MODEL 4
REMARK VINA RESULT: -6.678530019      3.954      6.327
REMARK  4 active torsions:
REMARK  status: ('A' for Active; 'I' for Inactive)
REMARK    1  A    between atoms: N1_5  and  C5_6 
REMARK    2  A    between atoms: C5_6  and  C6_11 
REMARK    3  A    between atoms: N2_7  and  O1_9 
REMARK    4  A    between atoms: N3_15  and  C10_16 
ROOT
HETATM    1  C6  UNL     1      -4.916  35.124  24.175  1.00  0.00     0.155 C 
HETATM    2  C7  UNL     1      -5.762  33.886  23.829  1.00  0.00     0.035 C 
HETATM    3  C8  UNL     1      -7.155  34.465  23.661  1.00  0.00     0.022 C 
HETATM    4  C9  UNL     1      -6.986  35.991  23.702  1.00  0.00     0.126 C 
HETATM    5  N3  UNL     1      -5.593  36.106  23.400  1.00  0.00    -0.349 N 
ENDROOT
BRANCH   1   6
HETATM    6  C5  UNL     1      -3.502  34.908  23.865  1.00  0.00     0.122 C 
HETATM    7  N2  UNL     1      -3.028  33.996  23.122  1.00  0.00    -0.255 N 
ATOM      8  H2  UNL     1      -3.673  33.336  22.688  1.00  0.00     0.195 HD
BRANCH   6   9
HETATM    9  N1  UNL     1      -2.573  35.817  24.457  1.00  0.00    -0.367 N 
HETATM   10  C4  UNL     1      -2.389  35.934  25.907  1.00  0.00     0.124 C 
HETATM   11  C3  UNL     1      -2.141  37.429  26.035  1.00  0.00     0.026 C 
HETATM   12  C2  UNL     1      -1.185  37.660  24.876  1.00  0.00     0.001 C 
HETATM   13  C1  UNL     1       0.192  37.218  25.281  1.00  0.00     0.011 C 
HETATM   14  C12 UNL     1      -1.692  36.738  23.783  1.00  0.00     0.128 C 
ENDBRANCH   6   9
BRANCH   7  15
HETATM   15  O1  UNL     1      -1.688  33.860  22.878  1.00  0.00    -0.288 OA
ATOM     16  H1  UNL     1      -1.340  33.638  22.022  1.00  0.00     0.244 HD
ENDBRANCH   7  15
ENDBRANCH   1   6
BRANCH   5  17
HETATM   17  C10 UNL     1      -5.039  37.034  22.492  1.00  0.00     0.165 A 
HETATM   18  N4  UNL     1      -4.736  36.885  21.203  1.00  0.00    -0.278 N 
HETATM   19  N5  UNL     1      -4.241  37.836  20.547  1.00  0.00    -0.282 N 
ATOM     20  H4  UNL     1      -4.908  35.991  20.743  1.00  0.00     0.189 HD
HETATM   21  C11 UNL     1      -4.012  39.003  21.130  1.00  0.00     0.163 A 
ATOM     22  H5  UNL     1      -4.013  37.708  19.560  1.00  0.00     0.188 HD
HETATM   23 CL1  UNL     1      -3.331  40.410  20.346  1.00  0.00    -0.055 Cl
HETATM   24  S1  UNL     1      -4.550  38.682  22.713  1.00  0.00    -0.021 SA
ENDBRANCH   5  17
TORSDOF 4
ENDMDL
MODEL 5
REMARK VINA RESULT: -6.420598037      3.210      5.213
REMARK  4 active torsions:
REMARK  status: ('A' for Active; 'I' for Inactive)
REMARK    1  A    between atoms: N1_5  and  C5_6 
REMARK    2  A    between atoms: C5_6  and  C6_11 
REMARK    3  A    between atoms: N2_7  and  O1_9 
REMARK    4  A    between atoms: N3_15  and  C10_16 
ROOT
HETATM    1  C6  UNL     1      -4.933  38.728  23.303  1.00  0.00     0.155 C 
HETATM    2  C7  UNL     1      -5.163  40.022  22.501  1.00  0.00     0.035 C 
HETATM    3  C8  UNL     1      -4.615  41.094  23.425  1.00  0.00     0.022 C 
HETATM    4  C9  UNL     1      -3.920  40.347  24.574  1.00  0.00     0.126 C 
HETATM    5  N3  UNL     1      -3.723  39.066  23.969  1.00  0.00    -0.349 N 
ENDROOT
BRANCH   1   6
HETATM    6  C5  UNL     1      -4.891  37.557  22.427  1.00  0.00     0.122 C 
HETATM    7  N2  UNL     1      -4.290  37.474  21.313  1.00  0.00    -0.255 N 
ATOM      8  H2  UNL     1      -3.779  38.289  20.973  1.00  0.00     0.195 HD
BRANCH   6   9
HETATM    9  N1  UNL     1      -5.596  36.398  22.876  1.00  0.00    -0.367 N 
HETATM   10  C4  UNL     1      -6.956  36.073  22.433  1.00  0.00     0.124 C 
HETATM   11  C3  UNL     1      -7.529  35.480  23.710  1.00  0.00     0.026 C 
HETATM   12  C2  UNL     1      -6.376  34.596  24.156  1.00  0.00     0.001 C 
HETATM   13  C1  UNL     1      -6.390  33.328  23.352  1.00  0.00     0.011 C 
HETATM   14  C12 UNL     1      -5.134  35.389  23.795  1.00  0.00     0.128 C 
ENDBRANCH   6   9
BRANCH   7  15
HETATM   15  O1  UNL     1      -4.296  36.338  20.549  1.00  0.00    -0.288 OA
ATOM     16  H1  UNL     1      -4.817  35.575  20.766  1.00  0.00     0.244 HD
ENDBRANCH   7  15
ENDBRANCH   1   6
BRANCH   5  17
HETATM   17  C10 UNL     1      -2.529  38.316  24.041  1.00  0.00     0.165 A 
HETATM   18  N4  UNL     1      -1.411  38.424  23.324  1.00  0.00    -0.278 N 
HETATM   19  N5  UNL     1      -0.439  37.656  23.533  1.00  0.00    -0.282 N 
ATOM     20  H4  UNL     1      -1.343  39.139  22.600  1.00  0.00     0.189 HD
HETATM   21  C11 UNL     1      -0.513  36.724  24.471  1.00  0.00     0.163 A 
ATOM     22  H5  UNL     1       0.411  37.750  22.976  1.00  0.00     0.188 HD
HETATM   23 CL1  UNL     1       0.756  35.588  24.871  1.00  0.00    -0.055 Cl
HETATM   24  S1  UNL     1      -2.083  36.993  25.070  1.00  0.00    -0.021 SA
ENDBRANCH   5  17
TORSDOF 4
ENDMDL
