MODEL 1
REMARK VINA RESULT: -8.150055493      0.000      0.000
REMARK  3 active torsions:
REMARK  status: ('A' for Active; 'I' for Inactive)
REMARK    1  A    between atoms: C2_2  and  C3_3 
REMARK    2  A    between atoms: C2_2  and  N2_16 
REMARK       I    between atoms: C3_3  and  N1_5 
REMARK    3  A    between atoms: N1_5  and  C4_7 
ROOT
HETATM    1  C3  UNL     1      36.891  50.760  13.951  1.00  0.00     0.240 C 
HETATM    2  O1  UNL     1      36.751  49.644  13.393  1.00  0.00    -0.271 OA
HETATM    3  N1  UNL     1      38.191  51.279  14.070  1.00  0.00    -0.351 N 
ATOM      4  H1  UNL     1      38.304  52.184  14.525  1.00  0.00     0.163 HD
ENDROOT
BRANCH   1   5
HETATM    5  C2  UNL     1      35.677  51.438  14.439  1.00  0.00     0.167 C 
HETATM    6  C1  UNL     1      36.006  52.482  15.484  1.00  0.00     0.042 C 
BRANCH   5   7
HETATM    7  N2  UNL     1      34.593  50.597  14.795  1.00  0.00    -0.397 N 
HETATM    8  C13 UNL     1      34.036  50.777  16.089  1.00  0.00     0.148 C 
HETATM    9  C14 UNL     1      32.789  51.611  16.122  1.00  0.00     0.291 C 
HETATM   10  N3  UNL     1      32.147  51.709  14.828  1.00  0.00     0.087 N 
HETATM   11  C15 UNL     1      30.780  52.119  14.914  1.00  0.00     0.310 C 
HETATM   12  C16 UNL     1      32.238  50.448  14.156  1.00  0.00     0.291 C 
HETATM   13  C17 UNL     1      33.692  50.249  13.761  1.00  0.00     0.148 C 
ENDBRANCH   5   7
ENDBRANCH   1   5
BRANCH   3  14
HETATM   14  C4  UNL     1      39.390  50.602  13.583  1.00  0.00     0.107 C 
HETATM   15  C5  UNL     1      40.426  50.725  14.587  1.00  0.00    -0.002 C 
HETATM   16  C6  UNL     1      41.235  51.896  14.797  1.00  0.00    -0.006 C 
HETATM   17  C7  UNL     1      41.808  52.732  13.753  1.00  0.00    -0.027 C 
HETATM   18  C8  UNL     1      42.446  52.204  12.559  1.00  0.00     0.027 C 
HETATM   19  C9  UNL     1      42.796  50.773  12.495  1.00  0.00     0.004 C 
HETATM   20  C10 UNL     1      41.842  49.861  11.838  1.00  0.00     0.000 C 
HETATM   21  C11 UNL     1      40.565  50.394  11.325  1.00  0.00     0.002 C 
HETATM   22  C12 UNL     1      39.577  51.018  12.185  1.00  0.00     0.029 C 
ENDBRANCH   3  14
TORSDOF 3
ENDMDL
MODEL 2
REMARK VINA RESULT: -7.796311391      2.659      4.357
REMARK  3 active torsions:
REMARK  status: ('A' for Active; 'I' for Inactive)
REMARK    1  A    between atoms: C2_2  and  C3_3 
REMARK    2  A    between atoms: C2_2  and  N2_16 
REMARK       I    between atoms: C3_3  and  N1_5 
REMARK    3  A    between atoms: N1_5  and  C4_7 
ROOT
HETATM    1  C3  UNL     1      37.867  51.046  15.867  1.00  0.00     0.240 C 
HETATM    2  O1  UNL     1      38.466  50.159  16.522  1.00  0.00    -0.271 OA
HETATM    3  N1  UNL     1      38.345  51.353  14.582  1.00  0.00    -0.351 N 
ATOM      4  H1  UNL     1      37.860  52.075  14.050  1.00  0.00     0.163 HD
ENDROOT
BRANCH   1   5
HETATM    5  C2  UNL     1      36.707  51.700  16.499  1.00  0.00     0.167 C 
HETATM    6  C1  UNL     1      35.693  52.148  15.470  1.00  0.00     0.042 C 
BRANCH   5   7
HETATM    7  N2  UNL     1      37.002  52.683  17.476  1.00  0.00    -0.397 N 
HETATM    8  C13 UNL     1      36.784  52.328  18.833  1.00  0.00     0.148 C 
HETATM    9  C14 UNL     1      38.015  51.897  19.573  1.00  0.00     0.291 C 
HETATM   10  N3  UNL     1      39.236  52.328  18.926  1.00  0.00     0.087 N 
HETATM   11  C15 UNL     1      40.368  52.307  19.800  1.00  0.00     0.310 C 
HETATM   12  C16 UNL     1      39.053  53.645  18.396  1.00  0.00     0.291 C 
HETATM   13  C17 UNL     1      38.106  53.530  17.213  1.00  0.00     0.148 C 
ENDBRANCH   5   7
ENDBRANCH   1   5
BRANCH   3  14
HETATM   14  C4  UNL     1      39.495  50.701  13.960  1.00  0.00     0.107 C 
HETATM   15  C5  UNL     1      40.654  50.911  14.804  1.00  0.00    -0.002 C 
HETATM   16  C6  UNL     1      41.430  52.121  14.851  1.00  0.00    -0.006 C 
HETATM   17  C7  UNL     1      41.815  52.929  13.704  1.00  0.00    -0.027 C 
HETATM   18  C8  UNL     1      42.306  52.371  12.455  1.00  0.00     0.027 C 
HETATM   19  C9  UNL     1      42.708  50.953  12.401  1.00  0.00     0.004 C 
HETATM   20  C10 UNL     1      41.715  49.975  11.921  1.00  0.00     0.000 C 
HETATM   21  C11 UNL     1      40.356  50.434  11.570  1.00  0.00     0.002 C 
HETATM   22  C12 UNL     1      39.469  51.058  12.534  1.00  0.00     0.029 C 
ENDBRANCH   3  14
TORSDOF 3
ENDMDL
MODEL 3
REMARK VINA RESULT: -7.727377085      4.438      7.495
REMARK  3 active torsions:
REMARK  status: ('A' for Active; 'I' for Inactive)
REMARK    1  A    between atoms: C2_2  and  C3_3 
REMARK    2  A    between atoms: C2_2  and  N2_16 
REMARK       I    between atoms: C3_3  and  N1_5 
REMARK    3  A    between atoms: N1_5  and  C4_7 
ROOT
HETATM    1  C3  UNL     1      40.560  52.687  17.522  1.00  0.00     0.240 C 
HETATM    2  O1  UNL     1      40.673  51.499  17.911  1.00  0.00    -0.271 OA
HETATM    3  N1  UNL     1      40.443  52.920  16.141  1.00  0.00    -0.351 N 
ATOM      4  H1  UNL     1      40.353  53.885  15.826  1.00  0.00     0.163 HD
ENDROOT
BRANCH   1   5
HETATM    5  C2  UNL     1      40.559  53.746  18.547  1.00  0.00     0.167 C 
HETATM    6  C1  UNL     1      39.857  54.993  18.056  1.00  0.00     0.042 C 
BRANCH   5   7
HETATM    7  N2  UNL     1      41.802  54.002  19.178  1.00  0.00    -0.397 N 
HETATM    8  C13 UNL     1      42.963  53.948  18.362  1.00  0.00     0.148 C 
HETATM    9  C14 UNL     1      43.459  55.283  17.891  1.00  0.00     0.291 C 
HETATM   10  N3  UNL     1      42.952  56.381  18.686  1.00  0.00     0.087 N 
HETATM   11  C15 UNL     1      43.720  57.578  18.537  1.00  0.00     0.310 C 
HETATM   12  C16 UNL     1      42.914  55.992  20.063  1.00  0.00     0.291 C 
HETATM   13  C17 UNL     1      41.802  54.967  20.215  1.00  0.00     0.148 C 
ENDBRANCH   5   7
ENDBRANCH   1   5
BRANCH   3  14
HETATM   14  C4  UNL     1      40.443  51.865  15.131  1.00  0.00     0.107 C 
HETATM   15  C5  UNL     1      41.743  51.843  14.492  1.00  0.00    -0.002 C 
HETATM   16  C6  UNL     1      42.173  52.755  13.465  1.00  0.00    -0.006 C 
HETATM   17  C7  UNL     1      41.363  53.225  12.353  1.00  0.00    -0.027 C 
HETATM   18  C8  UNL     1      40.497  52.361  11.566  1.00  0.00     0.027 C 
HETATM   19  C9  UNL     1      40.626  50.898  11.689  1.00  0.00     0.004 C 
HETATM   20  C10 UNL     1      39.715  50.203  12.617  1.00  0.00     0.000 C 
HETATM   21  C11 UNL     1      38.760  50.991  13.421  1.00  0.00     0.002 C 
HETATM   22  C12 UNL     1      39.185  51.993  14.380  1.00  0.00     0.029 C 
ENDBRANCH   3  14
TORSDOF 3
ENDMDL
MODEL 4
REMARK VINA RESULT: -7.534370209      4.764      7.960
REMARK  3 active torsions:
REMARK  status: ('A' for Active; 'I' for Inactive)
REMARK    1  A    between atoms: C2_2  and  C3_3 
REMARK    2  A    between atoms: C2_2  and  N2_16 
REMARK       I    between atoms: C3_3  and  N1_5 
REMARK    3  A    between atoms: N1_5  and  C4_7 
ROOT
HETATM    1  C3  UNL     1      41.106  52.925  17.325  1.00  0.00     0.240 C 
HETATM    2  O1  UNL     1      40.682  51.830  17.769  1.00  0.00    -0.271 OA
HETATM    3  N1  UNL     1      41.337  53.029  15.943  1.00  0.00    -0.351 N 
ATOM      4  H1  UNL     1      41.683  53.918  15.582  1.00  0.00     0.163 HD
ENDROOT
BRANCH   1   5
HETATM    5  C2  UNL     1      41.329  54.016  18.290  1.00  0.00     0.167 C 
HETATM    6  C1  UNL     1      40.163  54.979  18.319  1.00  0.00     0.042 C 
BRANCH   5   7
HETATM    7  N2  UNL     1      42.594  54.653  18.228  1.00  0.00    -0.397 N 
HETATM    8  C13 UNL     1      42.610  56.066  18.364  1.00  0.00     0.148 C 
HETATM    9  C14 UNL     1      42.953  56.559  19.739  1.00  0.00     0.291 C 
HETATM   10  N3  UNL     1      43.618  55.555  20.543  1.00  0.00     0.087 N 
HETATM   11  C15 UNL     1      44.316  56.110  21.661  1.00  0.00     0.310 C 
HETATM   12  C16 UNL     1      44.524  54.812  19.721  1.00  0.00     0.291 C 
HETATM   13  C17 UNL     1      43.688  53.951  18.789  1.00  0.00     0.148 C 
ENDBRANCH   5   7
ENDBRANCH   1   5
BRANCH   3  14
HETATM   14  C4  UNL     1      41.112  51.944  14.991  1.00  0.00     0.107 C 
HETATM   15  C5  UNL     1      42.226  51.909  14.065  1.00  0.00    -0.002 C 
HETATM   16  C6  UNL     1      42.391  52.791  12.941  1.00  0.00    -0.006 C 
HETATM   17  C7  UNL     1      41.337  53.222  12.037  1.00  0.00    -0.027 C 
HETATM   18  C8  UNL     1      40.321  52.331  11.501  1.00  0.00     0.027 C 
HETATM   19  C9  UNL     1      40.493  50.872  11.632  1.00  0.00     0.004 C 
HETATM   20  C10 UNL     1      39.835  50.202  12.768  1.00  0.00     0.000 C 
HETATM   21  C11 UNL     1      39.085  51.009  13.751  1.00  0.00     0.002 C 
HETATM   22  C12 UNL     1      39.712  52.042  14.555  1.00  0.00     0.029 C 
ENDBRANCH   3  14
TORSDOF 3
ENDMDL
MODEL 5
REMARK VINA RESULT: -7.476362744      4.394      5.755
REMARK  3 active torsions:
REMARK  status: ('A' for Active; 'I' for Inactive)
REMARK    1  A    between atoms: C2_2  and  C3_3 
REMARK    2  A    between atoms: C2_2  and  N2_16 
REMARK       I    between atoms: C3_3  and  N1_5 
REMARK    3  A    between atoms: N1_5  and  C4_7 
ROOT
HETATM    1  C3  UNL     1      40.672  52.068  17.384  1.00  0.00     0.240 C 
HETATM    2  O1  UNL     1      40.050  50.998  17.589  1.00  0.00    -0.271 OA
HETATM    3  N1  UNL     1      41.068  52.358  16.067  1.00  0.00    -0.351 N 
ATOM      4  H1  UNL     1      41.576  53.226  15.901  1.00  0.00     0.163 HD
ENDROOT
BRANCH   1   5
HETATM    5  C2  UNL     1      40.941  52.938  18.543  1.00  0.00     0.167 C 
HETATM    6  C1  UNL     1      40.941  52.155  19.838  1.00  0.00     0.042 C 
BRANCH   5   7
HETATM    7  N2  UNL     1      40.195  54.142  18.604  1.00  0.00    -0.397 N 
HETATM    8  C13 UNL     1      38.955  54.166  17.913  1.00  0.00     0.148 C 
HETATM    9  C14 UNL     1      37.752  53.926  18.776  1.00  0.00     0.291 C 
HETATM   10  N3  UNL     1      38.019  54.148  20.182  1.00  0.00     0.087 N 
HETATM   11  C15 UNL     1      36.830  54.341  20.952  1.00  0.00     0.310 C 
HETATM   12  C16 UNL     1      38.885  55.278  20.328  1.00  0.00     0.291 C 
HETATM   13  C17 UNL     1      40.257  54.868  19.818  1.00  0.00     0.148 C 
ENDBRANCH   5   7
ENDBRANCH   1   5
BRANCH   3  14
HETATM   14  C4  UNL     1      40.799  51.492  14.923  1.00  0.00     0.107 C 
HETATM   15  C5  UNL     1      41.997  51.416  14.112  1.00  0.00    -0.002 C 
HETATM   16  C6  UNL     1      42.427  52.425  13.181  1.00  0.00    -0.006 C 
HETATM   17  C7  UNL     1      41.566  53.167  12.274  1.00  0.00    -0.027 C 
HETATM   18  C8  UNL     1      40.499  52.557  11.498  1.00  0.00     0.027 C 
HETATM   19  C9  UNL     1      40.432  51.088  11.384  1.00  0.00     0.004 C 
HETATM   20  C10 UNL     1      39.548  50.367  12.319  1.00  0.00     0.000 C 
HETATM   21  C11 UNL     1      38.817  51.122  13.354  1.00  0.00     0.002 C 
HETATM   22  C12 UNL     1      39.491  51.893  14.382  1.00  0.00     0.029 C 
ENDBRANCH   3  14
TORSDOF 3
ENDMDL
