MODEL 1
REMARK VINA RESULT: -8.816749166      0.000      0.000
REMARK  8 active torsions:
REMARK  status: ('A' for Active; 'I' for Inactive)
REMARK    1  A    between atoms: C3_3  and  C5_5 
REMARK       I    between atoms: C5_5  and  N1_7 
REMARK    2  A    between atoms: C11_16  and  C12_17 
REMARK       I    between atoms: C12_17  and  N3_19 
REMARK    3  A    between atoms: N3_19  and  C13_21 
REMARK    4  A    between atoms: C13_21  and  O5_26 
REMARK    5  A    between atoms: N4_22  and  O4_24 
REMARK    6  A    between atoms: O5_26  and  C14_27 
REMARK    7  A    between atoms: C14_27  and  C15_28 
REMARK    8  A    between atoms: C15_28  and  C16_29 
ROOT
HETATM    1  C5  UNL     1      31.486  51.408  14.108  1.00  0.00     0.251 C 
HETATM    2  O1  UNL     1      31.325  52.200  13.127  1.00  0.00    -0.268 OA
HETATM    3  N1  UNL     1      32.565  51.651  14.967  1.00  0.00    -0.320 N 
ATOM      4  H1  UNL     1      32.438  52.362  15.688  1.00  0.00     0.169 HD
HETATM    5  C6  UNL     1      33.693  51.058  14.925  1.00  0.00     0.108 C 
HETATM    6  C7  UNL     1      34.207  50.001  14.029  1.00  0.00     0.274 C 
HETATM    7  O2  UNL     1      33.815  49.079  13.303  1.00  0.00    -0.266 OA
HETATM    8  N2  UNL     1      35.504  50.496  14.348  1.00  0.00    -0.301 N 
HETATM    9  C8  UNL     1      36.894  50.687  14.051  1.00  0.00     0.029 C 
HETATM   10  C9  UNL     1      37.403  50.366  12.887  1.00  0.00    -0.005 C 
HETATM   11  C10 UNL     1      36.585  49.787  11.804  1.00  0.00     0.038 C 
HETATM   12  C11 UNL     1      37.681  51.279  15.158  1.00  0.00     0.150 C 
HETATM   13  C18 UNL     1      36.961  52.514  15.556  1.00  0.00    -0.008 C 
HETATM   14  C19 UNL     1      35.659  52.386  15.772  1.00  0.00     0.002 C 
HETATM   15  C20 UNL     1      34.984  51.043  15.614  1.00  0.00     0.171 C 
ENDROOT
BRANCH  12  16
HETATM   16  C12 UNL     1      39.098  51.487  14.893  1.00  0.00     0.238 C 
HETATM   17  O3  UNL     1      39.408  52.563  14.271  1.00  0.00    -0.272 OA
HETATM   18  N3  UNL     1      40.138  50.599  15.265  1.00  0.00    -0.290 N 
ATOM     19  H3  UNL     1      39.905  49.739  15.761  1.00  0.00     0.172 HD
BRANCH  18  20
HETATM   20  C13 UNL     1      41.489  50.879  14.966  1.00  0.00     0.246 C 
HETATM   21  N4  UNL     1      42.428  50.682  15.829  1.00  0.00    -0.232 N 
ATOM     22  H4  UNL     1      43.398  50.891  15.595  1.00  0.00     0.198 HD
BRANCH  21  23
HETATM   23  O4  UNL     1      42.098  50.181  17.082  1.00  0.00    -0.287 OA
ATOM     24  H4  UNL     1      42.794  49.976  17.695  1.00  0.00     0.244 HD
ENDBRANCH  21  23
BRANCH  20  25
HETATM   25  O5  UNL     1      41.900  51.384  13.733  1.00  0.00    -0.321 OA
BRANCH  25  26
HETATM   26  C14 UNL     1      42.874  50.735  12.938  1.00  0.00     0.179 C 
BRANCH  26  27
HETATM   27  C15 UNL     1      42.204  49.936  11.815  1.00  0.00     0.026 C 
BRANCH  27  28
HETATM   28  C16 UNL     1      40.784  50.417  11.613  1.00  0.00    -0.002 C 
HETATM   29  C17 UNL     1      40.063  49.470  10.678  1.00  0.00     0.005 C 
ENDBRANCH  27  28
ENDBRANCH  26  27
ENDBRANCH  25  26
ENDBRANCH  20  25
ENDBRANCH  18  20
ENDBRANCH  12  16
BRANCH   1  30
HETATM   30  C3  UNL     1      30.544  50.313  14.266  1.00  0.00     0.002 C 
HETATM   31  C2  UNL     1      30.519  49.658  15.407  1.00  0.00    -0.019 C 
HETATM   32  C1  UNL     1      29.573  48.542  15.597  1.00  0.00     0.036 C 
HETATM   33  C4  UNL     1      29.615  49.919  13.181  1.00  0.00     0.054 C 
ENDBRANCH   1  30
TORSDOF 8
ENDMDL
MODEL 2
REMARK VINA RESULT: -8.788923947      1.065      1.080
REMARK  8 active torsions:
REMARK  status: ('A' for Active; 'I' for Inactive)
REMARK    1  A    between atoms: C3_3  and  C5_5 
REMARK       I    between atoms: C5_5  and  N1_7 
REMARK    2  A    between atoms: C11_16  and  C12_17 
REMARK       I    between atoms: C12_17  and  N3_19 
REMARK    3  A    between atoms: N3_19  and  C13_21 
REMARK    4  A    between atoms: C13_21  and  O5_26 
REMARK    5  A    between atoms: N4_22  and  O4_24 
REMARK    6  A    between atoms: O5_26  and  C14_27 
REMARK    7  A    between atoms: C14_27  and  C15_28 
REMARK    8  A    between atoms: C15_28  and  C16_29 
ROOT
HETATM    1  C5  UNL     1      32.160  51.375  14.565  1.00  0.00     0.251 C 
HETATM    2  O1  UNL     1      31.939  52.092  13.539  1.00  0.00    -0.268 OA
HETATM    3  N1  UNL     1      33.245  51.723  15.379  1.00  0.00    -0.320 N 
ATOM      4  H1  UNL     1      33.101  52.474  16.054  1.00  0.00     0.169 HD
HETATM    5  C6  UNL     1      34.398  51.181  15.346  1.00  0.00     0.108 C 
HETATM    6  C7  UNL     1      34.942  50.091  14.508  1.00  0.00     0.274 C 
HETATM    7  O2  UNL     1      34.577  49.107  13.854  1.00  0.00    -0.266 OA
HETATM    8  N2  UNL     1      36.221  50.665  14.760  1.00  0.00    -0.301 N 
HETATM    9  C8  UNL     1      37.593  50.900  14.416  1.00  0.00     0.029 C 
HETATM   10  C9  UNL     1      38.090  50.526  13.262  1.00  0.00    -0.005 C 
HETATM   11  C10 UNL     1      37.276  49.839  12.240  1.00  0.00     0.038 C 
HETATM   12  C11 UNL     1      38.377  51.599  15.461  1.00  0.00     0.150 C 
HETATM   13  C18 UNL     1      37.607  52.824  15.796  1.00  0.00    -0.008 C 
HETATM   14  C19 UNL     1      36.318  52.651  16.054  1.00  0.00     0.002 C 
HETATM   15  C20 UNL     1      35.705  51.271  16.001  1.00  0.00     0.171 C 
ENDROOT
BRANCH  12  16
HETATM   16  C12 UNL     1      39.775  51.854  15.146  1.00  0.00     0.238 C 
HETATM   17  O3  UNL     1      40.010  52.822  14.340  1.00  0.00    -0.272 OA
HETATM   18  N3  UNL     1      40.874  51.119  15.656  1.00  0.00    -0.290 N 
ATOM     19  H3  UNL     1      40.702  50.346  16.299  1.00  0.00     0.172 HD
BRANCH  18  20
HETATM   20  C13 UNL     1      42.203  51.434  15.296  1.00  0.00     0.246 C 
HETATM   21  N4  UNL     1      42.810  52.464  15.783  1.00  0.00    -0.232 N 
ATOM     22  H4  UNL     1      43.769  52.676  15.510  1.00  0.00     0.198 HD
BRANCH  21  23
HETATM   23  O4  UNL     1      42.137  53.281  16.683  1.00  0.00    -0.287 OA
ATOM     24  H4  UNL     1      41.362  53.747  16.392  1.00  0.00     0.244 HD
ENDBRANCH  21  23
BRANCH  20  25
HETATM   25  O5  UNL     1      42.944  50.666  14.400  1.00  0.00    -0.321 OA
BRANCH  25  26
HETATM   26  C14 UNL     1      43.355  51.161  13.140  1.00  0.00     0.179 C 
BRANCH  26  27
HETATM   27  C15 UNL     1      42.831  50.265  12.014  1.00  0.00     0.026 C 
BRANCH  27  28
HETATM   28  C16 UNL     1      41.334  50.432  11.874  1.00  0.00    -0.002 C 
HETATM   29  C17 UNL     1      40.792  49.347  10.969  1.00  0.00     0.005 C 
ENDBRANCH  27  28
ENDBRANCH  26  27
ENDBRANCH  25  26
ENDBRANCH  20  25
ENDBRANCH  18  20
ENDBRANCH  12  16
BRANCH   1  30
HETATM   30  C3  UNL     1      31.274  50.251  14.819  1.00  0.00     0.002 C 
HETATM   31  C2  UNL     1      30.924  49.988  16.060  1.00  0.00    -0.019 C 
HETATM   32  C1  UNL     1      30.026  48.853  16.348  1.00  0.00     0.036 C 
HETATM   33  C4  UNL     1      30.759  49.399  13.722  1.00  0.00     0.054 C 
ENDBRANCH   1  30
TORSDOF 8
ENDMDL
MODEL 3
REMARK VINA RESULT: -8.657459833      2.354      8.552
REMARK  8 active torsions:
REMARK  status: ('A' for Active; 'I' for Inactive)
REMARK    1  A    between atoms: C3_3  and  C5_5 
REMARK       I    between atoms: C5_5  and  N1_7 
REMARK    2  A    between atoms: C11_16  and  C12_17 
REMARK       I    between atoms: C12_17  and  N3_19 
REMARK    3  A    between atoms: N3_19  and  C13_21 
REMARK    4  A    between atoms: C13_21  and  O5_26 
REMARK    5  A    between atoms: N4_22  and  O4_24 
REMARK    6  A    between atoms: O5_26  and  C14_27 
REMARK    7  A    between atoms: C14_27  and  C15_28 
REMARK    8  A    between atoms: C15_28  and  C16_29 
ROOT
HETATM    1  C5  UNL     1      40.363  51.784  12.093  1.00  0.00     0.251 C 
HETATM    2  O1  UNL     1      40.234  52.967  11.648  1.00  0.00    -0.268 OA
HETATM    3  N1  UNL     1      39.194  51.076  12.400  1.00  0.00    -0.320 N 
ATOM      4  H1  UNL     1      38.703  50.627  11.627  1.00  0.00     0.169 HD
HETATM    5  C6  UNL     1      38.693  50.945  13.564  1.00  0.00     0.108 C 
HETATM    6  C7  UNL     1      39.134  51.454  14.881  1.00  0.00     0.274 C 
HETATM    7  O2  UNL     1      40.151  51.827  15.477  1.00  0.00    -0.266 OA
HETATM    8  N2  UNL     1      37.769  51.343  15.273  1.00  0.00    -0.301 N 
HETATM    9  C8  UNL     1      36.653  51.716  16.093  1.00  0.00     0.029 C 
HETATM   10  C9  UNL     1      36.718  52.720  16.933  1.00  0.00    -0.005 C 
HETATM   11  C10 UNL     1      37.939  53.535  17.092  1.00  0.00     0.038 C 
HETATM   12  C11 UNL     1      35.444  50.883  15.899  1.00  0.00     0.150 C 
HETATM   13  C18 UNL     1      35.168  50.898  14.441  1.00  0.00    -0.008 C 
HETATM   14  C19 UNL     1      36.195  50.624  13.649  1.00  0.00     0.002 C 
HETATM   15  C20 UNL     1      37.554  50.317  14.236  1.00  0.00     0.171 C 
ENDROOT
BRANCH  12  16
HETATM   16  C12 UNL     1      34.291  51.232  16.718  1.00  0.00     0.238 C 
HETATM   17  O3  UNL     1      34.054  50.472  17.722  1.00  0.00    -0.272 OA
HETATM   18  N3  UNL     1      33.428  52.332  16.485  1.00  0.00    -0.290 N 
ATOM     19  H3  UNL     1      33.605  52.945  15.689  1.00  0.00     0.172 HD
BRANCH  18  20
HETATM   20  C13 UNL     1      32.329  52.598  17.331  1.00  0.00     0.246 C 
HETATM   21  N4  UNL     1      32.489  53.080  18.517  1.00  0.00    -0.232 N 
ATOM     22  H4  UNL     1      31.683  53.266  19.114  1.00  0.00     0.198 HD
BRANCH  21  23
HETATM   23  O4  UNL     1      33.776  53.343  18.970  1.00  0.00    -0.287 OA
ATOM     24  H4  UNL     1      33.984  53.187  19.883  1.00  0.00     0.244 HD
ENDBRANCH  21  23
BRANCH  20  25
HETATM   25  O5  UNL     1      31.009  52.361  16.950  1.00  0.00    -0.321 OA
BRANCH  25  26
HETATM   26  C14 UNL     1      30.665  51.386  15.984  1.00  0.00     0.179 C 
BRANCH  26  27
HETATM   27  C15 UNL     1      30.447  52.040  14.616  1.00  0.00     0.026 C 
BRANCH  27  28
HETATM   28  C16 UNL     1      31.400  51.447  13.601  1.00  0.00    -0.002 C 
HETATM   29  C17 UNL     1      31.672  50.001  13.955  1.00  0.00     0.005 C 
ENDBRANCH  27  28
ENDBRANCH  26  27
ENDBRANCH  25  26
ENDBRANCH  20  25
ENDBRANCH  18  20
ENDBRANCH  12  16
BRANCH   1  30
HETATM   30  C3  UNL     1      41.707  51.254  12.251  1.00  0.00     0.002 C 
HETATM   31  C2  UNL     1      42.625  52.011  12.812  1.00  0.00    -0.019 C 
HETATM   32  C1  UNL     1      43.998  51.500  12.986  1.00  0.00     0.036 C 
HETATM   33  C4  UNL     1      42.067  49.890  11.798  1.00  0.00     0.054 C 
ENDBRANCH   1  30
TORSDOF 8
ENDMDL
MODEL 4
REMARK VINA RESULT: -8.593522743      2.410      9.115
REMARK  8 active torsions:
REMARK  status: ('A' for Active; 'I' for Inactive)
REMARK    1  A    between atoms: C3_3  and  C5_5 
REMARK       I    between atoms: C5_5  and  N1_7 
REMARK    2  A    between atoms: C11_16  and  C12_17 
REMARK       I    between atoms: C12_17  and  N3_19 
REMARK    3  A    between atoms: N3_19  and  C13_21 
REMARK    4  A    between atoms: C13_21  and  O5_26 
REMARK    5  A    between atoms: N4_22  and  O4_24 
REMARK    6  A    between atoms: O5_26  and  C14_27 
REMARK    7  A    between atoms: C14_27  and  C15_28 
REMARK    8  A    between atoms: C15_28  and  C16_29 
ROOT
HETATM    1  C5  UNL     1      40.260  51.582  11.770  1.00  0.00     0.251 C 
HETATM    2  O1  UNL     1      40.147  52.736  11.250  1.00  0.00    -0.268 OA
HETATM    3  N1  UNL     1      39.092  50.824  11.928  1.00  0.00    -0.320 N 
ATOM      4  H1  UNL     1      38.751  50.316  11.112  1.00  0.00     0.169 HD
HETATM    5  C6  UNL     1      38.421  50.716  13.005  1.00  0.00     0.108 C 
HETATM    6  C7  UNL     1      38.624  51.304  14.347  1.00  0.00     0.274 C 
HETATM    7  O2  UNL     1      39.516  51.758  15.073  1.00  0.00    -0.266 OA
HETATM    8  N2  UNL     1      37.221  51.135  14.527  1.00  0.00    -0.301 N 
HETATM    9  C8  UNL     1      35.974  51.481  15.145  1.00  0.00     0.029 C 
HETATM   10  C9  UNL     1      35.858  52.522  15.932  1.00  0.00    -0.005 C 
HETATM   11  C10 UNL     1      36.998  53.409  16.237  1.00  0.00     0.038 C 
HETATM   12  C11 UNL     1      34.851  50.575  14.808  1.00  0.00     0.150 C 
HETATM   13  C18 UNL     1      34.808  50.514  13.326  1.00  0.00    -0.008 C 
HETATM   14  C19 UNL     1      35.959  50.263  12.718  1.00  0.00     0.002 C 
HETATM   15  C20 UNL     1      37.221  50.056  13.524  1.00  0.00     0.171 C 
ENDROOT
BRANCH  12  16
HETATM   16  C12 UNL     1      33.568  50.896  15.419  1.00  0.00     0.238 C 
HETATM   17  O3  UNL     1      32.717  51.496  14.673  1.00  0.00    -0.272 OA
HETATM   18  N3  UNL     1      33.203  50.598  16.755  1.00  0.00    -0.290 N 
ATOM     19  H3  UNL     1      33.871  50.120  17.360  1.00  0.00     0.172 HD
BRANCH  18  20
HETATM   20  C13 UNL     1      31.935  50.946  17.268  1.00  0.00     0.246 C 
HETATM   21  N4  UNL     1      31.621  52.173  17.522  1.00  0.00    -0.232 N 
ATOM     22  H4  UNL     1      30.700  52.405  17.892  1.00  0.00     0.198 HD
BRANCH  21  23
HETATM   23  O4  UNL     1      32.556  53.171  17.282  1.00  0.00    -0.287 OA
ATOM     24  H4  UNL     1      33.047  53.528  18.012  1.00  0.00     0.244 HD
ENDBRANCH  21  23
BRANCH  20  25
HETATM   25  O5  UNL     1      30.944  50.003  17.536  1.00  0.00    -0.321 OA
BRANCH  25  26
HETATM   26  C14 UNL     1      31.141  48.937  18.444  1.00  0.00     0.179 C 
BRANCH  26  27
HETATM   27  C15 UNL     1      29.898  48.044  18.503  1.00  0.00     0.026 C 
BRANCH  27  28
HETATM   28  C16 UNL     1      30.085  46.963  19.545  1.00  0.00    -0.002 C 
HETATM   29  C17 UNL     1      29.114  45.834  19.274  1.00  0.00     0.005 C 
ENDBRANCH  27  28
ENDBRANCH  26  27
ENDBRANCH  25  26
ENDBRANCH  20  25
ENDBRANCH  18  20
ENDBRANCH  12  16
BRANCH   1  30
HETATM   30  C3  UNL     1      41.586  51.134  12.161  1.00  0.00     0.002 C 
HETATM   31  C2  UNL     1      42.359  51.956  12.838  1.00  0.00    -0.019 C 
HETATM   32  C1  UNL     1      43.710  51.529  13.248  1.00  0.00     0.036 C 
HETATM   33  C4  UNL     1      42.086  49.782  11.819  1.00  0.00     0.054 C 
ENDBRANCH   1  30
TORSDOF 8
ENDMDL
MODEL 5
REMARK VINA RESULT: -8.549718908      3.059      8.499
REMARK  8 active torsions:
REMARK  status: ('A' for Active; 'I' for Inactive)
REMARK    1  A    between atoms: C3_3  and  C5_5 
REMARK       I    between atoms: C5_5  and  N1_7 
REMARK    2  A    between atoms: C11_16  and  C12_17 
REMARK       I    between atoms: C12_17  and  N3_19 
REMARK    3  A    between atoms: N3_19  and  C13_21 
REMARK    4  A    between atoms: C13_21  and  O5_26 
REMARK    5  A    between atoms: N4_22  and  O4_24 
REMARK    6  A    between atoms: O5_26  and  C14_27 
REMARK    7  A    between atoms: C14_27  and  C15_28 
REMARK    8  A    between atoms: C15_28  and  C16_29 
ROOT
HETATM    1  C5  UNL     1      40.956  51.862  12.643  1.00  0.00     0.251 C 
HETATM    2  O1  UNL     1      41.376  53.037  12.882  1.00  0.00    -0.268 OA
HETATM    3  N1  UNL     1      39.586  51.619  12.799  1.00  0.00    -0.320 N 
ATOM      4  H1  UNL     1      38.972  51.890  12.031  1.00  0.00     0.169 HD
HETATM    5  C6  UNL     1      39.041  51.087  13.821  1.00  0.00     0.108 C 
HETATM    6  C7  UNL     1      39.618  50.587  15.087  1.00  0.00     0.274 C 
HETATM    7  O2  UNL     1      40.676  50.152  15.557  1.00  0.00    -0.266 OA
HETATM    8  N2  UNL     1      38.332  50.821  15.654  1.00  0.00    -0.301 N 
HETATM    9  C8  UNL     1      37.470  51.089  16.767  1.00  0.00     0.029 C 
HETATM   10  C9  UNL     1      37.943  51.362  17.958  1.00  0.00    -0.005 C 
HETATM   11  C10 UNL     1      39.392  51.414  18.236  1.00  0.00     0.038 C 
HETATM   12  C11 UNL     1      36.024  51.037  16.449  1.00  0.00     0.150 C 
HETATM   13  C18 UNL     1      35.830  51.942  15.289  1.00  0.00    -0.008 C 
HETATM   14  C19 UNL     1      36.656  51.767  14.267  1.00  0.00     0.002 C 
HETATM   15  C20 UNL     1      37.721  50.695  14.319  1.00  0.00     0.171 C 
ENDROOT
BRANCH  12  16
HETATM   16  C12 UNL     1      35.117  51.304  17.558  1.00  0.00     0.238 C 
HETATM   17  O3  UNL     1      34.556  50.283  18.092  1.00  0.00    -0.272 OA
HETATM   18  N3  UNL     1      34.817  52.587  18.077  1.00  0.00    -0.290 N 
ATOM     19  H3  UNL     1      35.257  53.408  17.661  1.00  0.00     0.172 HD
BRANCH  18  20
HETATM   20  C13 UNL     1      33.922  52.755  19.157  1.00  0.00     0.246 C 
HETATM   21  N4  UNL     1      34.276  52.507  20.373  1.00  0.00    -0.232 N 
ATOM     22  H4  UNL     1      33.616  52.634  21.139  1.00  0.00     0.198 HD
BRANCH  21  23
HETATM   23  O4  UNL     1      35.569  52.065  20.622  1.00  0.00    -0.287 OA
ATOM     24  H4  UNL     1      36.077  52.487  21.305  1.00  0.00     0.244 HD
ENDBRANCH  21  23
BRANCH  20  25
HETATM   25  O5  UNL     1      32.610  53.194  18.988  1.00  0.00    -0.321 OA
BRANCH  25  26
HETATM   26  C14 UNL     1      31.625  52.404  18.351  1.00  0.00     0.179 C 
BRANCH  26  27
HETATM   27  C15 UNL     1      31.638  52.645  16.839  1.00  0.00     0.026 C 
BRANCH  27  28
HETATM   28  C16 UNL     1      31.729  51.325  16.104  1.00  0.00    -0.002 C 
HETATM   29  C17 UNL     1      32.177  51.575  14.680  1.00  0.00     0.005 C 
ENDBRANCH  27  28
ENDBRANCH  26  27
ENDBRANCH  25  26
ENDBRANCH  20  25
ENDBRANCH  18  20
ENDBRANCH  12  16
BRANCH   1  30
HETATM   30  C3  UNL     1      41.923  50.861  12.226  1.00  0.00     0.002 C 
HETATM   31  C2  UNL     1      43.193  51.045  12.519  1.00  0.00    -0.019 C 
HETATM   32  C1  UNL     1      44.197  50.045  12.109  1.00  0.00     0.036 C 
HETATM   33  C4  UNL     1      41.518  49.645  11.481  1.00  0.00     0.054 C 
ENDBRANCH   1  30
TORSDOF 8
ENDMDL
