MODEL 1
REMARK VINA RESULT: -6.844641528      0.000      0.000
REMARK  6 active torsions:
REMARK  status: ('A' for Active; 'I' for Inactive)
REMARK    1  A    between atoms: C2_2  and  C3_3 
REMARK    2  A    between atoms: C5_5  and  C6_6 
REMARK    3  A    between atoms: C7_9  and  N1_10 
REMARK    4  A    between atoms: N3_16  and  C11_18 
REMARK    5  A    between atoms: C14_24  and  N5_25 
REMARK    6  A    between atoms: N5_25  and  O2_27 
ROOT
HETATM    1  N1  UNL     1       5.677   1.602  29.316  1.00  0.00    -0.298 N 
HETATM    2  C8  UNL     1       4.782   0.679  28.917  1.00  0.00     0.188 A 
HETATM    3  N2  UNL     1       3.978   1.223  27.987  1.00  0.00    -0.346 N 
ATOM      4  H2  UNL     1       3.209   0.751  27.512  1.00  0.00     0.167 HD
HETATM    5  C9  UNL     1       4.364   2.510  27.791  1.00  0.00     0.125 A 
HETATM    6  C10 UNL     1       4.115   3.674  27.089  1.00  0.00     0.149 A 
HETATM    7  N3  UNL     1       3.195   3.867  26.206  1.00  0.00    -0.341 N 
ATOM      8  H3  UNL     1       3.101   4.774  25.746  1.00  0.00     0.163 HD
HETATM    9  N6  UNL     1       5.041   4.556  27.533  1.00  0.00    -0.282 N 
ATOM     10  H6  UNL     1       5.121   5.519  27.203  1.00  0.00     0.188 HD
HETATM   11  N7  UNL     1       5.824   4.017  28.441  1.00  0.00    -0.282 N 
ATOM     12  H7  UNL     1       6.594   4.484  28.921  1.00  0.00     0.188 HD
HETATM   13  C16 UNL     1       5.433   2.740  28.630  1.00  0.00     0.156 A 
ENDROOT
BRANCH   7  14
HETATM   14  C11 UNL     1       2.312   2.796  25.880  1.00  0.00     0.334 C 
HETATM   15  N4  UNL     1       2.668   2.045  24.718  1.00  0.00    -0.049 N 
HETATM   16  C12 UNL     1       1.481   1.491  24.146  1.00  0.00     0.241 C 
ATOM     17  H42 UNL     1       3.202   2.597  24.048  1.00  0.00     0.280 HD
ATOM     18  H41 UNL     1       3.374   1.336  24.913  1.00  0.00     0.280 HD
HETATM   19  C13 UNL     1       0.295   2.079  24.905  1.00  0.00     0.086 C 
HETATM   20  C14 UNL     1       0.933   3.260  25.562  1.00  0.00     0.061 C 
BRANCH  20  21
HETATM   21  N5  UNL     1       0.400   4.413  25.796  1.00  0.00    -0.272 N 
ATOM     22  H5  UNL     1      -0.108   4.887  25.049  1.00  0.00     0.193 HD
BRANCH  21  23
HETATM   23  O2  UNL     1       0.500   5.007  27.007  1.00  0.00    -0.285 OA
HETATM   24  C15 UNL     1      -0.004   4.481  28.208  1.00  0.00     0.237 C 
ENDBRANCH  21  23
ENDBRANCH  20  21
ENDBRANCH   7  14
BRANCH   1  25
HETATM   25  C7  UNL     1       6.735   1.427  30.313  1.00  0.00     0.238 C 
HETATM   26  C3  UNL     1       8.060   1.285  29.596  1.00  0.00     0.059 C 
HETATM   27  C4  UNL     1       8.864   2.425  30.070  1.00  0.00     0.047 C 
HETATM   28  C5  UNL     1       8.085   2.949  31.249  1.00  0.00     0.153 C 
HETATM   29  O1  UNL     1       6.816   2.460  31.196  1.00  0.00    -0.358 OA
BRANCH  26  30
HETATM   30  C2  UNL     1       8.629  -0.060  29.806  1.00  0.00    -0.028 C 
HETATM   31  C1  UNL     1       9.848  -0.353  30.138  1.00  0.00     0.007 C 
ENDBRANCH  26  30
BRANCH  28  32
HETATM   32  C6  UNL     1       8.796   2.679  32.544  1.00  0.00     0.254 C 
HETATM   33  F1  UNL     1      10.149   2.498  32.328  1.00  0.00    -0.253 F 
ENDBRANCH  28  32
ENDBRANCH   1  25
TORSDOF 6
ENDMDL
MODEL 2
REMARK VINA RESULT: -6.393403084      1.166      1.847
REMARK  6 active torsions:
REMARK  status: ('A' for Active; 'I' for Inactive)
REMARK    1  A    between atoms: C2_2  and  C3_3 
REMARK    2  A    between atoms: C5_5  and  C6_6 
REMARK    3  A    between atoms: C7_9  and  N1_10 
REMARK    4  A    between atoms: N3_16  and  C11_18 
REMARK    5  A    between atoms: C14_24  and  N5_25 
REMARK    6  A    between atoms: N5_25  and  O2_27 
ROOT
HETATM    1  N1  UNL     1       5.962   1.354  28.835  1.00  0.00    -0.298 N 
HETATM    2  C8  UNL     1       5.055   0.458  28.401  1.00  0.00     0.188 A 
HETATM    3  N2  UNL     1       4.151   1.089  27.633  1.00  0.00    -0.346 N 
ATOM      4  H2  UNL     1       3.351   0.655  27.173  1.00  0.00     0.167 HD
HETATM    5  C9  UNL     1       4.483   2.404  27.576  1.00  0.00     0.125 A 
HETATM    6  C10 UNL     1       4.137   3.640  27.064  1.00  0.00     0.149 A 
HETATM    7  N3  UNL     1       3.130   3.913  26.305  1.00  0.00    -0.341 N 
ATOM      8  H3  UNL     1       2.969   4.868  25.983  1.00  0.00     0.163 HD
HETATM    9  N6  UNL     1       5.079   4.491  27.533  1.00  0.00    -0.282 N 
ATOM     10  H6  UNL     1       5.102   5.491  27.330  1.00  0.00     0.188 HD
HETATM   11  N7  UNL     1       5.961   3.866  28.283  1.00  0.00    -0.282 N 
ATOM     12  H7  UNL     1       6.763   4.295  28.747  1.00  0.00     0.188 HD
HETATM   13  C16 UNL     1       5.623   2.562  28.334  1.00  0.00     0.156 A 
ENDROOT
BRANCH   7  14
HETATM   14  C11 UNL     1       2.247   2.861  25.923  1.00  0.00     0.334 C 
HETATM   15  N4  UNL     1       2.617   2.155  24.738  1.00  0.00    -0.049 N 
HETATM   16  C12 UNL     1       1.436   1.631  24.125  1.00  0.00     0.241 C 
ATOM     17  H42 UNL     1       3.165   2.730  24.098  1.00  0.00     0.280 HD
ATOM     18  H41 UNL     1       3.315   1.434  24.915  1.00  0.00     0.280 HD
HETATM   19  C13 UNL     1       0.241   2.196  24.888  1.00  0.00     0.086 C 
HETATM   20  C14 UNL     1       0.875   3.346  25.602  1.00  0.00     0.061 C 
BRANCH  20  21
HETATM   21  N5  UNL     1       0.345   4.492  25.873  1.00  0.00    -0.272 N 
ATOM     22  H5  UNL     1      -0.150   4.997  25.138  1.00  0.00     0.193 HD
BRANCH  21  23
HETATM   23  O2  UNL     1       0.431   5.038  27.107  1.00  0.00    -0.285 OA
HETATM   24  C15 UNL     1      -0.056   4.450  28.285  1.00  0.00     0.237 C 
ENDBRANCH  21  23
ENDBRANCH  20  21
ENDBRANCH   7  14
BRANCH   1  25
HETATM   25  C7  UNL     1       7.117   1.089  29.695  1.00  0.00     0.238 C 
HETATM   26  C3  UNL     1       6.828   1.633  31.077  1.00  0.00     0.059 C 
HETATM   27  C4  UNL     1       6.873   0.453  31.959  1.00  0.00     0.047 C 
HETATM   28  C5  UNL     1       7.494  -0.617  31.097  1.00  0.00     0.153 C 
HETATM   29  O1  UNL     1       7.420  -0.235  29.792  1.00  0.00    -0.358 OA
BRANCH  26  30
HETATM   30  C2  UNL     1       7.744   2.741  31.406  1.00  0.00    -0.028 C 
HETATM   31  C1  UNL     1       9.039   2.737  31.334  1.00  0.00     0.007 C 
ENDBRANCH  26  30
BRANCH  28  32
HETATM   32  C6  UNL     1       8.881  -0.961  31.560  1.00  0.00     0.254 C 
HETATM   33  F1  UNL     1       9.824  -0.475  30.675  1.00  0.00    -0.253 F 
ENDBRANCH  28  32
ENDBRANCH   1  25
TORSDOF 6
ENDMDL
MODEL 3
REMARK VINA RESULT: -6.207780990      4.711      8.049
REMARK  6 active torsions:
REMARK  status: ('A' for Active; 'I' for Inactive)
REMARK    1  A    between atoms: C2_2  and  C3_3 
REMARK    2  A    between atoms: C5_5  and  C6_6 
REMARK    3  A    between atoms: C7_9  and  N1_10 
REMARK    4  A    between atoms: N3_16  and  C11_18 
REMARK    5  A    between atoms: C14_24  and  N5_25 
REMARK    6  A    between atoms: N5_25  and  O2_27 
ROOT
HETATM    1  N1  UNL     1      -0.652   4.944  30.376  1.00  0.00    -0.298 N 
HETATM    2  C8  UNL     1       0.153   3.881  30.561  1.00  0.00     0.188 A 
HETATM    3  N2  UNL     1       0.844   3.655  29.431  1.00  0.00    -0.346 N 
ATOM      4  H2  UNL     1       1.527   2.912  29.286  1.00  0.00     0.167 HD
HETATM    5  C9  UNL     1       0.476   4.585  28.513  1.00  0.00     0.125 A 
HETATM    6  C10 UNL     1       0.667   5.043  27.223  1.00  0.00     0.149 A 
HETATM    7  N3  UNL     1       1.466   4.556  26.336  1.00  0.00    -0.341 N 
ATOM      8  H3  UNL     1       1.528   4.977  25.408  1.00  0.00     0.163 HD
HETATM    9  N6  UNL     1      -0.164   6.104  27.101  1.00  0.00    -0.282 N 
ATOM     10  H6  UNL     1      -0.257   6.667  26.254  1.00  0.00     0.188 HD
HETATM   11  N7  UNL     1      -0.837   6.320  28.210  1.00  0.00    -0.282 N 
ATOM     12  H7  UNL     1      -1.522   7.061  28.360  1.00  0.00     0.188 HD
HETATM   13  C16 UNL     1      -0.465   5.392  29.116  1.00  0.00     0.156 A 
ENDROOT
BRANCH   7  14
HETATM   14  C11 UNL     1       2.263   3.422  26.670  1.00  0.00     0.334 C 
HETATM   15  N4  UNL     1       3.622   3.708  27.000  1.00  0.00    -0.049 N 
HETATM   16  C12 UNL     1       4.424   2.566  26.686  1.00  0.00     0.241 C 
ATOM     17  H42 UNL     1       3.961   4.557  26.550  1.00  0.00     0.280 HD
ATOM     18  H41 UNL     1       3.734   4.006  27.969  1.00  0.00     0.280 HD
HETATM   19  C13 UNL     1       3.528   1.572  25.953  1.00  0.00     0.086 C 
HETATM   20  C14 UNL     1       2.395   2.456  25.544  1.00  0.00     0.061 C 
BRANCH  20  21
HETATM   21  N5  UNL     1       1.697   2.388  24.459  1.00  0.00    -0.272 N 
ATOM     22  H5  UNL     1       2.170   2.461  23.558  1.00  0.00     0.193 HD
BRANCH  21  23
HETATM   23  O2  UNL     1       0.355   2.222  24.489  1.00  0.00    -0.285 OA
HETATM   24  C15 UNL     1      -0.330   1.341  25.341  1.00  0.00     0.237 C 
ENDBRANCH  21  23
ENDBRANCH  20  21
ENDBRANCH   7  14
BRANCH   1  25
HETATM   25  C7  UNL     1      -1.573   5.529  31.353  1.00  0.00     0.238 C 
HETATM   26  C3  UNL     1      -2.986   5.127  30.991  1.00  0.00     0.059 C 
HETATM   27  C4  UNL     1      -3.464   4.355  32.152  1.00  0.00     0.047 C 
HETATM   28  C5  UNL     1      -2.435   4.638  33.218  1.00  0.00     0.153 C 
HETATM   29  O1  UNL     1      -1.314   5.142  32.632  1.00  0.00    -0.358 OA
BRANCH  26  30
HETATM   30  C2  UNL     1      -3.785   6.305  30.604  1.00  0.00    -0.028 C 
HETATM   31  C1  UNL     1      -3.342   7.444  30.169  1.00  0.00     0.007 C 
ENDBRANCH  26  30
BRANCH  28  32
HETATM   32  C6  UNL     1      -2.998   5.498  34.313  1.00  0.00     0.254 C 
HETATM   33  F1  UNL     1      -2.722   4.953  35.552  1.00  0.00    -0.253 F 
ENDBRANCH  28  32
ENDBRANCH   1  25
TORSDOF 6
ENDMDL
MODEL 4
REMARK VINA RESULT: -6.099686843      4.602      6.515
REMARK  6 active torsions:
REMARK  status: ('A' for Active; 'I' for Inactive)
REMARK    1  A    between atoms: C2_2  and  C3_3 
REMARK    2  A    between atoms: C5_5  and  C6_6 
REMARK    3  A    between atoms: C7_9  and  N1_10 
REMARK    4  A    between atoms: N3_16  and  C11_18 
REMARK    5  A    between atoms: C14_24  and  N5_25 
REMARK    6  A    between atoms: N5_25  and  O2_27 
ROOT
HETATM    1  N1  UNL     1       1.582   1.391  27.350  1.00  0.00    -0.298 N 
HETATM    2  C8  UNL     1       1.460   1.883  28.598  1.00  0.00     0.188 A 
HETATM    3  N2  UNL     1       0.987   3.138  28.527  1.00  0.00    -0.346 N 
ATOM      4  H2  UNL     1       0.798   3.751  29.321  1.00  0.00     0.167 HD
HETATM    5  C9  UNL     1       0.803   3.452  27.219  1.00  0.00     0.125 A 
HETATM    6  C10 UNL     1       0.392   4.431  26.335  1.00  0.00     0.149 A 
HETATM    7  N3  UNL     1      -0.035   5.613  26.627  1.00  0.00    -0.341 N 
ATOM      8  H3  UNL     1      -0.315   6.259  25.888  1.00  0.00     0.163 HD
HETATM    9  N6  UNL     1       0.537   3.879  25.108  1.00  0.00    -0.282 N 
ATOM     10  H6  UNL     1       0.314   4.356  24.233  1.00  0.00     0.188 HD
HETATM   11  N7  UNL     1       1.001   2.650  25.184  1.00  0.00    -0.282 N 
ATOM     12  H7  UNL     1       1.192   2.033  24.395  1.00  0.00     0.188 HD
HETATM   13  C16 UNL     1       1.180   2.347  26.486  1.00  0.00     0.156 A 
ENDROOT
BRANCH   7  14
HETATM   14  C11 UNL     1      -0.110   6.002  27.997  1.00  0.00     0.334 C 
HETATM   15  N4  UNL     1      -1.174   6.901  28.317  1.00  0.00    -0.049 N 
HETATM   16  C12 UNL     1      -0.791   7.684  29.449  1.00  0.00     0.241 C 
ATOM     17  H42 UNL     1      -1.450   7.475  27.521  1.00  0.00     0.280 HD
ATOM     18  H41 UNL     1      -2.061   6.419  28.459  1.00  0.00     0.280 HD
HETATM   19  C13 UNL     1       0.673   7.370  29.743  1.00  0.00     0.086 C 
HETATM   20  C14 UNL     1       1.097   6.747  28.453  1.00  0.00     0.061 C 
BRANCH  20  21
HETATM   21  N5  UNL     1       2.248   6.840  27.876  1.00  0.00    -0.272 N 
ATOM     22  H5  UNL     1       2.525   7.728  27.457  1.00  0.00     0.193 HD
BRANCH  21  23
HETATM   23  O2  UNL     1       3.096   5.788  27.813  1.00  0.00    -0.285 OA
HETATM   24  C15 UNL     1       3.737   5.201  28.916  1.00  0.00     0.237 C 
ENDBRANCH  21  23
ENDBRANCH  20  21
ENDBRANCH   7  14
BRANCH   1  25
HETATM   25  C7  UNL     1       2.060   0.059  26.974  1.00  0.00     0.238 C 
HETATM   26  C3  UNL     1       0.905  -0.726  26.393  1.00  0.00     0.059 C 
HETATM   27  C4  UNL     1       1.319  -1.031  25.011  1.00  0.00     0.047 C 
HETATM   28  C5  UNL     1       2.788  -0.692  24.993  1.00  0.00     0.153 C 
HETATM   29  O1  UNL     1       3.077   0.091  26.069  1.00  0.00    -0.358 OA
BRANCH  26  30
HETATM   30  C2  UNL     1       0.567  -1.876  27.251  1.00  0.00    -0.028 C 
HETATM   31  C1  UNL     1       1.386  -2.605  27.946  1.00  0.00     0.007 C 
ENDBRANCH  26  30
BRANCH  28  32
HETATM   32  C6  UNL     1       3.637  -1.927  24.885  1.00  0.00     0.254 C 
HETATM   33  F1  UNL     1       4.441  -2.064  25.999  1.00  0.00    -0.253 F 
ENDBRANCH  28  32
ENDBRANCH   1  25
TORSDOF 6
ENDMDL
MODEL 5
REMARK VINA RESULT: -6.023040364      4.587      6.601
REMARK  6 active torsions:
REMARK  status: ('A' for Active; 'I' for Inactive)
REMARK    1  A    between atoms: C2_2  and  C3_3 
REMARK    2  A    between atoms: C5_5  and  C6_6 
REMARK    3  A    between atoms: C7_9  and  N1_10 
REMARK    4  A    between atoms: N3_16  and  C11_18 
REMARK    5  A    between atoms: C14_24  and  N5_25 
REMARK    6  A    between atoms: N5_25  and  O2_27 
ROOT
HETATM    1  N1  UNL     1       1.589   5.153  31.282  1.00  0.00    -0.298 N 
HETATM    2  C8  UNL     1       1.570   3.823  31.078  1.00  0.00     0.188 A 
HETATM    3  N2  UNL     1       2.342   3.532  30.018  1.00  0.00    -0.346 N 
ATOM      4  H2  UNL     1       2.509   2.600  29.638  1.00  0.00     0.167 HD
HETATM    5  C9  UNL     1       2.861   4.691  29.538  1.00  0.00     0.125 A 
HETATM    6  C10 UNL     1       3.672   5.256  28.573  1.00  0.00     0.149 A 
HETATM    7  N3  UNL     1       4.308   4.641  27.634  1.00  0.00    -0.341 N 
ATOM      8  H3  UNL     1       4.883   5.162  26.971  1.00  0.00     0.163 HD
HETATM    9  N6  UNL     1       3.650   6.585  28.830  1.00  0.00    -0.282 N 
ATOM     10  H6  UNL     1       4.157   7.284  28.286  1.00  0.00     0.188 HD
HETATM   11  N7  UNL     1       2.893   6.862  29.869  1.00  0.00    -0.282 N 
ATOM     12  H7  UNL     1       2.721   7.791  30.254  1.00  0.00     0.188 HD
HETATM   13  C16 UNL     1       2.382   5.706  30.339  1.00  0.00     0.156 A 
ENDROOT
BRANCH   7  14
HETATM   14  C11 UNL     1       4.195   3.223  27.536  1.00  0.00     0.334 C 
HETATM   15  N4  UNL     1       5.434   2.513  27.517  1.00  0.00    -0.049 N 
HETATM   16  C12 UNL     1       5.253   1.288  26.803  1.00  0.00     0.241 C 
ATOM     17  H42 UNL     1       6.197   3.074  27.140  1.00  0.00     0.280 HD
ATOM     18  H41 UNL     1       5.814   2.366  28.452  1.00  0.00     0.280 HD
HETATM   19  C13 UNL     1       3.854   1.322  26.193  1.00  0.00     0.086 C 
HETATM   20  C14 UNL     1       3.543   2.781  26.271  1.00  0.00     0.061 C 
BRANCH  20  21
HETATM   21  N5  UNL     1       2.864   3.487  25.430  1.00  0.00    -0.272 N 
ATOM     22  H5  UNL     1       2.915   4.505  25.478  1.00  0.00     0.193 HD
BRANCH  21  23
HETATM   23  O2  UNL     1       2.088   2.909  24.485  1.00  0.00    -0.285 OA
HETATM   24  C15 UNL     1       0.709   2.674  24.607  1.00  0.00     0.237 C 
ENDBRANCH  21  23
ENDBRANCH  20  21
ENDBRANCH   7  14
BRANCH   1  25
HETATM   25  C7  UNL     1       0.885   5.892  32.332  1.00  0.00     0.238 C 
HETATM   26  C3  UNL     1       0.276   4.900  33.299  1.00  0.00     0.059 C 
HETATM   27  C4  UNL     1       0.919   5.195  34.592  1.00  0.00     0.047 C 
HETATM   28  C5  UNL     1       1.597   6.522  34.361  1.00  0.00     0.153 C 
HETATM   29  O1  UNL     1       1.692   6.745  33.021  1.00  0.00    -0.358 OA
BRANCH  26  30
HETATM   30  C2  UNL     1      -1.197   4.967  33.261  1.00  0.00    -0.028 C 
HETATM   31  C1  UNL     1      -1.940   5.365  32.275  1.00  0.00     0.007 C 
ENDBRANCH  26  30
BRANCH  28  32
HETATM   32  C6  UNL     1       0.921   7.626  35.122  1.00  0.00     0.254 C 
HETATM   33  F1  UNL     1      -0.217   7.159  35.751  1.00  0.00    -0.253 F 
ENDBRANCH  28  32
ENDBRANCH   1  25
TORSDOF 6
ENDMDL
