MODEL 1
REMARK VINA RESULT: -9.312546314      0.000      0.000
REMARK  11 active torsions:
REMARK  status: ('A' for Active; 'I' for Inactive)
REMARK    1  A    between atoms: N1_1  and  C1_4 
REMARK    2  A    between atoms: C1_4  and  N2_5 
REMARK    3  A    between atoms: C1_4  and  C3_13 
REMARK    4  A    between atoms: N2_5  and  N3_7 
REMARK    5  A    between atoms: N3_7  and  C2_8 
REMARK    6  A    between atoms: C2_8  and  O1_9 
REMARK    7  A    between atoms: O1_9  and  N4_10 
REMARK       I    between atoms: N7_20  and  C5_22 
REMARK       I    between atoms: C5_22  and  N8_24 
REMARK    8  A    between atoms: N8_24  and  C6_26 
REMARK    9  A    between atoms: C7_27  and  N9_28 
REMARK   10  A    between atoms: N9_28  and  C8_30 
REMARK   11  A    between atoms: C8_30  and  C9_31 
ROOT
HETATM    1  C3  UNL     1      44.922  52.328   4.633  1.00  0.00     0.148 A 
HETATM    2  N5  UNL     1      46.136  52.771   4.260  1.00  0.00    -0.234 N 
ATOM      3  H5  UNL     1      46.351  53.268   3.396  1.00  0.00     0.197 HD
HETATM    4  O4  UNL     1      46.988  52.456   5.193  1.00  0.00    -0.155 OA
HETATM    5  N6  UNL     1      46.367  51.819   6.167  1.00  0.00    -0.223 N 
ATOM      6  H6  UNL     1      46.806  51.463   7.016  1.00  0.00     0.198 HD
HETATM    7  C4  UNL     1      45.053  51.713   5.857  1.00  0.00     0.164 A 
HETATM    8  N7  UNL     1      44.092  51.175   6.506  1.00  0.00    -0.291 N 
ATOM      9  H7  UNL     1      43.145  51.181   6.124  1.00  0.00     0.172 HD
HETATM   10  C5  UNL     1      44.355  50.569   7.765  1.00  0.00     0.326 C 
HETATM   11  O5  UNL     1      44.302  51.272   8.831  1.00  0.00    -0.247 OA
HETATM   12  N8  UNL     1      44.677  49.202   7.901  1.00  0.00    -0.303 N 
ATOM     13  H8  UNL     1      44.723  48.624   7.063  1.00  0.00     0.171 HD
ENDROOT
BRANCH   1  14
HETATM   14  C1  UNL     1      43.670  52.464   3.885  1.00  0.00     0.157 C 
BRANCH  14  15
HETATM   15  N1  UNL     1      43.534  51.942   2.733  1.00  0.00    -0.382 N 
ATOM     16  H12 UNL     1      43.131  52.472   1.960  1.00  0.00     0.157 HD
ATOM     17  H11 UNL     1      43.830  50.979   2.573  1.00  0.00     0.157 HD
ENDBRANCH  14  15
BRANCH  14  18
HETATM   18  N2  UNL     1      42.573  53.208   4.478  1.00  0.00    -0.216 N 
ATOM     19  H2  UNL     1      42.520  53.289   5.493  1.00  0.00     0.203 HD
BRANCH  18  20
HETATM   20  N3  UNL     1      41.663  53.770   3.753  1.00  0.00    -0.310 NA
BRANCH  20  21
HETATM   21  C2  UNL     1      40.855  54.281   3.071  1.00  0.00     0.382 C 
BRANCH  21  22
HETATM   22  O1  UNL     1      41.065  54.555   1.706  1.00  0.00    -0.157 OA
BRANCH  22  23
HETATM   23  N4  UNL     1      42.001  53.845   0.993  1.00  0.00     0.012 N 
HETATM   24  O2  UNL     1      41.675  52.745   0.499  1.00  0.00    -0.511 OA
HETATM   25  O3  UNL     1      43.280  54.306   0.809  1.00  0.00    -0.511 OA
ENDBRANCH  22  23
ENDBRANCH  21  22
ENDBRANCH  20  21
ENDBRANCH  18  20
ENDBRANCH  14  18
ENDBRANCH   1  14
BRANCH  12  26
HETATM   26  C6  UNL     1      44.938  48.603   9.157  1.00  0.00     0.121 A 
HETATM   27  C7  UNL     1      45.953  47.746   9.572  1.00  0.00     0.114 A 
HETATM   28  C12 UNL     1      45.400  47.726  10.825  1.00  0.00     0.252 A 
HETATM   29  O6  UNL     1      45.660  47.182  11.914  1.00  0.00    -0.281 OA
HETATM   30  C13 UNL     1      44.392  48.575  10.419  1.00  0.00     0.253 A 
HETATM   31  O7  UNL     1      43.380  49.128  10.923  1.00  0.00    -0.281 OA
BRANCH  27  32
HETATM   32  N9  UNL     1      47.096  47.113   9.026  1.00  0.00    -0.384 N 
ATOM     33  H9  UNL     1      47.956  47.654   8.924  1.00  0.00     0.159 HD
BRANCH  32  34
HETATM   34  C8  UNL     1      47.090  45.747   8.612  1.00  0.00     0.124 C 
BRANCH  34  35
HETATM   35  C9  UNL     1      46.265  44.820   9.429  1.00  0.00     0.003 A 
HETATM   36  C10 UNL     1      46.317  43.334   9.091  1.00  0.00     0.007 A 
HETATM   37  C11 UNL     1      45.056  44.131   8.975  1.00  0.00     0.007 A 
ENDBRANCH  34  35
ENDBRANCH  32  34
ENDBRANCH  27  32
ENDBRANCH  12  26
TORSDOF 11
ENDMDL
MODEL 2
REMARK VINA RESULT: -9.145555531      2.356      3.987
REMARK  11 active torsions:
REMARK  status: ('A' for Active; 'I' for Inactive)
REMARK    1  A    between atoms: N1_1  and  C1_4 
REMARK    2  A    between atoms: C1_4  and  N2_5 
REMARK    3  A    between atoms: C1_4  and  C3_13 
REMARK    4  A    between atoms: N2_5  and  N3_7 
REMARK    5  A    between atoms: N3_7  and  C2_8 
REMARK    6  A    between atoms: C2_8  and  O1_9 
REMARK    7  A    between atoms: O1_9  and  N4_10 
REMARK       I    between atoms: N7_20  and  C5_22 
REMARK       I    between atoms: C5_22  and  N8_24 
REMARK    8  A    between atoms: N8_24  and  C6_26 
REMARK    9  A    between atoms: C7_27  and  N9_28 
REMARK   10  A    between atoms: N9_28  and  C8_30 
REMARK   11  A    between atoms: C8_30  and  C9_31 
ROOT
HETATM    1  C3  UNL     1      43.550  51.928   8.074  1.00  0.00     0.148 A 
HETATM    2  N5  UNL     1      43.051  52.705   9.051  1.00  0.00    -0.234 N 
ATOM      3  H5  UNL     1      42.691  53.652   8.937  1.00  0.00     0.197 HD
HETATM    4  O4  UNL     1      43.109  52.040  10.169  1.00  0.00    -0.155 OA
HETATM    5  N6  UNL     1      43.631  50.848   9.951  1.00  0.00    -0.223 N 
ATOM      6  H6  UNL     1      43.787  50.132  10.661  1.00  0.00     0.198 HD
HETATM    7  C4  UNL     1      43.927  50.730   8.635  1.00  0.00     0.164 A 
HETATM    8  N7  UNL     1      44.444  49.755   7.989  1.00  0.00    -0.291 N 
ATOM      9  H7  UNL     1      44.605  49.831   6.984  1.00  0.00     0.172 HD
HETATM   10  C5  UNL     1      44.792  48.565   8.685  1.00  0.00     0.326 C 
HETATM   11  O5  UNL     1      43.925  47.637   8.828  1.00  0.00    -0.247 OA
HETATM   12  N8  UNL     1      46.073  48.351   9.236  1.00  0.00    -0.303 N 
ATOM     13  H8  UNL     1      46.779  49.080   9.132  1.00  0.00     0.171 HD
ENDROOT
BRANCH   1  14
HETATM   14  C1  UNL     1      43.678  52.274   6.656  1.00  0.00     0.157 C 
BRANCH  14  15
HETATM   15  N1  UNL     1      44.665  52.957   6.235  1.00  0.00    -0.382 N 
ATOM     16  H12 UNL     1      44.569  53.580   5.432  1.00  0.00     0.157 HD
ATOM     17  H11 UNL     1      45.569  52.888   6.702  1.00  0.00     0.157 HD
ENDBRANCH  14  15
BRANCH  14  18
HETATM   18  N2  UNL     1      42.658  51.824   5.726  1.00  0.00    -0.216 N 
ATOM     19  H2  UNL     1      42.230  50.909   5.864  1.00  0.00     0.203 HD
BRANCH  18  20
HETATM   20  N3  UNL     1      42.279  52.553   4.729  1.00  0.00    -0.310 NA
BRANCH  20  21
HETATM   21  C2  UNL     1      41.959  53.231   3.825  1.00  0.00     0.382 C 
BRANCH  21  22
HETATM   22  O1  UNL     1      42.215  52.891   2.482  1.00  0.00    -0.157 OA
BRANCH  22  23
HETATM   23  N4  UNL     1      42.278  53.871   1.521  1.00  0.00     0.012 N 
HETATM   24  O2  UNL     1      43.327  53.991   0.851  1.00  0.00    -0.511 OA
HETATM   25  O3  UNL     1      41.229  54.719   1.274  1.00  0.00    -0.511 OA
ENDBRANCH  22  23
ENDBRANCH  21  22
ENDBRANCH  20  21
ENDBRANCH  18  20
ENDBRANCH  14  18
ENDBRANCH   1  14
BRANCH  12  26
HETATM   26  C6  UNL     1      46.416  47.165   9.929  1.00  0.00     0.121 A 
HETATM   27  C7  UNL     1      46.416  46.861  11.287  1.00  0.00     0.114 A 
HETATM   28  C12 UNL     1      46.857  45.599  10.986  1.00  0.00     0.252 A 
HETATM   29  O6  UNL     1      47.150  44.574  11.628  1.00  0.00    -0.281 OA
HETATM   30  C13 UNL     1      46.858  45.894   9.640  1.00  0.00     0.253 A 
HETATM   31  O7  UNL     1      47.131  45.312   8.559  1.00  0.00    -0.281 OA
BRANCH  27  32
HETATM   32  N9  UNL     1      46.115  47.498  12.515  1.00  0.00    -0.384 N 
ATOM     33  H9  UNL     1      46.878  47.720  13.154  1.00  0.00     0.159 HD
BRANCH  32  34
HETATM   34  C8  UNL     1      44.781  47.841  12.891  1.00  0.00     0.124 C 
BRANCH  34  35
HETATM   35  C9  UNL     1      44.480  47.804  14.345  1.00  0.00     0.003 A 
HETATM   36  C10 UNL     1      43.094  47.338  14.775  1.00  0.00     0.007 A 
HETATM   37  C11 UNL     1      43.588  48.722  15.054  1.00  0.00     0.007 A 
ENDBRANCH  34  35
ENDBRANCH  32  34
ENDBRANCH  27  32
ENDBRANCH  12  26
TORSDOF 11
ENDMDL
MODEL 3
REMARK VINA RESULT: -9.068171820      2.569      4.059
REMARK  11 active torsions:
REMARK  status: ('A' for Active; 'I' for Inactive)
REMARK    1  A    between atoms: N1_1  and  C1_4 
REMARK    2  A    between atoms: C1_4  and  N2_5 
REMARK    3  A    between atoms: C1_4  and  C3_13 
REMARK    4  A    between atoms: N2_5  and  N3_7 
REMARK    5  A    between atoms: N3_7  and  C2_8 
REMARK    6  A    between atoms: C2_8  and  O1_9 
REMARK    7  A    between atoms: O1_9  and  N4_10 
REMARK       I    between atoms: N7_20  and  C5_22 
REMARK       I    between atoms: C5_22  and  N8_24 
REMARK    8  A    between atoms: N8_24  and  C6_26 
REMARK    9  A    between atoms: C7_27  and  N9_28 
REMARK   10  A    between atoms: N9_28  and  C8_30 
REMARK   11  A    between atoms: C8_30  and  C9_31 
ROOT
HETATM    1  C3  UNL     1      43.632  51.820   8.027  1.00  0.00     0.148 A 
HETATM    2  N5  UNL     1      43.154  52.616   8.999  1.00  0.00    -0.234 N 
ATOM      3  H5  UNL     1      42.813  53.569   8.877  1.00  0.00     0.197 HD
HETATM    4  O4  UNL     1      43.200  51.959  10.123  1.00  0.00    -0.155 OA
HETATM    5  N6  UNL     1      43.696  50.755   9.914  1.00  0.00    -0.223 N 
ATOM      6  H6  UNL     1      43.838  50.041  10.629  1.00  0.00     0.198 HD
HETATM    7  C4  UNL     1      43.985  50.618   8.598  1.00  0.00     0.164 A 
HETATM    8  N7  UNL     1      44.479  49.627   7.959  1.00  0.00    -0.291 N 
ATOM      9  H7  UNL     1      44.638  49.690   6.953  1.00  0.00     0.172 HD
HETATM   10  C5  UNL     1      44.804  48.436   8.664  1.00  0.00     0.326 C 
HETATM   11  O5  UNL     1      43.918  47.528   8.819  1.00  0.00    -0.247 OA
HETATM   12  N8  UNL     1      46.082  48.200   9.214  1.00  0.00    -0.303 N 
ATOM     13  H8  UNL     1      46.803  48.911   9.101  1.00  0.00     0.171 HD
ENDROOT
BRANCH   1  14
HETATM   14  C1  UNL     1      43.763  52.150   6.606  1.00  0.00     0.157 C 
BRANCH  14  15
HETATM   15  N1  UNL     1      44.809  52.721   6.160  1.00  0.00    -0.382 N 
ATOM     16  H12 UNL     1      45.721  52.558   6.589  1.00  0.00     0.157 HD
ATOM     17  H11 UNL     1      44.743  53.352   5.361  1.00  0.00     0.157 HD
ENDBRANCH  14  15
BRANCH  14  18
HETATM   18  N2  UNL     1      42.678  51.815   5.702  1.00  0.00    -0.216 N 
ATOM     19  H2  UNL     1      42.198  50.923   5.812  1.00  0.00     0.203 HD
BRANCH  18  20
HETATM   20  N3  UNL     1      42.305  52.619   4.761  1.00  0.00    -0.310 NA
BRANCH  20  21
HETATM   21  C2  UNL     1      41.964  53.326   3.888  1.00  0.00     0.382 C 
BRANCH  21  22
HETATM   22  O1  UNL     1      41.982  52.938   2.534  1.00  0.00    -0.157 OA
BRANCH  22  23
HETATM   23  N4  UNL     1      42.163  53.877   1.548  1.00  0.00     0.012 N 
HETATM   24  O2  UNL     1      41.214  54.636   1.257  1.00  0.00    -0.511 OA
HETATM   25  O3  UNL     1      43.350  54.006   0.873  1.00  0.00    -0.511 OA
ENDBRANCH  22  23
ENDBRANCH  21  22
ENDBRANCH  20  21
ENDBRANCH  18  20
ENDBRANCH  14  18
ENDBRANCH   1  14
BRANCH  12  26
HETATM   26  C6  UNL     1      46.401  47.012   9.915  1.00  0.00     0.121 A 
HETATM   27  C7  UNL     1      46.692  46.788  11.258  1.00  0.00     0.114 A 
HETATM   28  C12 UNL     1      46.848  45.455  10.984  1.00  0.00     0.252 A 
HETATM   29  O6  UNL     1      47.132  44.432  11.633  1.00  0.00    -0.281 OA
HETATM   30  C13 UNL     1      46.560  45.671   9.653  1.00  0.00     0.253 A 
HETATM   31  O7  UNL     1      46.464  44.991   8.598  1.00  0.00    -0.281 OA
BRANCH  27  32
HETATM   32  N9  UNL     1      46.806  47.534  12.456  1.00  0.00    -0.384 N 
ATOM     33  H9  UNL     1      46.072  48.204  12.690  1.00  0.00     0.159 HD
BRANCH  32  34
HETATM   34  C8  UNL     1      47.909  47.382  13.349  1.00  0.00     0.124 C 
BRANCH  34  35
HETATM   35  C9  UNL     1      48.128  48.490  14.314  1.00  0.00     0.003 A 
HETATM   36  C10 UNL     1      48.872  48.173  15.607  1.00  0.00     0.007 A 
HETATM   37  C11 UNL     1      47.451  48.643  15.604  1.00  0.00     0.007 A 
ENDBRANCH  34  35
ENDBRANCH  32  34
ENDBRANCH  27  32
ENDBRANCH  12  26
TORSDOF 11
ENDMDL
MODEL 4
REMARK VINA RESULT: -9.026693831      1.508      2.701
REMARK  11 active torsions:
REMARK  status: ('A' for Active; 'I' for Inactive)
REMARK    1  A    between atoms: N1_1  and  C1_4 
REMARK    2  A    between atoms: C1_4  and  N2_5 
REMARK    3  A    between atoms: C1_4  and  C3_13 
REMARK    4  A    between atoms: N2_5  and  N3_7 
REMARK    5  A    between atoms: N3_7  and  C2_8 
REMARK    6  A    between atoms: C2_8  and  O1_9 
REMARK    7  A    between atoms: O1_9  and  N4_10 
REMARK       I    between atoms: N7_20  and  C5_22 
REMARK       I    between atoms: C5_22  and  N8_24 
REMARK    8  A    between atoms: N8_24  and  C6_26 
REMARK    9  A    between atoms: C7_27  and  N9_28 
REMARK   10  A    between atoms: N9_28  and  C8_30 
REMARK   11  A    between atoms: C8_30  and  C9_31 
ROOT
HETATM    1  C3  UNL     1      44.962  52.378   4.528  1.00  0.00     0.148 A 
HETATM    2  N5  UNL     1      46.090  53.056   4.250  1.00  0.00    -0.234 N 
ATOM      3  H5  UNL     1      46.209  53.735   3.499  1.00  0.00     0.197 HD
HETATM    4  O4  UNL     1      47.003  52.694   5.105  1.00  0.00    -0.155 OA
HETATM    5  N6  UNL     1      46.504  51.798   5.936  1.00  0.00    -0.223 N 
ATOM      6  H6  UNL     1      47.012  51.352   6.700  1.00  0.00     0.198 HD
HETATM    7  C4  UNL     1      45.211  51.565   5.609  1.00  0.00     0.164 A 
HETATM    8  N7  UNL     1      44.353  50.779   6.140  1.00  0.00    -0.291 N 
ATOM      9  H7  UNL     1      43.406  50.721   5.766  1.00  0.00     0.172 HD
HETATM   10  C5  UNL     1      44.733  49.987   7.258  1.00  0.00     0.326 C 
HETATM   11  O5  UNL     1      44.610  50.456   8.440  1.00  0.00    -0.247 OA
HETATM   12  N8  UNL     1      45.249  48.680   7.126  1.00  0.00    -0.303 N 
ATOM     13  H8  UNL     1      45.355  48.287   6.192  1.00  0.00     0.171 HD
ENDROOT
BRANCH   1  14
HETATM   14  C1  UNL     1      43.683  52.474   3.819  1.00  0.00     0.157 C 
BRANCH  14  15
HETATM   15  N1  UNL     1      43.519  51.919   2.686  1.00  0.00    -0.382 N 
ATOM     16  H12 UNL     1      42.748  51.269   2.526  1.00  0.00     0.157 HD
ATOM     17  H11 UNL     1      44.162  52.122   1.922  1.00  0.00     0.157 HD
ENDBRANCH  14  15
BRANCH  14  18
HETATM   18  N2  UNL     1      42.594  53.214   4.429  1.00  0.00    -0.216 N 
ATOM     19  H2  UNL     1      42.563  53.307   5.444  1.00  0.00     0.203 HD
BRANCH  18  20
HETATM   20  N3  UNL     1      41.661  53.759   3.719  1.00  0.00    -0.310 NA
BRANCH  20  21
HETATM   21  C2  UNL     1      40.822  54.237   3.051  1.00  0.00     0.382 C 
BRANCH  21  22
HETATM   22  O1  UNL     1      41.011  54.554   1.691  1.00  0.00    -0.157 OA
BRANCH  22  23
HETATM   23  N4  UNL     1      41.965  53.896   0.954  1.00  0.00     0.012 N 
HETATM   24  O2  UNL     1      41.657  52.824   0.390  1.00  0.00    -0.511 OA
HETATM   25  O3  UNL     1      43.243  54.378   0.817  1.00  0.00    -0.511 OA
ENDBRANCH  22  23
ENDBRANCH  21  22
ENDBRANCH  20  21
ENDBRANCH  18  20
ENDBRANCH  14  18
ENDBRANCH   1  14
BRANCH  12  26
HETATM   26  C6  UNL     1      45.627  47.894   8.242  1.00  0.00     0.121 A 
HETATM   27  C7  UNL     1      45.035  47.730   9.491  1.00  0.00     0.114 A 
HETATM   28  C12 UNL     1      46.039  46.862   9.832  1.00  0.00     0.252 A 
HETATM   29  O6  UNL     1      46.340  46.185  10.832  1.00  0.00    -0.281 OA
HETATM   30  C13 UNL     1      46.630  47.022   8.596  1.00  0.00     0.253 A 
HETATM   31  O7  UNL     1      47.641  46.593   7.985  1.00  0.00    -0.281 OA
BRANCH  27  32
HETATM   32  N9  UNL     1      43.902  48.200  10.198  1.00  0.00    -0.384 N 
ATOM     33  H9  UNL     1      42.981  48.109   9.767  1.00  0.00     0.159 HD
BRANCH  32  34
HETATM   34  C8  UNL     1      44.001  48.797  11.491  1.00  0.00     0.124 C 
BRANCH  34  35
HETATM   35  C9  UNL     1      44.124  47.861  12.637  1.00  0.00     0.003 A 
HETATM   36  C10 UNL     1      43.790  48.388  14.028  1.00  0.00     0.007 A 
HETATM   37  C11 UNL     1      45.161  47.909  13.669  1.00  0.00     0.007 A 
ENDBRANCH  34  35
ENDBRANCH  32  34
ENDBRANCH  27  32
ENDBRANCH  12  26
TORSDOF 11
ENDMDL
MODEL 5
REMARK VINA RESULT: -8.890802886      2.978      4.911
REMARK  11 active torsions:
REMARK  status: ('A' for Active; 'I' for Inactive)
REMARK    1  A    between atoms: N1_1  and  C1_4 
REMARK    2  A    between atoms: C1_4  and  N2_5 
REMARK    3  A    between atoms: C1_4  and  C3_13 
REMARK    4  A    between atoms: N2_5  and  N3_7 
REMARK    5  A    between atoms: N3_7  and  C2_8 
REMARK    6  A    between atoms: C2_8  and  O1_9 
REMARK    7  A    between atoms: O1_9  and  N4_10 
REMARK       I    between atoms: N7_20  and  C5_22 
REMARK       I    between atoms: C5_22  and  N8_24 
REMARK    8  A    between atoms: N8_24  and  C6_26 
REMARK    9  A    between atoms: C7_27  and  N9_28 
REMARK   10  A    between atoms: N9_28  and  C8_30 
REMARK   11  A    between atoms: C8_30  and  C9_31 
ROOT
HETATM    1  C3  UNL     1      43.428  51.829   8.166  1.00  0.00     0.148 A 
HETATM    2  N5  UNL     1      42.997  52.638   9.150  1.00  0.00    -0.234 N 
ATOM      3  H5  UNL     1      42.628  53.581   9.031  1.00  0.00     0.197 HD
HETATM    4  O4  UNL     1      43.134  52.009  10.282  1.00  0.00    -0.155 OA
HETATM    5  N6  UNL     1      43.643  50.811  10.067  1.00  0.00    -0.223 N 
ATOM      6  H6  UNL     1      43.850  50.118  10.787  1.00  0.00     0.198 HD
HETATM    7  C4  UNL     1      43.847  50.650   8.738  1.00  0.00     0.164 A 
HETATM    8  N7  UNL     1      44.319  49.655   8.089  1.00  0.00    -0.291 N 
ATOM      9  H7  UNL     1      44.409  49.698   7.074  1.00  0.00     0.172 HD
HETATM   10  C5  UNL     1      44.718  48.488   8.797  1.00  0.00     0.326 C 
HETATM   11  O5  UNL     1      43.866  47.565   9.031  1.00  0.00    -0.247 OA
HETATM   12  N8  UNL     1      46.035  48.292   9.264  1.00  0.00    -0.303 N 
ATOM     13  H8  UNL     1      46.730  49.017   9.087  1.00  0.00     0.171 HD
ENDROOT
BRANCH   1  14
HETATM   14  C1  UNL     1      43.456  52.129   6.732  1.00  0.00     0.157 C 
BRANCH  14  15
HETATM   15  N1  UNL     1      42.883  51.364   5.892  1.00  0.00    -0.382 N 
ATOM     16  H12 UNL     1      42.805  50.361   6.062  1.00  0.00     0.157 HD
ATOM     17  H11 UNL     1      42.494  51.753   5.034  1.00  0.00     0.157 HD
ENDBRANCH  14  15
BRANCH  14  18
HETATM   18  N2  UNL     1      44.149  53.320   6.275  1.00  0.00    -0.216 N 
ATOM     19  H2  UNL     1      43.857  54.230   6.629  1.00  0.00     0.203 HD
BRANCH  18  20
HETATM   20  N3  UNL     1      45.125  53.255   5.430  1.00  0.00    -0.310 NA
BRANCH  20  21
HETATM   21  C2  UNL     1      46.005  53.224   4.653  1.00  0.00     0.382 C 
BRANCH  21  22
HETATM   22  O1  UNL     1      46.680  54.378   4.210  1.00  0.00    -0.157 OA
BRANCH  22  23
HETATM   23  N4  UNL     1      47.983  54.602   4.580  1.00  0.00     0.012 N 
HETATM   24  O2  UNL     1      48.241  55.574   5.322  1.00  0.00    -0.511 OA
HETATM   25  O3  UNL     1      49.009  53.793   4.162  1.00  0.00    -0.511 OA
ENDBRANCH  22  23
ENDBRANCH  21  22
ENDBRANCH  20  21
ENDBRANCH  18  20
ENDBRANCH  14  18
ENDBRANCH   1  14
BRANCH  12  26
HETATM   26  C6  UNL     1      46.428  47.129   9.969  1.00  0.00     0.121 A 
HETATM   27  C7  UNL     1      46.465  46.849  11.332  1.00  0.00     0.114 A 
HETATM   28  C12 UNL     1      46.939  45.596  11.043  1.00  0.00     0.252 A 
HETATM   29  O6  UNL     1      47.276  44.591  11.695  1.00  0.00    -0.281 OA
HETATM   30  C13 UNL     1      46.904  45.868   9.692  1.00  0.00     0.253 A 
HETATM   31  O7  UNL     1      47.173  45.276   8.615  1.00  0.00    -0.281 OA
BRANCH  27  32
HETATM   32  N9  UNL     1      46.169  47.497  12.555  1.00  0.00    -0.384 N 
ATOM     33  H9  UNL     1      46.931  47.693  13.205  1.00  0.00     0.159 HD
BRANCH  32  34
HETATM   34  C8  UNL     1      44.842  47.886  12.912  1.00  0.00     0.124 C 
BRANCH  34  35
HETATM   35  C9  UNL     1      44.512  47.834  14.360  1.00  0.00     0.003 A 
HETATM   36  C10 UNL     1      43.132  47.322  14.758  1.00  0.00     0.007 A 
HETATM   37  C11 UNL     1      43.576  48.720  15.053  1.00  0.00     0.007 A 
ENDBRANCH  34  35
ENDBRANCH  32  34
ENDBRANCH  27  32
ENDBRANCH  12  26
TORSDOF 11
ENDMDL
