MODEL 1
REMARK VINA RESULT: -7.274419949      0.000      0.000
REMARK  9 active torsions:
REMARK  status: ('A' for Active; 'I' for Inactive)
REMARK    1  A    between atoms: C2_2  and  N1_3 
REMARK    2  A    between atoms: C2_2  and  C3_7 
REMARK    3  A    between atoms: C3_7  and  C4_8 
REMARK    4  A    between atoms: C3_7  and  N2_11 
REMARK    5  A    between atoms: C4_8  and  O1_9 
REMARK    6  A    between atoms: N2_11  and  C5_13 
REMARK    7  A    between atoms: C5_13  and  C6_14 
REMARK    8  A    between atoms: C9_18  and  N3_19 
REMARK    9  A    between atoms: C12_24  and  N5_25 
ROOT
HETATM    1  C6  UNL     1     -23.876 -23.611 -21.079  1.00  0.00     0.302 C 
HETATM    2  O2  UNL     1     -23.953 -23.684 -22.489  1.00  0.00    -0.347 OA
HETATM    3  C7  UNL     1     -24.615 -22.558 -22.920  1.00  0.00     0.170 C 
HETATM    4  C8  UNL     1     -25.975 -22.772 -23.485  1.00  0.00     0.044 C 
HETATM    5  C9  UNL     1     -24.775 -21.660 -21.689  1.00  0.00     0.262 C 
HETATM    6  O3  UNL     1     -23.892 -22.245 -20.823  1.00  0.00    -0.329 OA
ENDROOT
BRANCH   5   7
HETATM    7  N3  UNL     1     -24.470 -20.323 -22.091  1.00  0.00    -0.297 N 
HETATM    8  C10 UNL     1     -24.398 -19.908 -23.380  1.00  0.00     0.188 A 
HETATM    9  N4  UNL     1     -24.092 -18.608 -23.396  1.00  0.00    -0.346 N 
HETATM   10  C11 UNL     1     -23.962 -18.153 -22.149  1.00  0.00     0.122 A 
ATOM     11  H4  UNL     1     -23.976 -18.044 -24.239  1.00  0.00     0.167 HD
HETATM   12  C12 UNL     1     -23.660 -16.916 -21.618  1.00  0.00     0.131 A 
HETATM   13  C14 UNL     1     -24.206 -19.260 -21.328  1.00  0.00     0.142 A 
HETATM   14  N6  UNL     1     -23.598 -16.760 -20.283  1.00  0.00    -0.337 N 
HETATM   15  C13 UNL     1     -23.835 -17.835 -19.522  1.00  0.00     0.183 A 
ATOM     16  H6  UNL     1     -23.378 -15.856 -19.866  1.00  0.00     0.168 HD
HETATM   17  N7  UNL     1     -24.134 -19.062 -20.022  1.00  0.00    -0.336 N 
ATOM     18  H7  UNL     1     -24.305 -19.839 -19.383  1.00  0.00     0.168 HD
BRANCH  12  19
HETATM   19  N5  UNL     1     -23.440 -15.917 -22.400  1.00  0.00    -0.383 N 
ATOM     20  H52 UNL     1     -23.497 -16.033 -23.412  1.00  0.00     0.157 HD
ATOM     21  H51 UNL     1     -23.206 -15.005 -22.008  1.00  0.00     0.157 HD
ENDBRANCH  12  19
ENDBRANCH   5   7
BRANCH   1  22
HETATM   22  C5  UNL     1     -25.102 -24.317 -20.577  1.00  0.00     0.116 C 
BRANCH  22  23
HETATM   23  N2  UNL     1     -25.159 -24.587 -19.197  1.00  0.00    -0.389 N 
ATOM     24  H2  UNL     1     -24.449 -25.162 -18.745  1.00  0.00     0.159 HD
BRANCH  23  25
HETATM   25  C3  UNL     1     -26.237 -24.034 -18.452  1.00  0.00     0.134 C 
BRANCH  25  26
HETATM   26  C2  UNL     1     -27.141 -23.135 -19.252  1.00  0.00     0.204 C 
HETATM   27  C1  UNL     1     -28.560 -23.608 -19.298  1.00  0.00     0.042 C 
BRANCH  26  28
HETATM   28  N1  UNL     1     -27.137 -21.776 -18.795  1.00  0.00    -0.073 N 
ATOM     29  H13 UNL     1     -27.654 -21.151 -19.413  1.00  0.00     0.274 HD
ATOM     30  H12 UNL     1     -27.703 -21.641 -17.957  1.00  0.00     0.274 HD
ATOM     31  H11 UNL     1     -26.168 -21.486 -18.665  1.00  0.00     0.274 HD
ENDBRANCH  26  28
ENDBRANCH  25  26
BRANCH  25  32
HETATM   32  C4  UNL     1     -25.594 -23.248 -17.309  1.00  0.00     0.191 C 
BRANCH  32  33
HETATM   33  O1  UNL     1     -24.391 -22.693 -17.736  1.00  0.00    -0.399 OA
ATOM     34  H1  UNL     1     -23.704 -22.895 -17.111  1.00  0.00     0.209 HD
ENDBRANCH  32  33
ENDBRANCH  25  32
ENDBRANCH  23  25
ENDBRANCH  22  23
ENDBRANCH   1  22
TORSDOF 9
ENDMDL
MODEL 2
REMARK VINA RESULT: -7.271405324      3.108      6.225
REMARK  9 active torsions:
REMARK  status: ('A' for Active; 'I' for Inactive)
REMARK    1  A    between atoms: C2_2  and  N1_3 
REMARK    2  A    between atoms: C2_2  and  C3_7 
REMARK    3  A    between atoms: C3_7  and  C4_8 
REMARK    4  A    between atoms: C3_7  and  N2_11 
REMARK    5  A    between atoms: C4_8  and  O1_9 
REMARK    6  A    between atoms: N2_11  and  C5_13 
REMARK    7  A    between atoms: C5_13  and  C6_14 
REMARK    8  A    between atoms: C9_18  and  N3_19 
REMARK    9  A    between atoms: C12_24  and  N5_25 
ROOT
HETATM    1  C6  UNL     1     -24.859 -22.455 -19.487  1.00  0.00     0.302 C 
HETATM    2  O2  UNL     1     -26.027 -23.247 -19.392  1.00  0.00    -0.347 OA
HETATM    3  C7  UNL     1     -26.460 -23.491 -20.674  1.00  0.00     0.170 C 
HETATM    4  C8  UNL     1     -27.729 -22.826 -21.076  1.00  0.00     0.044 C 
HETATM    5  C9  UNL     1     -25.361 -22.965 -21.603  1.00  0.00     0.262 C 
HETATM    6  O3  UNL     1     -24.326 -22.810 -20.722  1.00  0.00    -0.329 OA
ENDROOT
BRANCH   5   7
HETATM    7  N3  UNL     1     -25.169 -23.936 -22.634  1.00  0.00    -0.297 N 
HETATM    8  C10 UNL     1     -24.377 -25.031 -22.517  1.00  0.00     0.188 A 
HETATM    9  N4  UNL     1     -24.425 -25.719 -23.662  1.00  0.00    -0.346 N 
HETATM   10  C11 UNL     1     -25.230 -25.105 -24.531  1.00  0.00     0.122 A 
ATOM     11  H4  UNL     1     -23.920 -26.586 -23.844  1.00  0.00     0.167 HD
HETATM   12  C12 UNL     1     -25.618 -25.387 -25.824  1.00  0.00     0.131 A 
HETATM   13  C14 UNL     1     -25.697 -23.969 -23.859  1.00  0.00     0.142 A 
HETATM   14  N6  UNL     1     -26.465 -24.558 -26.462  1.00  0.00    -0.337 N 
HETATM   15  C13 UNL     1     -26.895 -23.480 -25.797  1.00  0.00     0.183 A 
ATOM     16  H6  UNL     1     -26.768 -24.746 -27.418  1.00  0.00     0.168 HD
HETATM   17  N7  UNL     1     -26.527 -23.182 -24.524  1.00  0.00    -0.336 N 
ATOM     18  H7  UNL     1     -26.894 -22.343 -24.075  1.00  0.00     0.168 HD
BRANCH  12  19
HETATM   19  N5  UNL     1     -25.171 -26.440 -26.415  1.00  0.00    -0.383 N 
ATOM     20  H52 UNL     1     -24.248 -26.807 -26.183  1.00  0.00     0.157 HD
ATOM     21  H51 UNL     1     -25.739 -26.910 -27.119  1.00  0.00     0.157 HD
ENDBRANCH  12  19
ENDBRANCH   5   7
BRANCH   1  22
HETATM   22  C5  UNL     1     -25.338 -21.033 -19.442  1.00  0.00     0.116 C 
BRANCH  22  23
HETATM   23  N2  UNL     1     -24.379 -20.032 -19.688  1.00  0.00    -0.389 N 
ATOM     24  H2  UNL     1     -23.474 -20.046 -19.218  1.00  0.00     0.159 HD
BRANCH  23  25
HETATM   25  C3  UNL     1     -24.710 -19.003 -20.612  1.00  0.00     0.134 C 
BRANCH  25  26
HETATM   26  C2  UNL     1     -24.250 -19.268 -22.021  1.00  0.00     0.204 C 
HETATM   27  C1  UNL     1     -23.941 -18.022 -22.790  1.00  0.00     0.042 C 
BRANCH  26  28
HETATM   28  N1  UNL     1     -23.107 -20.131 -22.089  1.00  0.00    -0.073 N 
ATOM     29  H13 UNL     1     -22.226 -19.617 -22.089  1.00  0.00     0.274 HD
ATOM     30  H12 UNL     1     -22.960 -20.657 -21.228  1.00  0.00     0.274 HD
ATOM     31  H11 UNL     1     -23.210 -20.734 -22.905  1.00  0.00     0.274 HD
ENDBRANCH  26  28
ENDBRANCH  25  26
BRANCH  25  32
HETATM   32  C4  UNL     1     -24.050 -17.733 -20.075  1.00  0.00     0.191 C 
BRANCH  32  33
HETATM   33  O1  UNL     1     -22.880 -18.060 -19.396  1.00  0.00    -0.399 OA
ATOM     34  H1  UNL     1     -22.271 -17.331 -19.435  1.00  0.00     0.209 HD
ENDBRANCH  32  33
ENDBRANCH  25  32
ENDBRANCH  23  25
ENDBRANCH  22  23
ENDBRANCH   1  22
TORSDOF 9
ENDMDL
MODEL 3
REMARK VINA RESULT: -7.103466741      3.249      5.997
REMARK  9 active torsions:
REMARK  status: ('A' for Active; 'I' for Inactive)
REMARK    1  A    between atoms: C2_2  and  N1_3 
REMARK    2  A    between atoms: C2_2  and  C3_7 
REMARK    3  A    between atoms: C3_7  and  C4_8 
REMARK    4  A    between atoms: C3_7  and  N2_11 
REMARK    5  A    between atoms: C4_8  and  O1_9 
REMARK    6  A    between atoms: N2_11  and  C5_13 
REMARK    7  A    between atoms: C5_13  and  C6_14 
REMARK    8  A    between atoms: C9_18  and  N3_19 
REMARK    9  A    between atoms: C12_24  and  N5_25 
ROOT
HETATM    1  C6  UNL     1     -25.000 -22.620 -19.312  1.00  0.00     0.302 C 
HETATM    2  O2  UNL     1     -26.133 -23.340 -19.756  1.00  0.00    -0.347 OA
HETATM    3  C7  UNL     1     -25.967 -23.573 -21.101  1.00  0.00     0.170 C 
HETATM    4  C8  UNL     1     -26.888 -22.839 -22.012  1.00  0.00     0.044 C 
HETATM    5  C9  UNL     1     -24.543 -23.123 -21.440  1.00  0.00     0.262 C 
HETATM    6  O3  UNL     1     -23.997 -23.018 -20.190  1.00  0.00    -0.329 OA
ENDROOT
BRANCH   5   7
HETATM    7  N3  UNL     1     -23.971 -24.115 -22.295  1.00  0.00    -0.297 N 
HETATM    8  C10 UNL     1     -24.690 -25.016 -23.010  1.00  0.00     0.188 A 
HETATM    9  N4  UNL     1     -23.845 -25.791 -23.696  1.00  0.00    -0.346 N 
HETATM   10  C11 UNL     1     -22.586 -25.423 -23.453  1.00  0.00     0.122 A 
ATOM     11  H4  UNL     1     -24.122 -26.553 -24.316  1.00  0.00     0.167 HD
HETATM   12  C12 UNL     1     -21.363 -25.882 -23.894  1.00  0.00     0.131 A 
HETATM   13  C14 UNL     1     -22.684 -24.352 -22.557  1.00  0.00     0.142 A 
HETATM   14  N6  UNL     1     -20.233 -25.293 -23.461  1.00  0.00    -0.337 N 
HETATM   15  C13 UNL     1     -20.356 -24.273 -22.605  1.00  0.00     0.183 A 
ATOM     16  H6  UNL     1     -19.317 -25.614 -23.774  1.00  0.00     0.168 HD
HETATM   17  N7  UNL     1     -21.549 -23.803 -22.156  1.00  0.00    -0.336 N 
ATOM     18  H7  UNL     1     -21.570 -23.019 -21.504  1.00  0.00     0.168 HD
BRANCH  12  19
HETATM   19  N5  UNL     1     -21.306 -26.870 -24.719  1.00  0.00    -0.383 N 
ATOM     20  H52 UNL     1     -22.114 -27.108 -25.293  1.00  0.00     0.157 HD
ATOM     21  H51 UNL     1     -20.450 -27.419 -24.797  1.00  0.00     0.157 HD
ENDBRANCH  12  19
ENDBRANCH   5   7
BRANCH   1  22
HETATM   22  C5  UNL     1     -25.366 -21.171 -19.461  1.00  0.00     0.116 C 
BRANCH  22  23
HETATM   23  N2  UNL     1     -24.318 -20.278 -19.750  1.00  0.00    -0.389 N 
ATOM     24  H2  UNL     1     -23.395 -20.399 -19.333  1.00  0.00     0.159 HD
BRANCH  23  25
HETATM   25  C3  UNL     1     -24.584 -19.200 -20.639  1.00  0.00     0.134 C 
BRANCH  25  26
HETATM   26  C2  UNL     1     -23.812 -19.262 -21.930  1.00  0.00     0.204 C 
HETATM   27  C1  UNL     1     -24.502 -20.052 -22.998  1.00  0.00     0.042 C 
BRANCH  26  28
HETATM   28  N1  UNL     1     -23.496 -17.969 -22.463  1.00  0.00    -0.073 N 
ATOM     29  H13 UNL     1     -22.933 -18.020 -23.311  1.00  0.00     0.274 HD
ATOM     30  H12 UNL     1     -24.308 -17.501 -22.864  1.00  0.00     0.274 HD
ATOM     31  H11 UNL     1     -23.050 -17.421 -21.727  1.00  0.00     0.274 HD
ENDBRANCH  26  28
ENDBRANCH  25  26
BRANCH  25  32
HETATM   32  C4  UNL     1     -24.224 -17.928 -19.873  1.00  0.00     0.191 C 
BRANCH  32  33
HETATM   33  O1  UNL     1     -22.929 -18.029 -19.374  1.00  0.00    -0.399 OA
ATOM     34  H1  UNL     1     -22.945 -18.444 -18.519  1.00  0.00     0.209 HD
ENDBRANCH  32  33
ENDBRANCH  25  32
ENDBRANCH  23  25
ENDBRANCH  22  23
ENDBRANCH   1  22
TORSDOF 9
ENDMDL
MODEL 4
REMARK VINA RESULT: -7.085914210      3.945      6.373
REMARK  9 active torsions:
REMARK  status: ('A' for Active; 'I' for Inactive)
REMARK    1  A    between atoms: C2_2  and  N1_3 
REMARK    2  A    between atoms: C2_2  and  C3_7 
REMARK    3  A    between atoms: C3_7  and  C4_8 
REMARK    4  A    between atoms: C3_7  and  N2_11 
REMARK    5  A    between atoms: C4_8  and  O1_9 
REMARK    6  A    between atoms: N2_11  and  C5_13 
REMARK    7  A    between atoms: C5_13  and  C6_14 
REMARK    8  A    between atoms: C9_18  and  N3_19 
REMARK    9  A    between atoms: C12_24  and  N5_25 
ROOT
HETATM    1  C6  UNL     1     -24.086 -21.934 -21.159  1.00  0.00     0.302 C 
HETATM    2  O2  UNL     1     -23.611 -22.776 -20.127  1.00  0.00    -0.347 OA
HETATM    3  C7  UNL     1     -23.442 -24.028 -20.667  1.00  0.00     0.170 C 
HETATM    4  C8  UNL     1     -24.388 -25.078 -20.198  1.00  0.00     0.044 C 
HETATM    5  C9  UNL     1     -23.652 -23.874 -22.176  1.00  0.00     0.262 C 
HETATM    6  O3  UNL     1     -23.574 -22.515 -22.314  1.00  0.00    -0.329 OA
ENDROOT
BRANCH   5   7
HETATM    7  N3  UNL     1     -22.633 -24.632 -22.832  1.00  0.00    -0.297 N 
HETATM    8  C10 UNL     1     -21.303 -24.465 -22.626  1.00  0.00     0.188 A 
HETATM    9  N4  UNL     1     -20.638 -25.331 -23.396  1.00  0.00    -0.346 N 
HETATM   10  C11 UNL     1     -21.497 -26.067 -24.105  1.00  0.00     0.122 A 
ATOM     11  H4  UNL     1     -19.622 -25.418 -23.437  1.00  0.00     0.167 HD
HETATM   12  C12 UNL     1     -21.340 -27.078 -25.029  1.00  0.00     0.131 A 
HETATM   13  C14 UNL     1     -22.766 -25.608 -23.732  1.00  0.00     0.142 A 
HETATM   14  N6  UNL     1     -22.425 -27.644 -25.590  1.00  0.00    -0.337 N 
HETATM   15  C13 UNL     1     -23.625 -27.186 -25.217  1.00  0.00     0.183 A 
ATOM     16  H6  UNL     1     -22.335 -28.394 -26.275  1.00  0.00     0.168 HD
HETATM   17  N7  UNL     1     -23.804 -26.191 -24.308  1.00  0.00    -0.336 N 
ATOM     18  H7  UNL     1     -24.749 -25.892 -24.068  1.00  0.00     0.168 HD
BRANCH  12  19
HETATM   19  N5  UNL     1     -20.159 -27.478 -25.351  1.00  0.00    -0.383 N 
ATOM     20  H52 UNL     1     -20.004 -28.443 -25.644  1.00  0.00     0.157 HD
ATOM     21  H51 UNL     1     -19.373 -26.829 -25.313  1.00  0.00     0.157 HD
ENDBRANCH  12  19
ENDBRANCH   5   7
BRANCH   1  22
HETATM   22  C5  UNL     1     -25.583 -22.012 -21.078  1.00  0.00     0.116 C 
BRANCH  22  23
HETATM   23  N2  UNL     1     -26.165 -21.763 -19.821  1.00  0.00    -0.389 N 
ATOM     24  H2  UNL     1     -25.714 -21.144 -19.147  1.00  0.00     0.159 HD
BRANCH  23  25
HETATM   25  C3  UNL     1     -27.401 -22.399 -19.519  1.00  0.00     0.134 C 
BRANCH  25  26
HETATM   26  C2  UNL     1     -27.269 -23.610 -18.633  1.00  0.00     0.204 C 
HETATM   27  C1  UNL     1     -26.123 -23.524 -17.675  1.00  0.00     0.042 C 
BRANCH  26  28
HETATM   28  N1  UNL     1     -28.458 -23.894 -17.884  1.00  0.00    -0.073 N 
ATOM     29  H13 UNL     1     -28.730 -23.126 -17.270  1.00  0.00     0.274 HD
ATOM     30  H12 UNL     1     -29.295 -23.908 -18.466  1.00  0.00     0.274 HD
ATOM     31  H11 UNL     1     -28.317 -24.769 -17.379  1.00  0.00     0.274 HD
ENDBRANCH  26  28
ENDBRANCH  25  26
BRANCH  25  32
HETATM   32  C4  UNL     1     -28.006 -22.797 -20.865  1.00  0.00     0.191 C 
BRANCH  32  33
HETATM   33  O1  UNL     1     -29.170 -23.531 -20.660  1.00  0.00    -0.399 OA
ATOM     34  H1  UNL     1     -29.291 -24.149 -21.371  1.00  0.00     0.209 HD
ENDBRANCH  32  33
ENDBRANCH  25  32
ENDBRANCH  23  25
ENDBRANCH  22  23
ENDBRANCH   1  22
TORSDOF 9
ENDMDL
MODEL 5
REMARK VINA RESULT: -6.916261441      2.085      3.616
REMARK  9 active torsions:
REMARK  status: ('A' for Active; 'I' for Inactive)
REMARK    1  A    between atoms: C2_2  and  N1_3 
REMARK    2  A    between atoms: C2_2  and  C3_7 
REMARK    3  A    between atoms: C3_7  and  C4_8 
REMARK    4  A    between atoms: C3_7  and  N2_11 
REMARK    5  A    between atoms: C4_8  and  O1_9 
REMARK    6  A    between atoms: N2_11  and  C5_13 
REMARK    7  A    between atoms: C5_13  and  C6_14 
REMARK    8  A    between atoms: C9_18  and  N3_19 
REMARK    9  A    between atoms: C12_24  and  N5_25 
ROOT
HETATM    1  C6  UNL     1     -26.412 -22.289 -22.186  1.00  0.00     0.302 C 
HETATM    2  O2  UNL     1     -27.298 -21.545 -21.372  1.00  0.00    -0.347 OA
HETATM    3  C7  UNL     1     -26.534 -20.689 -20.615  1.00  0.00     0.170 C 
HETATM    4  C8  UNL     1     -26.474 -20.979 -19.156  1.00  0.00     0.044 C 
HETATM    5  C9  UNL     1     -25.106 -20.799 -21.156  1.00  0.00     0.262 C 
HETATM    6  O3  UNL     1     -25.325 -21.436 -22.347  1.00  0.00    -0.329 OA
ENDROOT
BRANCH   5   7
HETATM    7  N3  UNL     1     -24.575 -19.475 -21.240  1.00  0.00    -0.297 N 
HETATM    8  C10 UNL     1     -24.267 -18.704 -20.167  1.00  0.00     0.188 A 
HETATM    9  N4  UNL     1     -23.798 -17.531 -20.602  1.00  0.00    -0.346 N 
HETATM   10  C11 UNL     1     -23.788 -17.509 -21.936  1.00  0.00     0.122 A 
ATOM     11  H4  UNL     1     -23.492 -16.765 -20.002  1.00  0.00     0.167 HD
HETATM   12  C12 UNL     1     -23.409 -16.562 -22.864  1.00  0.00     0.131 A 
HETATM   13  C14 UNL     1     -24.286 -18.757 -22.327  1.00  0.00     0.142 A 
HETATM   14  N6  UNL     1     -23.517 -16.834 -24.178  1.00  0.00    -0.337 N 
HETATM   15  C13 UNL     1     -23.997 -18.034 -24.524  1.00  0.00     0.183 A 
ATOM     16  H6  UNL     1     -23.242 -16.151 -24.884  1.00  0.00     0.168 HD
HETATM   17  N7  UNL     1     -24.375 -18.983 -23.627  1.00  0.00    -0.336 N 
ATOM     18  H7  UNL     1     -24.732 -19.878 -23.961  1.00  0.00     0.168 HD
BRANCH  12  19
HETATM   19  N5  UNL     1     -22.955 -15.422 -22.472  1.00  0.00    -0.383 N 
ATOM     20  H52 UNL     1     -23.563 -14.766 -21.982  1.00  0.00     0.157 HD
ATOM     21  H51 UNL     1     -21.983 -15.172 -22.653  1.00  0.00     0.157 HD
ENDBRANCH  12  19
ENDBRANCH   5   7
BRANCH   1  22
HETATM   22  C5  UNL     1     -26.080 -23.519 -21.392  1.00  0.00     0.116 C 
BRANCH  22  23
HETATM   23  N2  UNL     1     -24.922 -24.224 -21.770  1.00  0.00    -0.389 N 
ATOM     24  H2  UNL     1     -24.887 -24.745 -22.646  1.00  0.00     0.159 HD
BRANCH  23  25
HETATM   25  C3  UNL     1     -23.803 -24.191 -20.893  1.00  0.00     0.134 C 
BRANCH  25  26
HETATM   26  C2  UNL     1     -22.484 -23.979 -21.586  1.00  0.00     0.204 C 
HETATM   27  C1  UNL     1     -22.275 -24.886 -22.758  1.00  0.00     0.042 C 
BRANCH  26  28
HETATM   28  N1  UNL     1     -22.286 -22.628 -22.025  1.00  0.00    -0.073 N 
ATOM     29  H13 UNL     1     -22.523 -22.495 -23.007  1.00  0.00     0.274 HD
ATOM     30  H12 UNL     1     -22.969 -21.983 -21.629  1.00  0.00     0.274 HD
ATOM     31  H11 UNL     1     -21.325 -22.361 -21.813  1.00  0.00     0.274 HD
ENDBRANCH  26  28
ENDBRANCH  25  26
BRANCH  25  32
HETATM   32  C4  UNL     1     -23.803 -25.535 -20.164  1.00  0.00     0.191 C 
BRANCH  32  33
HETATM   33  O1  UNL     1     -22.718 -25.600 -19.295  1.00  0.00    -0.399 OA
ATOM     34  H1  UNL     1     -22.732 -26.425 -18.824  1.00  0.00     0.209 HD
ENDBRANCH  32  33
ENDBRANCH  25  32
ENDBRANCH  23  25
ENDBRANCH  22  23
ENDBRANCH   1  22
TORSDOF 9
ENDMDL
