MODEL 1
REMARK VINA RESULT: -7.178465739      0.000      0.000
REMARK  11 active torsions:
REMARK  status: ('A' for Active; 'I' for Inactive)
REMARK    1  A    between atoms: N1_2  and  C2_4 
REMARK    2  A    between atoms: C3_7  and  N3_8 
REMARK    3  A    between atoms: N3_8  and  C4_10 
REMARK    4  A    between atoms: C4_10  and  C5_11 
REMARK    5  A    between atoms: C5_11  and  C6_12 
REMARK    6  A    between atoms: C6_12  and  N4_13 
REMARK    7  A    between atoms: C7_19  and  S1_20 
REMARK    8  A    between atoms: C9_22  and  N6_23 
REMARK       I    between atoms: N6_23  and  C10_25 
REMARK       I    between atoms: C10_25  and  N8_30 
REMARK    9  A    between atoms: N7_26  and  O1_28 
REMARK   10  A    between atoms: N8_30  and  O2_32 
REMARK   11  A    between atoms: O2_32  and  N9_33 
ROOT
HETATM    1  C2  UNL     1     -24.989 -20.700 -22.644  1.00  0.00     0.694 C 
HETATM    2  N2  UNL     1     -24.790 -19.596 -21.876  1.00  0.00    -0.022 N 
ATOM      3  H2  UNL     1     -24.993 -18.700 -22.319  1.00  0.00     0.203 HD
HETATM    4  C3  UNL     1     -24.351 -19.541 -20.584  1.00  0.00     0.693 C 
HETATM    5  N5  UNL     1     -24.512 -20.535 -19.665  1.00  0.00    -0.182 N 
ATOM      6  H5  UNL     1     -24.390 -20.267 -18.688  1.00  0.00     0.185 HD
HETATM    7  C7  UNL     1     -24.817 -21.849 -19.894  1.00  0.00     0.131 C 
HETATM    8  C9  UNL     1     -24.717 -22.553 -21.067  1.00  0.00     0.170 C 
HETATM    9  N10 UNL     1     -25.025 -21.995 -22.285  1.00  0.00    -0.173 N 
ATOM     10  H10 UNL     1     -25.320 -22.648 -23.012  1.00  0.00     0.186 HD
ENDROOT
BRANCH   8  11
HETATM   11  N6  UNL     1     -24.339 -23.697 -21.059  1.00  0.00    -0.170 N 
HETATM   12  C10 UNL     1     -24.030 -24.879 -21.593  1.00  0.00     0.725 C 
HETATM   13  N7  UNL     1     -23.390 -25.784 -20.863  1.00  0.00    -0.097 N 
HETATM   14  N8  UNL     1     -24.310 -25.370 -22.909  1.00  0.00    -0.070 N 
ATOM     15  H7  UNL     1     -23.140 -26.698 -21.241  1.00  0.00     0.213 HD
ATOM     16  H8  UNL     1     -25.248 -25.292 -23.301  1.00  0.00     0.215 HD
ATOM     17  H6  UNL     1     -24.141 -23.849 -20.071  1.00  0.00     0.186 HD
BRANCH  13  18
HETATM   18  O1  UNL     1     -23.084 -25.430 -19.579  1.00  0.00    -0.276 OA
ATOM     19  H1  UNL     1     -22.511 -24.680 -19.470  1.00  0.00     0.245 HD
ENDBRANCH  13  18
BRANCH  14  20
HETATM   20  O2  UNL     1     -23.330 -25.931 -23.612  1.00  0.00    -0.149 OA
BRANCH  20  21
HETATM   21  N9  UNL     1     -23.744 -26.503 -24.767  1.00  0.00    -0.286 N 
ATOM     22  H92 UNL     1     -24.563 -27.110 -24.811  1.00  0.00     0.186 HD
ATOM     23  H91 UNL     1     -23.165 -26.269 -25.573  1.00  0.00     0.186 HD
ENDBRANCH  20  21
ENDBRANCH  14  20
ENDBRANCH   8  11
BRANCH   7  24
HETATM   24  S1  UNL     1     -25.425 -22.711 -18.462  1.00  0.00    -0.112 SA
HETATM   25  C8  UNL     1     -27.043 -23.430 -18.854  1.00  0.00     0.097 C 
ENDBRANCH   7  24
BRANCH   1  26
HETATM   26  N1  UNL     1     -25.165 -20.436 -23.890  1.00  0.00    -0.230 N 
HETATM   27  C1  UNL     1     -26.020 -21.245 -24.728  1.00  0.00     0.165 C 
ATOM     28  H1  UNL     1     -24.689 -19.632 -24.299  1.00  0.00     0.177 HD
ENDBRANCH   1  26
BRANCH   4  29
HETATM   29  N3  UNL     1     -23.739 -18.476 -20.210  1.00  0.00    -0.225 N 
ATOM     30  H3  UNL     1     -22.727 -18.492 -20.084  1.00  0.00     0.177 HD
BRANCH  29  31
HETATM   31  C4  UNL     1     -24.469 -17.261 -19.964  1.00  0.00     0.139 C 
BRANCH  31  32
HETATM   32  C5  UNL     1     -23.775 -16.075 -20.622  1.00  0.00     0.047 C 
BRANCH  32  33
HETATM   33  C6  UNL     1     -24.110 -15.980 -22.085  1.00  0.00     0.231 C 
BRANCH  33  34
HETATM   34  N4  UNL     1     -22.959 -16.364 -22.856  1.00  0.00    -0.079 N 
ATOM     35  H43 UNL     1     -22.615 -15.605 -23.444  1.00  0.00     0.274 HD
ATOM     36  H42 UNL     1     -22.127 -16.485 -22.277  1.00  0.00     0.274 HD
ATOM     37  H41 UNL     1     -23.182 -17.201 -23.394  1.00  0.00     0.274 HD
ENDBRANCH  33  34
ENDBRANCH  32  33
ENDBRANCH  31  32
ENDBRANCH  29  31
ENDBRANCH   4  29
TORSDOF 11
ENDMDL
MODEL 2
REMARK VINA RESULT: -7.127489500      1.418      1.599
REMARK  11 active torsions:
REMARK  status: ('A' for Active; 'I' for Inactive)
REMARK    1  A    between atoms: N1_2  and  C2_4 
REMARK    2  A    between atoms: C3_7  and  N3_8 
REMARK    3  A    between atoms: N3_8  and  C4_10 
REMARK    4  A    between atoms: C4_10  and  C5_11 
REMARK    5  A    between atoms: C5_11  and  C6_12 
REMARK    6  A    between atoms: C6_12  and  N4_13 
REMARK    7  A    between atoms: C7_19  and  S1_20 
REMARK    8  A    between atoms: C9_22  and  N6_23 
REMARK       I    between atoms: N6_23  and  C10_25 
REMARK       I    between atoms: C10_25  and  N8_30 
REMARK    9  A    between atoms: N7_26  and  O1_28 
REMARK   10  A    between atoms: N8_30  and  O2_32 
REMARK   11  A    between atoms: O2_32  and  N9_33 
ROOT
HETATM    1  C2  UNL     1     -25.286 -21.219 -23.381  1.00  0.00     0.694 C 
HETATM    2  N2  UNL     1     -24.898 -20.058 -22.792  1.00  0.00    -0.022 N 
ATOM      3  H2  UNL     1     -25.160 -19.200 -23.278  1.00  0.00     0.203 HD
HETATM    4  C3  UNL     1     -24.200 -19.900 -21.629  1.00  0.00     0.693 C 
HETATM    5  N5  UNL     1     -24.199 -20.789 -20.595  1.00  0.00    -0.182 N 
ATOM      6  H5  UNL     1     -23.870 -20.434 -19.698  1.00  0.00     0.185 HD
HETATM    7  C7  UNL     1     -24.586 -22.101 -20.617  1.00  0.00     0.131 C 
HETATM    8  C9  UNL     1     -24.754 -22.921 -21.704  1.00  0.00     0.170 C 
HETATM    9  N10 UNL     1     -25.289 -22.470 -22.887  1.00  0.00    -0.173 N 
ATOM     10  H10 UNL     1     -25.748 -23.175 -23.465  1.00  0.00     0.186 HD
ENDROOT
BRANCH   8  11
HETATM   11  N6  UNL     1     -24.419 -24.077 -21.651  1.00  0.00    -0.170 N 
HETATM   12  C10 UNL     1     -23.786 -25.179 -22.053  1.00  0.00     0.725 C 
HETATM   13  N7  UNL     1     -23.726 -26.235 -21.251  1.00  0.00    -0.097 N 
HETATM   14  N8  UNL     1     -23.131 -25.433 -23.302  1.00  0.00    -0.070 N 
ATOM     15  H7  UNL     1     -23.250 -27.093 -21.530  1.00  0.00     0.213 HD
ATOM     16  H8  UNL     1     -23.599 -25.222 -24.183  1.00  0.00     0.215 HD
ATOM     17  H6  UNL     1     -24.897 -24.400 -20.809  1.00  0.00     0.186 HD
BRANCH  13  18
HETATM   18  O1  UNL     1     -24.334 -26.113 -20.034  1.00  0.00    -0.276 OA
ATOM     19  H1  UNL     1     -25.218 -26.454 -19.964  1.00  0.00     0.245 HD
ENDBRANCH  13  18
BRANCH  14  20
HETATM   20  O2  UNL     1     -21.904 -25.946 -23.296  1.00  0.00    -0.149 OA
BRANCH  20  21
HETATM   21  N9  UNL     1     -20.921 -25.015 -23.298  1.00  0.00    -0.286 N 
ATOM     22  H92 UNL     1     -19.939 -25.260 -23.175  1.00  0.00     0.186 HD
ATOM     23  H91 UNL     1     -21.259 -24.062 -23.432  1.00  0.00     0.186 HD
ENDBRANCH  20  21
ENDBRANCH  14  20
ENDBRANCH   8  11
BRANCH   7  24
HETATM   24  S1  UNL     1     -24.912 -22.786 -19.008  1.00  0.00    -0.112 SA
HETATM   25  C8  UNL     1     -26.653 -23.289 -18.926  1.00  0.00     0.097 C 
ENDBRANCH   7  24
BRANCH   1  26
HETATM   26  N1  UNL     1     -25.709 -21.070 -24.587  1.00  0.00    -0.230 N 
HETATM   27  C1  UNL     1     -25.280 -19.966 -25.415  1.00  0.00     0.165 C 
ATOM     28  H1  UNL     1     -26.365 -21.750 -24.970  1.00  0.00     0.177 HD
ENDBRANCH   1  26
BRANCH   4  29
HETATM   29  N3  UNL     1     -23.491 -18.838 -21.502  1.00  0.00    -0.225 N 
ATOM     30  H3  UNL     1     -22.503 -18.915 -21.263  1.00  0.00     0.177 HD
BRANCH  29  31
HETATM   31  C4  UNL     1     -24.078 -17.538 -21.692  1.00  0.00     0.139 C 
BRANCH  31  32
HETATM   32  C5  UNL     1     -24.974 -17.175 -20.515  1.00  0.00     0.047 C 
BRANCH  32  33
HETATM   33  C6  UNL     1     -24.895 -15.709 -20.191  1.00  0.00     0.231 C 
BRANCH  33  34
HETATM   34  N4  UNL     1     -24.068 -15.528 -19.029  1.00  0.00    -0.079 N 
ATOM     35  H43 UNL     1     -23.175 -16.013 -19.110  1.00  0.00     0.274 HD
ATOM     36  H42 UNL     1     -23.708 -14.576 -18.954  1.00  0.00     0.274 HD
ATOM     37  H41 UNL     1     -24.590 -15.812 -18.201  1.00  0.00     0.274 HD
ENDBRANCH  33  34
ENDBRANCH  32  33
ENDBRANCH  31  32
ENDBRANCH  29  31
ENDBRANCH   4  29
TORSDOF 11
ENDMDL
MODEL 3
REMARK VINA RESULT: -7.122412051      2.695      5.188
REMARK  11 active torsions:
REMARK  status: ('A' for Active; 'I' for Inactive)
REMARK    1  A    between atoms: N1_2  and  C2_4 
REMARK    2  A    between atoms: C3_7  and  N3_8 
REMARK    3  A    between atoms: N3_8  and  C4_10 
REMARK    4  A    between atoms: C4_10  and  C5_11 
REMARK    5  A    between atoms: C5_11  and  C6_12 
REMARK    6  A    between atoms: C6_12  and  N4_13 
REMARK    7  A    between atoms: C7_19  and  S1_20 
REMARK    8  A    between atoms: C9_22  and  N6_23 
REMARK       I    between atoms: N6_23  and  C10_25 
REMARK       I    between atoms: C10_25  and  N8_30 
REMARK    9  A    between atoms: N7_26  and  O1_28 
REMARK   10  A    between atoms: N8_30  and  O2_32 
REMARK   11  A    between atoms: O2_32  and  N9_33 
ROOT
HETATM    1  C2  UNL     1     -24.095 -19.264 -21.307  1.00  0.00     0.694 C 
HETATM    2  N2  UNL     1     -24.213 -19.395 -22.655  1.00  0.00    -0.022 N 
ATOM      3  H2  UNL     1     -23.855 -18.621 -23.213  1.00  0.00     0.203 HD
HETATM    4  C3  UNL     1     -24.753 -20.438 -23.351  1.00  0.00     0.693 C 
HETATM    5  N5  UNL     1     -24.807 -21.727 -22.907  1.00  0.00    -0.182 N 
ATOM      6  H5  UNL     1     -24.978 -22.439 -23.616  1.00  0.00     0.185 HD
HETATM    7  C7  UNL     1     -24.659 -22.178 -21.624  1.00  0.00     0.131 C 
HETATM    8  C9  UNL     1     -24.747 -21.465 -20.455  1.00  0.00     0.170 C 
HETATM    9  N10 UNL     1     -24.261 -20.184 -20.340  1.00  0.00    -0.173 N 
ATOM     10  H10 UNL     1     -23.993 -19.893 -19.400  1.00  0.00     0.186 HD
ENDROOT
BRANCH   8  11
HETATM   11  N6  UNL     1     -25.272 -21.950 -19.485  1.00  0.00    -0.170 N 
HETATM   12  C10 UNL     1     -26.283 -22.440 -18.768  1.00  0.00     0.725 C 
HETATM   13  N7  UNL     1     -26.036 -23.066 -17.624  1.00  0.00    -0.097 N 
HETATM   14  N8  UNL     1     -27.688 -22.381 -19.040  1.00  0.00    -0.070 N 
ATOM     15  H7  UNL     1     -26.787 -23.452 -17.051  1.00  0.00     0.213 HD
ATOM     16  H8  UNL     1     -28.128 -21.498 -19.298  1.00  0.00     0.215 HD
ATOM     17  H6  UNL     1     -24.489 -22.033 -18.837  1.00  0.00     0.186 HD
BRANCH  13  18
HETATM   18  O1  UNL     1     -24.725 -23.168 -17.253  1.00  0.00    -0.276 OA
ATOM     19  H1  UNL     1     -24.234 -23.892 -17.622  1.00  0.00     0.245 HD
ENDBRANCH  13  18
BRANCH  14  20
HETATM   20  O2  UNL     1     -28.411 -23.494 -18.950  1.00  0.00    -0.149 OA
BRANCH  20  21
HETATM   21  N9  UNL     1     -28.976 -23.874 -20.121  1.00  0.00    -0.286 N 
ATOM     22  H92 UNL     1     -29.967 -23.734 -20.318  1.00  0.00     0.186 HD
ATOM     23  H91 UNL     1     -28.321 -24.305 -20.773  1.00  0.00     0.186 HD
ENDBRANCH  20  21
ENDBRANCH  14  20
ENDBRANCH   8  11
BRANCH   7  24
HETATM   24  S1  UNL     1     -24.299 -23.916 -21.506  1.00  0.00    -0.112 SA
HETATM   25  C8  UNL     1     -22.673 -24.127 -20.731  1.00  0.00     0.097 C 
ENDBRANCH   7  24
BRANCH   1  26
HETATM   26  N1  UNL     1     -23.775 -18.076 -20.931  1.00  0.00    -0.230 N 
HETATM   27  C1  UNL     1     -24.759 -17.144 -20.429  1.00  0.00     0.165 C 
ATOM     28  H1  UNL     1     -22.800 -17.784 -20.989  1.00  0.00     0.177 HD
ENDBRANCH   1  26
BRANCH   4  29
HETATM   29  N3  UNL     1     -25.250 -20.186 -24.508  1.00  0.00    -0.225 N 
ATOM     30  H3  UNL     1     -24.956 -19.351 -25.013  1.00  0.00     0.177 HD
BRANCH  29  31
HETATM   31  C4  UNL     1     -26.218 -21.072 -25.098  1.00  0.00     0.139 C 
BRANCH  31  32
HETATM   32  C5  UNL     1     -26.088 -21.077 -26.616  1.00  0.00     0.047 C 
BRANCH  32  33
HETATM   33  C6  UNL     1     -26.602 -22.359 -27.211  1.00  0.00     0.231 C 
BRANCH  33  34
HETATM   34  N4  UNL     1     -25.589 -22.920 -28.062  1.00  0.00    -0.079 N 
ATOM     35  H43 UNL     1     -25.920 -23.063 -29.016  1.00  0.00     0.274 HD
ATOM     36  H42 UNL     1     -24.843 -22.255 -28.267  1.00  0.00     0.274 HD
ATOM     37  H41 UNL     1     -25.238 -23.780 -27.641  1.00  0.00     0.274 HD
ENDBRANCH  33  34
ENDBRANCH  32  33
ENDBRANCH  31  32
ENDBRANCH  29  31
ENDBRANCH   4  29
TORSDOF 11
ENDMDL
MODEL 4
REMARK VINA RESULT: -7.093506124      2.689      4.962
REMARK  11 active torsions:
REMARK  status: ('A' for Active; 'I' for Inactive)
REMARK    1  A    between atoms: N1_2  and  C2_4 
REMARK    2  A    between atoms: C3_7  and  N3_8 
REMARK    3  A    between atoms: N3_8  and  C4_10 
REMARK    4  A    between atoms: C4_10  and  C5_11 
REMARK    5  A    between atoms: C5_11  and  C6_12 
REMARK    6  A    between atoms: C6_12  and  N4_13 
REMARK    7  A    between atoms: C7_19  and  S1_20 
REMARK    8  A    between atoms: C9_22  and  N6_23 
REMARK       I    between atoms: N6_23  and  C10_25 
REMARK       I    between atoms: C10_25  and  N8_30 
REMARK    9  A    between atoms: N7_26  and  O1_28 
REMARK   10  A    between atoms: N8_30  and  O2_32 
REMARK   11  A    between atoms: O2_32  and  N9_33 
ROOT
HETATM    1  C2  UNL     1     -24.092 -19.297 -21.288  1.00  0.00     0.694 C 
HETATM    2  N2  UNL     1     -24.220 -19.415 -22.636  1.00  0.00    -0.022 N 
ATOM      3  H2  UNL     1     -23.851 -18.643 -23.191  1.00  0.00     0.203 HD
HETATM    4  C3  UNL     1     -24.781 -20.444 -23.337  1.00  0.00     0.693 C 
HETATM    5  N5  UNL     1     -24.855 -21.734 -22.902  1.00  0.00    -0.182 N 
ATOM      6  H5  UNL     1     -25.042 -22.438 -23.616  1.00  0.00     0.185 HD
HETATM    7  C7  UNL     1     -24.709 -22.198 -21.624  1.00  0.00     0.131 C 
HETATM    8  C9  UNL     1     -24.778 -21.492 -20.449  1.00  0.00     0.170 C 
HETATM    9  N10 UNL     1     -24.270 -20.220 -20.327  1.00  0.00    -0.173 N 
ATOM     10  H10 UNL     1     -23.991 -19.941 -19.386  1.00  0.00     0.186 HD
ENDROOT
BRANCH   8  11
HETATM   11  N6  UNL     1     -25.306 -21.975 -19.480  1.00  0.00    -0.170 N 
HETATM   12  C10 UNL     1     -26.322 -22.451 -18.760  1.00  0.00     0.725 C 
HETATM   13  N7  UNL     1     -26.080 -23.092 -17.623  1.00  0.00    -0.097 N 
HETATM   14  N8  UNL     1     -27.728 -22.362 -19.022  1.00  0.00    -0.070 N 
ATOM     15  H7  UNL     1     -26.835 -23.468 -17.049  1.00  0.00     0.213 HD
ATOM     16  H8  UNL     1     -28.151 -21.468 -19.270  1.00  0.00     0.215 HD
ATOM     17  H6  UNL     1     -24.521 -22.079 -18.838  1.00  0.00     0.186 HD
BRANCH  13  18
HETATM   18  O1  UNL     1     -24.769 -23.224 -17.262  1.00  0.00    -0.276 OA
ATOM     19  H1  UNL     1     -24.139 -23.301 -17.968  1.00  0.00     0.245 HD
ENDBRANCH  13  18
BRANCH  14  20
HETATM   20  O2  UNL     1     -28.472 -23.461 -18.938  1.00  0.00    -0.149 OA
BRANCH  20  21
HETATM   21  N9  UNL     1     -28.961 -23.882 -20.128  1.00  0.00    -0.286 N 
ATOM     22  H92 UNL     1     -29.962 -23.927 -20.320  1.00  0.00     0.186 HD
ATOM     23  H91 UNL     1     -28.240 -24.143 -20.800  1.00  0.00     0.186 HD
ENDBRANCH  20  21
ENDBRANCH  14  20
ENDBRANCH   8  11
BRANCH   7  24
HETATM   24  S1  UNL     1     -24.378 -23.942 -21.520  1.00  0.00    -0.112 SA
HETATM   25  C8  UNL     1     -22.799 -24.191 -20.662  1.00  0.00     0.097 C 
ENDBRANCH   7  24
BRANCH   1  26
HETATM   26  N1  UNL     1     -23.750 -18.117 -20.905  1.00  0.00    -0.230 N 
HETATM   27  C1  UNL     1     -24.721 -17.158 -20.430  1.00  0.00     0.165 C 
ATOM     28  H1  UNL     1     -22.767 -17.851 -20.937  1.00  0.00     0.177 HD
ENDBRANCH   1  26
BRANCH   4  29
HETATM   29  N3  UNL     1     -25.279 -20.175 -24.490  1.00  0.00    -0.225 N 
ATOM     30  H3  UNL     1     -25.032 -19.302 -24.956  1.00  0.00     0.177 HD
BRANCH  29  31
HETATM   31  C4  UNL     1     -26.183 -21.094 -25.129  1.00  0.00     0.139 C 
BRANCH  31  32
HETATM   32  C5  UNL     1     -26.405 -20.705 -26.585  1.00  0.00     0.047 C 
BRANCH  32  33
HETATM   33  C6  UNL     1     -27.027 -19.341 -26.705  1.00  0.00     0.231 C 
BRANCH  33  34
HETATM   34  N4  UNL     1     -28.273 -19.454 -27.412  1.00  0.00    -0.079 N 
ATOM     35  H43 UNL     1     -29.036 -19.758 -26.807  1.00  0.00     0.274 HD
ATOM     36  H42 UNL     1     -28.653 -18.545 -27.676  1.00  0.00     0.274 HD
ATOM     37  H41 UNL     1     -28.147 -20.070 -28.216  1.00  0.00     0.274 HD
ENDBRANCH  33  34
ENDBRANCH  32  33
ENDBRANCH  31  32
ENDBRANCH  29  31
ENDBRANCH   4  29
TORSDOF 11
ENDMDL
MODEL 5
REMARK VINA RESULT: -7.045676745      2.868      4.420
REMARK  11 active torsions:
REMARK  status: ('A' for Active; 'I' for Inactive)
REMARK    1  A    between atoms: N1_2  and  C2_4 
REMARK    2  A    between atoms: C3_7  and  N3_8 
REMARK    3  A    between atoms: N3_8  and  C4_10 
REMARK    4  A    between atoms: C4_10  and  C5_11 
REMARK    5  A    between atoms: C5_11  and  C6_12 
REMARK    6  A    between atoms: C6_12  and  N4_13 
REMARK    7  A    between atoms: C7_19  and  S1_20 
REMARK    8  A    between atoms: C9_22  and  N6_23 
REMARK       I    between atoms: N6_23  and  C10_25 
REMARK       I    between atoms: C10_25  and  N8_30 
REMARK    9  A    between atoms: N7_26  and  O1_28 
REMARK   10  A    between atoms: N8_30  and  O2_32 
REMARK   11  A    between atoms: O2_32  and  N9_33 
ROOT
HETATM    1  C2  UNL     1     -24.082 -18.841 -21.037  1.00  0.00     0.694 C 
HETATM    2  N2  UNL     1     -24.042 -18.942 -22.392  1.00  0.00    -0.022 N 
ATOM      3  H2  UNL     1     -23.708 -18.120 -22.893  1.00  0.00     0.203 HD
HETATM    4  C3  UNL     1     -24.396 -20.012 -23.163  1.00  0.00     0.693 C 
HETATM    5  N5  UNL     1     -24.365 -21.312 -22.752  1.00  0.00    -0.182 N 
ATOM      6  H5  UNL     1     -24.386 -22.016 -23.489  1.00  0.00     0.185 HD
HETATM    7  C7  UNL     1     -24.310 -21.785 -21.470  1.00  0.00     0.131 C 
HETATM    8  C9  UNL     1     -24.594 -21.120 -20.304  1.00  0.00     0.170 C 
HETATM    9  N10 UNL     1     -24.257 -19.801 -20.112  1.00  0.00    -0.173 N 
ATOM     10  H10 UNL     1     -24.121 -19.514 -19.143  1.00  0.00     0.186 HD
ENDROOT
BRANCH   8  11
HETATM   11  N6  UNL     1     -25.167 -21.684 -19.407  1.00  0.00    -0.170 N 
HETATM   12  C10 UNL     1     -26.219 -22.198 -18.770  1.00  0.00     0.725 C 
HETATM   13  N7  UNL     1     -26.033 -22.963 -17.702  1.00  0.00    -0.097 N 
HETATM   14  N8  UNL     1     -27.612 -22.034 -19.061  1.00  0.00    -0.070 N 
ATOM     15  H7  UNL     1     -26.818 -23.371 -17.192  1.00  0.00     0.213 HD
ATOM     16  H8  UNL     1     -28.000 -21.105 -19.224  1.00  0.00     0.215 HD
ATOM     17  H6  UNL     1     -24.406 -21.882 -18.758  1.00  0.00     0.186 HD
BRANCH  13  18
HETATM   18  O1  UNL     1     -24.739 -23.176 -17.319  1.00  0.00    -0.276 OA
ATOM     19  H1  UNL     1     -24.379 -24.036 -17.499  1.00  0.00     0.245 HD
ENDBRANCH  13  18
BRANCH  14  20
HETATM   20  O2  UNL     1     -28.393 -23.110 -19.114  1.00  0.00    -0.149 OA
BRANCH  20  21
HETATM   21  N9  UNL     1     -28.340 -23.765 -20.299  1.00  0.00    -0.286 N 
ATOM     22  H92 UNL     1     -27.528 -23.713 -20.913  1.00  0.00     0.186 HD
ATOM     23  H91 UNL     1     -29.180 -24.303 -20.508  1.00  0.00     0.186 HD
ENDBRANCH  20  21
ENDBRANCH  14  20
ENDBRANCH   8  11
BRANCH   7  24
HETATM   24  S1  UNL     1     -23.789 -23.482 -21.346  1.00  0.00    -0.112 SA
HETATM   25  C8  UNL     1     -22.037 -23.592 -21.801  1.00  0.00     0.097 C 
ENDBRANCH   7  24
BRANCH   1  26
HETATM   26  N1  UNL     1     -23.928 -17.639 -20.605  1.00  0.00    -0.230 N 
HETATM   27  C1  UNL     1     -25.054 -16.778 -20.326  1.00  0.00     0.165 C 
ATOM     28  H1  UNL     1     -22.984 -17.283 -20.457  1.00  0.00     0.177 HD
ENDBRANCH   1  26
BRANCH   4  29
HETATM   29  N3  UNL     1     -24.789 -19.776 -24.362  1.00  0.00    -0.225 N 
ATOM     30  H3  UNL     1     -25.652 -20.199 -24.704  1.00  0.00     0.177 HD
BRANCH  29  31
HETATM   31  C4  UNL     1     -24.023 -18.921 -25.228  1.00  0.00     0.139 C 
BRANCH  31  32
HETATM   32  C5  UNL     1     -24.870 -17.752 -25.717  1.00  0.00     0.047 C 
BRANCH  32  33
HETATM   33  C6  UNL     1     -24.538 -16.483 -24.982  1.00  0.00     0.231 C 
BRANCH  33  34
HETATM   34  N4  UNL     1     -25.645 -16.128 -24.136  1.00  0.00    -0.079 N 
ATOM     35  H43 UNL     1     -25.364 -15.529 -23.360  1.00  0.00     0.274 HD
ATOM     36  H42 UNL     1     -26.288 -15.479 -24.592  1.00  0.00     0.274 HD
ATOM     37  H41 UNL     1     -26.111 -16.978 -23.821  1.00  0.00     0.274 HD
ENDBRANCH  33  34
ENDBRANCH  32  33
ENDBRANCH  31  32
ENDBRANCH  29  31
ENDBRANCH   4  29
TORSDOF 11
ENDMDL
