MODEL 1
REMARK VINA RESULT: -6.175948732      0.000      0.000
REMARK  9 active torsions:
REMARK  status: ('A' for Active; 'I' for Inactive)
REMARK    1  A    between atoms: C3_3  and  O1_4 
REMARK    2  A    between atoms: C5_7  and  O2_8 
REMARK    3  A    between atoms: N2_15  and  C10_16 
REMARK    4  A    between atoms: C10_16  and  C11_17 
REMARK    5  A    between atoms: C11_17  and  C12_18 
REMARK    6  A    between atoms: C12_18  and  N3_19 
REMARK    7  A    between atoms: N3_19  and  C15_22 
REMARK    8  A    between atoms: C15_22  and  C16_23 
REMARK    9  A    between atoms: N4_26  and  C19_27 
ROOT
HETATM    1  C1  UNL     1      22.888 -16.424  24.992  1.00  0.00     0.015 C 
HETATM    2  C2  UNL     1      22.018 -15.590  24.937  1.00  0.00    -0.077 C 
HETATM    3  C3  UNL     1      20.939 -14.573  24.863  1.00  0.00     0.148 C 
HETATM    4  C4  UNL     1      21.011 -13.909  23.535  1.00  0.00     0.113 C 
HETATM    5  C5  UNL     1      20.185 -14.603  22.487  1.00  0.00     0.199 A 
HETATM    6  C6  UNL     1      18.947 -15.234  22.952  1.00  0.00     0.461 A 
HETATM    7  N1  UNL     1      18.592 -15.180  24.308  1.00  0.00    -0.030 N 
HETATM    8  C7  UNL     1      17.772 -16.369  24.613  1.00  0.00     0.275 C 
HETATM    9  C8  UNL     1      17.716 -14.048  24.535  1.00  0.00     0.269 C 
HETATM   10  C9  UNL     1      17.706 -13.289  23.249  1.00  0.00     0.289 C 
HETATM   11  N2  UNL     1      18.199 -14.194  22.210  1.00  0.00     0.035 N 
HETATM   12  N4  UNL     1      19.359 -13.717  21.718  1.00  0.00    -0.103 NA
HETATM   13  C21 UNL     1      19.648 -15.155  25.263  1.00  0.00     0.291 C 
ENDROOT
BRANCH   3  14
HETATM   14  O1  UNL     1      21.318 -13.598  25.818  1.00  0.00    -0.376 OA
ATOM     15  H1  UNL     1      21.626 -12.869  25.293  1.00  0.00     0.211 HD
ENDBRANCH   3  14
BRANCH   5  16
HETATM   16  O2  UNL     1      20.952 -15.425  21.641  1.00  0.00    -0.370 OA
ATOM     17  H2  UNL     1      20.952 -16.335  21.912  1.00  0.00     0.212 HD
ENDBRANCH   5  16
BRANCH  12  18
HETATM   18  C19 UNL     1      19.673 -13.487  20.385  1.00  0.00     0.120 C 
HETATM   19  C20 UNL     1      20.132 -12.079  20.092  1.00  0.00     0.022 C 
ENDBRANCH  12  18
BRANCH  11  20
HETATM   20  C10 UNL     1      17.210 -14.848  21.431  1.00  0.00     0.263 C 
BRANCH  20  21
HETATM   21  C11 UNL     1      15.943 -14.094  21.182  1.00  0.00     0.057 C 
BRANCH  21  22
HETATM   22  C12 UNL     1      15.938 -13.198  19.988  1.00  0.00     0.238 C 
BRANCH  22  23
HETATM   23  N3  UNL     1      15.425 -11.864  20.141  1.00  0.00    -0.074 N 
HETATM   24  C13 UNL     1      16.633 -11.002  20.194  1.00  0.00     0.272 C 
HETATM   25  C14 UNL     1      14.691 -11.378  18.988  1.00  0.00     0.272 C 
BRANCH  23  26
HETATM   26  C15 UNL     1      14.684 -11.781  21.349  1.00  0.00     0.240 C 
BRANCH  26  27
HETATM   27  C16 UNL     1      13.318 -11.184  21.306  1.00  0.00     0.003 C 
HETATM   28  C17 UNL     1      12.449 -12.154  22.137  1.00  0.00     0.011 C 
HETATM   29  C18 UNL     1      13.180  -9.845  21.968  1.00  0.00     0.011 C 
ENDBRANCH  26  27
ENDBRANCH  23  26
ENDBRANCH  22  23
ENDBRANCH  21  22
ENDBRANCH  20  21
ENDBRANCH  11  20
TORSDOF 9
ENDMDL
MODEL 2
REMARK VINA RESULT: -6.053499277      2.549      6.927
REMARK  9 active torsions:
REMARK  status: ('A' for Active; 'I' for Inactive)
REMARK    1  A    between atoms: C3_3  and  O1_4 
REMARK    2  A    between atoms: C5_7  and  O2_8 
REMARK    3  A    between atoms: N2_15  and  C10_16 
REMARK    4  A    between atoms: C10_16  and  C11_17 
REMARK    5  A    between atoms: C11_17  and  C12_18 
REMARK    6  A    between atoms: C12_18  and  N3_19 
REMARK    7  A    between atoms: N3_19  and  C15_22 
REMARK    8  A    between atoms: C15_22  and  C16_23 
REMARK    9  A    between atoms: N4_26  and  C19_27 
ROOT
HETATM    1  C1  UNL     1      15.781 -11.854  17.922  1.00  0.00     0.015 C 
HETATM    2  C2  UNL     1      16.056 -11.930  19.094  1.00  0.00    -0.077 C 
HETATM    3  C3  UNL     1      16.404 -12.034  20.534  1.00  0.00     0.148 C 
HETATM    4  C4  UNL     1      15.712 -13.221  21.100  1.00  0.00     0.113 C 
HETATM    5  C5  UNL     1      16.528 -14.481  20.995  1.00  0.00     0.199 A 
HETATM    6  C6  UNL     1      17.979 -14.323  21.114  1.00  0.00     0.461 A 
HETATM    7  N1  UNL     1      18.539 -13.051  21.303  1.00  0.00    -0.030 N 
HETATM    8  C7  UNL     1      19.900 -13.061  20.732  1.00  0.00     0.275 C 
HETATM    9  C8  UNL     1      18.726 -12.810  22.720  1.00  0.00     0.269 C 
HETATM   10  C9  UNL     1      18.060 -13.956  23.408  1.00  0.00     0.289 C 
HETATM   11  N2  UNL     1      17.896 -15.020  22.417  1.00  0.00     0.035 N 
HETATM   12  N4  UNL     1      16.583 -15.239  22.212  1.00  0.00    -0.103 NA
HETATM   13  C21 UNL     1      17.860 -11.941  20.724  1.00  0.00     0.291 C 
ENDROOT
BRANCH   3  14
HETATM   14  O1  UNL     1      15.792 -10.898  21.118  1.00  0.00    -0.376 OA
ATOM     15  H1  UNL     1      15.669 -11.145  22.028  1.00  0.00     0.211 HD
ENDBRANCH   3  14
BRANCH   5  16
HETATM   16  O2  UNL     1      16.136 -15.298  19.919  1.00  0.00    -0.370 OA
ATOM     17  H2  UNL     1      16.831 -15.871  19.619  1.00  0.00     0.212 HD
ENDBRANCH   5  16
BRANCH  12  18
HETATM   18  C19 UNL     1      15.915 -16.453  22.282  1.00  0.00     0.120 C 
HETATM   19  C20 UNL     1      15.708 -16.965  23.688  1.00  0.00     0.022 C 
ENDBRANCH  12  18
BRANCH  11  20
HETATM   20  C10 UNL     1      18.885 -16.038  22.425  1.00  0.00     0.263 C 
BRANCH  20  21
HETATM   21  C11 UNL     1      19.603 -16.268  23.716  1.00  0.00     0.057 C 
BRANCH  21  22
HETATM   22  C12 UNL     1      21.021 -15.804  23.767  1.00  0.00     0.238 C 
BRANCH  22  23
HETATM   23  N3  UNL     1      21.733 -15.931  25.009  1.00  0.00    -0.074 N 
HETATM   24  C13 UNL     1      20.998 -16.983  25.757  1.00  0.00     0.272 C 
HETATM   25  C14 UNL     1      23.074 -16.467  24.868  1.00  0.00     0.272 C 
BRANCH  23  26
HETATM   26  C15 UNL     1      21.698 -14.692  25.701  1.00  0.00     0.240 C 
BRANCH  26  27
HETATM   27  C16 UNL     1      21.491 -13.443  24.912  1.00  0.00     0.003 C 
HETATM   28  C17 UNL     1      20.839 -12.461  25.912  1.00  0.00     0.011 C 
HETATM   29  C18 UNL     1      22.744 -12.767  24.438  1.00  0.00     0.011 C 
ENDBRANCH  26  27
ENDBRANCH  23  26
ENDBRANCH  22  23
ENDBRANCH  21  22
ENDBRANCH  20  21
ENDBRANCH  11  20
TORSDOF 9
ENDMDL
MODEL 3
REMARK VINA RESULT: -5.935734798      1.651      2.645
REMARK  9 active torsions:
REMARK  status: ('A' for Active; 'I' for Inactive)
REMARK    1  A    between atoms: C3_3  and  O1_4 
REMARK    2  A    between atoms: C5_7  and  O2_8 
REMARK    3  A    between atoms: N2_15  and  C10_16 
REMARK    4  A    between atoms: C10_16  and  C11_17 
REMARK    5  A    between atoms: C11_17  and  C12_18 
REMARK    6  A    between atoms: C12_18  and  N3_19 
REMARK    7  A    between atoms: N3_19  and  C15_22 
REMARK    8  A    between atoms: C15_22  and  C16_23 
REMARK    9  A    between atoms: N4_26  and  C19_27 
ROOT
HETATM    1  C1  UNL     1      22.388 -16.744  26.785  1.00  0.00     0.015 C 
HETATM    2  C2  UNL     1      22.224 -16.247  25.698  1.00  0.00    -0.077 C 
HETATM    3  C3  UNL     1      22.011 -15.629  24.365  1.00  0.00     0.148 C 
HETATM    4  C4  UNL     1      20.960 -16.402  23.652  1.00  0.00     0.113 C 
HETATM    5  C5  UNL     1      19.571 -15.885  23.916  1.00  0.00     0.199 A 
HETATM    6  C6  UNL     1      19.446 -14.439  24.112  1.00  0.00     0.461 A 
HETATM    7  N1  UNL     1      20.581 -13.617  24.059  1.00  0.00    -0.030 N 
HETATM    8  C7  UNL     1      20.330 -12.436  24.908  1.00  0.00     0.275 C 
HETATM    9  C8  UNL     1      20.738 -13.092  22.717  1.00  0.00     0.269 C 
HETATM   10  C9  UNL     1      19.718 -13.805  21.891  1.00  0.00     0.289 C 
HETATM   11  N2  UNL     1      18.737 -14.377  22.814  1.00  0.00     0.035 N 
HETATM   12  N4  UNL     1      18.779 -15.721  22.732  1.00  0.00    -0.103 NA
HETATM   13  C21 UNL     1      21.818 -14.176  24.491  1.00  0.00     0.291 C 
ENDROOT
BRANCH   3  14
HETATM   14  O1  UNL     1      23.223 -15.873  23.674  1.00  0.00    -0.376 OA
ATOM     15  H1  UNL     1      23.236 -16.816  23.557  1.00  0.00     0.211 HD
ENDBRANCH   3  14
BRANCH   5  16
HETATM   16  O2  UNL     1      18.878 -16.646  24.875  1.00  0.00    -0.370 OA
ATOM     17  H2  UNL     1      18.208 -16.147  25.327  1.00  0.00     0.212 HD
ENDBRANCH   5  16
BRANCH  12  18
HETATM   18  C19 UNL     1      17.712 -16.580  22.508  1.00  0.00     0.120 C 
HETATM   19  C20 UNL     1      17.713 -17.226  21.143  1.00  0.00     0.022 C 
ENDBRANCH  12  18
BRANCH  11  20
HETATM   20  C10 UNL     1      17.549 -13.625  23.007  1.00  0.00     0.263 C 
BRANCH  20  21
HETATM   21  C11 UNL     1      17.231 -12.593  21.973  1.00  0.00     0.057 C 
BRANCH  21  22
HETATM   22  C12 UNL     1      15.863 -12.661  21.380  1.00  0.00     0.238 C 
BRANCH  22  23
HETATM   23  N3  UNL     1      15.608 -11.924  20.173  1.00  0.00    -0.074 N 
HETATM   24  C13 UNL     1      16.677 -10.893  20.131  1.00  0.00     0.272 C 
HETATM   25  C14 UNL     1      15.807 -12.692  18.958  1.00  0.00     0.272 C 
BRANCH  23  26
HETATM   26  C15 UNL     1      14.323 -11.326  20.250  1.00  0.00     0.240 C 
BRANCH  26  27
HETATM   27  C16 UNL     1      13.721 -11.104  21.597  1.00  0.00     0.003 C 
HETATM   28  C17 UNL     1      13.485  -9.579  21.665  1.00  0.00     0.011 C 
HETATM   29  C18 UNL     1      12.376 -11.733  21.810  1.00  0.00     0.011 C 
ENDBRANCH  26  27
ENDBRANCH  23  26
ENDBRANCH  22  23
ENDBRANCH  21  22
ENDBRANCH  20  21
ENDBRANCH  11  20
TORSDOF 9
ENDMDL
MODEL 4
REMARK VINA RESULT: -5.813939457      1.849      2.843
REMARK  9 active torsions:
REMARK  status: ('A' for Active; 'I' for Inactive)
REMARK    1  A    between atoms: C3_3  and  O1_4 
REMARK    2  A    between atoms: C5_7  and  O2_8 
REMARK    3  A    between atoms: N2_15  and  C10_16 
REMARK    4  A    between atoms: C10_16  and  C11_17 
REMARK    5  A    between atoms: C11_17  and  C12_18 
REMARK    6  A    between atoms: C12_18  and  N3_19 
REMARK    7  A    between atoms: N3_19  and  C15_22 
REMARK    8  A    between atoms: C15_22  and  C16_23 
REMARK    9  A    between atoms: N4_26  and  C19_27 
ROOT
HETATM    1  C1  UNL     1      24.617 -17.278  23.361  1.00  0.00     0.015 C 
HETATM    2  C2  UNL     1      23.487 -17.158  23.765  1.00  0.00    -0.077 C 
HETATM    3  C3  UNL     1      22.093 -17.002  24.251  1.00  0.00     0.148 C 
HETATM    4  C4  UNL     1      21.995 -15.717  24.990  1.00  0.00     0.113 C 
HETATM    5  C5  UNL     1      21.627 -14.557  24.104  1.00  0.00     0.199 A 
HETATM    6  C6  UNL     1      20.730 -14.858  22.985  1.00  0.00     0.461 A 
HETATM    7  N1  UNL     1      20.271 -16.167  22.779  1.00  0.00    -0.030 N 
HETATM    8  C7  UNL     1      19.999 -16.334  21.338  1.00  0.00     0.275 C 
HETATM    9  C8  UNL     1      18.986 -16.338  23.428  1.00  0.00     0.269 C 
HETATM   10  C9  UNL     1      18.771 -15.088  24.217  1.00  0.00     0.289 C 
HETATM   11  N2  UNL     1      19.684 -14.076  23.682  1.00  0.00     0.035 N 
HETATM   12  N4  UNL     1      20.576 -13.735  24.631  1.00  0.00    -0.103 NA
HETATM   13  C21 UNL     1      21.133 -17.234  23.159  1.00  0.00     0.291 C 
ENDROOT
BRANCH   3  14
HETATM   14  O1  UNL     1      21.947 -18.029  25.215  1.00  0.00    -0.376 OA
ATOM     15  H1  UNL     1      22.595 -17.817  25.877  1.00  0.00     0.211 HD
ENDBRANCH   3  14
BRANCH   5  16
HETATM   16  O2  UNL     1      22.737 -13.772  23.742  1.00  0.00    -0.370 OA
ATOM     17  H2  UNL     1      22.538 -12.844  23.713  1.00  0.00     0.212 HD
ENDBRANCH   5  16
BRANCH  12  18
HETATM   18  C19 UNL     1      20.879 -12.455  25.076  1.00  0.00     0.120 C 
HETATM   19  C20 UNL     1      20.705 -12.260  26.563  1.00  0.00     0.022 C 
ENDBRANCH  12  18
BRANCH  11  20
HETATM   20  C10 UNL     1      19.128 -13.168  22.744  1.00  0.00     0.263 C 
BRANCH  20  21
HETATM   21  C11 UNL     1      17.647 -13.224  22.550  1.00  0.00     0.057 C 
BRANCH  21  22
HETATM   22  C12 UNL     1      17.176 -13.387  21.143  1.00  0.00     0.238 C 
BRANCH  22  23
HETATM   23  N3  UNL     1      16.456 -12.302  20.537  1.00  0.00    -0.074 N 
HETATM   24  C13 UNL     1      17.499 -11.300  20.202  1.00  0.00     0.272 C 
HETATM   25  C14 UNL     1      15.857 -12.633  19.256  1.00  0.00     0.272 C 
BRANCH  23  26
HETATM   26  C15 UNL     1      15.522 -11.778  21.469  1.00  0.00     0.240 C 
BRANCH  26  27
HETATM   27  C16 UNL     1      14.240 -11.217  20.953  1.00  0.00     0.003 C 
HETATM   28  C17 UNL     1      13.156 -11.837  21.863  1.00  0.00     0.011 C 
HETATM   29  C18 UNL     1      14.086  -9.731  21.092  1.00  0.00     0.011 C 
ENDBRANCH  26  27
ENDBRANCH  23  26
ENDBRANCH  22  23
ENDBRANCH  21  22
ENDBRANCH  20  21
ENDBRANCH  11  20
TORSDOF 9
ENDMDL
MODEL 5
REMARK VINA RESULT: -5.756548328      1.277      2.516
REMARK  9 active torsions:
REMARK  status: ('A' for Active; 'I' for Inactive)
REMARK    1  A    between atoms: C3_3  and  O1_4 
REMARK    2  A    between atoms: C5_7  and  O2_8 
REMARK    3  A    between atoms: N2_15  and  C10_16 
REMARK    4  A    between atoms: C10_16  and  C11_17 
REMARK    5  A    between atoms: C11_17  and  C12_18 
REMARK    6  A    between atoms: C12_18  and  N3_19 
REMARK    7  A    between atoms: N3_19  and  C15_22 
REMARK    8  A    between atoms: C15_22  and  C16_23 
REMARK    9  A    between atoms: N4_26  and  C19_27 
ROOT
HETATM    1  C1  UNL     1      22.628 -16.999  24.568  1.00  0.00     0.015 C 
HETATM    2  C2  UNL     1      21.839 -16.087  24.606  1.00  0.00    -0.077 C 
HETATM    3  C3  UNL     1      20.860 -14.972  24.645  1.00  0.00     0.148 C 
HETATM    4  C4  UNL     1      20.982 -14.196  23.384  1.00  0.00     0.113 C 
HETATM    5  C5  UNL     1      20.085 -14.709  22.290  1.00  0.00     0.199 A 
HETATM    6  C6  UNL     1      18.798 -15.263  22.716  1.00  0.00     0.461 A 
HETATM    7  N1  UNL     1      18.462 -15.305  24.077  1.00  0.00    -0.030 N 
HETATM    8  C7  UNL     1      17.537 -16.436  24.285  1.00  0.00     0.275 C 
HETATM    9  C8  UNL     1      17.697 -14.124  24.424  1.00  0.00     0.269 C 
HETATM   10  C9  UNL     1      17.748 -13.249  23.214  1.00  0.00     0.289 C 
HETATM   11  N2  UNL     1      18.145 -14.094  22.087  1.00  0.00     0.035 N 
HETATM   12  N4  UNL     1      19.340 -13.681  21.622  1.00  0.00    -0.103 NA
HETATM   13  C21 UNL     1      19.523 -15.468  25.012  1.00  0.00     0.291 C 
ENDROOT
BRANCH   3  14
HETATM   14  O1  UNL     1      21.337 -14.131  25.680  1.00  0.00    -0.376 OA
ATOM     15  H1  UNL     1      20.832 -13.333  25.580  1.00  0.00     0.211 HD
ENDBRANCH   3  14
BRANCH   5  16
HETATM   16  O2  UNL     1      20.765 -15.514  21.359  1.00  0.00    -0.370 OA
ATOM     17  H2  UNL     1      20.880 -15.088  20.517  1.00  0.00     0.212 HD
ENDBRANCH   5  16
BRANCH  12  18
HETATM   18  C19 UNL     1      19.663 -13.357  20.311  1.00  0.00     0.120 C 
HETATM   19  C20 UNL     1      20.153 -11.941  20.127  1.00  0.00     0.022 C 
ENDBRANCH  12  18
BRANCH  11  20
HETATM   20  C10 UNL     1      17.092 -14.577  21.268  1.00  0.00     0.263 C 
BRANCH  20  21
HETATM   21  C11 UNL     1      16.021 -13.599  20.903  1.00  0.00     0.057 C 
BRANCH  21  22
HETATM   22  C12 UNL     1      15.994 -13.161  19.476  1.00  0.00     0.238 C 
BRANCH  22  23
HETATM   23  N3  UNL     1      16.060 -11.753  19.197  1.00  0.00    -0.074 N 
HETATM   24  C13 UNL     1      14.643 -11.327  19.075  1.00  0.00     0.272 C 
HETATM   25  C14 UNL     1      16.577 -10.956  20.294  1.00  0.00     0.272 C 
BRANCH  23  26
HETATM   26  C15 UNL     1      16.763 -11.547  17.980  1.00  0.00     0.240 C 
BRANCH  26  27
HETATM   27  C16 UNL     1      15.975 -11.310  16.735  1.00  0.00     0.003 C 
HETATM   28  C17 UNL     1      16.918 -10.478  15.837  1.00  0.00     0.011 C 
HETATM   29  C18 UNL     1      15.640 -12.540  15.943  1.00  0.00     0.011 C 
ENDBRANCH  26  27
ENDBRANCH  23  26
ENDBRANCH  22  23
ENDBRANCH  21  22
ENDBRANCH  20  21
ENDBRANCH  11  20
TORSDOF 9
ENDMDL
