MODEL 1
REMARK VINA RESULT: -6.823137073      0.000      0.000
REMARK  2 active torsions:
REMARK  status: ('A' for Active; 'I' for Inactive)
REMARK    1  A    between atoms: O1_1  and  C1_3 
REMARK    2  A    between atoms: C5_12  and  O2_13 
ROOT
HETATM    1  C1  UNL     1       5.719 -14.306  12.163  1.00  0.00     0.171 A 
HETATM    2  C2  UNL     1       4.513 -14.624  12.674  1.00  0.00     0.165 A 
HETATM    3  N1  UNL     1       4.245 -15.903  12.404  1.00  0.00    -0.189 N 
HETATM    4  C3  UNL     1       5.288 -16.405  11.716  1.00  0.00     0.682 A 
HETATM    5  N2  UNL     1       6.191 -15.390  11.579  1.00  0.00    -0.169 N 
ATOM      6  H2  UNL     1       7.088 -15.460  11.100  1.00  0.00     0.186 HD
HETATM    7  N3  UNL     1       5.270 -17.739  11.303  1.00  0.00    -0.223 N 
ATOM      8  H3  UNL     1       5.291 -17.724  10.283  1.00  0.00     0.177 HD
HETATM    9  C4  UNL     1       5.239 -18.906  11.627  1.00  0.00     0.169 C 
HETATM   10  C5  UNL     1       5.243 -19.883  10.449  1.00  0.00     0.136 C 
HETATM   11  C6  UNL     1       4.510 -21.153  10.786  1.00  0.00     0.033 C 
HETATM   12  C7  UNL     1       3.078 -21.193  10.388  1.00  0.00     0.002 C 
HETATM   13  C8  UNL     1       2.169 -21.750  11.462  1.00  0.00     0.000 C 
HETATM   14  C9  UNL     1       1.648 -20.648  12.324  1.00  0.00     0.000 C 
HETATM   15  C10 UNL     1       1.827 -20.882  13.806  1.00  0.00     0.000 C 
HETATM   16  C11 UNL     1       2.552 -19.768  14.509  1.00  0.00     0.000 C 
HETATM   17  C12 UNL     1       2.025 -18.388  14.192  1.00  0.00     0.002 C 
HETATM   18  C13 UNL     1       3.121 -17.355  14.080  1.00  0.00     0.021 C 
HETATM   19  C14 UNL     1       3.067 -16.685  12.748  1.00  0.00     0.147 C 
ENDROOT
BRANCH   1  20
HETATM   20  O1  UNL     1       6.337 -13.044  12.249  1.00  0.00    -0.345 OA
ATOM     21  H1  UNL     1       7.253 -12.864  12.070  1.00  0.00     0.219 HD
ENDBRANCH   1  20
BRANCH  10  22
HETATM   22  O2  UNL     1       4.681 -19.328   9.333  1.00  0.00    -0.394 OA
ATOM     23  H2  UNL     1       5.309 -19.261   8.623  1.00  0.00     0.210 HD
ENDBRANCH  10  22
TORSDOF 2
ENDMDL
MODEL 2
REMARK VINA RESULT: -6.653413086     10.068     11.793
REMARK  2 active torsions:
REMARK  status: ('A' for Active; 'I' for Inactive)
REMARK    1  A    between atoms: O1_1  and  C1_3 
REMARK    2  A    between atoms: C5_12  and  O2_13 
ROOT
HETATM    1  C1  UNL     1      -3.592 -18.454  13.027  1.00  0.00     0.171 A 
HETATM    2  C2  UNL     1      -4.827 -17.914  13.035  1.00  0.00     0.165 A 
HETATM    3  N1  UNL     1      -5.624 -18.650  13.813  1.00  0.00    -0.189 N 
HETATM    4  C3  UNL     1      -4.892 -19.667  14.304  1.00  0.00     0.682 A 
HETATM    5  N2  UNL     1      -3.632 -19.522  13.800  1.00  0.00    -0.169 N 
ATOM      6  H2  UNL     1      -2.845 -20.143  13.990  1.00  0.00     0.186 HD
HETATM    7  N3  UNL     1      -5.485 -20.600  15.157  1.00  0.00    -0.223 N 
ATOM      8  H3  UNL     1      -5.435 -21.500  14.679  1.00  0.00     0.177 HD
HETATM    9  C4  UNL     1      -6.034 -20.807  16.217  1.00  0.00     0.169 C 
HETATM   10  C5  UNL     1      -6.432 -22.268  16.442  1.00  0.00     0.136 C 
HETATM   11  C6  UNL     1      -7.656 -22.377  17.309  1.00  0.00     0.033 C 
HETATM   12  C7  UNL     1      -8.950 -22.480  16.583  1.00  0.00     0.002 C 
HETATM   13  C8  UNL     1     -10.037 -21.599  17.160  1.00  0.00     0.000 C 
HETATM   14  C9  UNL     1     -10.041 -20.268  16.484  1.00  0.00     0.000 C 
HETATM   15  C10 UNL     1     -10.019 -19.090  17.430  1.00  0.00     0.000 C 
HETATM   16  C11 UNL     1      -8.894 -18.127  17.168  1.00  0.00     0.000 C 
HETATM   17  C12 UNL     1      -8.753 -17.719  15.721  1.00  0.00     0.002 C 
HETATM   18  C13 UNL     1      -7.312 -17.580  15.291  1.00  0.00     0.021 C 
HETATM   19  C14 UNL     1      -7.034 -18.461  14.119  1.00  0.00     0.147 C 
ENDROOT
BRANCH   1  20
HETATM   20  O1  UNL     1      -2.484 -17.952  12.318  1.00  0.00    -0.345 OA
ATOM     21  H1  UNL     1      -2.524 -17.338  11.594  1.00  0.00     0.219 HD
ENDBRANCH   1  20
BRANCH  10  22
HETATM   22  O2  UNL     1      -6.665 -22.913  15.259  1.00  0.00    -0.394 OA
ATOM     23  H2  UNL     1      -7.089 -23.752  15.397  1.00  0.00     0.210 HD
ENDBRANCH  10  22
TORSDOF 2
ENDMDL
MODEL 3
REMARK VINA RESULT: -6.192037687      2.476      5.655
REMARK  2 active torsions:
REMARK  status: ('A' for Active; 'I' for Inactive)
REMARK    1  A    between atoms: O1_1  and  C1_3 
REMARK    2  A    between atoms: C5_12  and  O2_13 
ROOT
HETATM    1  C1  UNL     1       1.723 -21.926  11.627  1.00  0.00     0.171 A 
HETATM    2  C2  UNL     1       1.749 -21.032  12.636  1.00  0.00     0.165 A 
HETATM    3  N1  UNL     1       2.731 -20.154  12.420  1.00  0.00    -0.189 N 
HETATM    4  C3  UNL     1       3.335 -20.490  11.265  1.00  0.00     0.682 A 
HETATM    5  N2  UNL     1       2.690 -21.596  10.792  1.00  0.00    -0.169 N 
ATOM      6  H2  UNL     1       2.919 -22.089   9.930  1.00  0.00     0.186 HD
HETATM    7  N3  UNL     1       4.408 -19.729  10.797  1.00  0.00    -0.223 N 
ATOM      8  H3  UNL     1       5.216 -20.351  10.780  1.00  0.00     0.177 HD
HETATM    9  C4  UNL     1       4.798 -18.652  10.402  1.00  0.00     0.169 C 
HETATM   10  C5  UNL     1       6.285 -18.618  10.040  1.00  0.00     0.136 C 
HETATM   11  C6  UNL     1       6.874 -17.252  10.263  1.00  0.00     0.033 C 
HETATM   12  C7  UNL     1       7.527 -17.040  11.581  1.00  0.00     0.002 C 
HETATM   13  C8  UNL     1       7.167 -15.720  12.228  1.00  0.00     0.000 C 
HETATM   14  C9  UNL     1       5.978 -15.884  13.115  1.00  0.00     0.000 C 
HETATM   15  C10 UNL     1       4.875 -14.882  12.867  1.00  0.00     0.000 C 
HETATM   16  C11 UNL     1       3.536 -15.512  12.597  1.00  0.00     0.000 C 
HETATM   17  C12 UNL     1       3.144 -16.582  13.589  1.00  0.00     0.002 C 
HETATM   18  C13 UNL     1       2.427 -17.743  12.943  1.00  0.00     0.021 C 
HETATM   19  C14 UNL     1       3.141 -19.020  13.235  1.00  0.00     0.147 C 
ENDROOT
BRANCH   1  20
HETATM   20  O1  UNL     1       0.823 -23.002  11.510  1.00  0.00    -0.345 OA
ATOM     21  H1  UNL     1       1.005 -23.903  11.752  1.00  0.00     0.219 HD
ENDBRANCH   1  20
BRANCH  10  22
HETATM   22  O2  UNL     1       6.999 -19.533  10.763  1.00  0.00    -0.394 OA
ATOM     23  H2  UNL     1       6.578 -19.728  11.593  1.00  0.00     0.210 HD
ENDBRANCH  10  22
TORSDOF 2
ENDMDL
MODEL 4
REMARK VINA RESULT: -6.095582808      2.648      5.439
REMARK  2 active torsions:
REMARK  status: ('A' for Active; 'I' for Inactive)
REMARK    1  A    between atoms: O1_1  and  C1_3 
REMARK    2  A    between atoms: C5_12  and  O2_13 
ROOT
HETATM    1  C1  UNL     1       0.935 -19.157  12.353  1.00  0.00     0.171 A 
HETATM    2  C2  UNL     1       1.444 -18.146  13.085  1.00  0.00     0.165 A 
HETATM    3  N1  UNL     1       2.723 -17.963  12.752  1.00  0.00    -0.189 N 
HETATM    4  C3  UNL     1       3.033 -18.865  11.801  1.00  0.00     0.682 A 
HETATM    5  N2  UNL     1       1.903 -19.595  11.572  1.00  0.00    -0.169 N 
ATOM      6  H2  UNL     1       1.821 -20.360  10.902  1.00  0.00     0.186 HD
HETATM    7  N3  UNL     1       4.323 -18.895  11.268  1.00  0.00    -0.223 N 
ATOM      8  H3  UNL     1       4.711 -19.808  11.506  1.00  0.00     0.177 HD
HETATM    9  C4  UNL     1       5.183 -18.310  10.647  1.00  0.00     0.169 C 
HETATM   10  C5  UNL     1       6.472 -19.112  10.454  1.00  0.00     0.136 C 
HETATM   11  C6  UNL     1       7.673 -18.210  10.368  1.00  0.00     0.033 C 
HETATM   12  C7  UNL     1       8.397 -17.980  11.646  1.00  0.00     0.002 C 
HETATM   13  C8  UNL     1       8.770 -16.531  11.876  1.00  0.00     0.000 C 
HETATM   14  C9  UNL     1       7.694 -15.832  12.639  1.00  0.00     0.000 C 
HETATM   15  C10 UNL     1       7.230 -14.537  12.014  1.00  0.00     0.000 C 
HETATM   16  C11 UNL     1       5.746 -14.479  11.776  1.00  0.00     0.000 C 
HETATM   17  C12 UNL     1       4.912 -14.887  12.967  1.00  0.00     0.002 C 
HETATM   18  C13 UNL     1       3.686 -15.677  12.579  1.00  0.00     0.021 C 
HETATM   19  C14 UNL     1       3.678 -16.997  13.276  1.00  0.00     0.147 C 
ENDROOT
BRANCH   1  20
HETATM   20  O1  UNL     1      -0.386 -19.638  12.429  1.00  0.00    -0.345 OA
ATOM     21  H1  UNL     1      -0.850 -19.855  13.229  1.00  0.00     0.219 HD
ENDBRANCH   1  20
BRANCH  10  22
HETATM   22  O2  UNL     1       6.662 -20.010  11.468  1.00  0.00    -0.394 OA
ATOM     23  H2  UNL     1       6.101 -20.771  11.370  1.00  0.00     0.210 HD
ENDBRANCH  10  22
TORSDOF 2
ENDMDL
MODEL 5
REMARK VINA RESULT: -5.993773850      1.798      3.598
REMARK  2 active torsions:
REMARK  status: ('A' for Active; 'I' for Inactive)
REMARK    1  A    between atoms: O1_1  and  C1_3 
REMARK    2  A    between atoms: C5_12  and  O2_13 
ROOT
HETATM    1  C1  UNL     1       6.835 -13.843  12.087  1.00  0.00     0.171 A 
HETATM    2  C2  UNL     1       7.242 -15.047  11.639  1.00  0.00     0.165 A 
HETATM    3  N1  UNL     1       6.294 -15.953  11.890  1.00  0.00    -0.189 N 
HETATM    4  C3  UNL     1       5.275 -15.321  12.502  1.00  0.00     0.682 A 
HETATM    5  N2  UNL     1       5.637 -14.010  12.613  1.00  0.00    -0.169 N 
ATOM      6  H2  UNL     1       5.070 -13.276  13.036  1.00  0.00     0.186 HD
HETATM    7  N3  UNL     1       4.139 -16.041  12.879  1.00  0.00    -0.223 N 
ATOM      8  H3  UNL     1       4.084 -15.979  13.896  1.00  0.00     0.177 HD
HETATM    9  C4  UNL     1       3.190 -16.707  12.526  1.00  0.00     0.169 C 
HETATM   10  C5  UNL     1       2.301 -17.189  13.674  1.00  0.00     0.136 C 
HETATM   11  C6  UNL     1       1.644 -18.502  13.347  1.00  0.00     0.033 C 
HETATM   12  C7  UNL     1       2.357 -19.715  13.828  1.00  0.00     0.002 C 
HETATM   13  C8  UNL     1       2.435 -20.818  12.794  1.00  0.00     0.000 C 
HETATM   14  C9  UNL     1       3.689 -20.693  11.994  1.00  0.00     0.000 C 
HETATM   15  C10 UNL     1       3.477 -20.720  10.498  1.00  0.00     0.000 C 
HETATM   16  C11 UNL     1       4.064 -19.534   9.784  1.00  0.00     0.000 C 
HETATM   17  C12 UNL     1       5.491 -19.223  10.169  1.00  0.00     0.002 C 
HETATM   18  C13 UNL     1       5.766 -17.740  10.244  1.00  0.00     0.021 C 
HETATM   19  C14 UNL     1       6.287 -17.378  11.595  1.00  0.00     0.147 C 
ENDROOT
BRANCH   1  20
HETATM   20  O1  UNL     1       7.570 -12.646  11.999  1.00  0.00    -0.345 OA
ATOM     21  H1  UNL     1       7.223 -11.802  11.733  1.00  0.00     0.219 HD
ENDBRANCH   1  20
BRANCH  10  22
HETATM   22  O2  UNL     1       3.009 -17.324  14.836  1.00  0.00    -0.394 OA
ATOM     23  H2  UNL     1       2.774 -18.120  15.298  1.00  0.00     0.210 HD
ENDBRANCH  10  22
TORSDOF 2
ENDMDL
