MODEL 1
REMARK VINA RESULT: -6.259898688      0.000      0.000
REMARK  13 active torsions:
REMARK  status: ('A' for Active; 'I' for Inactive)
REMARK    1  A    between atoms: C6_8  and  C7_9 
REMARK    2  A    between atoms: C7_9  and  C8_10 
REMARK    3  A    between atoms: C8_10  and  C9_11 
REMARK    4  A    between atoms: C9_11  and  C10_12 
REMARK    5  A    between atoms: C10_12  and  C11_13 
REMARK    6  A    between atoms: C11_13  and  C12_14 
REMARK    7  A    between atoms: C12_14  and  N1_15 
REMARK    8  A    between atoms: C13_16  and  C14_17 
REMARK    9  A    between atoms: C15_19  and  C16_20 
REMARK   10  A    between atoms: C16_20  and  O4_21 
REMARK   11  A    between atoms: C17_23  and  O5_24 
REMARK   12  A    between atoms: C18_26  and  O6_27 
REMARK   13  A    between atoms: C19_29  and  O7_30 
ROOT
HETATM    1  N1  UNL     1     -21.991   4.953 -30.123  1.00  0.00    -0.309 N 
HETATM    2  C13 UNL     1     -21.263   4.453 -31.180  1.00  0.00     0.132 A 
HETATM    3  N2  UNL     1     -20.169   3.922 -30.631  1.00  0.00    -0.284 N 
ATOM      4  H2  UNL     1     -19.422   3.465 -31.154  1.00  0.00     0.188 HD
HETATM    5  N3  UNL     1     -20.184   4.064 -29.333  1.00  0.00    -0.275 N 
ATOM      6  H3  UNL     1     -19.466   3.743 -28.683  1.00  0.00     0.189 HD
HETATM    7  C20 UNL     1     -21.340   4.720 -29.003  1.00  0.00     0.194 A 
HETATM    8  S1  UNL     1     -21.701   5.122 -27.433  1.00  0.00    -0.039 SA
ENDROOT
BRANCH   2   9
HETATM    9  C14 UNL     1     -21.617   4.521 -32.638  1.00  0.00     0.222 C 
HETATM   10  O3  UNL     1     -21.345   3.331 -33.190  1.00  0.00    -0.365 OA
HETATM   11  C15 UNL     1     -21.037   3.220 -34.493  1.00  0.00     0.177 C 
HETATM   12  C17 UNL     1     -21.217   4.442 -35.342  1.00  0.00     0.180 C 
HETATM   13  C18 UNL     1     -20.632   5.653 -34.666  1.00  0.00     0.181 C 
HETATM   14  C19 UNL     1     -20.971   5.735 -33.209  1.00  0.00     0.185 C 
BRANCH  11  15
HETATM   15  C16 UNL     1     -19.665   2.573 -34.737  1.00  0.00     0.198 C 
BRANCH  15  16
HETATM   16  O4  UNL     1     -18.962   2.385 -33.579  1.00  0.00    -0.398 OA
ATOM     17  H4  UNL     1     -19.284   1.647 -33.074  1.00  0.00     0.209 HD
ENDBRANCH  15  16
ENDBRANCH  11  15
BRANCH  12  18
HETATM   18  O5  UNL     1     -22.560   4.579 -35.645  1.00  0.00    -0.390 OA
ATOM     19  H5  UNL     1     -23.069   4.373 -34.870  1.00  0.00     0.210 HD
ENDBRANCH  12  18
BRANCH  13  20
HETATM   20  O6  UNL     1     -21.106   6.768 -35.386  1.00  0.00    -0.390 OA
ATOM     21  H6  UNL     1     -20.781   7.535 -34.927  1.00  0.00     0.210 HD
ENDBRANCH  13  20
BRANCH  14  22
HETATM   22  O7  UNL     1     -19.793   6.022 -32.514  1.00  0.00    -0.390 OA
ATOM     23  H7  UNL     1     -19.205   6.527 -33.065  1.00  0.00     0.210 HD
ENDBRANCH  14  22
ENDBRANCH   2   9
BRANCH   1  24
HETATM   24  C12 UNL     1     -23.255   5.630 -30.338  1.00  0.00     0.133 C 
BRANCH  24  25
HETATM   25  C11 UNL     1     -23.304   7.063 -30.005  1.00  0.00     0.020 C 
BRANCH  25  26
HETATM   26  C10 UNL     1     -22.339   8.009 -30.593  1.00  0.00     0.002 C 
BRANCH  26  27
HETATM   27  C9  UNL     1     -22.673   8.524 -31.971  1.00  0.00     0.000 C 
BRANCH  27  28
HETATM   28  C8  UNL     1     -21.493   9.327 -32.529  1.00  0.00     0.001 C 
BRANCH  28  29
HETATM   29  C7  UNL     1     -21.698  10.806 -32.289  1.00  0.00     0.012 C 
BRANCH  29  30
HETATM   30  C6  UNL     1     -20.368  11.400 -31.930  1.00  0.00     0.053 C 
HETATM   31  C2  UNL     1     -20.331  11.985 -30.586  1.00  0.00     0.014 C 
HETATM   32  C1  UNL     1     -21.025  11.580 -29.546  1.00  0.00     0.025 C 
HETATM   33  C3  UNL     1     -19.370  13.092 -30.663  1.00  0.00     0.289 C 
HETATM   34  O1  UNL     1     -19.005  13.787 -29.669  1.00  0.00    -0.260 OA
HETATM   35  O2  UNL     1     -18.982  13.191 -31.990  1.00  0.00    -0.312 OA
HETATM   36  C4  UNL     1     -19.982  12.564 -32.806  1.00  0.00     0.136 C 
HETATM   37  C5  UNL     1     -21.109  13.552 -32.972  1.00  0.00     0.041 C 
ENDBRANCH  29  30
ENDBRANCH  28  29
ENDBRANCH  27  28
ENDBRANCH  26  27
ENDBRANCH  25  26
ENDBRANCH  24  25
ENDBRANCH   1  24
TORSDOF 13
ENDMDL
MODEL 2
REMARK VINA RESULT: -6.239220528      1.841      2.368
REMARK  13 active torsions:
REMARK  status: ('A' for Active; 'I' for Inactive)
REMARK    1  A    between atoms: C6_8  and  C7_9 
REMARK    2  A    between atoms: C7_9  and  C8_10 
REMARK    3  A    between atoms: C8_10  and  C9_11 
REMARK    4  A    between atoms: C9_11  and  C10_12 
REMARK    5  A    between atoms: C10_12  and  C11_13 
REMARK    6  A    between atoms: C11_13  and  C12_14 
REMARK    7  A    between atoms: C12_14  and  N1_15 
REMARK    8  A    between atoms: C13_16  and  C14_17 
REMARK    9  A    between atoms: C15_19  and  C16_20 
REMARK   10  A    between atoms: C16_20  and  O4_21 
REMARK   11  A    between atoms: C17_23  and  O5_24 
REMARK   12  A    between atoms: C18_26  and  O6_27 
REMARK   13  A    between atoms: C19_29  and  O7_30 
ROOT
HETATM    1  N1  UNL     1     -23.851   5.962 -28.740  1.00  0.00    -0.309 N 
HETATM    2  C13 UNL     1     -23.042   4.967 -29.242  1.00  0.00     0.132 A 
HETATM    3  N2  UNL     1     -22.819   4.146 -28.214  1.00  0.00    -0.284 N 
ATOM      4  H2  UNL     1     -22.250   3.301 -28.261  1.00  0.00     0.188 HD
HETATM    5  N3  UNL     1     -23.428   4.570 -27.139  1.00  0.00    -0.275 N 
ATOM      6  H3  UNL     1     -23.417   4.121 -26.223  1.00  0.00     0.189 HD
HETATM    7  C20 UNL     1     -24.085   5.726 -27.466  1.00  0.00     0.194 A 
HETATM    8  S1  UNL     1     -24.950   6.591 -26.343  1.00  0.00    -0.039 SA
ENDROOT
BRANCH   2   9
HETATM    9  C14 UNL     1     -22.506   4.853 -30.641  1.00  0.00     0.222 C 
HETATM   10  O3  UNL     1     -22.671   3.587 -31.048  1.00  0.00    -0.365 OA
HETATM   11  C15 UNL     1     -21.859   3.039 -31.967  1.00  0.00     0.177 C 
HETATM   12  C17 UNL     1     -20.903   3.957 -32.666  1.00  0.00     0.180 C 
HETATM   13  C18 UNL     1     -20.207   4.856 -31.679  1.00  0.00     0.181 C 
HETATM   14  C19 UNL     1     -21.134   5.432 -30.652  1.00  0.00     0.185 C 
BRANCH  11  15
HETATM   15  C16 UNL     1     -21.146   1.774 -31.466  1.00  0.00     0.198 C 
BRANCH  15  16
HETATM   16  O4  UNL     1     -20.965   1.779 -30.110  1.00  0.00    -0.398 OA
ATOM     17  H4  UNL     1     -20.454   1.036 -29.809  1.00  0.00     0.209 HD
ENDBRANCH  15  16
ENDBRANCH  11  15
BRANCH  12  18
HETATM   18  O5  UNL     1     -21.588   4.650 -33.648  1.00  0.00    -0.390 OA
ATOM     19  H5  UNL     1     -22.111   4.033 -34.148  1.00  0.00     0.210 HD
ENDBRANCH  12  18
BRANCH  13  20
HETATM   20  O6  UNL     1     -19.573   5.857 -32.443  1.00  0.00    -0.390 OA
ATOM     21  H6  UNL     1     -18.738   6.021 -32.020  1.00  0.00     0.210 HD
ENDBRANCH  13  20
BRANCH  14  22
HETATM   22  O7  UNL     1     -20.534   5.269 -29.400  1.00  0.00    -0.390 OA
ATOM     23  H7  UNL     1     -20.664   6.049 -28.873  1.00  0.00     0.210 HD
ENDBRANCH  14  22
ENDBRANCH   2   9
BRANCH   1  24
HETATM   24  C12 UNL     1     -24.294   7.061 -29.576  1.00  0.00     0.133 C 
BRANCH  24  25
HETATM   25  C11 UNL     1     -23.640   8.363 -29.361  1.00  0.00     0.020 C 
BRANCH  25  26
HETATM   26  C10 UNL     1     -22.459   8.756 -30.149  1.00  0.00     0.002 C 
BRANCH  26  27
HETATM   27  C9  UNL     1     -22.571   8.576 -31.642  1.00  0.00     0.000 C 
BRANCH  27  28
HETATM   28  C8  UNL     1     -21.490   9.400 -32.351  1.00  0.00     0.001 C 
BRANCH  28  29
HETATM   29  C7  UNL     1     -21.686  10.875 -32.078  1.00  0.00     0.012 C 
BRANCH  29  30
HETATM   30  C6  UNL     1     -20.335  11.476 -31.818  1.00  0.00     0.053 C 
HETATM   31  C2  UNL     1     -20.231  12.145 -30.517  1.00  0.00     0.014 C 
HETATM   32  C1  UNL     1     -20.880  11.815 -29.423  1.00  0.00     0.025 C 
HETATM   33  C3  UNL     1     -19.265  13.233 -30.709  1.00  0.00     0.289 C 
HETATM   34  O1  UNL     1     -18.849  13.986 -29.779  1.00  0.00    -0.260 OA
HETATM   35  O2  UNL     1     -18.938  13.242 -32.056  1.00  0.00    -0.312 OA
HETATM   36  C4  UNL     1     -19.980  12.577 -32.784  1.00  0.00     0.136 C 
HETATM   37  C5  UNL     1     -21.105  13.565 -32.962  1.00  0.00     0.041 C 
ENDBRANCH  29  30
ENDBRANCH  28  29
ENDBRANCH  27  28
ENDBRANCH  26  27
ENDBRANCH  25  26
ENDBRANCH  24  25
ENDBRANCH   1  24
TORSDOF 13
ENDMDL
MODEL 3
REMARK VINA RESULT: -6.123482781      3.069      4.913
REMARK  13 active torsions:
REMARK  status: ('A' for Active; 'I' for Inactive)
REMARK    1  A    between atoms: C6_8  and  C7_9 
REMARK    2  A    between atoms: C7_9  and  C8_10 
REMARK    3  A    between atoms: C8_10  and  C9_11 
REMARK    4  A    between atoms: C9_11  and  C10_12 
REMARK    5  A    between atoms: C10_12  and  C11_13 
REMARK    6  A    between atoms: C11_13  and  C12_14 
REMARK    7  A    between atoms: C12_14  and  N1_15 
REMARK    8  A    between atoms: C13_16  and  C14_17 
REMARK    9  A    between atoms: C15_19  and  C16_20 
REMARK   10  A    between atoms: C16_20  and  O4_21 
REMARK   11  A    between atoms: C17_23  and  O5_24 
REMARK   12  A    between atoms: C18_26  and  O6_27 
REMARK   13  A    between atoms: C19_29  and  O7_30 
ROOT
HETATM    1  N1  UNL     1     -21.552   5.033 -31.329  1.00  0.00    -0.309 N 
HETATM    2  C13 UNL     1     -21.235   4.800 -30.009  1.00  0.00     0.132 A 
HETATM    3  N2  UNL     1     -19.901   4.760 -29.971  1.00  0.00    -0.284 N 
ATOM      4  H2  UNL     1     -19.350   4.603 -29.127  1.00  0.00     0.188 HD
HETATM    5  N3  UNL     1     -19.396   4.949 -31.161  1.00  0.00    -0.275 N 
ATOM      6  H3  UNL     1     -18.404   4.965 -31.399  1.00  0.00     0.189 HD
HETATM    7  C20 UNL     1     -20.441   5.122 -32.030  1.00  0.00     0.194 A 
HETATM    8  S1  UNL     1     -20.199   5.351 -33.656  1.00  0.00    -0.039 SA
ENDROOT
BRANCH   2   9
HETATM    9  C14 UNL     1     -22.191   4.606 -28.867  1.00  0.00     0.222 C 
HETATM   10  O3  UNL     1     -21.759   5.338 -27.832  1.00  0.00    -0.365 OA
HETATM   11  C15 UNL     1     -22.040   4.990 -26.565  1.00  0.00     0.177 C 
HETATM   12  C17 UNL     1     -23.026   3.879 -26.367  1.00  0.00     0.180 C 
HETATM   13  C18 UNL     1     -22.715   2.719 -27.276  1.00  0.00     0.181 C 
HETATM   14  C19 UNL     1     -22.380   3.142 -28.675  1.00  0.00     0.185 C 
BRANCH  11  15
HETATM   15  C16 UNL     1     -20.786   4.777 -25.704  1.00  0.00     0.198 C 
BRANCH  15  16
HETATM   16  O4  UNL     1     -20.282   5.950 -25.215  1.00  0.00    -0.398 OA
ATOM     17  H4  UNL     1     -19.971   6.527 -25.902  1.00  0.00     0.209 HD
ENDBRANCH  15  16
ENDBRANCH  11  15
BRANCH  12  18
HETATM   18  O5  UNL     1     -24.303   4.382 -26.540  1.00  0.00    -0.390 OA
ATOM     19  H5  UNL     1     -24.623   4.698 -25.703  1.00  0.00     0.210 HD
ENDBRANCH  12  18
BRANCH  13  20
HETATM   20  O6  UNL     1     -23.843   1.875 -27.232  1.00  0.00    -0.390 OA
ATOM     21  H6  UNL     1     -23.523   0.999 -27.410  1.00  0.00     0.210 HD
ENDBRANCH  13  20
BRANCH  14  22
HETATM   22  O7  UNL     1     -21.226   2.454 -29.060  1.00  0.00    -0.390 OA
ATOM     23  H7  UNL     1     -21.400   1.936 -29.838  1.00  0.00     0.210 HD
ENDBRANCH  14  22
ENDBRANCH   2   9
BRANCH   1  24
HETATM   24  C12 UNL     1     -22.932   5.124 -31.763  1.00  0.00     0.133 C 
BRANCH  24  25
HETATM   25  C11 UNL     1     -23.602   6.422 -31.574  1.00  0.00     0.020 C 
BRANCH  25  26
HETATM   26  C10 UNL     1     -23.152   7.619 -32.305  1.00  0.00     0.002 C 
BRANCH  26  27
HETATM   27  C9  UNL     1     -22.230   8.546 -31.553  1.00  0.00     0.000 C 
BRANCH  27  28
HETATM   28  C8  UNL     1     -21.480   9.450 -32.538  1.00  0.00     0.001 C 
BRANCH  28  29
HETATM   29  C7  UNL     1     -21.685  10.906 -32.182  1.00  0.00     0.012 C 
BRANCH  29  30
HETATM   30  C6  UNL     1     -20.338  11.499 -31.889  1.00  0.00     0.053 C 
HETATM   31  C2  UNL     1     -20.240  12.103 -30.556  1.00  0.00     0.014 C 
HETATM   32  C1  UNL     1     -20.891  11.716 -29.482  1.00  0.00     0.025 C 
HETATM   33  C3  UNL     1     -19.279  13.204 -30.691  1.00  0.00     0.289 C 
HETATM   34  O1  UNL     1     -18.869  13.912 -29.724  1.00  0.00    -0.260 OA
HETATM   35  O2  UNL     1     -18.948  13.282 -32.034  1.00  0.00    -0.312 OA
HETATM   36  C4  UNL     1     -19.985  12.648 -32.798  1.00  0.00     0.136 C 
HETATM   37  C5  UNL     1     -21.114  13.638 -32.930  1.00  0.00     0.041 C 
ENDBRANCH  29  30
ENDBRANCH  28  29
ENDBRANCH  27  28
ENDBRANCH  26  27
ENDBRANCH  25  26
ENDBRANCH  24  25
ENDBRANCH   1  24
TORSDOF 13
ENDMDL
MODEL 4
REMARK VINA RESULT: -6.102265836      4.780      6.765
REMARK  13 active torsions:
REMARK  status: ('A' for Active; 'I' for Inactive)
REMARK    1  A    between atoms: C6_8  and  C7_9 
REMARK    2  A    between atoms: C7_9  and  C8_10 
REMARK    3  A    between atoms: C8_10  and  C9_11 
REMARK    4  A    between atoms: C9_11  and  C10_12 
REMARK    5  A    between atoms: C10_12  and  C11_13 
REMARK    6  A    between atoms: C11_13  and  C12_14 
REMARK    7  A    between atoms: C12_14  and  N1_15 
REMARK    8  A    between atoms: C13_16  and  C14_17 
REMARK    9  A    between atoms: C15_19  and  C16_20 
REMARK   10  A    between atoms: C16_20  and  O4_21 
REMARK   11  A    between atoms: C17_23  and  O5_24 
REMARK   12  A    between atoms: C18_26  and  O6_27 
REMARK   13  A    between atoms: C19_29  and  O7_30 
ROOT
HETATM    1  N1  UNL     1     -24.872   6.213 -28.935  1.00  0.00    -0.309 N 
HETATM    2  C13 UNL     1     -24.878   5.710 -27.653  1.00  0.00     0.132 A 
HETATM    3  N2  UNL     1     -25.448   4.507 -27.751  1.00  0.00    -0.284 N 
ATOM      4  H2  UNL     1     -25.601   3.873 -26.967  1.00  0.00     0.188 HD
HETATM    5  N3  UNL     1     -25.784   4.251 -28.987  1.00  0.00    -0.275 N 
ATOM      6  H3  UNL     1     -26.234   3.400 -29.326  1.00  0.00     0.189 HD
HETATM    7  C20 UNL     1     -25.422   5.333 -29.746  1.00  0.00     0.194 A 
HETATM    8  S1  UNL     1     -25.724   5.400 -31.377  1.00  0.00    -0.039 SA
ENDROOT
BRANCH   2   9
HETATM    9  C14 UNL     1     -24.374   6.388 -26.411  1.00  0.00     0.222 C 
HETATM   10  O3  UNL     1     -23.632   5.508 -25.727  1.00  0.00    -0.365 OA
HETATM   11  C15 UNL     1     -23.499   5.594 -24.393  1.00  0.00     0.177 C 
HETATM   12  C17 UNL     1     -24.036   6.829 -23.733  1.00  0.00     0.180 C 
HETATM   13  C18 UNL     1     -25.417   7.149 -24.243  1.00  0.00     0.181 C 
HETATM   14  C19 UNL     1     -25.540   7.018 -25.731  1.00  0.00     0.185 C 
BRANCH  11  15
HETATM   15  C16 UNL     1     -23.960   4.328 -23.655  1.00  0.00     0.198 C 
BRANCH  15  16
HETATM   16  O4  UNL     1     -24.984   3.691 -24.299  1.00  0.00    -0.398 OA
ATOM     17  H4  UNL     1     -25.607   3.303 -23.697  1.00  0.00     0.209 HD
ENDBRANCH  15  16
ENDBRANCH  11  15
BRANCH  12  18
HETATM   18  O5  UNL     1     -23.133   7.860 -23.917  1.00  0.00    -0.390 OA
ATOM     19  H5  UNL     1     -22.471   7.810 -23.237  1.00  0.00     0.210 HD
ENDBRANCH  12  18
BRANCH  13  20
HETATM   20  O6  UNL     1     -25.702   8.456 -23.799  1.00  0.00    -0.390 OA
ATOM     21  H6  UNL     1     -25.489   8.472 -22.874  1.00  0.00     0.210 HD
ENDBRANCH  13  20
BRANCH  14  22
HETATM   22  O7  UNL     1     -26.702   6.289 -25.997  1.00  0.00    -0.390 OA
ATOM     23  H7  UNL     1     -26.728   6.042 -26.915  1.00  0.00     0.210 HD
ENDBRANCH  14  22
ENDBRANCH   2   9
BRANCH   1  24
HETATM   24  C12 UNL     1     -24.337   7.530 -29.222  1.00  0.00     0.133 C 
BRANCH  24  25
HETATM   25  C11 UNL     1     -22.942   7.591 -29.689  1.00  0.00     0.020 C 
BRANCH  25  26
HETATM   26  C10 UNL     1     -22.475   8.707 -30.530  1.00  0.00     0.002 C 
BRANCH  26  27
HETATM   27  C9  UNL     1     -22.355   8.417 -32.005  1.00  0.00     0.000 C 
BRANCH  27  28
HETATM   28  C8  UNL     1     -21.459   9.466 -32.673  1.00  0.00     0.001 C 
BRANCH  28  29
HETATM   29  C7  UNL     1     -21.697  10.831 -32.064  1.00  0.00     0.012 C 
BRANCH  29  30
HETATM   30  C6  UNL     1     -20.357  11.446 -31.783  1.00  0.00     0.053 C 
HETATM   31  C2  UNL     1     -20.281  12.115 -30.480  1.00  0.00     0.014 C 
HETATM   32  C1  UNL     1     -20.943  11.777 -29.396  1.00  0.00     0.025 C 
HETATM   33  C3  UNL     1     -19.325  13.215 -30.656  1.00  0.00     0.289 C 
HETATM   34  O1  UNL     1     -18.931  13.972 -29.719  1.00  0.00    -0.260 OA
HETATM   35  O2  UNL     1     -18.976  13.229 -31.997  1.00  0.00    -0.312 OA
HETATM   36  C4  UNL     1     -20.000  12.552 -32.742  1.00  0.00     0.136 C 
HETATM   37  C5  UNL     1     -21.133  13.527 -32.937  1.00  0.00     0.041 C 
ENDBRANCH  29  30
ENDBRANCH  28  29
ENDBRANCH  27  28
ENDBRANCH  26  27
ENDBRANCH  25  26
ENDBRANCH  24  25
ENDBRANCH   1  24
TORSDOF 13
ENDMDL
MODEL 5
REMARK VINA RESULT: -6.086650143      3.412      5.288
REMARK  13 active torsions:
REMARK  status: ('A' for Active; 'I' for Inactive)
REMARK    1  A    between atoms: C6_8  and  C7_9 
REMARK    2  A    between atoms: C7_9  and  C8_10 
REMARK    3  A    between atoms: C8_10  and  C9_11 
REMARK    4  A    between atoms: C9_11  and  C10_12 
REMARK    5  A    between atoms: C10_12  and  C11_13 
REMARK    6  A    between atoms: C11_13  and  C12_14 
REMARK    7  A    between atoms: C12_14  and  N1_15 
REMARK    8  A    between atoms: C13_16  and  C14_17 
REMARK    9  A    between atoms: C15_19  and  C16_20 
REMARK   10  A    between atoms: C16_20  and  O4_21 
REMARK   11  A    between atoms: C17_23  and  O5_24 
REMARK   12  A    between atoms: C18_26  and  O6_27 
REMARK   13  A    between atoms: C19_29  and  O7_30 
ROOT
HETATM    1  N1  UNL     1     -21.651   5.335 -30.171  1.00  0.00    -0.309 N 
HETATM    2  C13 UNL     1     -21.216   4.849 -28.958  1.00  0.00     0.132 A 
HETATM    3  N2  UNL     1     -20.220   4.011 -29.254  1.00  0.00    -0.284 N 
ATOM      4  H2  UNL     1     -19.683   3.485 -28.565  1.00  0.00     0.188 HD
HETATM    5  N3  UNL     1     -20.026   3.956 -30.544  1.00  0.00    -0.275 N 
ATOM      6  H3  UNL     1     -19.326   3.392 -31.025  1.00  0.00     0.189 HD
HETATM    7  C20 UNL     1     -20.935   4.795 -31.134  1.00  0.00     0.194 A 
HETATM    8  S1  UNL     1     -21.027   4.966 -32.783  1.00  0.00    -0.039 SA
ENDROOT
BRANCH   2   9
HETATM    9  C14 UNL     1     -21.767   5.176 -27.599  1.00  0.00     0.222 C 
HETATM   10  O3  UNL     1     -20.761   5.118 -26.716  1.00  0.00    -0.365 OA
HETATM   11  C15 UNL     1     -20.983   4.826 -25.424  1.00  0.00     0.177 C 
HETATM   12  C17 UNL     1     -22.412   4.778 -24.972  1.00  0.00     0.180 C 
HETATM   13  C18 UNL     1     -23.253   3.990 -25.940  1.00  0.00     0.181 C 
HETATM   14  C19 UNL     1     -22.963   4.319 -27.374  1.00  0.00     0.185 C 
BRANCH  11  15
HETATM   15  C16 UNL     1     -20.208   3.591 -24.941  1.00  0.00     0.198 C 
BRANCH  15  16
HETATM   16  O4  UNL     1     -20.170   2.597 -25.879  1.00  0.00    -0.398 OA
ATOM     17  H4  UNL     1     -19.930   1.756 -25.509  1.00  0.00     0.209 HD
ENDBRANCH  15  16
ENDBRANCH  11  15
BRANCH  12  18
HETATM   18  O5  UNL     1     -22.862   6.072 -24.784  1.00  0.00    -0.390 OA
ATOM     19  H5  UNL     1     -23.107   6.181 -23.872  1.00  0.00     0.210 HD
ENDBRANCH  12  18
BRANCH  13  20
HETATM   20  O6  UNL     1     -24.594   4.251 -25.596  1.00  0.00    -0.390 OA
ATOM     21  H6  UNL     1     -25.083   3.473 -25.835  1.00  0.00     0.210 HD
ENDBRANCH  13  20
BRANCH  14  22
HETATM   22  O7  UNL     1     -22.826   3.112 -28.066  1.00  0.00    -0.390 OA
ATOM     23  H7  UNL     1     -23.367   2.442 -27.664  1.00  0.00     0.210 HD
ENDBRANCH  14  22
ENDBRANCH   2   9
BRANCH   1  24
HETATM   24  C12 UNL     1     -22.753   6.275 -30.249  1.00  0.00     0.133 C 
BRANCH  24  25
HETATM   25  C11 UNL     1     -22.503   7.633 -29.738  1.00  0.00     0.020 C 
BRANCH  25  26
HETATM   26  C10 UNL     1     -22.527   8.797 -30.641  1.00  0.00     0.002 C 
BRANCH  26  27
HETATM   27  C9  UNL     1     -22.325   8.502 -32.106  1.00  0.00     0.000 C 
BRANCH  27  28
HETATM   28  C8  UNL     1     -21.445   9.584 -32.741  1.00  0.00     0.001 C 
BRANCH  28  29
HETATM   29  C7  UNL     1     -21.668  10.916 -32.058  1.00  0.00     0.012 C 
BRANCH  29  30
HETATM   30  C6  UNL     1     -20.323  11.519 -31.781  1.00  0.00     0.053 C 
HETATM   31  C2  UNL     1     -20.239  12.192 -30.480  1.00  0.00     0.014 C 
HETATM   32  C1  UNL     1     -20.904  11.865 -29.395  1.00  0.00     0.025 C 
HETATM   33  C3  UNL     1     -19.272  13.282 -30.661  1.00  0.00     0.289 C 
HETATM   34  O1  UNL     1     -18.870  14.038 -29.728  1.00  0.00    -0.260 OA
HETATM   35  O2  UNL     1     -18.924  13.287 -32.003  1.00  0.00    -0.312 OA
HETATM   36  C4  UNL     1     -19.955  12.618 -32.744  1.00  0.00     0.136 C 
HETATM   37  C5  UNL     1     -21.078  13.603 -32.942  1.00  0.00     0.041 C 
ENDBRANCH  29  30
ENDBRANCH  28  29
ENDBRANCH  27  28
ENDBRANCH  26  27
ENDBRANCH  25  26
ENDBRANCH  24  25
ENDBRANCH   1  24
TORSDOF 13
ENDMDL
