MODEL 1
REMARK VINA RESULT: -5.909402063      0.000      0.000
REMARK  6 active torsions:
REMARK  status: ('A' for Active; 'I' for Inactive)
REMARK    1  A    between atoms: C2_2  and  C4_5 
REMARK    2  A    between atoms: C4_5  and  N1_6 
REMARK    3  A    between atoms: N1_6  and  C5_8 
REMARK    4  A    between atoms: C5_8  and  O1_9 
REMARK    5  A    between atoms: C5_8  and  C7_14 
REMARK    6  A    between atoms: O1_9  and  C6_10 
ROOT
HETATM    1  C5  UNL     1      13.436  -1.253  51.460  1.00  0.00     0.281 C 
ENDROOT
BRANCH   1   2
HETATM    2  N1  UNL     1      14.424  -1.946  52.215  1.00  0.00    -0.390 N 
ATOM      3  H1  UNL     1      14.740  -1.595  53.120  1.00  0.00     0.156 HD
BRANCH   2   4
HETATM    4  C4  UNL     1      14.951  -3.141  51.664  1.00  0.00     0.141 C 
BRANCH   4   5
HETATM    5  C2  UNL     1      16.439  -3.026  51.347  1.00  0.00     0.045 C 
HETATM    6  C1  UNL     1      16.580  -3.099  49.844  1.00  0.00     0.034 C 
HETATM    7  C3  UNL     1      17.025  -1.746  51.872  1.00  0.00     0.034 C 
HETATM    8 CL1  UNL     1      17.337  -4.382  52.062  1.00  0.00    -0.118 Cl
ENDBRANCH   4   5
ENDBRANCH   2   4
ENDBRANCH   1   2
BRANCH   1   9
HETATM    9  O1  UNL     1      13.773   0.049  51.250  1.00  0.00    -0.295 OA
BRANCH   9  10
HETATM   10  C6  UNL     1      13.859   0.483  49.961  1.00  0.00     0.371 C 
HETATM   11  F1  UNL     1      13.617   1.866  49.983  1.00  0.00    -0.176 F 
HETATM   12 CL2  UNL     1      12.811  -0.287  48.792  1.00  0.00    -0.034 Cl
HETATM   13 CL3  UNL     1      15.544   0.338  49.345  1.00  0.00    -0.034 Cl
ENDBRANCH   9  10
ENDBRANCH   1   9
BRANCH   1  14
HETATM   14  C7  UNL     1      12.191  -1.290  52.339  1.00  0.00     0.101 A 
HETATM   15  N2  UNL     1      10.937  -1.400  51.993  1.00  0.00    -0.358 N 
HETATM   16  C8  UNL     1      10.004  -1.414  52.899  1.00  0.00     0.120 A 
ATOM     17  H2  UNL     1      10.687  -1.476  51.007  1.00  0.00     0.165 HD
HETATM   18  C9  UNL     1      10.403  -1.310  54.211  1.00  0.00     0.091 A 
HETATM   19 CL4  UNL     1       9.388  -1.298  55.656  1.00  0.00    -0.075 Cl
HETATM   20  S1  UNL     1      12.103  -1.197  54.046  1.00  0.00    -0.059 SA
ENDBRANCH   1  14
TORSDOF 6
ENDMDL
MODEL 2
REMARK VINA RESULT: -5.907268575      0.773      1.081
REMARK  6 active torsions:
REMARK  status: ('A' for Active; 'I' for Inactive)
REMARK    1  A    between atoms: C2_2  and  C4_5 
REMARK    2  A    between atoms: C4_5  and  N1_6 
REMARK    3  A    between atoms: N1_6  and  C5_8 
REMARK    4  A    between atoms: C5_8  and  O1_9 
REMARK    5  A    between atoms: C5_8  and  C7_14 
REMARK    6  A    between atoms: O1_9  and  C6_10 
ROOT
HETATM    1  C5  UNL     1      13.468  -1.194  51.492  1.00  0.00     0.281 C 
ENDROOT
BRANCH   1   2
HETATM    2  N1  UNL     1      14.478  -1.819  52.276  1.00  0.00    -0.390 N 
ATOM      3  H1  UNL     1      14.852  -1.370  53.112  1.00  0.00     0.156 HD
BRANCH   2   4
HETATM    4  C4  UNL     1      14.945  -3.089  51.853  1.00  0.00     0.141 C 
BRANCH   4   5
HETATM    5  C2  UNL     1      16.417  -3.062  51.455  1.00  0.00     0.045 C 
HETATM    6  C1  UNL     1      17.005  -1.784  52.008  1.00  0.00     0.034 C 
HETATM    7  C3  UNL     1      17.161  -4.257  51.980  1.00  0.00     0.034 C 
HETATM    8 CL1  UNL     1      16.586  -3.036  49.686  1.00  0.00    -0.118 Cl
ENDBRANCH   4   5
ENDBRANCH   2   4
ENDBRANCH   1   2
BRANCH   1   9
HETATM    9  O1  UNL     1      13.747   0.115  51.248  1.00  0.00    -0.295 OA
BRANCH   9  10
HETATM   10  C6  UNL     1      13.859   0.508  49.947  1.00  0.00     0.371 C 
HETATM   11  F1  UNL     1      13.650   1.897  49.925  1.00  0.00    -0.176 F 
HETATM   12 CL2  UNL     1      12.809  -0.272  48.787  1.00  0.00    -0.034 Cl
HETATM   13 CL3  UNL     1      15.549   0.306  49.359  1.00  0.00    -0.034 Cl
ENDBRANCH   9  10
ENDBRANCH   1   9
BRANCH   1  14
HETATM   14  C7  UNL     1      12.217  -1.264  52.360  1.00  0.00     0.101 A 
HETATM   15  N2  UNL     1      10.967  -1.383  52.002  1.00  0.00    -0.358 N 
HETATM   16  C8  UNL     1      10.027  -1.425  52.900  1.00  0.00     0.120 A 
ATOM     17  H2  UNL     1      10.726  -1.442  51.013  1.00  0.00     0.165 HD
HETATM   18  C9  UNL     1      10.415  -1.342  54.217  1.00  0.00     0.091 A 
HETATM   19 CL4  UNL     1       9.388  -1.371  55.653  1.00  0.00    -0.075 Cl
HETATM   20  S1  UNL     1      12.114  -1.206  54.068  1.00  0.00    -0.059 SA
ENDBRANCH   1  14
TORSDOF 6
ENDMDL
MODEL 3
REMARK VINA RESULT: -5.853673957      0.771      1.071
REMARK  6 active torsions:
REMARK  status: ('A' for Active; 'I' for Inactive)
REMARK    1  A    between atoms: C2_2  and  C4_5 
REMARK    2  A    between atoms: C4_5  and  N1_6 
REMARK    3  A    between atoms: N1_6  and  C5_8 
REMARK    4  A    between atoms: C5_8  and  O1_9 
REMARK    5  A    between atoms: C5_8  and  C7_14 
REMARK    6  A    between atoms: O1_9  and  C6_10 
ROOT
HETATM    1  C5  UNL     1      13.503  -1.333  51.458  1.00  0.00     0.281 C 
ENDROOT
BRANCH   1   2
HETATM    2  N1  UNL     1      14.486  -2.043  52.203  1.00  0.00    -0.390 N 
ATOM      3  H1  UNL     1      14.807  -1.707  53.111  1.00  0.00     0.156 HD
BRANCH   2   4
HETATM    4  C4  UNL     1      15.002  -3.236  51.636  1.00  0.00     0.141 C 
BRANCH   4   5
HETATM    5  C2  UNL     1      16.471  -3.103  51.246  1.00  0.00     0.045 C 
HETATM    6  C1  UNL     1      17.211  -4.244  51.907  1.00  0.00     0.034 C 
HETATM    7  C3  UNL     1      16.660  -3.143  49.757  1.00  0.00     0.034 C 
HETATM    8 CL1  UNL     1      17.143  -1.574  51.850  1.00  0.00    -0.118 Cl
ENDBRANCH   4   5
ENDBRANCH   2   4
ENDBRANCH   1   2
BRANCH   1   9
HETATM    9  O1  UNL     1      13.855  -0.034  51.256  1.00  0.00    -0.295 OA
BRANCH   9  10
HETATM   10  C6  UNL     1      13.927   0.412  49.970  1.00  0.00     0.371 C 
HETATM   11  F1  UNL     1      13.651   1.789  50.003  1.00  0.00    -0.176 F 
HETATM   12 CL2  UNL     1      12.898  -0.376  48.797  1.00  0.00    -0.034 Cl
HETATM   13 CL3  UNL     1      15.615   0.314  49.351  1.00  0.00    -0.034 Cl
ENDBRANCH   9  10
ENDBRANCH   1   9
BRANCH   1  14
HETATM   14  C7  UNL     1      12.262  -1.361  52.343  1.00  0.00     0.101 A 
HETATM   15  N2  UNL     1      11.008  -1.499  52.007  1.00  0.00    -0.358 N 
HETATM   16  C8  UNL     1      10.079  -1.498  52.916  1.00  0.00     0.120 A 
ATOM     17  H2  UNL     1      10.755  -1.607  51.024  1.00  0.00     0.165 HD
HETATM   18  C9  UNL     1      10.482  -1.351  54.223  1.00  0.00     0.091 A 
HETATM   19 CL4  UNL     1       9.473  -1.311  55.672  1.00  0.00    -0.075 Cl
HETATM   20  S1  UNL     1      12.179  -1.220  54.048  1.00  0.00    -0.059 SA
ENDBRANCH   1  14
TORSDOF 6
ENDMDL
MODEL 4
REMARK VINA RESULT: -5.777954594      1.150      1.589
REMARK  6 active torsions:
REMARK  status: ('A' for Active; 'I' for Inactive)
REMARK    1  A    between atoms: C2_2  and  C4_5 
REMARK    2  A    between atoms: C4_5  and  N1_6 
REMARK    3  A    between atoms: N1_6  and  C5_8 
REMARK    4  A    between atoms: C5_8  and  O1_9 
REMARK    5  A    between atoms: C5_8  and  C7_14 
REMARK    6  A    between atoms: O1_9  and  C6_10 
ROOT
HETATM    1  C5  UNL     1      13.528  -1.460  51.540  1.00  0.00     0.281 C 
ENDROOT
BRANCH   1   2
HETATM    2  N1  UNL     1      14.455  -2.246  52.281  1.00  0.00    -0.390 N 
ATOM      3  H1  UNL     1      14.709  -2.001  53.238  1.00  0.00     0.156 HD
BRANCH   2   4
HETATM    4  C4  UNL     1      15.012  -3.381  51.640  1.00  0.00     0.141 C 
BRANCH   4   5
HETATM    5  C2  UNL     1      16.489  -3.193  51.308  1.00  0.00     0.045 C 
HETATM    6  C1  UNL     1      17.246  -4.302  52.003  1.00  0.00     0.034 C 
HETATM    7  C3  UNL     1      16.739  -3.229  49.828  1.00  0.00     0.034 C 
HETATM    8 CL1  UNL     1      17.077  -1.636  51.932  1.00  0.00    -0.118 Cl
ENDBRANCH   4   5
ENDBRANCH   2   4
ENDBRANCH   1   2
BRANCH   1   9
HETATM    9  O1  UNL     1      13.947  -0.172  51.399  1.00  0.00    -0.295 OA
BRANCH   9  10
HETATM   10  C6  UNL     1      14.102   0.309  50.134  1.00  0.00     0.371 C 
HETATM   11  F1  UNL     1      15.275  -0.271  49.621  1.00  0.00    -0.176 F 
HETATM   12 CL2  UNL     1      14.165   2.046  49.946  1.00  0.00    -0.034 Cl
HETATM   13 CL3  UNL     1      12.798  -0.298  49.051  1.00  0.00    -0.034 Cl
ENDBRANCH   9  10
ENDBRANCH   1   9
BRANCH   1  14
HETATM   14  C7  UNL     1      12.264  -1.462  52.391  1.00  0.00     0.101 A 
HETATM   15  N2  UNL     1      11.014  -1.413  52.017  1.00  0.00    -0.358 N 
HETATM   16  C8  UNL     1      10.061  -1.425  52.902  1.00  0.00     0.120 A 
ATOM     17  H2  UNL     1      10.783  -1.367  51.025  1.00  0.00     0.165 HD
HETATM   18  C9  UNL     1      10.435  -1.491  54.224  1.00  0.00     0.091 A 
HETATM   19 CL4  UNL     1       9.390  -1.523  55.647  1.00  0.00    -0.075 Cl
HETATM   20  S1  UNL     1      12.141  -1.530  54.098  1.00  0.00    -0.059 SA
ENDBRANCH   1  14
TORSDOF 6
ENDMDL
MODEL 5
REMARK VINA RESULT: -5.693948966      1.215      1.527
REMARK  6 active torsions:
REMARK  status: ('A' for Active; 'I' for Inactive)
REMARK    1  A    between atoms: C2_2  and  C4_5 
REMARK    2  A    between atoms: C4_5  and  N1_6 
REMARK    3  A    between atoms: N1_6  and  C5_8 
REMARK    4  A    between atoms: C5_8  and  O1_9 
REMARK    5  A    between atoms: C5_8  and  C7_14 
REMARK    6  A    between atoms: O1_9  and  C6_10 
ROOT
HETATM    1  C5  UNL     1      13.336  -1.326  51.754  1.00  0.00     0.281 C 
ENDROOT
BRANCH   1   2
HETATM    2  N1  UNL     1      14.506  -2.005  52.198  1.00  0.00    -0.390 N 
ATOM      3  H1  UNL     1      15.037  -1.673  53.003  1.00  0.00     0.156 HD
BRANCH   2   4
HETATM    4  C4  UNL     1      14.905  -3.161  51.480  1.00  0.00     0.141 C 
BRANCH   4   5
HETATM    5  C2  UNL     1      16.416  -3.225  51.279  1.00  0.00     0.045 C 
HETATM    6  C1  UNL     1      16.921  -4.405  52.079  1.00  0.00     0.034 C 
HETATM    7  C3  UNL     1      16.782  -3.373  49.830  1.00  0.00     0.034 C 
HETATM    8 CL1  UNL     1      17.193  -1.753  51.901  1.00  0.00    -0.118 Cl
ENDBRANCH   4   5
ENDBRANCH   2   4
ENDBRANCH   1   2
BRANCH   1   9
HETATM    9  O1  UNL     1      13.599  -0.041  51.391  1.00  0.00    -0.295 OA
BRANCH   9  10
HETATM   10  C6  UNL     1      13.682   0.238  50.060  1.00  0.00     0.371 C 
HETATM   11  F1  UNL     1      13.511   1.626  49.926  1.00  0.00    -0.176 F 
HETATM   12 CL2  UNL     1      12.576  -0.603  49.000  1.00  0.00    -0.034 Cl
HETATM   13 CL3  UNL     1      15.347  -0.063  49.444  1.00  0.00    -0.034 Cl
ENDBRANCH   9  10
ENDBRANCH   1   9
BRANCH   1  14
HETATM   14  C7  UNL     1      12.424  -1.303  52.975  1.00  0.00     0.101 A 
HETATM   15  N2  UNL     1      12.721  -1.080  54.226  1.00  0.00    -0.358 N 
HETATM   16  C8  UNL     1      11.794  -1.103  55.137  1.00  0.00     0.120 A 
ATOM     17  H2  UNL     1      13.687  -0.886  54.491  1.00  0.00     0.165 HD
HETATM   18  C9  UNL     1      10.511  -1.369  54.718  1.00  0.00     0.091 A 
HETATM   19 CL4  UNL     1       9.047  -1.468  55.700  1.00  0.00    -0.075 Cl
HETATM   20  S1  UNL     1      10.733  -1.569  53.033  1.00  0.00    -0.059 SA
ENDBRANCH   1  14
TORSDOF 6
ENDMDL
