MODEL 1
REMARK VINA RESULT: -7.783137099      0.000      0.000
REMARK  9 active torsions:
REMARK  status: ('A' for Active; 'I' for Inactive)
REMARK    1  A    between atoms: C2_2  and  N1_4 
REMARK    2  A    between atoms: N1_4  and  C4_6 
REMARK    3  A    between atoms: N2_11  and  C8_12 
REMARK    4  A    between atoms: C12_17  and  N3_18 
REMARK    5  A    between atoms: N3_18  and  O1_20 
REMARK    6  A    between atoms: N4_25  and  C15_26 
REMARK    7  A    between atoms: C15_26  and  O3_27 
REMARK    8  A    between atoms: C15_26  and  C16_29 
REMARK    9  A    between atoms: C16_29  and  C17_30 
ROOT
HETATM    1  C8  UNL     1      12.976  -2.251  53.729  1.00  0.00     0.110 A 
HETATM    2  C9  UNL     1      12.100  -1.634  52.879  1.00  0.00     0.147 A 
HETATM    3  F1  UNL     1      10.774  -1.701  53.202  1.00  0.00    -0.204 F 
HETATM    4  C10 UNL     1      12.543  -0.980  51.760  1.00  0.00     0.061 A 
HETATM    5  C11 UNL     1      13.889  -0.920  51.449  1.00  0.00     0.026 A 
HETATM    6  C12 UNL     1      14.281  -0.256  50.315  1.00  0.00     0.072 A 
HETATM    7  C13 UNL     1      15.600  -0.210  50.026  1.00  0.00     0.107 A 
HETATM    8  C14 UNL     1      16.481  -0.822  50.870  1.00  0.00     0.256 A 
HETATM    9  O2  UNL     1      17.736  -0.774  50.578  1.00  0.00    -0.268 OA
HETATM   10  N4  UNL     1      16.146  -1.503  52.023  1.00  0.00    -0.258 N 
HETATM   11  C18 UNL     1      14.816  -1.542  52.296  1.00  0.00     0.098 A 
HETATM   12  C19 UNL     1      14.343  -2.188  53.406  1.00  0.00     0.174 A 
HETATM   13  F2  UNL     1      15.193  -2.826  54.240  1.00  0.00    -0.201 F 
ENDROOT
BRANCH   1  14
HETATM   14  N2  UNL     1      12.561  -2.912  54.898  1.00  0.00    -0.376 N 
HETATM   15  C7  UNL     1      12.254  -2.155  56.129  1.00  0.00     0.125 C 
HETATM   16  C6  UNL     1      10.934  -2.710  56.684  1.00  0.00     0.043 C 
HETATM   17  C5  UNL     1      11.161  -4.119  57.205  1.00  0.00     0.046 C 
HETATM   18  S1  UNL     1      11.306  -4.209  59.004  1.00  0.00    -0.128 SA
HETATM   19  C21 UNL     1      12.318  -4.724  56.498  1.00  0.00     0.043 C 
HETATM   20  C22 UNL     1       9.890  -4.942  57.299  1.00  0.00     0.221 C 
HETATM   21  C4  UNL     1      10.353  -5.680  58.505  1.00  0.00     0.176 C 
HETATM   22  C20 UNL     1      12.379  -4.342  55.024  1.00  0.00     0.125 C 
HETATM   23  F3  UNL     1       9.730  -5.823  56.232  1.00  0.00    -0.245 F 
BRANCH  21  24
HETATM   24  N1  UNL     1       9.484  -6.198  59.463  1.00  0.00    -0.403 N 
ATOM     25  H1  UNL     1       8.880  -5.538  59.952  1.00  0.00     0.154 HD
BRANCH  24  26
HETATM   26  C2  UNL     1       9.372  -7.535  59.804  1.00  0.00     0.069 C 
HETATM   27  C1  UNL     1       8.269  -7.824  60.787  1.00  0.00     0.031 C 
HETATM   28  C3  UNL     1       8.991  -8.325  58.529  1.00  0.00     0.031 C 
ENDBRANCH  24  26
ENDBRANCH  21  24
ENDBRANCH   1  14
BRANCH  10  29
HETATM   29  C15 UNL     1      17.110  -2.080  52.866  1.00  0.00     0.126 C 
BRANCH  29  30
HETATM   30  O3  UNL     1      17.747  -1.307  53.848  1.00  0.00    -0.349 OA
ATOM     31  H3  UNL     1      17.620  -1.500  54.769  1.00  0.00     0.219 HD
ENDBRANCH  29  30
BRANCH  29  32
HETATM   32  C16 UNL     1      17.709  -3.408  52.551  1.00  0.00     0.099 C 
BRANCH  32  33
HETATM   33  C17 UNL     1      16.865  -4.306  51.642  1.00  0.00     0.122 C 
HETATM   34 CL1  UNL     1      17.491  -4.175  49.954  1.00  0.00    -0.130 Cl
ENDBRANCH  32  33
ENDBRANCH  29  32
ENDBRANCH  10  29
BRANCH   6  35
HETATM   35  N3  UNL     1      13.292   0.348  49.510  1.00  0.00    -0.268 N 
ATOM     36  H3  UNL     1      12.913   1.246  49.811  1.00  0.00     0.194 HD
BRANCH  35  37
HETATM   37  O1  UNL     1      12.855  -0.146  48.460  1.00  0.00    -0.289 OA
ATOM     38  H1  UNL     1      11.932  -0.208  48.246  1.00  0.00     0.244 HD
ENDBRANCH  35  37
ENDBRANCH   6  35
TORSDOF 9
ENDMDL
MODEL 2
REMARK VINA RESULT: -7.740027467      2.859      3.349
REMARK  9 active torsions:
REMARK  status: ('A' for Active; 'I' for Inactive)
REMARK    1  A    between atoms: C2_2  and  N1_4 
REMARK    2  A    between atoms: N1_4  and  C4_6 
REMARK    3  A    between atoms: N2_11  and  C8_12 
REMARK    4  A    between atoms: C12_17  and  N3_18 
REMARK    5  A    between atoms: N3_18  and  O1_20 
REMARK    6  A    between atoms: N4_25  and  C15_26 
REMARK    7  A    between atoms: C15_26  and  O3_27 
REMARK    8  A    between atoms: C15_26  and  C16_29 
REMARK    9  A    between atoms: C16_29  and  C17_30 
ROOT
HETATM    1  C8  UNL     1      14.116  -2.040  52.691  1.00  0.00     0.110 A 
HETATM    2  C9  UNL     1      14.086  -0.840  52.035  1.00  0.00     0.147 A 
HETATM    3  F1  UNL     1      13.093   0.031  52.384  1.00  0.00    -0.204 F 
HETATM    4  C10 UNL     1      15.016  -0.536  51.076  1.00  0.00     0.061 A 
HETATM    5  C11 UNL     1      16.016  -1.428  50.737  1.00  0.00     0.026 A 
HETATM    6  C12 UNL     1      16.920  -1.077  49.768  1.00  0.00     0.072 A 
HETATM    7  C13 UNL     1      17.889  -1.963  49.447  1.00  0.00     0.107 A 
HETATM    8  C14 UNL     1      17.927  -3.162  50.098  1.00  0.00     0.256 A 
HETATM    9  O2  UNL     1      18.854  -3.998  49.779  1.00  0.00    -0.268 OA
HETATM   10  N4  UNL     1      17.047  -3.569  51.080  1.00  0.00    -0.258 N 
HETATM   11  C18 UNL     1      16.078  -2.668  51.387  1.00  0.00     0.098 A 
HETATM   12  C19 UNL     1      15.136  -2.944  52.341  1.00  0.00     0.174 A 
HETATM   13  F2  UNL     1      15.135  -4.135  52.977  1.00  0.00    -0.201 F 
ENDROOT
BRANCH   1  14
HETATM   14  N2  UNL     1      13.193  -2.379  53.697  1.00  0.00    -0.376 N 
HETATM   15  C7  UNL     1      13.535  -2.215  55.125  1.00  0.00     0.125 C 
HETATM   16  C6  UNL     1      12.332  -1.544  55.803  1.00  0.00     0.043 C 
HETATM   17  C5  UNL     1      11.169  -2.520  55.846  1.00  0.00     0.046 C 
HETATM   18  S1  UNL     1      10.934  -3.294  57.461  1.00  0.00    -0.128 SA
HETATM   19  C21 UNL     1      11.314  -3.505  54.744  1.00  0.00     0.043 C 
HETATM   20  C22 UNL     1       9.819  -1.846  56.009  1.00  0.00     0.221 C 
HETATM   21  C4  UNL     1       9.262  -2.964  56.818  1.00  0.00     0.176 C 
HETATM   22  C20 UNL     1      11.860  -2.887  53.463  1.00  0.00     0.125 C 
HETATM   23  F3  UNL     1       9.119  -1.729  54.811  1.00  0.00    -0.245 F 
BRANCH  21  24
HETATM   24  N1  UNL     1       8.264  -2.789  57.774  1.00  0.00    -0.403 N 
ATOM     25  H1  UNL     1       8.537  -2.377  58.666  1.00  0.00     0.154 HD
BRANCH  24  26
HETATM   26  C2  UNL     1       6.931  -3.128  57.612  1.00  0.00     0.069 C 
HETATM   27  C1  UNL     1       6.071  -2.000  57.108  1.00  0.00     0.031 C 
HETATM   28  C3  UNL     1       6.844  -4.219  56.518  1.00  0.00     0.031 C 
ENDBRANCH  24  26
ENDBRANCH  21  24
ENDBRANCH   1  14
BRANCH  10  29
HETATM   29  C15 UNL     1      17.167  -4.806  51.736  1.00  0.00     0.126 C 
BRANCH  29  30
HETATM   30  O3  UNL     1      16.622  -5.967  51.166  1.00  0.00    -0.349 OA
ATOM     31  H3  UNL     1      17.181  -6.703  50.948  1.00  0.00     0.219 HD
ENDBRANCH  29  30
BRANCH  29  32
HETATM   32  C16 UNL     1      17.579  -4.878  53.166  1.00  0.00     0.099 C 
BRANCH  32  33
HETATM   33  C17 UNL     1      18.815  -4.054  53.533  1.00  0.00     0.122 C 
HETATM   34 CL1  UNL     1      18.277  -2.476  54.225  1.00  0.00    -0.130 Cl
ENDBRANCH  32  33
ENDBRANCH  29  32
ENDBRANCH  10  29
BRANCH   6  35
HETATM   35  N3  UNL     1      16.797   0.189  49.156  1.00  0.00    -0.268 N 
ATOM     36  H3  UNL     1      16.080   0.307  48.441  1.00  0.00     0.194 HD
BRANCH  35  37
HETATM   37  O1  UNL     1      17.508   1.166  49.435  1.00  0.00    -0.289 OA
ATOM     38  H1  UNL     1      17.208   2.067  49.407  1.00  0.00     0.244 HD
ENDBRANCH  35  37
ENDBRANCH   6  35
TORSDOF 9
ENDMDL
MODEL 3
REMARK VINA RESULT: -7.671415431      2.756      3.227
REMARK  9 active torsions:
REMARK  status: ('A' for Active; 'I' for Inactive)
REMARK    1  A    between atoms: C2_2  and  N1_4 
REMARK    2  A    between atoms: N1_4  and  C4_6 
REMARK    3  A    between atoms: N2_11  and  C8_12 
REMARK    4  A    between atoms: C12_17  and  N3_18 
REMARK    5  A    between atoms: N3_18  and  O1_20 
REMARK    6  A    between atoms: N4_25  and  C15_26 
REMARK    7  A    between atoms: C15_26  and  O3_27 
REMARK    8  A    between atoms: C15_26  and  C16_29 
REMARK    9  A    between atoms: C16_29  and  C17_30 
ROOT
HETATM    1  C8  UNL     1      14.039  -1.977  52.694  1.00  0.00     0.110 A 
HETATM    2  C9  UNL     1      13.936  -0.821  51.970  1.00  0.00     0.147 A 
HETATM    3  F1  UNL     1      12.890   0.004  52.269  1.00  0.00    -0.204 F 
HETATM    4  C10 UNL     1      14.846  -0.517  50.992  1.00  0.00     0.061 A 
HETATM    5  C11 UNL     1      15.900  -1.363  50.702  1.00  0.00     0.026 A 
HETATM    6  C12 UNL     1      16.781  -1.013  49.712  1.00  0.00     0.072 A 
HETATM    7  C13 UNL     1      17.803  -1.854  49.441  1.00  0.00     0.107 A 
HETATM    8  C14 UNL     1      17.915  -3.008  50.160  1.00  0.00     0.256 A 
HETATM    9  O2  UNL     1      18.893  -3.802  49.887  1.00  0.00    -0.268 OA
HETATM   10  N4  UNL     1      17.061  -3.412  51.166  1.00  0.00    -0.258 N 
HETATM   11  C18 UNL     1      16.038  -2.557  51.423  1.00  0.00     0.098 A 
HETATM   12  C19 UNL     1      15.113  -2.835  52.393  1.00  0.00     0.174 A 
HETATM   13  F2  UNL     1      15.186  -3.985  53.098  1.00  0.00    -0.201 F 
ENDROOT
BRANCH   1  14
HETATM   14  N2  UNL     1      13.139  -2.314  53.719  1.00  0.00    -0.376 N 
HETATM   15  C7  UNL     1      13.478  -2.071  55.136  1.00  0.00     0.125 C 
HETATM   16  C6  UNL     1      12.249  -1.427  55.792  1.00  0.00     0.043 C 
HETATM   17  C5  UNL     1      11.134  -2.454  55.886  1.00  0.00     0.046 C 
HETATM   18  S1  UNL     1      10.943  -3.166  57.536  1.00  0.00    -0.128 SA
HETATM   19  C21 UNL     1      11.319  -3.480  54.829  1.00  0.00     0.043 C 
HETATM   20  C22 UNL     1       9.753  -1.839  56.028  1.00  0.00     0.221 C 
HETATM   21  C4  UNL     1       9.254  -2.944  56.890  1.00  0.00     0.176 C 
HETATM   22  C20 UNL     1      11.829  -2.895  53.517  1.00  0.00     0.125 C 
HETATM   23  F3  UNL     1       9.043  -1.808  54.831  1.00  0.00    -0.245 F 
BRANCH  21  24
HETATM   24  N1  UNL     1       8.253  -2.774  57.844  1.00  0.00    -0.403 N 
ATOM     25  H1  UNL     1       8.520  -2.347  58.731  1.00  0.00     0.154 HD
BRANCH  24  26
HETATM   26  C2  UNL     1       6.926  -3.136  57.687  1.00  0.00     0.069 C 
HETATM   27  C1  UNL     1       6.041  -2.017  57.206  1.00  0.00     0.031 C 
HETATM   28  C3  UNL     1       6.852  -4.212  56.577  1.00  0.00     0.031 C 
ENDBRANCH  24  26
ENDBRANCH  21  24
ENDBRANCH   1  14
BRANCH  10  29
HETATM   29  C15 UNL     1      17.257  -4.599  51.892  1.00  0.00     0.126 C 
BRANCH  29  30
HETATM   30  O3  UNL     1      18.220  -4.656  52.911  1.00  0.00    -0.349 OA
ATOM     31  H3  UNL     1      17.972  -4.908  53.793  1.00  0.00     0.219 HD
ENDBRANCH  29  30
BRANCH  29  32
HETATM   32  C16 UNL     1      16.696  -5.893  51.411  1.00  0.00     0.099 C 
BRANCH  32  33
HETATM   33  C17 UNL     1      16.546  -6.978  52.481  1.00  0.00     0.122 C 
HETATM   34 CL1  UNL     1      17.965  -8.090  52.384  1.00  0.00    -0.130 Cl
ENDBRANCH  32  33
ENDBRANCH  29  32
ENDBRANCH  10  29
BRANCH   6  35
HETATM   35  N3  UNL     1      16.580   0.205  49.029  1.00  0.00    -0.268 N 
ATOM     36  H3  UNL     1      15.767   0.282  48.418  1.00  0.00     0.194 HD
BRANCH  35  37
HETATM   37  O1  UNL     1      17.332   1.187  49.125  1.00  0.00    -0.289 OA
ATOM     38  H1  UNL     1      18.279   1.130  49.166  1.00  0.00     0.244 HD
ENDBRANCH  35  37
ENDBRANCH   6  35
TORSDOF 9
ENDMDL
MODEL 4
REMARK VINA RESULT: -7.398882548      0.862      1.043
REMARK  9 active torsions:
REMARK  status: ('A' for Active; 'I' for Inactive)
REMARK    1  A    between atoms: C2_2  and  N1_4 
REMARK    2  A    between atoms: N1_4  and  C4_6 
REMARK    3  A    between atoms: N2_11  and  C8_12 
REMARK    4  A    between atoms: C12_17  and  N3_18 
REMARK    5  A    between atoms: N3_18  and  O1_20 
REMARK    6  A    between atoms: N4_25  and  C15_26 
REMARK    7  A    between atoms: C15_26  and  O3_27 
REMARK    8  A    between atoms: C15_26  and  C16_29 
REMARK    9  A    between atoms: C16_29  and  C17_30 
ROOT
HETATM    1  C8  UNL     1      12.918  -2.231  53.719  1.00  0.00     0.110 A 
HETATM    2  C9  UNL     1      12.042  -1.648  52.846  1.00  0.00     0.147 A 
HETATM    3  F1  UNL     1      10.713  -1.740  53.148  1.00  0.00    -0.204 F 
HETATM    4  C10 UNL     1      12.489  -1.003  51.723  1.00  0.00     0.061 A 
HETATM    5  C11 UNL     1      13.838  -0.917  51.432  1.00  0.00     0.026 A 
HETATM    6  C12 UNL     1      14.233  -0.262  50.294  1.00  0.00     0.072 A 
HETATM    7  C13 UNL     1      15.555  -0.191  50.025  1.00  0.00     0.107 A 
HETATM    8  C14 UNL     1      16.436  -0.769  50.893  1.00  0.00     0.256 A 
HETATM    9  O2  UNL     1      17.693  -0.696  50.620  1.00  0.00    -0.268 OA
HETATM   10  N4  UNL     1      16.098  -1.438  52.051  1.00  0.00    -0.258 N 
HETATM   11  C18 UNL     1      14.765  -1.503  52.305  1.00  0.00     0.098 A 
HETATM   12  C19 UNL     1      14.289  -2.141  53.417  1.00  0.00     0.174 A 
HETATM   13  F2  UNL     1      15.140  -2.746  54.275  1.00  0.00    -0.201 F 
ENDROOT
BRANCH   1  14
HETATM   14  N2  UNL     1      12.499  -2.882  54.893  1.00  0.00    -0.376 N 
HETATM   15  C7  UNL     1      12.141  -2.111  56.101  1.00  0.00     0.125 C 
HETATM   16  C6  UNL     1      10.828  -2.698  56.639  1.00  0.00     0.043 C 
HETATM   17  C5  UNL     1      11.089  -4.088  57.194  1.00  0.00     0.046 C 
HETATM   18  S1  UNL     1      11.198  -4.138  58.997  1.00  0.00    -0.128 SA
HETATM   19  C21 UNL     1      12.281  -4.669  56.524  1.00  0.00     0.043 C 
HETATM   20  C22 UNL     1       9.844  -4.951  57.278  1.00  0.00     0.221 C 
HETATM   21  C4  UNL     1      10.304  -5.650  58.508  1.00  0.00     0.176 C 
HETATM   22  C20 UNL     1      12.361  -4.314  55.044  1.00  0.00     0.125 C 
HETATM   23  F3  UNL     1       9.736  -5.858  56.226  1.00  0.00    -0.245 F 
BRANCH  21  24
HETATM   24  N1  UNL     1       9.431  -6.177  59.457  1.00  0.00    -0.403 N 
ATOM     25  H1  UNL     1       8.616  -5.617  59.705  1.00  0.00     0.154 HD
BRANCH  24  26
HETATM   26  C2  UNL     1       9.581  -7.397  60.092  1.00  0.00     0.069 C 
HETATM   27  C1  UNL     1      10.534  -7.367  61.257  1.00  0.00     0.031 C 
HETATM   28  C3  UNL     1       8.214  -7.790  60.702  1.00  0.00     0.031 C 
ENDBRANCH  24  26
ENDBRANCH  21  24
ENDBRANCH   1  14
BRANCH  10  29
HETATM   29  C15 UNL     1      17.061  -1.979  52.920  1.00  0.00     0.126 C 
BRANCH  29  30
HETATM   30  O3  UNL     1      17.624  -1.190  53.934  1.00  0.00    -0.349 OA
ATOM     31  H3  UNL     1      17.587  -1.473  54.840  1.00  0.00     0.219 HD
ENDBRANCH  29  30
BRANCH  29  32
HETATM   32  C16 UNL     1      17.737  -3.270  52.607  1.00  0.00     0.099 C 
BRANCH  32  33
HETATM   33  C17 UNL     1      18.340  -4.000  53.809  1.00  0.00     0.122 C 
HETATM   34 CL1  UNL     1      17.492  -5.580  54.015  1.00  0.00    -0.130 Cl
ENDBRANCH  32  33
ENDBRANCH  29  32
ENDBRANCH  10  29
BRANCH   6  35
HETATM   35  N3  UNL     1      13.243   0.305  49.463  1.00  0.00    -0.268 N 
ATOM     36  H3  UNL     1      12.827   1.190  49.752  1.00  0.00     0.194 HD
BRANCH  35  37
HETATM   37  O1  UNL     1      12.849  -0.207  48.405  1.00  0.00    -0.289 OA
ATOM     38  H1  UNL     1      13.226  -0.989  48.019  1.00  0.00     0.244 HD
ENDBRANCH  35  37
ENDBRANCH   6  35
TORSDOF 9
ENDMDL
MODEL 5
REMARK VINA RESULT: -7.208387194      5.014      7.357
REMARK  9 active torsions:
REMARK  status: ('A' for Active; 'I' for Inactive)
REMARK    1  A    between atoms: C2_2  and  N1_4 
REMARK    2  A    between atoms: N1_4  and  C4_6 
REMARK    3  A    between atoms: N2_11  and  C8_12 
REMARK    4  A    between atoms: C12_17  and  N3_18 
REMARK    5  A    between atoms: N3_18  and  O1_20 
REMARK    6  A    between atoms: N4_25  and  C15_26 
REMARK    7  A    between atoms: C15_26  and  O3_27 
REMARK    8  A    between atoms: C15_26  and  C16_29 
REMARK    9  A    between atoms: C16_29  and  C17_30 
ROOT
HETATM    1  C8  UNL     1      16.432  -4.569  51.991  1.00  0.00     0.110 A 
HETATM    2  C9  UNL     1      17.194  -4.048  50.982  1.00  0.00     0.147 A 
HETATM    3  F1  UNL     1      18.253  -4.799  50.556  1.00  0.00    -0.204 F 
HETATM    4  C10 UNL     1      16.900  -2.828  50.432  1.00  0.00     0.061 A 
HETATM    5  C11 UNL     1      15.823  -2.082  50.875  1.00  0.00     0.026 A 
HETATM    6  C12 UNL     1      15.573  -0.866  50.293  1.00  0.00     0.072 A 
HETATM    7  C13 UNL     1      14.519  -0.149  50.740  1.00  0.00     0.107 A 
HETATM    8  C14 UNL     1      13.751  -0.663  51.745  1.00  0.00     0.256 A 
HETATM    9  O2  UNL     1      12.752   0.035  52.164  1.00  0.00    -0.268 OA
HETATM   10  N4  UNL     1      13.954  -1.878  52.367  1.00  0.00    -0.258 N 
HETATM   11  C18 UNL     1      15.020  -2.584  51.907  1.00  0.00     0.098 A 
HETATM   12  C19 UNL     1      15.339  -3.804  52.437  1.00  0.00     0.174 A 
HETATM   13  F2  UNL     1      14.612  -4.320  53.453  1.00  0.00    -0.201 F 
ENDROOT
BRANCH   1  14
HETATM   14  N2  UNL     1      16.689  -5.826  52.565  1.00  0.00    -0.376 N 
HETATM   15  C7  UNL     1      15.933  -7.022  52.141  1.00  0.00     0.125 C 
HETATM   16  C6  UNL     1      16.951  -8.152  51.934  1.00  0.00     0.043 C 
HETATM   17  C5  UNL     1      17.516  -8.573  53.280  1.00  0.00     0.046 C 
HETATM   18  S1  UNL     1      16.796 -10.100  53.922  1.00  0.00    -0.128 SA
HETATM   19  C21 UNL     1      17.415  -7.437  54.232  1.00  0.00     0.043 C 
HETATM   20  C22 UNL     1      18.854  -9.284  53.181  1.00  0.00     0.221 C 
HETATM   21  C4  UNL     1      18.567 -10.169  54.342  1.00  0.00     0.176 C 
HETATM   22  C20 UNL     1      17.688  -6.088  53.578  1.00  0.00     0.125 C 
HETATM   23  F3  UNL     1      19.936  -8.456  53.466  1.00  0.00    -0.245 F 
BRANCH  21  24
HETATM   24  N1  UNL     1      19.112 -11.444  54.481  1.00  0.00    -0.403 N 
ATOM     25  H1  UNL     1      18.785 -12.165  53.839  1.00  0.00     0.154 HD
BRANCH  24  26
HETATM   26  C2  UNL     1      20.062 -11.811  55.419  1.00  0.00     0.069 C 
HETATM   27  C1  UNL     1      21.427 -11.229  55.166  1.00  0.00     0.031 C 
HETATM   28  C3  UNL     1      19.628 -11.236  56.789  1.00  0.00     0.031 C 
ENDBRANCH  24  26
ENDBRANCH  21  24
ENDBRANCH   1  14
BRANCH  10  29
HETATM   29  C15 UNL     1      13.101  -2.363  53.373  1.00  0.00     0.126 C 
BRANCH  29  30
HETATM   30  O3  UNL     1      11.894  -2.994  53.036  1.00  0.00    -0.349 OA
ATOM     31  H3  UNL     1      11.081  -2.503  53.028  1.00  0.00     0.219 HD
ENDBRANCH  29  30
BRANCH  29  32
HETATM   32  C16 UNL     1      13.282  -1.954  54.794  1.00  0.00     0.099 C 
BRANCH  32  33
HETATM   33  C17 UNL     1      12.010  -1.488  55.507  1.00  0.00     0.122 C 
HETATM   34 CL1  UNL     1      12.033   0.314  55.615  1.00  0.00    -0.130 Cl
ENDBRANCH  32  33
ENDBRANCH  29  32
ENDBRANCH  10  29
BRANCH   6  35
HETATM   35  N3  UNL     1      16.424  -0.425  49.257  1.00  0.00    -0.268 N 
ATOM     36  H3  UNL     1      16.368  -0.900  48.357  1.00  0.00     0.194 HD
BRANCH  35  37
HETATM   37  O1  UNL     1      17.236   0.506  49.375  1.00  0.00    -0.289 OA
ATOM     38  H1  UNL     1      17.993   0.481  49.947  1.00  0.00     0.244 HD
ENDBRANCH  35  37
ENDBRANCH   6  35
TORSDOF 9
ENDMDL
