MODEL 1
REMARK VINA RESULT: -8.586874914      0.000      0.000
REMARK  7 active torsions:
REMARK  status: ('A' for Active; 'I' for Inactive)
REMARK    1  A    between atoms: C2_2  and  O1_3 
REMARK    2  A    between atoms: O1_3  and  C3_4 
REMARK    3  A    between atoms: C4_5  and  C5_6 
REMARK    4  A    between atoms: C4_5  and  C12_17 
REMARK       I    between atoms: C5_6  and  N1_8 
REMARK    5  A    between atoms: N1_8  and  C6_10 
REMARK    6  A    between atoms: C6_10  and  C7_11 
REMARK    7  A    between atoms: C18_26  and  C19_27 
ROOT
HETATM    1  C12 UNL     1      15.005  -4.918  53.554  1.00  0.00     0.116 C 
HETATM    2  C13 UNL     1      13.879  -4.148  52.810  1.00  0.00     0.141 C 
HETATM    3  N2  UNL     1      14.292  -3.428  51.668  1.00  0.00    -0.387 N 
ATOM      4  H2  UNL     1      13.733  -3.684  50.854  1.00  0.00     0.159 HD
HETATM    5  C14 UNL     1      15.293  -2.418  51.314  1.00  0.00     0.063 A 
HETATM    6  C15 UNL     1      16.615  -2.518  51.725  1.00  0.00     0.095 A 
HETATM    7  S2  UNL     1      17.385  -1.164  51.101  1.00  0.00    -0.065 SA
HETATM    8  C16 UNL     1      16.048  -0.452  50.315  1.00  0.00     0.106 A 
HETATM    9  C17 UNL     1      15.005  -1.307  50.560  1.00  0.00     0.056 A 
HETATM   10  C18 UNL     1      13.929  -0.682  49.913  1.00  0.00     0.105 A 
HETATM   11  N3  UNL     1      14.392   0.479  49.335  1.00  0.00    -0.296 N 
ATOM     12  H3  UNL     1      13.818   1.130  48.798  1.00  0.00     0.187 HD
HETATM   13  N4  UNL     1      15.660   0.630  49.567  1.00  0.00    -0.288 N 
HETATM   14  C20 UNL     1      16.521   1.701  49.142  1.00  0.00     0.178 C 
HETATM   15  C21 UNL     1      17.299  -3.594  52.586  1.00  0.00     0.332 C 
HETATM   16  F3  UNL     1      18.218  -4.295  51.822  1.00  0.00    -0.186 F 
HETATM   17  F4  UNL     1      18.109  -2.871  53.480  1.00  0.00    -0.186 F 
HETATM   18  C22 UNL     1      16.221  -4.344  53.139  1.00  0.00    -0.090 C 
ENDROOT
BRANCH   1  19
HETATM   19  C4  UNL     1      14.647  -4.890  55.007  1.00  0.00     0.048 C 
HETATM   20  C3  UNL     1      14.939  -6.000  55.728  1.00  0.00     0.148 C 
BRANCH  20  21
HETATM   21  O1  UNL     1      15.504  -7.039  55.208  1.00  0.00    -0.363 OA
BRANCH  21  22
HETATM   22  C2  UNL     1      16.072  -8.083  54.685  1.00  0.00     0.170 C 
HETATM   23  C1  UNL     1      17.452  -7.745  54.075  1.00  0.00     0.034 C 
ENDBRANCH  21  22
ENDBRANCH  20  21
BRANCH  19  24
HETATM   24  C5  UNL     1      14.021  -3.798  55.686  1.00  0.00     0.251 C 
HETATM   25  O2  UNL     1      14.679  -2.772  56.015  1.00  0.00    -0.268 OA
HETATM   26  N1  UNL     1      12.662  -3.746  56.044  1.00  0.00    -0.352 N 
ATOM     27  H1  UNL     1      12.072  -4.544  55.810  1.00  0.00     0.163 HD
BRANCH  26  28
HETATM   28  C6  UNL     1      12.051  -2.622  56.728  1.00  0.00     0.169 C 
BRANCH  28  29
HETATM   29  C7  UNL     1      10.565  -2.833  56.901  1.00  0.00     0.001 A 
HETATM   30  C8  UNL     1       9.944  -3.773  57.682  1.00  0.00     0.017 A 
HETATM   31  C9  UNL     1       8.603  -3.777  57.683  1.00  0.00     0.015 A 
HETATM   32  C10 UNL     1       7.969  -2.847  56.908  1.00  0.00    -0.021 A 
HETATM   33  C11 UNL     1       6.483  -2.644  56.736  1.00  0.00     0.056 C 
HETATM   34  S1  UNL     1       9.261  -1.993  56.200  1.00  0.00    -0.098 SA
ENDBRANCH  28  29
ENDBRANCH  26  28
ENDBRANCH  19  24
ENDBRANCH   1  19
BRANCH  10  35
HETATM   35  C19 UNL     1      12.520  -1.126  49.803  1.00  0.00     0.405 C 
HETATM   36  F1  UNL     1      11.953  -0.566  48.704  1.00  0.00    -0.207 F 
HETATM   37  F2  UNL     1      11.786  -0.744  50.933  1.00  0.00    -0.207 F 
ENDBRANCH  10  35
TORSDOF 7
ENDMDL
MODEL 2
REMARK VINA RESULT: -8.527668633      3.380      4.890
REMARK  7 active torsions:
REMARK  status: ('A' for Active; 'I' for Inactive)
REMARK    1  A    between atoms: C2_2  and  O1_3 
REMARK    2  A    between atoms: O1_3  and  C3_4 
REMARK    3  A    between atoms: C4_5  and  C5_6 
REMARK    4  A    between atoms: C4_5  and  C12_17 
REMARK       I    between atoms: C5_6  and  N1_8 
REMARK    5  A    between atoms: N1_8  and  C6_10 
REMARK    6  A    between atoms: C6_10  and  C7_11 
REMARK    7  A    between atoms: C18_26  and  C19_27 
ROOT
HETATM    1  C12 UNL     1      12.023  -3.119  54.777  1.00  0.00     0.116 C 
HETATM    2  C13 UNL     1      11.629  -2.514  53.400  1.00  0.00     0.141 C 
HETATM    3  N2  UNL     1      12.645  -2.533  52.419  1.00  0.00    -0.387 N 
ATOM      4  H2  UNL     1      12.315  -2.979  51.563  1.00  0.00     0.159 HD
HETATM    5  C14 UNL     1      14.036  -2.097  52.276  1.00  0.00     0.063 A 
HETATM    6  C15 UNL     1      14.986  -2.337  53.259  1.00  0.00     0.095 A 
HETATM    7  S2  UNL     1      16.413  -1.672  52.678  1.00  0.00    -0.065 SA
HETATM    8  C16 UNL     1      15.830  -1.081  51.188  1.00  0.00     0.106 A 
HETATM    9  C17 UNL     1      14.503  -1.424  51.173  1.00  0.00     0.056 A 
HETATM   10  C18 UNL     1      14.059  -0.911  49.946  1.00  0.00     0.105 A 
HETATM   11  N3  UNL     1      15.129  -0.309  49.321  1.00  0.00    -0.296 N 
ATOM     12  H3  UNL     1      15.088   0.147  48.409  1.00  0.00     0.187 HD
HETATM   13  N4  UNL     1      16.197  -0.404  50.053  1.00  0.00    -0.288 N 
HETATM   14  C20 UNL     1      17.517   0.089  49.767  1.00  0.00     0.178 C 
HETATM   15  C21 UNL     1      14.838  -3.034  54.622  1.00  0.00     0.332 C 
HETATM   16  F3  UNL     1      15.556  -4.219  54.627  1.00  0.00    -0.186 F 
HETATM   17  F4  UNL     1      15.554  -2.220  55.518  1.00  0.00    -0.186 F 
HETATM   18  C22 UNL     1      13.430  -3.138  54.815  1.00  0.00    -0.090 C 
ENDROOT
BRANCH   1  19
HETATM   19  C4  UNL     1      11.277  -2.336  55.811  1.00  0.00     0.048 C 
HETATM   20  C3  UNL     1      10.511  -3.044  56.676  1.00  0.00     0.148 C 
BRANCH  20  21
HETATM   21  O1  UNL     1      10.420  -4.332  56.632  1.00  0.00    -0.363 OA
BRANCH  21  22
HETATM   22  C2  UNL     1      10.329  -5.627  56.587  1.00  0.00     0.170 C 
HETATM   23  C1  UNL     1       8.900  -6.117  56.916  1.00  0.00     0.034 C 
ENDBRANCH  21  22
ENDBRANCH  20  21
BRANCH  19  24
HETATM   24  C5  UNL     1      11.304  -0.913  55.952  1.00  0.00     0.251 C 
HETATM   25  O2  UNL     1      10.296  -0.211  55.660  1.00  0.00    -0.268 OA
HETATM   26  N1  UNL     1      12.405  -0.170  56.414  1.00  0.00    -0.352 N 
ATOM     27  H1  UNL     1      13.254  -0.676  56.666  1.00  0.00     0.163 HD
BRANCH  26  28
HETATM   28  C6  UNL     1      12.402   1.273  56.552  1.00  0.00     0.169 C 
BRANCH  28  29
HETATM   29  C7  UNL     1      13.465   1.728  57.525  1.00  0.00     0.001 A 
HETATM   30  C8  UNL     1      13.783   3.017  57.866  1.00  0.00     0.017 A 
HETATM   31  C9  UNL     1      14.769   3.187  58.759  1.00  0.00     0.015 A 
HETATM   32  C10 UNL     1      15.373   2.065  59.253  1.00  0.00    -0.021 A 
HETATM   33  C11 UNL     1      16.496   1.986  60.258  1.00  0.00     0.056 C 
HETATM   34  S1  UNL     1      14.548   0.805  58.459  1.00  0.00    -0.098 SA
ENDBRANCH  28  29
ENDBRANCH  26  28
ENDBRANCH  19  24
ENDBRANCH   1  19
BRANCH  10  35
HETATM   35  C19 UNL     1      12.708  -0.972  49.341  1.00  0.00     0.405 C 
HETATM   36  F1  UNL     1      12.634  -0.094  48.308  1.00  0.00    -0.207 F 
HETATM   37  F2  UNL     1      11.723  -0.646  50.282  1.00  0.00    -0.207 F 
ENDBRANCH  10  35
TORSDOF 7
ENDMDL
MODEL 3
REMARK VINA RESULT: -8.500889671      1.842      1.952
REMARK  7 active torsions:
REMARK  status: ('A' for Active; 'I' for Inactive)
REMARK    1  A    between atoms: C2_2  and  O1_3 
REMARK    2  A    between atoms: O1_3  and  C3_4 
REMARK    3  A    between atoms: C4_5  and  C5_6 
REMARK    4  A    between atoms: C4_5  and  C12_17 
REMARK       I    between atoms: C5_6  and  N1_8 
REMARK    5  A    between atoms: N1_8  and  C6_10 
REMARK    6  A    between atoms: C6_10  and  C7_11 
REMARK    7  A    between atoms: C18_26  and  C19_27 
ROOT
HETATM    1  C12 UNL     1      15.427  -5.252  53.138  1.00  0.00     0.116 C 
HETATM    2  C13 UNL     1      14.198  -4.426  52.667  1.00  0.00     0.141 C 
HETATM    3  N2  UNL     1      14.434  -3.559  51.577  1.00  0.00    -0.387 N 
ATOM      4  H2  UNL     1      13.764  -3.728  50.827  1.00  0.00     0.159 HD
HETATM    5  C14 UNL     1      15.365  -2.488  51.213  1.00  0.00     0.063 A 
HETATM    6  C15 UNL     1      16.734  -2.604  51.413  1.00  0.00     0.095 A 
HETATM    7  S2  UNL     1      17.393  -1.163  50.860  1.00  0.00    -0.065 SA
HETATM    8  C16 UNL     1      15.950  -0.395  50.371  1.00  0.00     0.106 A 
HETATM    9  C17 UNL     1      14.961  -1.300  50.654  1.00  0.00     0.056 A 
HETATM   10  C18 UNL     1      13.797  -0.629  50.253  1.00  0.00     0.105 A 
HETATM   11  N3  UNL     1      14.161   0.607  49.765  1.00  0.00    -0.296 N 
ATOM     12  H3  UNL     1      13.510   1.304  49.403  1.00  0.00     0.187 HD
HETATM   13  N4  UNL     1      15.449   0.761  49.829  1.00  0.00    -0.288 N 
HETATM   14  C20 UNL     1      16.229   1.898  49.424  1.00  0.00     0.178 C 
HETATM   15  C21 UNL     1      17.544  -3.759  52.024  1.00  0.00     0.332 C 
HETATM   16  F3  UNL     1      18.347  -4.337  51.053  1.00  0.00    -0.186 F 
HETATM   17  F4  UNL     1      18.471  -3.132  52.876  1.00  0.00    -0.186 F 
HETATM   18  C22 UNL     1      16.564  -4.600  52.627  1.00  0.00    -0.090 C 
ENDROOT
BRANCH   1  19
HETATM   19  C4  UNL     1      15.285  -5.413  54.619  1.00  0.00     0.048 C 
HETATM   20  C3  UNL     1      15.778  -6.555  55.158  1.00  0.00     0.148 C 
BRANCH  20  21
HETATM   21  O1  UNL     1      16.352  -7.468  54.448  1.00  0.00    -0.363 OA
BRANCH  21  22
HETATM   22  C2  UNL     1      16.930  -8.386  53.733  1.00  0.00     0.170 C 
HETATM   23  C1  UNL     1      18.304  -7.922  53.197  1.00  0.00     0.034 C 
ENDBRANCH  21  22
ENDBRANCH  20  21
BRANCH  19  24
HETATM   24  C5  UNL     1      14.669  -4.470  55.500  1.00  0.00     0.251 C 
HETATM   25  O2  UNL     1      13.870  -4.847  56.403  1.00  0.00    -0.268 OA
HETATM   26  N1  UNL     1      14.875  -3.080  55.463  1.00  0.00    -0.352 N 
ATOM     27  H1  UNL     1      15.508  -2.706  54.755  1.00  0.00     0.163 HD
BRANCH  26  28
HETATM   28  C6  UNL     1      14.241  -2.146  56.373  1.00  0.00     0.169 C 
BRANCH  28  29
HETATM   29  C7  UNL     1      12.964  -1.593  55.783  1.00  0.00     0.001 A 
HETATM   30  C8  UNL     1      12.472  -0.321  55.912  1.00  0.00     0.017 A 
HETATM   31  C9  UNL     1      11.311  -0.050  55.297  1.00  0.00     0.015 A 
HETATM   32  C10 UNL     1      10.717  -1.062  54.595  1.00  0.00    -0.021 A 
HETATM   33  C11 UNL     1       9.422  -1.016  53.823  1.00  0.00     0.056 C 
HETATM   34  S1  UNL     1      11.796  -2.362  54.813  1.00  0.00    -0.098 SA
ENDBRANCH  28  29
ENDBRANCH  26  28
ENDBRANCH  19  24
ENDBRANCH   1  19
BRANCH  10  35
HETATM   35  C19 UNL     1      12.390  -1.092  50.292  1.00  0.00     0.405 C 
HETATM   36  F1  UNL     1      11.735  -0.645  49.191  1.00  0.00    -0.207 F 
HETATM   37  F2  UNL     1      11.737  -0.609  51.433  1.00  0.00    -0.207 F 
ENDBRANCH  10  35
TORSDOF 7
ENDMDL
MODEL 4
REMARK VINA RESULT: -8.383434386      0.974      1.246
REMARK  7 active torsions:
REMARK  status: ('A' for Active; 'I' for Inactive)
REMARK    1  A    between atoms: C2_2  and  O1_3 
REMARK    2  A    between atoms: O1_3  and  C3_4 
REMARK    3  A    between atoms: C4_5  and  C5_6 
REMARK    4  A    between atoms: C4_5  and  C12_17 
REMARK       I    between atoms: C5_6  and  N1_8 
REMARK    5  A    between atoms: N1_8  and  C6_10 
REMARK    6  A    between atoms: C6_10  and  C7_11 
REMARK    7  A    between atoms: C18_26  and  C19_27 
ROOT
HETATM    1  C12 UNL     1      15.075  -5.064  53.051  1.00  0.00     0.116 C 
HETATM    2  C13 UNL     1      13.959  -4.033  52.722  1.00  0.00     0.141 C 
HETATM    3  N2  UNL     1      14.218  -3.193  51.617  1.00  0.00    -0.387 N 
ATOM      4  H2  UNL     1      13.452  -3.230  50.945  1.00  0.00     0.159 HD
HETATM    5  C14 UNL     1      15.271  -2.284  51.158  1.00  0.00     0.063 A 
HETATM    6  C15 UNL     1      16.614  -2.631  51.204  1.00  0.00     0.095 A 
HETATM    7  S2  UNL     1      17.443  -1.308  50.589  1.00  0.00    -0.065 SA
HETATM    8  C16 UNL     1      16.106  -0.298  50.266  1.00  0.00     0.106 A 
HETATM    9  C17 UNL     1      15.015  -1.032  50.653  1.00  0.00     0.056 A 
HETATM   10  C18 UNL     1      13.944  -0.167  50.386  1.00  0.00     0.105 A 
HETATM   11  N3  UNL     1      14.457   1.002  49.866  1.00  0.00    -0.296 N 
ATOM     12  H3  UNL     1      13.897   1.806  49.582  1.00  0.00     0.187 HD
HETATM   13  N4  UNL     1      15.751   0.937  49.788  1.00  0.00    -0.288 N 
HETATM   14  C20 UNL     1      16.663   1.937  49.305  1.00  0.00     0.178 C 
HETATM   15  C21 UNL     1      17.280  -3.920  51.716  1.00  0.00     0.332 C 
HETATM   16  F3  UNL     1      17.865  -4.600  50.660  1.00  0.00    -0.186 F 
HETATM   17  F4  UNL     1      18.386  -3.476  52.464  1.00  0.00    -0.186 F 
HETATM   18  C22 UNL     1      16.244  -4.599  52.420  1.00  0.00    -0.090 C 
ENDROOT
BRANCH   1  19
HETATM   19  C4  UNL     1      15.069  -5.234  54.538  1.00  0.00     0.048 C 
HETATM   20  C3  UNL     1      15.543  -6.409  55.019  1.00  0.00     0.148 C 
BRANCH  20  21
HETATM   21  O1  UNL     1      15.989  -7.346  54.250  1.00  0.00    -0.363 OA
BRANCH  21  22
HETATM   22  C2  UNL     1      16.437  -8.288  53.477  1.00  0.00     0.170 C 
HETATM   23  C1  UNL     1      17.798  -7.916  52.842  1.00  0.00     0.034 C 
ENDBRANCH  21  22
ENDBRANCH  20  21
BRANCH  19  24
HETATM   24  C5  UNL     1      14.600  -4.266  55.480  1.00  0.00     0.251 C 
HETATM   25  O2  UNL     1      15.312  -3.276  55.807  1.00  0.00    -0.268 OA
HETATM   26  N1  UNL     1      13.348  -4.306  56.120  1.00  0.00    -0.352 N 
ATOM     27  H1  UNL     1      12.723  -5.082  55.904  1.00  0.00     0.163 HD
BRANCH  26  28
HETATM   28  C6  UNL     1      12.896  -3.308  57.069  1.00  0.00     0.169 C 
BRANCH  28  29
HETATM   29  C7  UNL     1      11.461  -2.914  56.803  1.00  0.00     0.001 A 
HETATM   30  C8  UNL     1      11.008  -1.980  55.909  1.00  0.00     0.017 A 
HETATM   31  C9  UNL     1       9.681  -1.794  55.840  1.00  0.00     0.015 A 
HETATM   32  C10 UNL     1       8.894  -2.548  56.665  1.00  0.00    -0.021 A 
HETATM   33  C11 UNL     1       7.390  -2.529  56.780  1.00  0.00     0.056 C 
HETATM   34  S1  UNL     1      10.027  -3.497  57.512  1.00  0.00    -0.098 SA
ENDBRANCH  28  29
ENDBRANCH  26  28
ENDBRANCH  19  24
ENDBRANCH   1  19
BRANCH  10  35
HETATM   35  C19 UNL     1      12.492  -0.390  50.578  1.00  0.00     0.405 C 
HETATM   36  F1  UNL     1      12.247  -0.679  51.882  1.00  0.00    -0.207 F 
HETATM   37  F2  UNL     1      12.041  -1.455  49.788  1.00  0.00    -0.207 F 
ENDBRANCH  10  35
TORSDOF 7
ENDMDL
MODEL 5
REMARK VINA RESULT: -8.198499325      2.233      2.501
REMARK  7 active torsions:
REMARK  status: ('A' for Active; 'I' for Inactive)
REMARK    1  A    between atoms: C2_2  and  O1_3 
REMARK    2  A    between atoms: O1_3  and  C3_4 
REMARK    3  A    between atoms: C4_5  and  C5_6 
REMARK    4  A    between atoms: C4_5  and  C12_17 
REMARK       I    between atoms: C5_6  and  N1_8 
REMARK    5  A    between atoms: N1_8  and  C6_10 
REMARK    6  A    between atoms: C6_10  and  C7_11 
REMARK    7  A    between atoms: C18_26  and  C19_27 
ROOT
HETATM    1  C12 UNL     1      15.613  -5.592  53.035  1.00  0.00     0.116 C 
HETATM    2  C13 UNL     1      14.379  -4.653  52.933  1.00  0.00     0.141 C 
HETATM    3  N2  UNL     1      14.395  -3.751  51.847  1.00  0.00    -0.387 N 
ATOM      4  H2  UNL     1      13.539  -3.829  51.298  1.00  0.00     0.159 HD
HETATM    5  C14 UNL     1      15.285  -2.735  51.281  1.00  0.00     0.063 A 
HETATM    6  C15 UNL     1      16.643  -2.963  51.106  1.00  0.00     0.095 A 
HETATM    7  S2  UNL     1      17.255  -1.549  50.441  1.00  0.00    -0.065 SA
HETATM    8  C16 UNL     1      15.806  -0.650  50.377  1.00  0.00     0.106 A 
HETATM    9  C17 UNL     1      14.853  -1.492  50.886  1.00  0.00     0.056 A 
HETATM   10  C18 UNL     1      13.686  -0.716  50.829  1.00  0.00     0.105 A 
HETATM   11  N3  UNL     1      14.014   0.513  50.300  1.00  0.00    -0.296 N 
ATOM     12  H3  UNL     1      13.354   1.275  50.146  1.00  0.00     0.187 HD
HETATM   13  N4  UNL     1      15.282   0.566  50.023  1.00  0.00    -0.288 N 
HETATM   14  C20 UNL     1      16.023   1.661  49.459  1.00  0.00     0.178 C 
HETATM   15  C21 UNL     1      17.484  -4.206  51.443  1.00  0.00     0.332 C 
HETATM   16  F3  UNL     1      17.950  -4.791  50.277  1.00  0.00    -0.186 F 
HETATM   17  F4  UNL     1      18.652  -3.695  52.037  1.00  0.00    -0.186 F 
HETATM   18  C22 UNL     1      16.628  -5.001  52.260  1.00  0.00    -0.090 C 
ENDROOT
BRANCH   1  19
HETATM   19  C4  UNL     1      15.852  -5.819  54.495  1.00  0.00     0.048 C 
HETATM   20  C3  UNL     1      16.230  -7.067  54.864  1.00  0.00     0.148 C 
BRANCH  20  21
HETATM   21  O1  UNL     1      16.388  -8.026  54.013  1.00  0.00    -0.363 OA
BRANCH  21  22
HETATM   22  C2  UNL     1      16.547  -8.990  53.158  1.00  0.00     0.170 C 
HETATM   23  C1  UNL     1      17.642  -8.663  52.115  1.00  0.00     0.034 C 
ENDBRANCH  21  22
ENDBRANCH  20  21
BRANCH  19  24
HETATM   24  C5  UNL     1      15.707  -4.834  55.522  1.00  0.00     0.251 C 
HETATM   25  O2  UNL     1      16.546  -3.899  55.650  1.00  0.00    -0.268 OA
HETATM   26  N1  UNL     1      14.661  -4.797  56.460  1.00  0.00    -0.352 N 
ATOM     27  H1  UNL     1      13.949  -5.526  56.415  1.00  0.00     0.163 HD
BRANCH  26  28
HETATM   28  C6  UNL     1      14.535  -3.782  57.488  1.00  0.00     0.169 C 
BRANCH  28  29
HETATM   29  C7  UNL     1      13.800  -2.569  56.968  1.00  0.00     0.001 A 
HETATM   30  C8  UNL     1      12.884  -2.525  55.950  1.00  0.00     0.017 A 
HETATM   31  C9  UNL     1      12.354  -1.328  55.656  1.00  0.00     0.015 A 
HETATM   32  C10 UNL     1      12.771  -0.255  56.393  1.00  0.00    -0.021 A 
HETATM   33  C11 UNL     1      12.333   1.183  56.263  1.00  0.00     0.056 C 
HETATM   34  S1  UNL     1      13.890  -0.947  57.476  1.00  0.00    -0.098 SA
ENDBRANCH  28  29
ENDBRANCH  26  28
ENDBRANCH  19  24
ENDBRANCH   1  19
BRANCH  10  35
HETATM   35  C19 UNL     1      12.305  -1.074  51.228  1.00  0.00     0.405 C 
HETATM   36  F1  UNL     1      11.447  -0.753  50.226  1.00  0.00    -0.207 F 
HETATM   37  F2  UNL     1      11.924  -0.384  52.386  1.00  0.00    -0.207 F 
ENDBRANCH  10  35
TORSDOF 7
ENDMDL
