MODEL 1
REMARK VINA RESULT: -5.229783937      0.000      0.000
REMARK  6 active torsions:
REMARK  status: ('A' for Active; 'I' for Inactive)
REMARK    1  A    between atoms: N1_1  and  C1_5 
REMARK    2  A    between atoms: C1_5  and  O1_6 
REMARK    3  A    between atoms: C1_5  and  C2_8 
REMARK    4  A    between atoms: C2_8  and  O2_9 
REMARK    5  A    between atoms: C2_8  and  N2_11 
REMARK       I    between atoms: N2_11  and  C3_13 
REMARK    6  A    between atoms: C3_13  and  C4_15 
ROOT
HETATM    1  N2  UNL     1      25.227  71.505  55.650  1.00  0.00    -0.302 N 
ATOM      2  H2  UNL     1      25.604  72.244  55.056  1.00  0.00     0.171 HD
HETATM    3  C3  UNL     1      26.149  70.898  56.502  1.00  0.00     0.276 C 
HETATM    4  O3  UNL     1      25.842  69.986  57.283  1.00  0.00    -0.266 OA
ENDROOT
BRANCH   1   5
HETATM    5  C2  UNL     1      23.875  71.251  55.492  1.00  0.00     0.176 C 
BRANCH   5   6
HETATM    6  C1  UNL     1      22.658  71.994  55.679  1.00  0.00     0.392 C 
BRANCH   6   7
HETATM    7  N1  UNL     1      22.312  72.592  54.357  1.00  0.00    -0.045 N 
ATOM      8  H13 UNL     1      22.366  71.921  53.590  1.00  0.00     0.277 HD
ATOM      9  H12 UNL     1      21.321  72.814  54.268  1.00  0.00     0.277 HD
ATOM     10  H11 UNL     1      22.916  73.402  54.221  1.00  0.00     0.277 HD
ENDBRANCH   6   7
BRANCH   6  11
HETATM   11  O1  UNL     1      21.540  71.406  56.163  1.00  0.00    -0.364 OA
ATOM     12  H1  UNL     1      21.814  70.745  56.787  1.00  0.00     0.212 HD
ENDBRANCH   6  11
ENDBRANCH   5   6
BRANCH   5  13
HETATM   13  O2  UNL     1      23.645  70.018  55.059  1.00  0.00    -0.346 OA
ATOM     14  H2  UNL     1      24.423  69.618  54.690  1.00  0.00     0.219 HD
ENDBRANCH   5  13
ENDBRANCH   1   5
BRANCH   3  15
HETATM   15  C4  UNL     1      27.583  71.320  56.525  1.00  0.00     0.131 A 
HETATM   16  C5  UNL     1      28.072  72.593  56.659  1.00  0.00     0.141 A 
HETATM   17  N3  UNL     1      29.409  72.484  56.625  1.00  0.00    -0.293 N 
HETATM   18  N4  UNL     1      29.757  71.214  56.479  1.00  0.00    -0.022 NA
ATOM     19  H3  UNL     1      30.062  73.264  56.701  1.00  0.00     0.183 HD
HETATM   20  N5  UNL     1      28.639  70.484  56.416  1.00  0.00    -0.278 N 
ATOM     21  H5  UNL     1      28.592  69.471  56.305  1.00  0.00     0.184 HD
ENDBRANCH   3  15
TORSDOF 6
ENDMDL
MODEL 2
REMARK VINA RESULT: -5.090668737      0.571      1.010
REMARK  6 active torsions:
REMARK  status: ('A' for Active; 'I' for Inactive)
REMARK    1  A    between atoms: N1_1  and  C1_5 
REMARK    2  A    between atoms: C1_5  and  O1_6 
REMARK    3  A    between atoms: C1_5  and  C2_8 
REMARK    4  A    between atoms: C2_8  and  O2_9 
REMARK    5  A    between atoms: C2_8  and  N2_11 
REMARK       I    between atoms: N2_11  and  C3_13 
REMARK    6  A    between atoms: C3_13  and  C4_15 
ROOT
HETATM    1  N2  UNL     1      25.215  71.538  55.639  1.00  0.00    -0.302 N 
ATOM      2  H2  UNL     1      25.559  72.308  55.066  1.00  0.00     0.171 HD
HETATM    3  C3  UNL     1      26.164  70.944  56.470  1.00  0.00     0.276 C 
HETATM    4  O3  UNL     1      25.897  69.998  57.226  1.00  0.00    -0.266 OA
ENDROOT
BRANCH   1   5
HETATM    5  C2  UNL     1      23.873  71.233  55.477  1.00  0.00     0.176 C 
BRANCH   5   6
HETATM    6  C1  UNL     1      22.630  71.932  55.660  1.00  0.00     0.392 C 
BRANCH   6   7
HETATM    7  N1  UNL     1      22.242  72.474  54.325  1.00  0.00    -0.045 N 
ATOM      8  H13 UNL     1      22.659  71.960  53.550  1.00  0.00     0.277 HD
ATOM      9  H12 UNL     1      21.265  72.297  54.092  1.00  0.00     0.277 HD
ATOM     10  H11 UNL     1      22.479  73.467  54.318  1.00  0.00     0.277 HD
ENDBRANCH   6   7
BRANCH   6  11
HETATM   11  O1  UNL     1      21.543  71.315  56.177  1.00  0.00    -0.364 OA
ATOM     12  H1  UNL     1      21.854  70.617  56.740  1.00  0.00     0.212 HD
ENDBRANCH   6  11
ENDBRANCH   5   6
BRANCH   5  13
HETATM   13  O2  UNL     1      23.690  69.992  55.048  1.00  0.00    -0.346 OA
ATOM     14  H2  UNL     1      24.509  69.565  54.827  1.00  0.00     0.219 HD
ENDBRANCH   5  13
ENDBRANCH   1   5
BRANCH   3  15
HETATM   15  C4  UNL     1      27.580  71.422  56.501  1.00  0.00     0.131 A 
HETATM   16  C5  UNL     1      28.711  70.661  56.638  1.00  0.00     0.141 A 
HETATM   17  N3  UNL     1      29.743  71.518  56.611  1.00  0.00    -0.293 N 
HETATM   18  N4  UNL     1      29.299  72.757  56.464  1.00  0.00    -0.022 NA
ATOM     19  H3  UNL     1      30.725  71.253  56.691  1.00  0.00     0.183 HD
HETATM   20  N5  UNL     1      27.965  72.713  56.394  1.00  0.00    -0.278 N 
ATOM     21  H5  UNL     1      27.346  73.515  56.280  1.00  0.00     0.184 HD
ENDBRANCH   3  15
TORSDOF 6
ENDMDL
MODEL 3
REMARK VINA RESULT: -5.017820053      4.630      6.870
REMARK  6 active torsions:
REMARK  status: ('A' for Active; 'I' for Inactive)
REMARK    1  A    between atoms: N1_1  and  C1_5 
REMARK    2  A    between atoms: C1_5  and  O1_6 
REMARK    3  A    between atoms: C1_5  and  C2_8 
REMARK    4  A    between atoms: C2_8  and  O2_9 
REMARK    5  A    between atoms: C2_8  and  N2_11 
REMARK       I    between atoms: N2_11  and  C3_13 
REMARK    6  A    between atoms: C3_13  and  C4_15 
ROOT
HETATM    1  N2  UNL     1      21.363  72.027  57.837  1.00  0.00    -0.302 N 
ATOM      2  H2  UNL     1      21.476  73.025  58.012  1.00  0.00     0.171 HD
HETATM    3  C3  UNL     1      20.744  71.309  58.860  1.00  0.00     0.276 C 
HETATM    4  O3  UNL     1      20.535  70.089  58.793  1.00  0.00    -0.266 OA
ENDROOT
BRANCH   1   5
HETATM    5  C2  UNL     1      21.845  71.581  56.617  1.00  0.00     0.176 C 
BRANCH   5   6
HETATM    6  C1  UNL     1      22.398  72.197  55.442  1.00  0.00     0.392 C 
BRANCH   6   7
HETATM    7  N1  UNL     1      23.799  71.700  55.315  1.00  0.00    -0.045 N 
ATOM      8  H13 UNL     1      23.902  70.976  54.605  1.00  0.00     0.277 HD
ATOM      9  H12 UNL     1      24.428  72.386  54.898  1.00  0.00     0.277 HD
ATOM     10  H11 UNL     1      24.100  71.396  56.242  1.00  0.00     0.277 HD
ENDBRANCH   6   7
BRANCH   6  11
HETATM   11  O1  UNL     1      21.810  72.061  54.231  1.00  0.00    -0.364 OA
ATOM     12  H1  UNL     1      21.184  72.768  54.139  1.00  0.00     0.212 HD
ENDBRANCH   6  11
ENDBRANCH   5   6
BRANCH   5  13
HETATM   13  O2  UNL     1      21.782  70.261  56.507  1.00  0.00    -0.346 OA
ATOM     14  H2  UNL     1      21.880  69.972  55.607  1.00  0.00     0.219 HD
ENDBRANCH   5  13
ENDBRANCH   1   5
BRANCH   3  15
HETATM   15  C4  UNL     1      20.289  71.980  60.116  1.00  0.00     0.131 A 
HETATM   16  C5  UNL     1      19.969  71.383  61.307  1.00  0.00     0.141 A 
HETATM   17  N3  UNL     1      19.618  72.376  62.139  1.00  0.00    -0.293 N 
HETATM   18  N4  UNL     1      19.708  73.542  61.517  1.00  0.00    -0.022 NA
ATOM     19  H3  UNL     1      19.325  72.250  63.108  1.00  0.00     0.183 HD
HETATM   20  N5  UNL     1      20.122  73.313  60.268  1.00  0.00    -0.278 N 
ATOM     21  H5  UNL     1      20.284  74.021  59.552  1.00  0.00     0.184 HD
ENDBRANCH   3  15
TORSDOF 6
ENDMDL
MODEL 4
REMARK VINA RESULT: -4.990308324      3.899      6.408
REMARK  6 active torsions:
REMARK  status: ('A' for Active; 'I' for Inactive)
REMARK    1  A    between atoms: N1_1  and  C1_5 
REMARK    2  A    between atoms: C1_5  and  O1_6 
REMARK    3  A    between atoms: C1_5  and  C2_8 
REMARK    4  A    between atoms: C2_8  and  O2_9 
REMARK    5  A    between atoms: C2_8  and  N2_11 
REMARK       I    between atoms: N2_11  and  C3_13 
REMARK    6  A    between atoms: C3_13  and  C4_15 
ROOT
HETATM    1  N2  UNL     1      21.734  71.904  56.908  1.00  0.00    -0.302 N 
ATOM      2  H2  UNL     1      21.740  72.894  57.151  1.00  0.00     0.171 HD
HETATM    3  C3  UNL     1      21.194  71.057  57.875  1.00  0.00     0.276 C 
HETATM    4  O3  UNL     1      21.117  69.829  57.725  1.00  0.00    -0.266 OA
ENDROOT
BRANCH   1   5
HETATM    5  C2  UNL     1      22.264  71.596  55.666  1.00  0.00     0.176 C 
BRANCH   5   6
HETATM    6  C1  UNL     1      23.318  70.749  55.178  1.00  0.00     0.392 C 
BRANCH   6   7
HETATM    7  N1  UNL     1      24.596  71.492  55.383  1.00  0.00    -0.045 N 
ATOM      8  H13 UNL     1      24.489  72.308  55.985  1.00  0.00     0.277 HD
ATOM      9  H12 UNL     1      25.263  70.985  55.963  1.00  0.00     0.277 HD
ATOM     10  H11 UNL     1      24.965  71.724  54.460  1.00  0.00     0.277 HD
ENDBRANCH   6   7
BRANCH   6  11
HETATM   11  O1  UNL     1      23.498  69.497  55.658  1.00  0.00    -0.364 OA
ATOM     12  H1  UNL     1      22.792  69.324  56.270  1.00  0.00     0.212 HD
ENDBRANCH   6  11
ENDBRANCH   5   6
BRANCH   5  13
HETATM   13  O2  UNL     1      21.646  72.239  54.685  1.00  0.00    -0.346 OA
ATOM     14  H2  UNL     1      20.848  71.800  54.416  1.00  0.00     0.219 HD
ENDBRANCH   5  13
ENDBRANCH   1   5
BRANCH   3  15
HETATM   15  C4  UNL     1      20.667  71.589  59.169  1.00  0.00     0.131 A 
HETATM   16  C5  UNL     1      20.397  70.880  60.311  1.00  0.00     0.141 A 
HETATM   17  N3  UNL     1      19.945  71.772  61.206  1.00  0.00    -0.293 N 
HETATM   18  N4  UNL     1      19.927  72.984  60.669  1.00  0.00    -0.022 NA
ATOM     19  H3  UNL     1      19.659  71.550  62.159  1.00  0.00     0.183 HD
HETATM   20  N5  UNL     1      20.371  72.885  59.412  1.00  0.00    -0.278 N 
ATOM     21  H5  UNL     1      20.469  73.655  58.751  1.00  0.00     0.184 HD
ENDBRANCH   3  15
TORSDOF 6
ENDMDL
MODEL 5
REMARK VINA RESULT: -4.736174455      3.438      3.753
REMARK  6 active torsions:
REMARK  status: ('A' for Active; 'I' for Inactive)
REMARK    1  A    between atoms: N1_1  and  C1_5 
REMARK    2  A    between atoms: C1_5  and  O1_6 
REMARK    3  A    between atoms: C1_5  and  C2_8 
REMARK    4  A    between atoms: C2_8  and  O2_9 
REMARK    5  A    between atoms: C2_8  and  N2_11 
REMARK       I    between atoms: N2_11  and  C3_13 
REMARK    6  A    between atoms: C3_13  and  C4_15 
ROOT
HETATM    1  N2  UNL     1      23.440  70.494  56.856  1.00  0.00    -0.302 N 
ATOM      2  H2  UNL     1      22.661  70.387  57.506  1.00  0.00     0.171 HD
HETATM    3  C3  UNL     1      24.705  70.279  57.401  1.00  0.00     0.276 C 
HETATM    4  O3  UNL     1      25.747  70.371  56.737  1.00  0.00    -0.266 OA
ENDROOT
BRANCH   1   5
HETATM    5  C2  UNL     1      23.086  70.832  55.560  1.00  0.00     0.176 C 
BRANCH   5   6
HETATM    6  C1  UNL     1      22.276  71.848  54.945  1.00  0.00     0.392 C 
BRANCH   6   7
HETATM    7  N1  UNL     1      23.038  73.126  55.050  1.00  0.00    -0.045 N 
ATOM      8  H13 UNL     1      23.631  73.170  55.879  1.00  0.00     0.277 HD
ATOM      9  H12 UNL     1      23.778  73.207  54.353  1.00  0.00     0.277 HD
ATOM     10  H11 UNL     1      22.362  73.889  55.003  1.00  0.00     0.277 HD
ENDBRANCH   6   7
BRANCH   6  11
HETATM   11  O1  UNL     1      21.852  71.733  53.666  1.00  0.00    -0.364 OA
ATOM     12  H1  UNL     1      20.952  71.430  53.691  1.00  0.00     0.212 HD
ENDBRANCH   6  11
ENDBRANCH   5   6
BRANCH   5  13
HETATM   13  O2  UNL     1      23.630  70.017  54.665  1.00  0.00    -0.346 OA
ATOM     14  H2  UNL     1      24.109  70.490  53.996  1.00  0.00     0.219 HD
ENDBRANCH   5  13
ENDBRANCH   1   5
BRANCH   3  15
HETATM   15  C4  UNL     1      24.881  69.918  58.841  1.00  0.00     0.131 A 
HETATM   16  C5  UNL     1      25.624  68.888  59.355  1.00  0.00     0.141 A 
HETATM   17  N3  UNL     1      25.485  68.955  60.688  1.00  0.00    -0.293 N 
HETATM   18  N4  UNL     1      24.697  69.971  61.010  1.00  0.00    -0.022 NA
ATOM     19  H3  UNL     1      25.921  68.318  61.354  1.00  0.00     0.183 HD
HETATM   20  N5  UNL     1      24.317  70.574  59.880  1.00  0.00    -0.278 N 
ATOM     21  H5  UNL     1      23.708  71.389  59.813  1.00  0.00     0.184 HD
ENDBRANCH   3  15
TORSDOF 6
ENDMDL
