MODEL 1
REMARK VINA RESULT: -8.453713289      0.000      0.000
REMARK  10 active torsions:
REMARK  status: ('A' for Active; 'I' for Inactive)
REMARK    1  A    between atoms: C2_2  and  O1_5 
REMARK    2  A    between atoms: O1_5  and  C5_6 
REMARK       I    between atoms: C5_6  and  N1_8 
REMARK    3  A    between atoms: C8_11  and  N2_12 
REMARK       I    between atoms: N2_12  and  C9_14 
REMARK    4  A    between atoms: C9_14  and  C10_16 
REMARK    5  A    between atoms: C10_16  and  O4_17 
REMARK    6  A    between atoms: C10_16  and  N3_19 
REMARK    7  A    between atoms: C11_20  and  C12_21 
REMARK    8  A    between atoms: C17_31  and  C18_32 
REMARK    9  A    between atoms: C18_32  and  C19_34 
REMARK   10  A    between atoms: C19_34  and  C20_35 
ROOT
HETATM    1  N3  UNL     1      -0.074  -6.042 -17.396  1.00  0.00    -0.273 N 
HETATM    2  C11 UNL     1       0.356  -5.977 -18.749  1.00  0.00     0.119 C 
HETATM    3  C13 UNL     1       1.788  -6.502 -18.756  1.00  0.00     0.112 C 
HETATM    4  C14 UNL     1       2.351  -6.665 -20.108  1.00  0.00     0.039 C 
HETATM    5  C15 UNL     1       2.679  -5.848 -17.761  1.00  0.00     0.039 C 
HETATM    6  S1  UNL     1       1.335  -8.123 -18.040  1.00  0.00     0.205 S 
HETATM    7  O7  UNL     1       0.804  -8.932 -19.152  1.00  0.00    -0.220 OA
HETATM    8  O8  UNL     1       2.497  -8.723 -17.348  1.00  0.00    -0.220 OA
HETATM    9  C16 UNL     1       0.099  -7.462 -16.976  1.00  0.00     0.142 C 
HETATM   10  C17 UNL     1      -1.017  -8.231 -16.567  1.00  0.00     0.092 C 
ENDROOT
BRANCH   1  11
HETATM   11  C10 UNL     1      -0.469  -5.097 -16.427  1.00  0.00     0.218 C 
BRANCH  11  12
HETATM   12  C9  UNL     1      -1.770  -4.591 -16.086  1.00  0.00     0.293 C 
HETATM   13  N2  UNL     1      -2.022  -3.935 -14.818  1.00  0.00    -0.349 N 
ATOM     14  H2  UNL     1      -1.249  -3.838 -14.159  1.00  0.00     0.163 HD
HETATM   15  O3  UNL     1      -2.766  -4.666 -16.820  1.00  0.00    -0.264 OA
BRANCH  13  16
HETATM   16  C8  UNL     1      -3.306  -3.417 -14.445  1.00  0.00     0.087 C 
HETATM   17  C7  UNL     1      -3.094  -2.411 -13.343  1.00  0.00     0.045 C 
HETATM   18  C6  UNL     1      -4.428  -1.769 -13.009  1.00  0.00     0.130 C 
HETATM   19  N1  UNL     1      -5.379  -2.792 -12.652  1.00  0.00    -0.328 N 
HETATM   20  C5  UNL     1      -6.644  -2.422 -12.163  1.00  0.00     0.363 C 
HETATM   21  C26 UNL     1      -5.033  -4.178 -12.792  1.00  0.00     0.130 C 
HETATM   22  O2  UNL     1      -7.014  -1.227 -12.009  1.00  0.00    -0.238 OA
HETATM   23  C25 UNL     1      -4.246  -4.498 -14.018  1.00  0.00     0.045 C 
BRANCH  20  24
HETATM   24  O1  UNL     1      -7.561  -3.397 -11.821  1.00  0.00    -0.294 OA
BRANCH  24  25
HETATM   25  C2  UNL     1      -8.564  -3.800 -12.731  1.00  0.00     0.061 C 
HETATM   26  C1  UNL     1      -8.199  -5.187 -13.229  1.00  0.00     0.046 C 
HETATM   27  C3  UNL     1      -9.895  -3.940 -12.002  1.00  0.00     0.046 C 
HETATM   28  C4  UNL     1      -8.726  -2.866 -13.892  1.00  0.00     0.046 C 
ENDBRANCH  24  25
ENDBRANCH  20  24
ENDBRANCH  13  16
ENDBRANCH  11  12
BRANCH  11  29
HETATM   29  O4  UNL     1       0.461  -4.543 -15.682  1.00  0.00    -0.342 OA
ATOM     30  H4  UNL     1       1.174  -4.216 -16.217  1.00  0.00     0.219 HD
ENDBRANCH  11  29
ENDBRANCH   1  11
BRANCH   2  31
HETATM   31  C12 UNL     1       0.129  -4.898 -19.630  1.00  0.00     0.225 C 
HETATM   32  O5  UNL     1      -0.915  -4.175 -19.647  1.00  0.00    -0.643 OA
HETATM   33  O6  UNL     1       1.087  -4.512 -20.596  1.00  0.00    -0.643 OA
ENDBRANCH   2  31
BRANCH  10  34
HETATM   34  C18 UNL     1      -2.192  -8.540 -17.335  1.00  0.00     0.152 C 
HETATM   35  O9  UNL     1      -2.280  -8.500 -18.523  1.00  0.00    -0.293 OA
BRANCH  34  36
HETATM   36  C19 UNL     1      -3.416  -8.950 -16.565  1.00  0.00     0.087 C 
BRANCH  36  37
HETATM   37  C20 UNL     1      -4.459  -7.903 -16.470  1.00  0.00    -0.007 C 
HETATM   38  C21 UNL     1      -5.816  -8.262 -16.964  1.00  0.00     0.005 C 
HETATM   39  C22 UNL     1      -6.582  -8.762 -15.754  1.00  0.00     0.000 C 
HETATM   40  C23 UNL     1      -6.076  -7.872 -14.653  1.00  0.00     0.000 C 
HETATM   41  C24 UNL     1      -4.644  -7.584 -14.989  1.00  0.00     0.005 C 
ENDBRANCH  36  37
ENDBRANCH  34  36
ENDBRANCH  10  34
TORSDOF 10
ENDMDL
MODEL 2
REMARK VINA RESULT: -8.395522426      1.817      2.508
REMARK  10 active torsions:
REMARK  status: ('A' for Active; 'I' for Inactive)
REMARK    1  A    between atoms: C2_2  and  O1_5 
REMARK    2  A    between atoms: O1_5  and  C5_6 
REMARK       I    between atoms: C5_6  and  N1_8 
REMARK    3  A    between atoms: C8_11  and  N2_12 
REMARK       I    between atoms: N2_12  and  C9_14 
REMARK    4  A    between atoms: C9_14  and  C10_16 
REMARK    5  A    between atoms: C10_16  and  O4_17 
REMARK    6  A    between atoms: C10_16  and  N3_19 
REMARK    7  A    between atoms: C11_20  and  C12_21 
REMARK    8  A    between atoms: C17_31  and  C18_32 
REMARK    9  A    between atoms: C18_32  and  C19_34 
REMARK   10  A    between atoms: C19_34  and  C20_35 
ROOT
HETATM    1  N3  UNL     1       0.605  -7.754 -18.077  1.00  0.00    -0.273 N 
HETATM    2  C11 UNL     1       0.822  -8.052 -19.450  1.00  0.00     0.119 C 
HETATM    3  C13 UNL     1       1.860  -9.169 -19.475  1.00  0.00     0.112 C 
HETATM    4  C14 UNL     1       2.094  -9.728 -20.818  1.00  0.00     0.039 C 
HETATM    5  C15 UNL     1       3.078  -8.883 -18.672  1.00  0.00     0.039 C 
HETATM    6  S1  UNL     1       0.846 -10.308 -18.464  1.00  0.00     0.205 S 
HETATM    7  O7  UNL     1      -0.140 -10.909 -19.382  1.00  0.00    -0.220 OA
HETATM    8  O8  UNL     1       1.710 -11.287 -17.769  1.00  0.00    -0.220 OA
HETATM    9  C16 UNL     1       0.192  -9.036 -17.438  1.00  0.00     0.142 C 
HETATM   10  C17 UNL     1      -1.077  -9.157 -16.823  1.00  0.00     0.092 C 
ENDROOT
BRANCH   1  11
HETATM   11  C10 UNL     1       0.808  -6.627 -17.254  1.00  0.00     0.218 C 
BRANCH  11  12
HETATM   12  C9  UNL     1      -0.024  -5.482 -17.009  1.00  0.00     0.293 C 
HETATM   13  N2  UNL     1      -0.327  -5.036 -15.663  1.00  0.00    -0.349 N 
ATOM     14  H2  UNL     1       0.066  -5.558 -14.879  1.00  0.00     0.163 HD
HETATM   15  O3  UNL     1      -0.545  -4.791 -17.897  1.00  0.00    -0.264 OA
BRANCH  13  16
HETATM   16  C8  UNL     1      -1.152  -3.898 -15.381  1.00  0.00     0.087 C 
HETATM   17  C7  UNL     1      -0.731  -3.345 -14.044  1.00  0.00     0.045 C 
HETATM   18  C6  UNL     1      -1.516  -2.074 -13.776  1.00  0.00     0.130 C 
HETATM   19  N1  UNL     1      -2.928  -2.357 -13.841  1.00  0.00    -0.328 N 
HETATM   20  C5  UNL     1      -3.852  -1.360 -13.482  1.00  0.00     0.363 C 
HETATM   21  C26 UNL     1      -3.385  -3.649 -14.266  1.00  0.00     0.130 C 
HETATM   22  O2  UNL     1      -3.524  -0.207 -13.096  1.00  0.00    -0.238 OA
HETATM   23  C25 UNL     1      -2.606  -4.242 -15.392  1.00  0.00     0.045 C 
BRANCH  20  24
HETATM   24  O1  UNL     1      -5.207  -1.623 -13.545  1.00  0.00    -0.294 OA
BRANCH  24  25
HETATM   25  C2  UNL     1      -5.981  -1.723 -12.367  1.00  0.00     0.061 C 
HETATM   26  C1  UNL     1      -7.290  -2.398 -12.734  1.00  0.00     0.046 C 
HETATM   27  C3  UNL     1      -5.286  -2.644 -11.370  1.00  0.00     0.046 C 
HETATM   28  C4  UNL     1      -6.252  -0.398 -11.719  1.00  0.00     0.046 C 
ENDBRANCH  24  25
ENDBRANCH  20  24
ENDBRANCH  13  16
ENDBRANCH  11  12
BRANCH  11  29
HETATM   29  O4  UNL     1       1.931  -6.546 -16.576  1.00  0.00    -0.342 OA
ATOM     30  H4  UNL     1       1.783  -6.714 -15.653  1.00  0.00     0.219 HD
ENDBRANCH  11  29
ENDBRANCH   1  11
BRANCH   2  31
HETATM   31  C12 UNL     1       0.970  -7.099 -20.480  1.00  0.00     0.225 C 
HETATM   32  O5  UNL     1       0.347  -7.115 -21.587  1.00  0.00    -0.643 OA
HETATM   33  O6  UNL     1       1.852  -6.000 -20.356  1.00  0.00    -0.643 OA
ENDBRANCH   2  31
BRANCH  10  34
HETATM   34  C18 UNL     1      -2.364  -8.983 -17.439  1.00  0.00     0.152 C 
HETATM   35  O9  UNL     1      -2.560  -8.728 -18.586  1.00  0.00    -0.293 OA
BRANCH  34  36
HETATM   36  C19 UNL     1      -3.566  -9.138 -16.551  1.00  0.00     0.087 C 
BRANCH  36  37
HETATM   37  C20 UNL     1      -4.479  -7.971 -16.546  1.00  0.00    -0.007 C 
HETATM   38  C21 UNL     1      -5.914  -8.240 -16.832  1.00  0.00     0.005 C 
HETATM   39  C22 UNL     1      -6.580  -8.433 -15.483  1.00  0.00     0.000 C 
HETATM   40  C23 UNL     1      -5.860  -7.438 -14.617  1.00  0.00     0.000 C 
HETATM   41  C24 UNL     1      -4.456  -7.386 -15.137  1.00  0.00     0.005 C 
ENDBRANCH  36  37
ENDBRANCH  34  36
ENDBRANCH  10  34
TORSDOF 10
ENDMDL
MODEL 3
REMARK VINA RESULT: -8.234559808      2.978      4.566
REMARK  10 active torsions:
REMARK  status: ('A' for Active; 'I' for Inactive)
REMARK    1  A    between atoms: C2_2  and  O1_5 
REMARK    2  A    between atoms: O1_5  and  C5_6 
REMARK       I    between atoms: C5_6  and  N1_8 
REMARK    3  A    between atoms: C8_11  and  N2_12 
REMARK       I    between atoms: N2_12  and  C9_14 
REMARK    4  A    between atoms: C9_14  and  C10_16 
REMARK    5  A    between atoms: C10_16  and  O4_17 
REMARK    6  A    between atoms: C10_16  and  N3_19 
REMARK    7  A    between atoms: C11_20  and  C12_21 
REMARK    8  A    between atoms: C17_31  and  C18_32 
REMARK    9  A    between atoms: C18_32  and  C19_34 
REMARK   10  A    between atoms: C19_34  and  C20_35 
ROOT
HETATM    1  N3  UNL     1      -0.323  -6.670 -17.303  1.00  0.00    -0.273 N 
HETATM    2  C11 UNL     1      -0.351  -6.496 -18.713  1.00  0.00     0.119 C 
HETATM    3  C13 UNL     1       0.193  -7.793 -19.303  1.00  0.00     0.112 C 
HETATM    4  C14 UNL     1       0.086  -7.865 -20.771  1.00  0.00     0.039 C 
HETATM    5  C15 UNL     1       1.495  -8.222 -18.729  1.00  0.00     0.039 C 
HETATM    6  S1  UNL     1      -1.079  -8.840 -18.507  1.00  0.00     0.205 S 
HETATM    7  O7  UNL     1      -2.293  -8.719 -19.335  1.00  0.00    -0.220 OA
HETATM    8  O8  UNL     1      -0.582 -10.225 -18.351  1.00  0.00    -0.220 OA
HETATM    9  C16 UNL     1      -1.123  -7.896 -17.022  1.00  0.00     0.142 C 
HETATM   10  C17 UNL     1      -2.289  -7.825 -16.222  1.00  0.00     0.092 C 
ENDROOT
BRANCH   1  11
HETATM   11  C10 UNL     1       0.354  -6.049 -16.233  1.00  0.00     0.218 C 
BRANCH  11  12
HETATM   12  C9  UNL     1       0.478  -4.662 -15.879  1.00  0.00     0.293 C 
HETATM   13  N2  UNL     1      -0.112  -4.131 -14.666  1.00  0.00    -0.349 N 
ATOM     14  H2  UNL     1      -0.626  -4.768 -14.058  1.00  0.00     0.163 HD
HETATM   15  O3  UNL     1       1.080  -3.816 -16.558  1.00  0.00    -0.264 OA
BRANCH  13  16
HETATM   16  C8  UNL     1      -0.008  -2.754 -14.282  1.00  0.00     0.087 C 
HETATM   17  C7  UNL     1       1.107  -2.640 -13.273  1.00  0.00     0.045 C 
HETATM   18  C6  UNL     1       1.308  -1.175 -12.935  1.00  0.00     0.130 C 
HETATM   19  N1  UNL     1       0.068  -0.616 -12.457  1.00  0.00    -0.328 N 
HETATM   20  C5  UNL     1       0.049   0.693 -11.946  1.00  0.00     0.363 C 
HETATM   21  C26 UNL     1      -1.138  -1.394 -12.501  1.00  0.00     0.130 C 
HETATM   22  O2  UNL     1       1.067   1.432 -11.872  1.00  0.00    -0.238 OA
HETATM   23  C25 UNL     1      -1.293  -2.226 -13.730  1.00  0.00     0.045 C 
BRANCH  20  24
HETATM   24  O1  UNL     1      -1.137   1.236 -11.489  1.00  0.00    -0.294 OA
BRANCH  24  25
HETATM   25  C2  UNL     1      -1.854   2.172 -12.267  1.00  0.00     0.061 C 
HETATM   26  C1  UNL     1      -3.328   1.830 -12.152  1.00  0.00     0.046 C 
HETATM   27  C3  UNL     1      -1.687   3.568 -11.677  1.00  0.00     0.046 C 
HETATM   28  C4  UNL     1      -1.443   2.186 -13.709  1.00  0.00     0.046 C 
ENDBRANCH  24  25
ENDBRANCH  20  24
ENDBRANCH  13  16
ENDBRANCH  11  12
BRANCH  11  29
HETATM   29  O4  UNL     1       1.009  -6.810 -15.384  1.00  0.00    -0.342 OA
ATOM     30  H4  UNL     1       1.485  -7.494 -15.840  1.00  0.00     0.219 HD
ENDBRANCH  11  29
ENDBRANCH   1  11
BRANCH   2  31
HETATM   31  C12 UNL     1       0.049  -5.332 -19.403  1.00  0.00     0.225 C 
HETATM   32  O5  UNL     1      -0.738  -4.451 -19.869  1.00  0.00    -0.643 OA
HETATM   33  O6  UNL     1       1.413  -5.035 -19.631  1.00  0.00    -0.643 OA
ENDBRANCH   2  31
BRANCH  10  34
HETATM   34  C18 UNL     1      -3.468  -7.040 -16.466  1.00  0.00     0.152 C 
HETATM   35  O9  UNL     1      -3.536  -5.851 -16.426  1.00  0.00    -0.293 OA
BRANCH  34  36
HETATM   36  C19 UNL     1      -4.725  -7.793 -16.801  1.00  0.00     0.087 C 
BRANCH  36  37
HETATM   37  C20 UNL     1      -5.429  -8.363 -15.628  1.00  0.00    -0.007 C 
HETATM   38  C21 UNL     1      -5.425  -7.549 -14.384  1.00  0.00     0.005 C 
HETATM   39  C22 UNL     1      -6.701  -6.728 -14.417  1.00  0.00     0.000 C 
HETATM   40  C23 UNL     1      -7.686  -7.679 -15.037  1.00  0.00     0.000 C 
HETATM   41  C24 UNL     1      -6.900  -8.503 -16.010  1.00  0.00     0.005 C 
ENDBRANCH  36  37
ENDBRANCH  34  36
ENDBRANCH  10  34
TORSDOF 10
ENDMDL
MODEL 4
REMARK VINA RESULT: -8.226851560      2.346      4.025
REMARK  10 active torsions:
REMARK  status: ('A' for Active; 'I' for Inactive)
REMARK    1  A    between atoms: C2_2  and  O1_5 
REMARK    2  A    between atoms: O1_5  and  C5_6 
REMARK       I    between atoms: C5_6  and  N1_8 
REMARK    3  A    between atoms: C8_11  and  N2_12 
REMARK       I    between atoms: N2_12  and  C9_14 
REMARK    4  A    between atoms: C9_14  and  C10_16 
REMARK    5  A    between atoms: C10_16  and  O4_17 
REMARK    6  A    between atoms: C10_16  and  N3_19 
REMARK    7  A    between atoms: C11_20  and  C12_21 
REMARK    8  A    between atoms: C17_31  and  C18_32 
REMARK    9  A    between atoms: C18_32  and  C19_34 
REMARK   10  A    between atoms: C19_34  and  C20_35 
ROOT
HETATM    1  N3  UNL     1      -0.032  -6.286 -17.250  1.00  0.00    -0.273 N 
HETATM    2  C11 UNL     1      -0.075  -6.016 -18.644  1.00  0.00     0.119 C 
HETATM    3  C13 UNL     1       0.552  -7.230 -19.323  1.00  0.00     0.112 C 
HETATM    4  C14 UNL     1       0.448  -7.204 -20.792  1.00  0.00     0.039 C 
HETATM    5  C15 UNL     1       1.881  -7.611 -18.777  1.00  0.00     0.039 C 
HETATM    6  S1  UNL     1      -0.646  -8.411 -18.605  1.00  0.00     0.205 S 
HETATM    7  O7  UNL     1      -1.867  -8.312 -19.426  1.00  0.00    -0.220 OA
HETATM    8  O8  UNL     1      -0.058  -9.768 -18.546  1.00  0.00    -0.220 OA
HETATM    9  C16 UNL     1      -0.749  -7.579 -17.058  1.00  0.00     0.142 C 
HETATM   10  C17 UNL     1      -1.915  -7.642 -16.257  1.00  0.00     0.092 C 
ENDROOT
BRANCH   1  11
HETATM   11  C10 UNL     1       0.605  -5.699 -16.137  1.00  0.00     0.218 C 
BRANCH  11  12
HETATM   12  C9  UNL     1       0.131  -4.730 -15.188  1.00  0.00     0.293 C 
HETATM   13  N2  UNL     1      -1.074  -3.960 -15.424  1.00  0.00    -0.349 N 
ATOM     14  H2  UNL     1      -1.589  -4.119 -16.290  1.00  0.00     0.163 HD
HETATM   15  O3  UNL     1       0.692  -4.470 -14.113  1.00  0.00    -0.264 OA
BRANCH  13  16
HETATM   16  C8  UNL     1      -1.576  -2.987 -14.499  1.00  0.00     0.087 C 
HETATM   17  C7  UNL     1      -3.071  -2.912 -14.676  1.00  0.00     0.045 C 
HETATM   18  C6  UNL     1      -3.637  -1.969 -13.631  1.00  0.00     0.130 C 
HETATM   19  N1  UNL     1      -2.999  -0.682 -13.748  1.00  0.00    -0.328 N 
HETATM   20  C5  UNL     1      -3.467   0.396 -12.977  1.00  0.00     0.363 C 
HETATM   21  C26 UNL     1      -1.896  -0.503 -14.649  1.00  0.00     0.130 C 
HETATM   22  O2  UNL     1      -4.432   0.315 -12.170  1.00  0.00    -0.238 OA
HETATM   23  C25 UNL     1      -0.941  -1.649 -14.692  1.00  0.00     0.045 C 
BRANCH  20  24
HETATM   24  O1  UNL     1      -2.859   1.632 -13.082  1.00  0.00    -0.294 OA
BRANCH  24  25
HETATM   25  C2  UNL     1      -2.010   2.112 -12.059  1.00  0.00     0.061 C 
HETATM   26  C1  UNL     1      -1.214   3.271 -12.631  1.00  0.00     0.046 C 
HETATM   27  C3  UNL     1      -2.847   2.684 -10.921  1.00  0.00     0.046 C 
HETATM   28  C4  UNL     1      -1.079   1.069 -11.519  1.00  0.00     0.046 C 
ENDBRANCH  24  25
ENDBRANCH  20  24
ENDBRANCH  13  16
ENDBRANCH  11  12
BRANCH  11  29
HETATM   29  O4  UNL     1       1.845  -6.048 -15.873  1.00  0.00    -0.342 OA
ATOM     30  H4  UNL     1       1.915  -6.413 -14.998  1.00  0.00     0.219 HD
ENDBRANCH  11  29
ENDBRANCH   1  11
BRANCH   2  31
HETATM   31  C12 UNL     1       0.247  -4.783 -19.249  1.00  0.00     0.225 C 
HETATM   32  O5  UNL     1       1.392  -4.234 -19.229  1.00  0.00    -0.643 OA
HETATM   33  O6  UNL     1      -0.715  -4.032 -19.964  1.00  0.00    -0.643 OA
ENDBRANCH   2  31
BRANCH  10  34
HETATM   34  C18 UNL     1      -3.144  -6.921 -16.449  1.00  0.00     0.152 C 
HETATM   35  O9  UNL     1      -3.269  -5.736 -16.428  1.00  0.00    -0.293 OA
BRANCH  34  36
HETATM   36  C19 UNL     1      -4.378  -7.742 -16.697  1.00  0.00     0.087 C 
BRANCH  36  37
HETATM   37  C20 UNL     1      -5.017  -8.275 -15.471  1.00  0.00    -0.007 C 
HETATM   38  C21 UNL     1      -5.085  -7.362 -14.299  1.00  0.00     0.005 C 
HETATM   39  C22 UNL     1      -6.435  -6.674 -14.384  1.00  0.00     0.000 C 
HETATM   40  C23 UNL     1      -7.327  -7.765 -14.909  1.00  0.00     0.000 C 
HETATM   41  C24 UNL     1      -6.469  -8.589 -15.819  1.00  0.00     0.005 C 
ENDBRANCH  36  37
ENDBRANCH  34  36
ENDBRANCH  10  34
TORSDOF 10
ENDMDL
MODEL 5
REMARK VINA RESULT: -8.043578788      2.465      4.936
REMARK  10 active torsions:
REMARK  status: ('A' for Active; 'I' for Inactive)
REMARK    1  A    between atoms: C2_2  and  O1_5 
REMARK    2  A    between atoms: O1_5  and  C5_6 
REMARK       I    between atoms: C5_6  and  N1_8 
REMARK    3  A    between atoms: C8_11  and  N2_12 
REMARK       I    between atoms: N2_12  and  C9_14 
REMARK    4  A    between atoms: C9_14  and  C10_16 
REMARK    5  A    between atoms: C10_16  and  O4_17 
REMARK    6  A    between atoms: C10_16  and  N3_19 
REMARK    7  A    between atoms: C11_20  and  C12_21 
REMARK    8  A    between atoms: C17_31  and  C18_32 
REMARK    9  A    between atoms: C18_32  and  C19_34 
REMARK   10  A    between atoms: C19_34  and  C20_35 
ROOT
HETATM    1  N3  UNL     1      -0.638  -9.018 -18.605  1.00  0.00    -0.273 N 
HETATM    2  C11 UNL     1       0.482  -9.758 -18.138  1.00  0.00     0.119 C 
HETATM    3  C13 UNL     1       1.092 -10.414 -19.372  1.00  0.00     0.112 C 
HETATM    4  C14 UNL     1       2.371 -11.096 -19.107  1.00  0.00     0.039 C 
HETATM    5  C15 UNL     1       0.118 -11.168 -20.203  1.00  0.00     0.039 C 
HETATM    6  S1  UNL     1       1.370  -8.825 -20.237  1.00  0.00     0.205 S 
HETATM    7  O7  UNL     1       2.603  -8.253 -19.664  1.00  0.00    -0.220 OA
HETATM    8  O8  UNL     1       1.417  -9.037 -21.700  1.00  0.00    -0.220 OA
HETATM    9  C16 UNL     1      -0.111  -8.085 -19.642  1.00  0.00     0.142 C 
HETATM   10  C17 UNL     1      -0.225  -6.684 -19.471  1.00  0.00     0.092 C 
ENDROOT
BRANCH   1  11
HETATM   11  C10 UNL     1      -2.032  -9.077 -18.398  1.00  0.00     0.218 C 
BRANCH  11  12
HETATM   12  C9  UNL     1      -2.815  -8.849 -17.215  1.00  0.00     0.293 C 
HETATM   13  N2  UNL     1      -4.260  -8.744 -17.269  1.00  0.00    -0.349 N 
ATOM     14  H2  UNL     1      -4.720  -8.834 -18.175  1.00  0.00     0.163 HD
HETATM   15  O3  UNL     1      -2.343  -8.724 -16.075  1.00  0.00    -0.264 OA
BRANCH  13  16
HETATM   16  C8  UNL     1      -5.073  -8.518 -16.110  1.00  0.00     0.087 C 
HETATM   17  C7  UNL     1      -6.488  -8.296 -16.576  1.00  0.00     0.045 C 
HETATM   18  C6  UNL     1      -7.385  -8.166 -15.360  1.00  0.00     0.130 C 
HETATM   19  N1  UNL     1      -6.904  -7.099 -14.518  1.00  0.00    -0.328 N 
HETATM   20  C5  UNL     1      -7.663  -6.698 -13.405  1.00  0.00     0.363 C 
HETATM   21  C26 UNL     1      -5.661  -6.449 -14.819  1.00  0.00     0.130 C 
HETATM   22  O2  UNL     1      -8.764  -7.219 -13.083  1.00  0.00    -0.238 OA
HETATM   23  C25 UNL     1      -4.583  -7.364 -15.296  1.00  0.00     0.045 C 
BRANCH  20  24
HETATM   24  O1  UNL     1      -7.207  -5.678 -12.592  1.00  0.00    -0.294 OA
BRANCH  24  25
HETATM   25  C2  UNL     1      -7.842  -4.416 -12.587  1.00  0.00     0.061 C 
HETATM   26  C1  UNL     1      -6.757  -3.356 -12.556  1.00  0.00     0.046 C 
HETATM   27  C3  UNL     1      -8.603  -4.217 -13.893  1.00  0.00     0.046 C 
HETATM   28  C4  UNL     1      -8.777  -4.225 -11.431  1.00  0.00     0.046 C 
ENDBRANCH  24  25
ENDBRANCH  20  24
ENDBRANCH  13  16
ENDBRANCH  11  12
BRANCH  11  29
HETATM   29  O4  UNL     1      -2.800  -9.395 -19.416  1.00  0.00    -0.342 OA
ATOM     30  H4  UNL     1      -3.193  -8.620 -19.800  1.00  0.00     0.219 HD
ENDBRANCH  11  29
ENDBRANCH   1  11
BRANCH   2  31
HETATM   31  C12 UNL     1       0.504 -10.566 -16.981  1.00  0.00     0.225 C 
HETATM   32  O5  UNL     1      -0.199 -11.610 -16.804  1.00  0.00    -0.643 OA
HETATM   33  O6  UNL     1       1.350 -10.275 -15.886  1.00  0.00    -0.643 OA
ENDBRANCH   2  31
BRANCH  10  34
HETATM   34  C18 UNL     1       0.312  -5.890 -18.400  1.00  0.00     0.152 C 
HETATM   35  O9  UNL     1       1.415  -5.969 -17.957  1.00  0.00    -0.293 OA
BRANCH  34  36
HETATM   36  C19 UNL     1      -0.607  -4.871 -17.787  1.00  0.00     0.087 C 
BRANCH  36  37
HETATM   37  C20 UNL     1      -1.112  -5.231 -16.441  1.00  0.00    -0.007 C 
HETATM   38  C21 UNL     1      -0.483  -4.542 -15.283  1.00  0.00     0.005 C 
HETATM   39  C22 UNL     1      -1.352  -3.332 -14.994  1.00  0.00     0.000 C 
HETATM   40  C23 UNL     1      -2.736  -3.848 -15.274  1.00  0.00     0.000 C 
HETATM   41  C24 UNL     1      -2.584  -4.835 -16.391  1.00  0.00     0.005 C 
ENDBRANCH  36  37
ENDBRANCH  34  36
ENDBRANCH  10  34
TORSDOF 10
ENDMDL
