MODEL 1
REMARK VINA RESULT: -7.082433447      0.000      0.000
REMARK  8 active torsions:
REMARK  status: ('A' for Active; 'I' for Inactive)
REMARK    1  A    between atoms: N1_1  and  C1_5 
REMARK    2  A    between atoms: C1_5  and  C2_6 
REMARK    3  A    between atoms: C2_6  and  C3_7 
REMARK    4  A    between atoms: C3_7  and  C4_8 
REMARK    5  A    between atoms: C4_8  and  C5_9 
REMARK    6  A    between atoms: C5_9  and  C6_10 
REMARK    7  A    between atoms: C6_10  and  N2_11 
REMARK    8  A    between atoms: N2_11  and  C7_13 
ROOT
HETATM    1  C7  UNL     1     -33.421  20.422  37.109  1.00  0.00     0.672 C 
HETATM    2  N3  UNL     1     -33.223  19.299  37.734  1.00  0.00    -0.223 N 
ATOM      3  H3  UNL     1     -32.325  18.845  37.571  1.00  0.00     0.177 HD
HETATM    4  C8  UNL     1     -34.131  18.619  38.634  1.00  0.00     0.201 C 
HETATM    5  C9  UNL     1     -35.255  19.433  39.137  1.00  0.00     0.409 C 
HETATM    6  N4  UNL     1     -34.989  20.787  39.493  1.00  0.00     0.003 N 
ATOM      7  H41 UNL     1     -34.043  21.080  39.736  1.00  0.00     0.284 HD
ATOM      8  H42 UNL     1     -35.326  21.163  40.380  1.00  0.00     0.284 HD
HETATM    9  C10 UNL     1     -35.599  21.217  38.222  1.00  0.00     0.504 C 
HETATM   10  N5  UNL     1     -34.575  21.253  37.161  1.00  0.00    -0.173 N 
ATOM     11  H5  UNL     1     -34.704  21.925  36.404  1.00  0.00     0.181 HD
HETATM   12  N6  UNL     1     -36.192  19.895  38.152  1.00  0.00     0.003 N 
ATOM     13  H61 UNL     1     -37.194  19.774  38.301  1.00  0.00     0.284 HD
ATOM     14  H62 UNL     1     -36.272  19.416  37.255  1.00  0.00     0.284 HD
ENDROOT
BRANCH   1  15
HETATM   15  N2  UNL     1     -32.371  20.873  36.286  1.00  0.00    -0.227 N 
ATOM     16  H2  UNL     1     -32.160  21.870  36.308  1.00  0.00     0.177 HD
BRANCH  15  17
HETATM   17  C6  UNL     1     -31.566  20.051  35.415  1.00  0.00     0.138 C 
BRANCH  17  18
HETATM   18  C5  UNL     1     -30.369  20.741  34.874  1.00  0.00     0.020 C 
BRANCH  18  19
HETATM   19  C4  UNL     1     -29.115  20.098  35.394  1.00  0.00     0.002 C 
BRANCH  19  20
HETATM   20  C3  UNL     1     -29.312  18.954  36.322  1.00  0.00     0.002 C 
BRANCH  20  21
HETATM   21  C2  UNL     1     -28.050  18.604  37.079  1.00  0.00     0.027 C 
BRANCH  21  22
HETATM   22  C1  UNL     1     -27.296  19.815  37.530  1.00  0.00     0.229 C 
BRANCH  22  23
HETATM   23  N1  UNL     1     -27.091  19.698  38.970  1.00  0.00    -0.079 N 
ATOM     24  H13 UNL     1     -27.964  19.602  39.489  1.00  0.00     0.274 HD
ATOM     25  H12 UNL     1     -26.677  18.805  39.240  1.00  0.00     0.274 HD
ATOM     26  H11 UNL     1     -26.536  20.499  39.269  1.00  0.00     0.274 HD
ENDBRANCH  22  23
ENDBRANCH  21  22
ENDBRANCH  20  21
ENDBRANCH  19  20
ENDBRANCH  18  19
ENDBRANCH  17  18
ENDBRANCH  15  17
ENDBRANCH   1  15
TORSDOF 8
ENDMDL
MODEL 2
REMARK VINA RESULT: -7.047272278      1.209      1.456
REMARK  8 active torsions:
REMARK  status: ('A' for Active; 'I' for Inactive)
REMARK    1  A    between atoms: N1_1  and  C1_5 
REMARK    2  A    between atoms: C1_5  and  C2_6 
REMARK    3  A    between atoms: C2_6  and  C3_7 
REMARK    4  A    between atoms: C3_7  and  C4_8 
REMARK    5  A    between atoms: C4_8  and  C5_9 
REMARK    6  A    between atoms: C5_9  and  C6_10 
REMARK    7  A    between atoms: C6_10  and  N2_11 
REMARK    8  A    between atoms: N2_11  and  C7_13 
ROOT
HETATM    1  C7  UNL     1     -33.735  20.196  37.032  1.00  0.00     0.672 C 
HETATM    2  N3  UNL     1     -33.192  21.010  37.888  1.00  0.00    -0.223 N 
ATOM      3  H3  UNL     1     -32.336  21.476  37.587  1.00  0.00     0.177 HD
HETATM    4  C8  UNL     1     -33.660  21.329  39.221  1.00  0.00     0.201 C 
HETATM    5  C9  UNL     1     -35.053  20.941  39.516  1.00  0.00     0.409 C 
HETATM    6  N4  UNL     1     -36.028  21.136  38.495  1.00  0.00     0.003 N 
ATOM      7  H41 UNL     1     -35.871  21.821  37.756  1.00  0.00     0.284 HD
ATOM      8  H42 UNL     1     -36.918  21.584  38.711  1.00  0.00     0.284 HD
HETATM    9  C10 UNL     1     -35.972  19.694  38.198  1.00  0.00     0.504 C 
HETATM   10  N5  UNL     1     -34.920  19.427  37.198  1.00  0.00    -0.173 N 
ATOM     11  H5  UNL     1     -35.053  18.628  36.577  1.00  0.00     0.181 HD
HETATM   12  N6  UNL     1     -35.336  19.532  39.491  1.00  0.00     0.003 N 
ATOM     13  H61 UNL     1     -35.843  19.098  40.262  1.00  0.00     0.284 HD
ATOM     14  H62 UNL     1     -34.582  18.856  39.611  1.00  0.00     0.284 HD
ENDROOT
BRANCH   1  15
HETATM   15  N2  UNL     1     -33.078  20.061  35.794  1.00  0.00    -0.227 N 
ATOM     16  H2  UNL     1     -33.661  19.885  34.976  1.00  0.00     0.177 HD
BRANCH  15  17
HETATM   17  C6  UNL     1     -31.655  20.150  35.578  1.00  0.00     0.138 C 
BRANCH  17  18
HETATM   18  C5  UNL     1     -30.924  18.887  35.852  1.00  0.00     0.020 C 
BRANCH  18  19
HETATM   19  C4  UNL     1     -29.469  19.167  36.097  1.00  0.00     0.002 C 
BRANCH  19  20
HETATM   20  C3  UNL     1     -28.610  17.975  36.319  1.00  0.00     0.002 C 
BRANCH  20  21
HETATM   21  C2  UNL     1     -27.453  18.266  37.250  1.00  0.00     0.027 C 
BRANCH  21  22
HETATM   22  C1  UNL     1     -27.439  19.687  37.720  1.00  0.00     0.229 C 
BRANCH  22  23
HETATM   23  N1  UNL     1     -27.079  19.681  39.134  1.00  0.00    -0.079 N 
ATOM     24  H13 UNL     1     -26.136  20.028  39.305  1.00  0.00     0.274 HD
ATOM     25  H12 UNL     1     -27.582  20.385  39.674  1.00  0.00     0.274 HD
ATOM     26  H11 UNL     1     -27.224  18.734  39.485  1.00  0.00     0.274 HD
ENDBRANCH  22  23
ENDBRANCH  21  22
ENDBRANCH  20  21
ENDBRANCH  19  20
ENDBRANCH  18  19
ENDBRANCH  17  18
ENDBRANCH  15  17
ENDBRANCH   1  15
TORSDOF 8
ENDMDL
MODEL 3
REMARK VINA RESULT: -7.035313318      1.452      1.546
REMARK  8 active torsions:
REMARK  status: ('A' for Active; 'I' for Inactive)
REMARK    1  A    between atoms: N1_1  and  C1_5 
REMARK    2  A    between atoms: C1_5  and  C2_6 
REMARK    3  A    between atoms: C2_6  and  C3_7 
REMARK    4  A    between atoms: C3_7  and  C4_8 
REMARK    5  A    between atoms: C4_8  and  C5_9 
REMARK    6  A    between atoms: C5_9  and  C6_10 
REMARK    7  A    between atoms: C6_10  and  N2_11 
REMARK    8  A    between atoms: N2_11  and  C7_13 
ROOT
HETATM    1  C7  UNL     1     -33.400  20.390  37.145  1.00  0.00     0.672 C 
HETATM    2  N3  UNL     1     -33.241  19.252  37.753  1.00  0.00    -0.223 N 
ATOM      3  H3  UNL     1     -32.350  18.780  37.601  1.00  0.00     0.177 HD
HETATM    4  C8  UNL     1     -34.185  18.576  38.619  1.00  0.00     0.201 C 
HETATM    5  C9  UNL     1     -35.302  19.405  39.112  1.00  0.00     0.409 C 
HETATM    6  N4  UNL     1     -35.015  20.745  39.499  1.00  0.00     0.003 N 
ATOM      7  H41 UNL     1     -34.069  21.013  39.769  1.00  0.00     0.284 HD
ATOM      8  H42 UNL     1     -35.363  21.113  40.385  1.00  0.00     0.284 HD
HETATM    9  C10 UNL     1     -35.585  21.213  38.223  1.00  0.00     0.504 C 
HETATM   10  N5  UNL     1     -34.536  21.245  37.186  1.00  0.00    -0.173 N 
ATOM     11  H5  UNL     1     -34.633  21.934  36.440  1.00  0.00     0.181 HD
HETATM   12  N6  UNL     1     -36.206  19.906  38.114  1.00  0.00     0.003 N 
ATOM     13  H61 UNL     1     -37.213  19.805  38.238  1.00  0.00     0.284 HD
ATOM     14  H62 UNL     1     -36.275  19.446  37.207  1.00  0.00     0.284 HD
ENDROOT
BRANCH   1  15
HETATM   15  N2  UNL     1     -32.321  20.832  36.355  1.00  0.00    -0.227 N 
ATOM     16  H2  UNL     1     -31.984  21.780  36.519  1.00  0.00     0.177 HD
BRANCH  15  17
HETATM   17  C6  UNL     1     -31.650  20.065  35.334  1.00  0.00     0.138 C 
BRANCH  17  18
HETATM   18  C5  UNL     1     -30.170  20.155  35.389  1.00  0.00     0.020 C 
BRANCH  18  19
HETATM   19  C4  UNL     1     -29.614  19.093  36.293  1.00  0.00     0.002 C 
BRANCH  19  20
HETATM   20  C3  UNL     1     -28.295  19.394  36.909  1.00  0.00     0.002 C 
BRANCH  20  21
HETATM   21  C2  UNL     1     -27.411  20.220  36.000  1.00  0.00     0.027 C 
BRANCH  21  22
HETATM   22  C1  UNL     1     -26.292  19.421  35.409  1.00  0.00     0.229 C 
BRANCH  22  23
HETATM   23  N1  UNL     1     -26.766  18.863  34.147  1.00  0.00    -0.079 N 
ATOM     24  H13 UNL     1     -26.153  18.134  33.781  1.00  0.00     0.274 HD
ATOM     25  H12 UNL     1     -27.604  18.290  34.256  1.00  0.00     0.274 HD
ATOM     26  H11 UNL     1     -26.897  19.637  33.497  1.00  0.00     0.274 HD
ENDBRANCH  22  23
ENDBRANCH  21  22
ENDBRANCH  20  21
ENDBRANCH  19  20
ENDBRANCH  18  19
ENDBRANCH  17  18
ENDBRANCH  15  17
ENDBRANCH   1  15
TORSDOF 8
ENDMDL
MODEL 4
REMARK VINA RESULT: -7.031376044      0.892      1.846
REMARK  8 active torsions:
REMARK  status: ('A' for Active; 'I' for Inactive)
REMARK    1  A    between atoms: N1_1  and  C1_5 
REMARK    2  A    between atoms: C1_5  and  C2_6 
REMARK    3  A    between atoms: C2_6  and  C3_7 
REMARK    4  A    between atoms: C3_7  and  C4_8 
REMARK    5  A    between atoms: C4_8  and  C5_9 
REMARK    6  A    between atoms: C5_9  and  C6_10 
REMARK    7  A    between atoms: C6_10  and  N2_11 
REMARK    8  A    between atoms: N2_11  and  C7_13 
ROOT
HETATM    1  C7  UNL     1     -33.687  20.670  37.428  1.00  0.00     0.672 C 
HETATM    2  N3  UNL     1     -34.784  21.363  37.512  1.00  0.00    -0.223 N 
ATOM      3  H3  UNL     1     -34.796  22.250  37.009  1.00  0.00     0.177 HD
HETATM    4  C8  UNL     1     -35.990  21.022  38.237  1.00  0.00     0.201 C 
HETATM    5  C9  UNL     1     -36.101  19.612  38.658  1.00  0.00     0.409 C 
HETATM    6  N4  UNL     1     -35.669  18.608  37.743  1.00  0.00     0.003 N 
ATOM      7  H41 UNL     1     -35.630  18.805  36.743  1.00  0.00     0.284 HD
ATOM      8  H42 UNL     1     -36.256  17.796  37.553  1.00  0.00     0.284 HD
HETATM    9  C10 UNL     1     -34.427  18.463  38.523  1.00  0.00     0.504 C 
HETATM   10  N5  UNL     1     -33.409  19.410  38.027  1.00  0.00    -0.173 N 
ATOM     11  H5  UNL     1     -32.430  19.140  38.122  1.00  0.00     0.181 HD
HETATM   12  N6  UNL     1     -35.115  19.152  39.597  1.00  0.00     0.003 N 
ATOM     13  H61 UNL     1     -35.402  18.643  40.433  1.00  0.00     0.284 HD
ATOM     14  H62 UNL     1     -34.614  19.821  40.182  1.00  0.00     0.284 HD
ENDROOT
BRANCH   1  15
HETATM   15  N2  UNL     1     -32.652  21.228  36.653  1.00  0.00    -0.227 N 
ATOM     16  H2  UNL     1     -31.843  21.593  37.154  1.00  0.00     0.177 HD
BRANCH  15  17
HETATM   17  C6  UNL     1     -32.634  21.329  35.214  1.00  0.00     0.138 C 
BRANCH  17  18
HETATM   18  C5  UNL     1     -31.277  21.223  34.621  1.00  0.00     0.020 C 
BRANCH  18  19
HETATM   19  C4  UNL     1     -30.584  19.986  35.116  1.00  0.00     0.002 C 
BRANCH  19  20
HETATM   20  C3  UNL     1     -29.127  20.121  35.373  1.00  0.00     0.002 C 
BRANCH  20  21
HETATM   21  C2  UNL     1     -28.698  19.408  36.637  1.00  0.00     0.027 C 
BRANCH  21  22
HETATM   22  C1  UNL     1     -27.320  19.794  37.073  1.00  0.00     0.229 C 
BRANCH  22  23
HETATM   23  N1  UNL     1     -27.224  19.547  38.508  1.00  0.00    -0.079 N 
ATOM     24  H13 UNL     1     -26.904  20.362  39.031  1.00  0.00     0.274 HD
ATOM     25  H12 UNL     1     -28.136  19.451  38.956  1.00  0.00     0.274 HD
ATOM     26  H11 UNL     1     -26.630  18.729  38.642  1.00  0.00     0.274 HD
ENDBRANCH  22  23
ENDBRANCH  21  22
ENDBRANCH  20  21
ENDBRANCH  19  20
ENDBRANCH  18  19
ENDBRANCH  17  18
ENDBRANCH  15  17
ENDBRANCH   1  15
TORSDOF 8
ENDMDL
MODEL 5
REMARK VINA RESULT: -6.974098567      2.182      2.482
REMARK  8 active torsions:
REMARK  status: ('A' for Active; 'I' for Inactive)
REMARK    1  A    between atoms: N1_1  and  C1_5 
REMARK    2  A    between atoms: C1_5  and  C2_6 
REMARK    3  A    between atoms: C2_6  and  C3_7 
REMARK    4  A    between atoms: C3_7  and  C4_8 
REMARK    5  A    between atoms: C4_8  and  C5_9 
REMARK    6  A    between atoms: C5_9  and  C6_10 
REMARK    7  A    between atoms: C6_10  and  N2_11 
REMARK    8  A    between atoms: N2_11  and  C7_13 
ROOT
HETATM    1  C7  UNL     1     -33.248  20.138  37.170  1.00  0.00     0.672 C 
HETATM    2  N3  UNL     1     -33.251  19.033  37.855  1.00  0.00    -0.223 N 
ATOM      3  H3  UNL     1     -32.416  18.452  37.777  1.00  0.00     0.177 HD
HETATM    4  C8  UNL     1     -34.303  18.530  38.714  1.00  0.00     0.201 C 
HETATM    5  C9  UNL     1     -35.333  19.514  39.099  1.00  0.00     0.409 C 
HETATM    6  N4  UNL     1     -34.906  20.836  39.416  1.00  0.00     0.003 N 
ATOM      7  H41 UNL     1     -33.947  21.009  39.715  1.00  0.00     0.284 HD
ATOM      8  H42 UNL     1     -35.245  21.300  40.259  1.00  0.00     0.284 HD
HETATM    9  C10 UNL     1     -35.363  21.279  38.087  1.00  0.00     0.504 C 
HETATM   10  N5  UNL     1     -34.276  21.120  37.103  1.00  0.00    -0.173 N 
ATOM     11  H5  UNL     1     -34.260  21.763  36.311  1.00  0.00     0.181 HD
HETATM   12  N6  UNL     1     -36.129  20.048  38.029  1.00  0.00     0.003 N 
ATOM     13  H61 UNL     1     -37.146  20.072  38.109  1.00  0.00     0.284 HD
ATOM     14  H62 UNL     1     -36.215  19.539  37.150  1.00  0.00     0.284 HD
ENDROOT
BRANCH   1  15
HETATM   15  N2  UNL     1     -32.093  20.399  36.408  1.00  0.00    -0.227 N 
ATOM     16  H2  UNL     1     -31.787  21.370  36.346  1.00  0.00     0.177 HD
BRANCH  15  17
HETATM   17  C6  UNL     1     -31.303  19.417  35.707  1.00  0.00     0.138 C 
BRANCH  17  18
HETATM   18  C5  UNL     1     -29.948  19.215  36.278  1.00  0.00     0.020 C 
BRANCH  18  19
HETATM   19  C4  UNL     1     -29.363  17.919  35.795  1.00  0.00     0.002 C 
BRANCH  19  20
HETATM   20  C3  UNL     1     -28.133  17.464  36.494  1.00  0.00     0.002 C 
BRANCH  20  21
HETATM   21  C2  UNL     1     -27.715  16.072  36.074  1.00  0.00     0.027 C 
BRANCH  21  22
HETATM   22  C1  UNL     1     -28.762  15.381  35.257  1.00  0.00     0.229 C 
BRANCH  22  23
HETATM   23  N1  UNL     1     -28.259  14.051  34.929  1.00  0.00    -0.079 N 
ATOM     24  H13 UNL     1     -27.890  13.989  33.980  1.00  0.00     0.274 HD
ATOM     25  H12 UNL     1     -27.397  13.819  35.422  1.00  0.00     0.274 HD
ATOM     26  H11 UNL     1     -29.010  13.384  35.107  1.00  0.00     0.274 HD
ENDBRANCH  22  23
ENDBRANCH  21  22
ENDBRANCH  20  21
ENDBRANCH  19  20
ENDBRANCH  18  19
ENDBRANCH  17  18
ENDBRANCH  15  17
ENDBRANCH   1  15
TORSDOF 8
ENDMDL
