MODEL 1
REMARK VINA RESULT: -6.673680005      0.000      0.000
REMARK  9 active torsions:
REMARK  status: ('A' for Active; 'I' for Inactive)
REMARK    1  A    between atoms: C2_2  and  N1_3 
REMARK    2  A    between atoms: N1_3  and  C3_5 
REMARK    3  A    between atoms: C5_7  and  N2_8 
REMARK    4  A    between atoms: N2_8  and  C6_11 
REMARK    5  A    between atoms: C8_13  and  N3_14 
REMARK    6  A    between atoms: C9_18  and  N4_19 
REMARK    7  A    between atoms: N4_19  and  C10_21 
REMARK    8  A    between atoms: C10_21  and  C11_22 
REMARK    9  A    between atoms: C11_22  and  N5_23 
ROOT
HETATM    1  C6  UNL     1     -32.268  20.668  35.507  1.00  0.00     0.213 C 
HETATM    2  C7  UNL     1     -31.625  21.725  34.642  1.00  0.00     0.070 C 
HETATM    3  C8  UNL     1     -30.757  20.642  34.053  1.00  0.00     0.210 C 
HETATM    4  C9  UNL     1     -31.076  19.819  35.305  1.00  0.00     0.141 C 
ENDROOT
BRANCH   1   5
HETATM    5  N2  UNL     1     -32.710  21.078  36.792  1.00  0.00    -0.062 N 
ATOM      6  H22 UNL     1     -33.297  21.910  36.734  1.00  0.00     0.278 HD
ATOM      7  H21 UNL     1     -31.942  21.461  37.344  1.00  0.00     0.278 HD
BRANCH   5   8
HETATM    8  C5  UNL     1     -33.376  20.016  37.492  1.00  0.00     0.211 A 
HETATM    9  C3  UNL     1     -34.783  20.044  37.866  1.00  0.00     0.113 A 
HETATM   10  C4  UNL     1     -33.756  20.166  38.923  1.00  0.00     0.062 A 
BRANCH   9  11
HETATM   11  N1  UNL     1     -35.684  19.000  37.657  1.00  0.00    -0.396 N 
ATOM     12  H1  UNL     1     -35.693  18.576  36.729  1.00  0.00     0.159 HD
BRANCH  11  13
HETATM   13  C2  UNL     1     -36.564  18.485  38.587  1.00  0.00     0.051 C 
HETATM   14  C1  UNL     1     -36.063  17.311  39.373  1.00  0.00     0.054 C 
ENDBRANCH  11  13
ENDBRANCH   9  11
ENDBRANCH   5   8
ENDBRANCH   1   5
BRANCH   4  15
HETATM   15  N4  UNL     1     -30.037  19.835  36.226  1.00  0.00    -0.392 N 
ATOM     16  H4  UNL     1     -29.836  20.678  36.763  1.00  0.00     0.159 HD
BRANCH  15  17
HETATM   17  C10 UNL     1     -29.275  18.684  36.407  1.00  0.00     0.083 C 
BRANCH  17  18
HETATM   18  C11 UNL     1     -27.935  18.953  37.089  1.00  0.00     0.273 C 
BRANCH  18  19
HETATM   19  N5  UNL     1     -27.165  17.774  37.300  1.00  0.00    -0.075 N 
ATOM     20  H53 UNL     1     -26.347  17.974  37.876  1.00  0.00     0.274 HD
ATOM     21  H52 UNL     1     -27.654  17.129  37.919  1.00  0.00     0.274 HD
ATOM     22  H51 UNL     1     -26.894  17.310  36.433  1.00  0.00     0.274 HD
ENDBRANCH  18  19
ENDBRANCH  17  18
ENDBRANCH  15  17
ENDBRANCH   4  15
BRANCH   3  23
HETATM   23  N3  UNL     1     -29.346  21.007  33.970  1.00  0.00    -0.073 N 
ATOM     24  H33 UNL     1     -29.196  21.954  34.320  1.00  0.00     0.274 HD
ATOM     25  H32 UNL     1     -28.797  20.485  34.653  1.00  0.00     0.274 HD
ATOM     26  H31 UNL     1     -28.953  20.902  33.035  1.00  0.00     0.274 HD
ENDBRANCH   3  23
TORSDOF 9
ENDMDL
MODEL 2
REMARK VINA RESULT: -6.646500877      1.358      1.510
REMARK  9 active torsions:
REMARK  status: ('A' for Active; 'I' for Inactive)
REMARK    1  A    between atoms: C2_2  and  N1_3 
REMARK    2  A    between atoms: N1_3  and  C3_5 
REMARK    3  A    between atoms: C5_7  and  N2_8 
REMARK    4  A    between atoms: N2_8  and  C6_11 
REMARK    5  A    between atoms: C8_13  and  N3_14 
REMARK    6  A    between atoms: C9_18  and  N4_19 
REMARK    7  A    between atoms: N4_19  and  C10_21 
REMARK    8  A    between atoms: C10_21  and  C11_22 
REMARK    9  A    between atoms: C11_22  and  N5_23 
ROOT
HETATM    1  C6  UNL     1     -32.678  20.160  36.307  1.00  0.00     0.213 C 
HETATM    2  C7  UNL     1     -32.798  21.555  35.741  1.00  0.00     0.070 C 
HETATM    3  C8  UNL     1     -32.034  21.075  34.533  1.00  0.00     0.210 C 
HETATM    4  C9  UNL     1     -31.527  19.927  35.411  1.00  0.00     0.141 C 
ENDROOT
BRANCH   1   5
HETATM    5  N2  UNL     1     -32.587  20.052  37.719  1.00  0.00    -0.062 N 
ATOM      6  H22 UNL     1     -32.325  20.941  38.143  1.00  0.00     0.278 HD
ATOM      7  H21 UNL     1     -31.777  19.497  37.997  1.00  0.00     0.278 HD
BRANCH   5   8
HETATM    8  C5  UNL     1     -33.796  19.534  38.295  1.00  0.00     0.211 A 
HETATM    9  C3  UNL     1     -35.093  20.188  38.190  1.00  0.00     0.113 A 
HETATM   10  C4  UNL     1     -34.402  20.169  39.497  1.00  0.00     0.062 A 
BRANCH   9  11
HETATM   11  N1  UNL     1     -36.280  19.549  37.834  1.00  0.00    -0.396 N 
ATOM     12  H1  UNL     1     -36.581  19.638  36.863  1.00  0.00     0.159 HD
BRANCH  11  13
HETATM   13  C2  UNL     1     -37.088  18.808  38.672  1.00  0.00     0.051 C 
HETATM   14  C1  UNL     1     -36.676  17.381  38.874  1.00  0.00     0.054 C 
ENDBRANCH  11  13
ENDBRANCH   9  11
ENDBRANCH   5   8
ENDBRANCH   1   5
BRANCH   4  15
HETATM   15  N4  UNL     1     -30.230  20.141  35.862  1.00  0.00    -0.392 N 
ATOM     16  H4  UNL     1     -29.972  21.030  36.290  1.00  0.00     0.159 HD
BRANCH  15  17
HETATM   17  C10 UNL     1     -29.289  19.126  35.722  1.00  0.00     0.083 C 
BRANCH  17  18
HETATM   18  C11 UNL     1     -28.835  18.923  34.277  1.00  0.00     0.273 C 
BRANCH  18  19
HETATM   19  N5  UNL     1     -27.422  18.983  34.118  1.00  0.00    -0.075 N 
ATOM     20  H53 UNL     1     -27.162  18.866  33.139  1.00  0.00     0.274 HD
ATOM     21  H52 UNL     1     -27.080  19.931  34.271  1.00  0.00     0.274 HD
ATOM     22  H51 UNL     1     -26.922  18.317  34.708  1.00  0.00     0.274 HD
ENDBRANCH  18  19
ENDBRANCH  17  18
ENDBRANCH  15  17
ENDBRANCH   4  15
BRANCH   3  23
HETATM   23  N3  UNL     1     -30.964  21.979  34.122  1.00  0.00    -0.073 N 
ATOM     24  H33 UNL     1     -30.966  22.825  34.693  1.00  0.00     0.274 HD
ATOM     25  H32 UNL     1     -30.053  21.602  34.383  1.00  0.00     0.274 HD
ATOM     26  H31 UNL     1     -30.987  22.214  33.130  1.00  0.00     0.274 HD
ENDBRANCH   3  23
TORSDOF 9
ENDMDL
MODEL 3
REMARK VINA RESULT: -6.430915913      2.470      5.784
REMARK  9 active torsions:
REMARK  status: ('A' for Active; 'I' for Inactive)
REMARK    1  A    between atoms: C2_2  and  N1_3 
REMARK    2  A    between atoms: N1_3  and  C3_5 
REMARK    3  A    between atoms: C5_7  and  N2_8 
REMARK    4  A    between atoms: N2_8  and  C6_11 
REMARK    5  A    between atoms: C8_13  and  N3_14 
REMARK    6  A    between atoms: C9_18  and  N4_19 
REMARK    7  A    between atoms: N4_19  and  C10_21 
REMARK    8  A    between atoms: C10_21  and  C11_22 
REMARK    9  A    between atoms: C11_22  and  N5_23 
ROOT
HETATM    1  C6  UNL     1     -30.400  19.689  34.805  1.00  0.00     0.213 C 
HETATM    2  C7  UNL     1     -29.958  20.043  33.405  1.00  0.00     0.070 C 
HETATM    3  C8  UNL     1     -30.038  21.496  33.803  1.00  0.00     0.210 C 
HETATM    4  C9  UNL     1     -30.961  21.049  34.941  1.00  0.00     0.141 C 
ENDROOT
BRANCH   1   5
HETATM    5  N2  UNL     1     -31.187  18.516  34.946  1.00  0.00    -0.062 N 
ATOM      6  H22 UNL     1     -31.734  18.333  34.105  1.00  0.00     0.278 HD
ATOM      7  H21 UNL     1     -31.952  18.659  35.607  1.00  0.00     0.278 HD
BRANCH   5   8
HETATM    8  C5  UNL     1     -30.390  17.378  35.310  1.00  0.00     0.211 A 
HETATM    9  C3  UNL     1     -29.527  16.659  34.384  1.00  0.00     0.113 A 
HETATM   10  C4  UNL     1     -30.765  16.009  34.864  1.00  0.00     0.062 A 
BRANCH   9  11
HETATM   11  N1  UNL     1     -28.206  16.295  34.646  1.00  0.00    -0.396 N 
ATOM     12  H1  UNL     1     -27.548  16.352  33.868  1.00  0.00     0.159 HD
BRANCH  11  13
HETATM   13  C2  UNL     1     -27.705  15.864  35.857  1.00  0.00     0.051 C 
HETATM   14  C1  UNL     1     -27.115  16.930  36.730  1.00  0.00     0.054 C 
ENDBRANCH  11  13
ENDBRANCH   9  11
ENDBRANCH   5   8
ENDBRANCH   1   5
BRANCH   4  15
HETATM   15  N4  UNL     1     -32.300  21.288  34.659  1.00  0.00    -0.392 N 
ATOM     16  H4  UNL     1     -32.678  21.084  33.734  1.00  0.00     0.159 HD
BRANCH  15  17
HETATM   17  C10 UNL     1     -33.119  21.811  35.656  1.00  0.00     0.083 C 
BRANCH  17  18
HETATM   18  C11 UNL     1     -33.445  20.801  36.755  1.00  0.00     0.273 C 
BRANCH  18  19
HETATM   19  N5  UNL     1     -34.693  21.048  37.393  1.00  0.00    -0.075 N 
ATOM     20  H53 UNL     1     -35.047  21.974  37.153  1.00  0.00     0.274 HD
ATOM     21  H52 UNL     1     -35.430  20.475  36.981  1.00  0.00     0.274 HD
ATOM     22  H51 UNL     1     -34.660  20.923  38.405  1.00  0.00     0.274 HD
ENDBRANCH  18  19
ENDBRANCH  17  18
ENDBRANCH  15  17
ENDBRANCH   4  15
BRANCH   3  23
HETATM   23  N3  UNL     1     -30.724  22.332  32.823  1.00  0.00    -0.073 N 
ATOM     24  H33 UNL     1     -30.183  23.174  32.624  1.00  0.00     0.274 HD
ATOM     25  H32 UNL     1     -30.705  21.897  31.901  1.00  0.00     0.274 HD
ATOM     26  H31 UNL     1     -31.679  22.572  33.089  1.00  0.00     0.274 HD
ENDBRANCH   3  23
TORSDOF 9
ENDMDL
MODEL 4
REMARK VINA RESULT: -6.409604290      2.301      5.623
REMARK  9 active torsions:
REMARK  status: ('A' for Active; 'I' for Inactive)
REMARK    1  A    between atoms: C2_2  and  N1_3 
REMARK    2  A    between atoms: N1_3  and  C3_5 
REMARK    3  A    between atoms: C5_7  and  N2_8 
REMARK    4  A    between atoms: N2_8  and  C6_11 
REMARK    5  A    between atoms: C8_13  and  N3_14 
REMARK    6  A    between atoms: C9_18  and  N4_19 
REMARK    7  A    between atoms: N4_19  and  C10_21 
REMARK    8  A    between atoms: C10_21  and  C11_22 
REMARK    9  A    between atoms: C11_22  and  N5_23 
ROOT
HETATM    1  C6  UNL     1     -30.384  19.711  34.664  1.00  0.00     0.213 C 
HETATM    2  C7  UNL     1     -30.015  20.071  33.245  1.00  0.00     0.070 C 
HETATM    3  C8  UNL     1     -30.072  21.522  33.653  1.00  0.00     0.210 C 
HETATM    4  C9  UNL     1     -30.936  21.071  34.835  1.00  0.00     0.141 C 
ENDROOT
BRANCH   1   5
HETATM    5  N2  UNL     1     -31.165  18.538  34.840  1.00  0.00    -0.062 N 
ATOM      6  H22 UNL     1     -31.520  18.192  33.949  1.00  0.00     0.278 HD
ATOM      7  H21 UNL     1     -32.053  18.748  35.297  1.00  0.00     0.278 HD
BRANCH   5   8
HETATM    8  C5  UNL     1     -30.443  17.517  35.547  1.00  0.00     0.211 A 
HETATM    9  C3  UNL     1     -29.011  17.290  35.412  1.00  0.00     0.113 A 
HETATM   10  C4  UNL     1     -29.952  16.302  34.843  1.00  0.00     0.062 A 
BRANCH   9  11
HETATM   11  N1  UNL     1     -28.128  17.122  36.479  1.00  0.00    -0.396 N 
ATOM     12  H1  UNL     1     -28.123  16.210  36.935  1.00  0.00     0.159 HD
BRANCH  11  13
HETATM   13  C2  UNL     1     -27.261  18.074  36.975  1.00  0.00     0.051 C 
HETATM   14  C1  UNL     1     -27.900  19.333  37.477  1.00  0.00     0.054 C 
ENDBRANCH  11  13
ENDBRANCH   9  11
ENDBRANCH   5   8
ENDBRANCH   1   5
BRANCH   4  15
HETATM   15  N4  UNL     1     -32.287  21.313  34.623  1.00  0.00    -0.392 N 
ATOM     16  H4  UNL     1     -32.711  21.120  33.716  1.00  0.00     0.159 HD
BRANCH  15  17
HETATM   17  C10 UNL     1     -33.055  21.822  35.667  1.00  0.00     0.083 C 
BRANCH  17  18
HETATM   18  C11 UNL     1     -33.426  20.769  36.709  1.00  0.00     0.273 C 
BRANCH  18  19
HETATM   19  N5  UNL     1     -34.649  21.049  37.381  1.00  0.00    -0.075 N 
ATOM     20  H53 UNL     1     -35.403  21.204  36.712  1.00  0.00     0.274 HD
ATOM     21  H52 UNL     1     -35.006  20.215  37.847  1.00  0.00     0.274 HD
ATOM     22  H51 UNL     1     -34.579  21.829  38.036  1.00  0.00     0.274 HD
ENDBRANCH  18  19
ENDBRANCH  17  18
ENDBRANCH  15  17
ENDBRANCH   4  15
BRANCH   3  23
HETATM   23  N3  UNL     1     -30.807  22.364  32.713  1.00  0.00    -0.073 N 
ATOM     24  H33 UNL     1     -30.351  22.369  31.801  1.00  0.00     0.274 HD
ATOM     25  H32 UNL     1     -31.693  21.930  32.458  1.00  0.00     0.274 HD
ATOM     26  H31 UNL     1     -30.953  23.315  33.049  1.00  0.00     0.274 HD
ENDBRANCH   3  23
TORSDOF 9
ENDMDL
MODEL 5
REMARK VINA RESULT: -6.264222061      2.930      4.607
REMARK  9 active torsions:
REMARK  status: ('A' for Active; 'I' for Inactive)
REMARK    1  A    between atoms: C2_2  and  N1_3 
REMARK    2  A    between atoms: N1_3  and  C3_5 
REMARK    3  A    between atoms: C5_7  and  N2_8 
REMARK    4  A    between atoms: N2_8  and  C6_11 
REMARK    5  A    between atoms: C8_13  and  N3_14 
REMARK    6  A    between atoms: C9_18  and  N4_19 
REMARK    7  A    between atoms: N4_19  and  C10_21 
REMARK    8  A    between atoms: C10_21  and  C11_22 
REMARK    9  A    between atoms: C11_22  and  N5_23 
ROOT
HETATM    1  C6  UNL     1     -30.551  18.399  35.881  1.00  0.00     0.213 C 
HETATM    2  C7  UNL     1     -30.517  18.252  34.379  1.00  0.00     0.070 C 
HETATM    3  C8  UNL     1     -29.050  17.920  34.497  1.00  0.00     0.210 C 
HETATM    4  C9  UNL     1     -29.088  18.606  35.865  1.00  0.00     0.141 C 
ENDROOT
BRANCH   1   5
HETATM    5  N2  UNL     1     -31.456  19.358  36.407  1.00  0.00    -0.062 N 
ATOM      6  H22 UNL     1     -31.010  19.938  37.117  1.00  0.00     0.278 HD
ATOM      7  H21 UNL     1     -32.170  18.916  36.986  1.00  0.00     0.278 HD
BRANCH   5   8
HETATM    8  C5  UNL     1     -32.046  20.159  35.372  1.00  0.00     0.211 A 
HETATM    9  C3  UNL     1     -31.702  21.553  35.124  1.00  0.00     0.113 A 
HETATM   10  C4  UNL     1     -33.025  21.230  35.700  1.00  0.00     0.062 A 
BRANCH   9  11
HETATM   11  N1  UNL     1     -31.417  22.091  33.869  1.00  0.00    -0.396 N 
ATOM     12  H1  UNL     1     -32.163  22.617  33.413  1.00  0.00     0.159 HD
BRANCH  11  13
HETATM   13  C2  UNL     1     -30.223  21.980  33.188  1.00  0.00     0.051 C 
HETATM   14  C1  UNL     1     -29.145  22.932  33.610  1.00  0.00     0.054 C 
ENDBRANCH  11  13
ENDBRANCH   9  11
ENDBRANCH   5   8
ENDBRANCH   1   5
BRANCH   4  15
HETATM   15  N4  UNL     1     -28.560  19.890  35.826  1.00  0.00    -0.392 N 
ATOM     16  H4  UNL     1     -28.926  20.580  35.169  1.00  0.00     0.159 HD
BRANCH  15  17
HETATM   17  C10 UNL     1     -27.525  20.223  36.695  1.00  0.00     0.083 C 
BRANCH  17  18
HETATM   18  C11 UNL     1     -27.318  19.194  37.804  1.00  0.00     0.273 C 
BRANCH  18  19
HETATM   19  N5  UNL     1     -27.083  19.782  39.080  1.00  0.00    -0.075 N 
ATOM     20  H53 UNL     1     -26.083  19.849  39.270  1.00  0.00     0.274 HD
ATOM     21  H52 UNL     1     -27.320  20.773  39.070  1.00  0.00     0.274 HD
ATOM     22  H51 UNL     1     -27.566  19.301  39.840  1.00  0.00     0.274 HD
ENDBRANCH  18  19
ENDBRANCH  17  18
ENDBRANCH  15  17
ENDBRANCH   4  15
BRANCH   3  23
HETATM   23  N3  UNL     1     -28.212  18.632  33.537  1.00  0.00    -0.073 N 
ATOM     24  H33 UNL     1     -28.304  18.226  32.606  1.00  0.00     0.274 HD
ATOM     25  H32 UNL     1     -28.585  19.563  33.353  1.00  0.00     0.274 HD
ATOM     26  H31 UNL     1     -27.232  18.684  33.813  1.00  0.00     0.274 HD
ENDBRANCH   3  23
TORSDOF 9
ENDMDL
