MODEL 1
REMARK VINA RESULT: -6.984108227      0.000      0.000
REMARK  6 active torsions:
REMARK  status: ('A' for Active; 'I' for Inactive)
REMARK    1  A    between atoms: C2_2  and  C3_3 
REMARK    2  A    between atoms: C3_3  and  N1_4 
REMARK    3  A    between atoms: N1_4  and  C4_6 
REMARK    4  A    between atoms: C4_6  and  C5_7 
REMARK    5  A    between atoms: C5_7  and  N2_8 
REMARK    6  A    between atoms: N2_8  and  C6_11 
ROOT
HETATM    1  C6  UNL     1      17.405  27.239 -11.102  1.00  0.00     0.240 C 
HETATM    2  C7  UNL     1      16.606  26.357 -12.029  1.00  0.00     0.079 C 
HETATM    3  C8  UNL     1      17.616  25.538 -12.719  1.00  0.00    -0.044 A 
HETATM    4  C9  UNL     1      17.567  24.797 -13.893  1.00  0.00     0.008 A 
HETATM    5  C10 UNL     1      18.678  24.107 -14.319  1.00  0.00     0.001 A 
HETATM    6  C11 UNL     1      19.870  24.129 -13.598  1.00  0.00     0.001 A 
HETATM    7  C12 UNL     1      19.902  24.864 -12.442  1.00  0.00     0.014 A 
HETATM    8  C13 UNL     1      18.785  25.570 -11.995  1.00  0.00    -0.006 A 
HETATM    9  C14 UNL     1      18.594  26.418 -10.796  1.00  0.00     0.045 C 
HETATM   10  N3  UNL     1      19.366  26.357  -9.780  1.00  0.00    -0.400 N 
ATOM     11  H31 UNL     1      20.187  25.789  -9.569  1.00  0.00     0.156 HD
ATOM     12  H32 UNL     1      19.234  26.941  -8.954  1.00  0.00     0.156 HD
ENDROOT
BRANCH   1  13
HETATM   13  N2  UNL     1      16.602  27.491  -9.928  1.00  0.00    -0.064 N 
ATOM     14  H22 UNL     1      16.753  26.766  -9.226  1.00  0.00     0.278 HD
ATOM     15  H21 UNL     1      15.614  27.334 -10.127  1.00  0.00     0.278 HD
BRANCH  13  16
HETATM   16  C5  UNL     1      16.805  28.804  -9.355  1.00  0.00     0.252 C 
BRANCH  16  17
HETATM   17  C4  UNL     1      17.155  28.588  -7.905  1.00  0.00     0.141 C 
BRANCH  17  18
HETATM   18  N1  UNL     1      17.929  29.614  -7.295  1.00  0.00    -0.417 N 
ATOM     19  H1  UNL     1      17.638  30.082  -6.437  1.00  0.00     0.153 HD
BRANCH  18  20
HETATM   20  C3  UNL     1      19.149  29.944  -7.977  1.00  0.00     0.140 C 
BRANCH  20  21
HETATM   21  C2  UNL     1      20.212  29.005  -7.529  1.00  0.00    -0.018 C 
HETATM   22  C1  UNL     1      21.414  29.357  -7.155  1.00  0.00     0.008 C 
ENDBRANCH  20  21
ENDBRANCH  18  20
ENDBRANCH  17  18
ENDBRANCH  16  17
ENDBRANCH  13  16
ENDBRANCH   1  13
TORSDOF 6
ENDMDL
MODEL 2
REMARK VINA RESULT: -6.817195914      1.212      2.193
REMARK  6 active torsions:
REMARK  status: ('A' for Active; 'I' for Inactive)
REMARK    1  A    between atoms: C2_2  and  C3_3 
REMARK    2  A    between atoms: C3_3  and  N1_4 
REMARK    3  A    between atoms: N1_4  and  C4_6 
REMARK    4  A    between atoms: C4_6  and  C5_7 
REMARK    5  A    between atoms: C5_7  and  N2_8 
REMARK    6  A    between atoms: N2_8  and  C6_11 
ROOT
HETATM    1  C6  UNL     1      18.674  26.631  -9.838  1.00  0.00     0.240 C 
HETATM    2  C7  UNL     1      19.736  26.204 -10.821  1.00  0.00     0.079 C 
HETATM    3  C8  UNL     1      18.985  25.610 -11.939  1.00  0.00    -0.044 A 
HETATM    4  C9  UNL     1      19.369  24.757 -12.967  1.00  0.00     0.008 A 
HETATM    5  C10 UNL     1      18.448  24.348 -13.902  1.00  0.00     0.001 A 
HETATM    6  C11 UNL     1      17.120  24.768 -13.851  1.00  0.00     0.001 A 
HETATM    7  C12 UNL     1      16.758  25.609 -12.831  1.00  0.00     0.014 A 
HETATM    8  C13 UNL     1      17.678  26.034 -11.874  1.00  0.00    -0.006 A 
HETATM    9  C14 UNL     1      17.513  26.926 -10.703  1.00  0.00     0.045 C 
HETATM   10  N3  UNL     1      16.529  27.732 -10.585  1.00  0.00    -0.400 N 
ATOM     11  H31 UNL     1      15.727  27.936 -11.183  1.00  0.00     0.156 HD
ATOM     12  H32 UNL     1      16.415  28.346  -9.779  1.00  0.00     0.156 HD
ENDROOT
BRANCH   1  13
HETATM   13  N2  UNL     1      19.152  27.808  -9.150  1.00  0.00    -0.064 N 
ATOM     14  H22 UNL     1      18.906  28.652  -9.668  1.00  0.00     0.278 HD
ATOM     15  H21 UNL     1      20.169  27.867  -9.202  1.00  0.00     0.278 HD
BRANCH  13  16
HETATM   16  C5  UNL     1      18.704  27.902  -7.778  1.00  0.00     0.252 C 
BRANCH  16  17
HETATM   17  C4  UNL     1      18.517  29.370  -7.491  1.00  0.00     0.141 C 
BRANCH  17  18
HETATM   18  N1  UNL     1      19.506  30.238  -8.032  1.00  0.00    -0.417 N 
ATOM     19  H1  UNL     1      19.489  30.548  -9.003  1.00  0.00     0.153 HD
BRANCH  18  20
HETATM   20  C3  UNL     1      20.531  30.643  -7.111  1.00  0.00     0.140 C 
BRANCH  20  21
HETATM   21  C2  UNL     1      21.814  30.010  -7.520  1.00  0.00    -0.018 C 
HETATM   22  C1  UNL     1      22.276  28.882  -7.048  1.00  0.00     0.008 C 
ENDBRANCH  20  21
ENDBRANCH  18  20
ENDBRANCH  17  18
ENDBRANCH  16  17
ENDBRANCH  13  16
ENDBRANCH   1  13
TORSDOF 6
ENDMDL
MODEL 3
REMARK VINA RESULT: -6.792287185      1.410      2.428
REMARK  6 active torsions:
REMARK  status: ('A' for Active; 'I' for Inactive)
REMARK    1  A    between atoms: C2_2  and  C3_3 
REMARK    2  A    between atoms: C3_3  and  N1_4 
REMARK    3  A    between atoms: N1_4  and  C4_6 
REMARK    4  A    between atoms: C4_6  and  C5_7 
REMARK    5  A    between atoms: C5_7  and  N2_8 
REMARK    6  A    between atoms: N2_8  and  C6_11 
ROOT
HETATM    1  C6  UNL     1      18.748  26.653  -9.953  1.00  0.00     0.240 C 
HETATM    2  C7  UNL     1      19.805  26.189 -10.926  1.00  0.00     0.079 C 
HETATM    3  C8  UNL     1      19.046  25.560 -12.019  1.00  0.00    -0.044 A 
HETATM    4  C9  UNL     1      19.423  24.671 -13.019  1.00  0.00     0.008 A 
HETATM    5  C10 UNL     1      18.497  24.233 -13.936  1.00  0.00     0.001 A 
HETATM    6  C11 UNL     1      17.171  24.659 -13.893  1.00  0.00     0.001 A 
HETATM    7  C12 UNL     1      16.816  25.536 -12.901  1.00  0.00     0.014 A 
HETATM    8  C13 UNL     1      17.742  25.990 -11.963  1.00  0.00    -0.006 A 
HETATM    9  C14 UNL     1      17.584  26.922 -10.822  1.00  0.00     0.045 C 
HETATM   10  N3  UNL     1      16.603  27.735 -10.728  1.00  0.00    -0.400 N 
ATOM     11  H31 UNL     1      15.799  27.920 -11.328  1.00  0.00     0.156 HD
ATOM     12  H32 UNL     1      16.495  28.376  -9.942  1.00  0.00     0.156 HD
ENDROOT
BRANCH   1  13
HETATM   13  N2  UNL     1      19.233  27.851  -9.309  1.00  0.00    -0.064 N 
ATOM     14  H22 UNL     1      19.022  28.674  -9.873  1.00  0.00     0.278 HD
ATOM     15  H21 UNL     1      20.253  27.885  -9.332  1.00  0.00     0.278 HD
BRANCH  13  16
HETATM   16  C5  UNL     1      18.747  28.022  -7.957  1.00  0.00     0.252 C 
BRANCH  16  17
HETATM   17  C4  UNL     1      18.088  29.377  -7.909  1.00  0.00     0.141 C 
BRANCH  17  18
HETATM   18  N1  UNL     1      18.611  30.285  -6.946  1.00  0.00    -0.417 N 
ATOM     19  H1  UNL     1      18.079  30.580  -6.128  1.00  0.00     0.153 HD
BRANCH  18  20
HETATM   20  C3  UNL     1      19.941  30.756  -7.212  1.00  0.00     0.140 C 
BRANCH  20  21
HETATM   21  C2  UNL     1      20.055  32.157  -6.723  1.00  0.00    -0.018 C 
HETATM   22  C1  UNL     1      19.352  33.165  -7.169  1.00  0.00     0.008 C 
ENDBRANCH  20  21
ENDBRANCH  18  20
ENDBRANCH  17  18
ENDBRANCH  16  17
ENDBRANCH  13  16
ENDBRANCH   1  13
TORSDOF 6
ENDMDL
MODEL 4
REMARK VINA RESULT: -6.765892855      1.382      2.879
REMARK  6 active torsions:
REMARK  status: ('A' for Active; 'I' for Inactive)
REMARK    1  A    between atoms: C2_2  and  C3_3 
REMARK    2  A    between atoms: C3_3  and  N1_4 
REMARK    3  A    between atoms: N1_4  and  C4_6 
REMARK    4  A    between atoms: C4_6  and  C5_7 
REMARK    5  A    between atoms: C5_7  and  N2_8 
REMARK    6  A    between atoms: N2_8  and  C6_11 
ROOT
HETATM    1  C6  UNL     1      19.358  27.232 -11.026  1.00  0.00     0.240 C 
HETATM    2  C7  UNL     1      20.304  26.730 -12.090  1.00  0.00     0.079 C 
HETATM    3  C8  UNL     1      19.509  25.761 -12.861  1.00  0.00    -0.044 A 
HETATM    4  C9  UNL     1      19.877  24.740 -13.729  1.00  0.00     0.008 A 
HETATM    5  C10 UNL     1      18.912  23.968 -14.332  1.00  0.00     0.001 A 
HETATM    6  C11 UNL     1      17.555  24.181 -14.096  1.00  0.00     0.001 A 
HETATM    7  C12 UNL     1      17.209  25.193 -13.238  1.00  0.00     0.014 A 
HETATM    8  C13 UNL     1      18.174  25.985 -12.618  1.00  0.00    -0.006 A 
HETATM    9  C14 UNL     1      18.033  27.114 -11.669  1.00  0.00     0.045 C 
HETATM   10  N3  UNL     1      16.943  27.765 -11.530  1.00  0.00    -0.400 N 
ATOM     11  H31 UNL     1      16.028  27.683 -11.975  1.00  0.00     0.156 HD
ATOM     12  H32 UNL     1      16.846  28.542 -10.877  1.00  0.00     0.156 HD
ENDROOT
BRANCH   1  13
HETATM   13  N2  UNL     1      19.702  28.605 -10.738  1.00  0.00    -0.064 N 
ATOM     14  H22 UNL     1      18.860  29.171 -10.626  1.00  0.00     0.278 HD
ATOM     15  H21 UNL     1      20.103  29.056 -11.560  1.00  0.00     0.278 HD
BRANCH  13  16
HETATM   16  C5  UNL     1      20.574  28.758  -9.594  1.00  0.00     0.252 C 
BRANCH  16  17
HETATM   17  C4  UNL     1      19.681  29.009  -8.406  1.00  0.00     0.141 C 
BRANCH  17  18
HETATM   18  N1  UNL     1      19.446  27.889  -7.561  1.00  0.00    -0.417 N 
ATOM     19  H1  UNL     1      20.190  27.444  -7.025  1.00  0.00     0.153 HD
BRANCH  18  20
HETATM   20  C3  UNL     1      18.086  27.431  -7.519  1.00  0.00     0.140 C 
BRANCH  20  21
HETATM   21  C2  UNL     1      17.195  28.551  -7.927  1.00  0.00    -0.018 C 
HETATM   22  C1  UNL     1      15.927  28.431  -8.220  1.00  0.00     0.008 C 
ENDBRANCH  20  21
ENDBRANCH  18  20
ENDBRANCH  17  18
ENDBRANCH  16  17
ENDBRANCH  13  16
ENDBRANCH   1  13
TORSDOF 6
ENDMDL
MODEL 5
REMARK VINA RESULT: -6.721275933      1.408      2.581
REMARK  6 active torsions:
REMARK  status: ('A' for Active; 'I' for Inactive)
REMARK    1  A    between atoms: C2_2  and  C3_3 
REMARK    2  A    between atoms: C3_3  and  N1_4 
REMARK    3  A    between atoms: N1_4  and  C4_6 
REMARK    4  A    between atoms: C4_6  and  C5_7 
REMARK    5  A    between atoms: C5_7  and  N2_8 
REMARK    6  A    between atoms: N2_8  and  C6_11 
ROOT
HETATM    1  C6  UNL     1      18.920  26.705 -10.114  1.00  0.00     0.240 C 
HETATM    2  C7  UNL     1      19.923  26.221 -11.133  1.00  0.00     0.079 C 
HETATM    3  C8  UNL     1      19.108  25.551 -12.160  1.00  0.00    -0.044 A 
HETATM    4  C9  UNL     1      19.436  24.635 -13.153  1.00  0.00     0.008 A 
HETATM    5  C10 UNL     1      18.462  24.159 -13.999  1.00  0.00     0.001 A 
HETATM    6  C11 UNL     1      17.136  24.573 -13.890  1.00  0.00     0.001 A 
HETATM    7  C12 UNL     1      16.830  25.477 -12.906  1.00  0.00     0.014 A 
HETATM    8  C13 UNL     1      17.804  25.969 -12.039  1.00  0.00    -0.006 A 
HETATM    9  C14 UNL     1      17.703  26.934 -10.920  1.00  0.00     0.045 C 
HETATM   10  N3  UNL     1      16.720  27.740 -10.792  1.00  0.00    -0.400 N 
ATOM     11  H31 UNL     1      15.880  27.899 -11.349  1.00  0.00     0.156 HD
ATOM     12  H32 UNL     1      16.651  28.405 -10.021  1.00  0.00     0.156 HD
ENDROOT
BRANCH   1  13
HETATM   13  N2  UNL     1      19.428  27.927  -9.537  1.00  0.00    -0.064 N 
ATOM     14  H22 UNL     1      19.193  28.727 -10.123  1.00  0.00     0.278 HD
ATOM     15  H21 UNL     1      20.446  27.960  -9.602  1.00  0.00     0.278 HD
BRANCH  13  16
HETATM   16  C5  UNL     1      18.997  28.150  -8.174  1.00  0.00     0.252 C 
BRANCH  16  17
HETATM   17  C4  UNL     1      20.058  29.000  -7.524  1.00  0.00     0.141 C 
BRANCH  17  18
HETATM   18  N1  UNL     1      21.157  28.294  -6.960  1.00  0.00    -0.417 N 
ATOM     19  H1  UNL     1      21.042  27.414  -6.459  1.00  0.00     0.153 HD
BRANCH  18  20
HETATM   20  C3  UNL     1      22.440  28.912  -7.149  1.00  0.00     0.140 C 
BRANCH  20  21
HETATM   21  C2  UNL     1      22.246  30.198  -7.871  1.00  0.00    -0.018 C 
HETATM   22  C1  UNL     1      23.177  31.095  -8.067  1.00  0.00     0.008 C 
ENDBRANCH  20  21
ENDBRANCH  18  20
ENDBRANCH  17  18
ENDBRANCH  16  17
ENDBRANCH  13  16
ENDBRANCH   1  13
TORSDOF 6
ENDMDL
