MODEL 1
REMARK VINA RESULT: -6.160826323      0.000      0.000
REMARK  6 active torsions:
REMARK  status: ('A' for Active; 'I' for Inactive)
REMARK    1  A    between atoms: C2_2  and  C3_3 
REMARK    2  A    between atoms: C3_3  and  C4_4 
REMARK    3  A    between atoms: C4_4  and  C5_5 
REMARK    4  A    between atoms: C5_5  and  C6_6 
REMARK    5  A    between atoms: C5_5  and  N1_12 
REMARK    6  A    between atoms: C6_6  and  C7_7 
REMARK       I    between atoms: N1_12  and  C11_14 
ROOT
HETATM    1  C5  UNL     1      17.887  27.417  -8.858  1.00  0.00     0.090 C 
ENDROOT
BRANCH   1   2
HETATM    2  C4  UNL     1      18.811  27.330 -10.024  1.00  0.00     0.029 C 
BRANCH   2   3
HETATM    3  C3  UNL     1      18.525  26.127 -10.904  1.00  0.00     0.028 C 
BRANCH   3   4
HETATM    4  C2  UNL     1      17.443  26.460 -11.869  1.00  0.00    -0.037 C 
HETATM    5  C1  UNL     1      17.014  25.582 -12.775  1.00  0.00     0.007 C 
ENDBRANCH   3   4
ENDBRANCH   2   3
ENDBRANCH   1   2
BRANCH   1   6
HETATM    6  C6  UNL     1      18.597  27.567  -7.541  1.00  0.00     0.090 C 
BRANCH   6   7
HETATM    7  C7  UNL     1      19.281  28.900  -7.441  1.00  0.00     0.054 A 
HETATM    8  C8  UNL     1      20.645  29.115  -7.441  1.00  0.00     0.034 A 
HETATM    9  C9  UNL     1      20.848  30.467  -7.332  1.00  0.00     0.027 A 
HETATM   10  C10 UNL     1      19.595  31.033  -7.268  1.00  0.00     0.142 A 
HETATM   11  O1  UNL     1      18.723  30.073  -7.335  1.00  0.00    -0.327 OA
ENDBRANCH   6   7
ENDBRANCH   1   6
BRANCH   1  12
HETATM   12  N1  UNL     1      16.960  28.520  -8.985  1.00  0.00    -0.360 N 
HETATM   13  C11 UNL     1      15.560  28.375  -8.805  1.00  0.00     0.182 C 
HETATM   14  N2  UNL     1      14.928  27.372  -9.281  1.00  0.00    -0.374 N 
HETATM   15  N3  UNL     1      14.848  29.360  -8.084  1.00  0.00    -0.064 NA
ATOM     16  H22 UNL     1      15.441  26.661  -9.801  1.00  0.00     0.158 HD
ATOM     17  H21 UNL     1      13.921  27.268  -9.152  1.00  0.00     0.158 HD
ATOM     18  H1  UNL     1      17.329  29.443  -9.214  1.00  0.00     0.162 HD
ENDBRANCH   1  12
TORSDOF 6
ENDMDL
MODEL 2
REMARK VINA RESULT: -6.055264832      1.327      1.813
REMARK  6 active torsions:
REMARK  status: ('A' for Active; 'I' for Inactive)
REMARK    1  A    between atoms: C2_2  and  C3_3 
REMARK    2  A    between atoms: C3_3  and  C4_4 
REMARK    3  A    between atoms: C4_4  and  C5_5 
REMARK    4  A    between atoms: C5_5  and  C6_6 
REMARK    5  A    between atoms: C5_5  and  N1_12 
REMARK    6  A    between atoms: C6_6  and  C7_7 
REMARK       I    between atoms: N1_12  and  C11_14 
ROOT
HETATM    1  C5  UNL     1      17.365  27.450 -10.072  1.00  0.00     0.090 C 
ENDROOT
BRANCH   1   2
HETATM    2  C4  UNL     1      17.380  26.638 -11.322  1.00  0.00     0.029 C 
BRANCH   2   3
HETATM    3  C3  UNL     1      18.664  25.848 -11.487  1.00  0.00     0.028 C 
BRANCH   3   4
HETATM    4  C2  UNL     1      18.607  25.058 -12.745  1.00  0.00    -0.037 C 
HETATM    5  C1  UNL     1      17.496  24.976 -13.475  1.00  0.00     0.007 C 
ENDBRANCH   3   4
ENDBRANCH   2   3
ENDBRANCH   1   2
BRANCH   1   6
HETATM    6  C6  UNL     1      18.021  28.794 -10.222  1.00  0.00     0.090 C 
BRANCH   6   7
HETATM    7  C7  UNL     1      19.232  28.910  -9.342  1.00  0.00     0.054 A 
HETATM    8  C8  UNL     1      20.546  28.922  -9.766  1.00  0.00     0.034 A 
HETATM    9  C9  UNL     1      21.336  29.042  -8.651  1.00  0.00     0.027 A 
HETATM   10  C10 UNL     1      20.473  29.098  -7.581  1.00  0.00     0.142 A 
HETATM   11  O1  UNL     1      19.262  29.016  -8.043  1.00  0.00    -0.327 OA
ENDBRANCH   6   7
ENDBRANCH   1   6
BRANCH   1  12
HETATM   12  N1  UNL     1      16.020  27.669  -9.587  1.00  0.00    -0.360 N 
HETATM   13  C11 UNL     1      15.736  28.415  -8.413  1.00  0.00     0.182 C 
HETATM   14  N2  UNL     1      16.437  28.283  -7.354  1.00  0.00    -0.374 N 
HETATM   15  N3  UNL     1      14.653  29.323  -8.414  1.00  0.00    -0.064 NA
ATOM     16  H22 UNL     1      17.219  27.628  -7.353  1.00  0.00     0.158 HD
ATOM     17  H21 UNL     1      16.232  28.818  -6.510  1.00  0.00     0.158 HD
ATOM     18  H1  UNL     1      15.241  27.271 -10.112  1.00  0.00     0.162 HD
ENDBRANCH   1  12
TORSDOF 6
ENDMDL
MODEL 3
REMARK VINA RESULT: -5.988151074      1.272      1.728
REMARK  6 active torsions:
REMARK  status: ('A' for Active; 'I' for Inactive)
REMARK    1  A    between atoms: C2_2  and  C3_3 
REMARK    2  A    between atoms: C3_3  and  C4_4 
REMARK    3  A    between atoms: C4_4  and  C5_5 
REMARK    4  A    between atoms: C5_5  and  C6_6 
REMARK    5  A    between atoms: C5_5  and  N1_12 
REMARK    6  A    between atoms: C6_6  and  C7_7 
REMARK       I    between atoms: N1_12  and  C11_14 
ROOT
HETATM    1  C5  UNL     1      17.810  27.373  -9.825  1.00  0.00     0.090 C 
ENDROOT
BRANCH   1   2
HETATM    2  C4  UNL     1      18.223  26.311 -10.786  1.00  0.00     0.029 C 
BRANCH   2   3
HETATM    3  C3  UNL     1      17.857  26.649 -12.219  1.00  0.00     0.028 C 
BRANCH   3   4
HETATM    4  C2  UNL     1      17.040  25.551 -12.800  1.00  0.00    -0.037 C 
HETATM    5  C1  UNL     1      17.523  24.730 -13.731  1.00  0.00     0.007 C 
ENDBRANCH   3   4
ENDBRANCH   2   3
ENDBRANCH   1   2
BRANCH   1   6
HETATM    6  C6  UNL     1      18.445  28.708 -10.099  1.00  0.00     0.090 C 
BRANCH   6   7
HETATM    7  C7  UNL     1      19.360  29.114  -8.979  1.00  0.00     0.054 A 
HETATM    8  C8  UNL     1      19.213  30.225  -8.173  1.00  0.00     0.034 A 
HETATM    9  C9  UNL     1      20.257  30.228  -7.283  1.00  0.00     0.027 A 
HETATM   10  C10 UNL     1      21.008  29.113  -7.579  1.00  0.00     0.142 A 
HETATM   11  O1  UNL     1      20.438  28.505  -8.575  1.00  0.00    -0.327 OA
ENDBRANCH   6   7
ENDBRANCH   1   6
BRANCH   1  12
HETATM   12  N1  UNL     1      16.376  27.563  -9.814  1.00  0.00    -0.360 N 
HETATM   13  C11 UNL     1      15.714  28.383  -8.863  1.00  0.00     0.182 C 
HETATM   14  N2  UNL     1      16.042  28.367  -7.628  1.00  0.00    -0.374 N 
HETATM   15  N3  UNL     1      14.670  29.234  -9.288  1.00  0.00    -0.064 NA
ATOM     16  H22 UNL     1      16.796  27.753  -7.321  1.00  0.00     0.158 HD
ATOM     17  H21 UNL     1      15.566  28.955  -6.944  1.00  0.00     0.158 HD
ATOM     18  H1  UNL     1      15.816  27.088 -10.521  1.00  0.00     0.162 HD
ENDBRANCH   1  12
TORSDOF 6
ENDMDL
MODEL 4
REMARK VINA RESULT: -5.947745173      2.923      6.084
REMARK  6 active torsions:
REMARK  status: ('A' for Active; 'I' for Inactive)
REMARK    1  A    between atoms: C2_2  and  C3_3 
REMARK    2  A    between atoms: C3_3  and  C4_4 
REMARK    3  A    between atoms: C4_4  and  C5_5 
REMARK    4  A    between atoms: C5_5  and  C6_6 
REMARK    5  A    between atoms: C5_5  and  N1_12 
REMARK    6  A    between atoms: C6_6  and  C7_7 
REMARK       I    between atoms: N1_12  and  C11_14 
ROOT
HETATM    1  C5  UNL     1      17.976  26.998 -10.547  1.00  0.00     0.090 C 
ENDROOT
BRANCH   1   2
HETATM    2  C4  UNL     1      17.199  27.361  -9.328  1.00  0.00     0.029 C 
BRANCH   2   3
HETATM    3  C3  UNL     1      17.915  26.978  -8.046  1.00  0.00     0.028 C 
BRANCH   3   4
HETATM    4  C2  UNL     1      17.995  28.158  -7.146  1.00  0.00    -0.037 C 
HETATM    5  C1  UNL     1      18.355  29.361  -7.591  1.00  0.00     0.007 C 
ENDBRANCH   3   4
ENDBRANCH   2   3
ENDBRANCH   1   2
BRANCH   1   6
HETATM    6  C6  UNL     1      17.124  26.457 -11.661  1.00  0.00     0.090 C 
BRANCH   6   7
HETATM    7  C7  UNL     1      17.912  25.540 -12.552  1.00  0.00     0.054 A 
HETATM    8  C8  UNL     1      17.425  24.855 -13.648  1.00  0.00     0.034 A 
HETATM    9  C9  UNL     1      18.464  24.134 -14.178  1.00  0.00     0.027 A 
HETATM   10  C10 UNL     1      19.555  24.405 -13.383  1.00  0.00     0.142 A 
HETATM   11  O1  UNL     1      19.173  25.228 -12.454  1.00  0.00    -0.327 OA
ENDBRANCH   6   7
ENDBRANCH   1   6
BRANCH   1  12
HETATM   12  N1  UNL     1      18.719  28.124 -11.069  1.00  0.00    -0.360 N 
HETATM   13  C11 UNL     1      20.133  28.217 -10.992  1.00  0.00     0.182 C 
HETATM   14  N2  UNL     1      20.766  27.882  -9.935  1.00  0.00    -0.374 N 
HETATM   15  N3  UNL     1      20.858  28.691 -12.109  1.00  0.00    -0.064 NA
ATOM     16  H22 UNL     1      20.243  27.540  -9.129  1.00  0.00     0.158 HD
ATOM     17  H21 UNL     1      21.782  27.950  -9.879  1.00  0.00     0.158 HD
ATOM     18  H1  UNL     1      18.204  28.885 -11.512  1.00  0.00     0.162 HD
ENDBRANCH   1  12
TORSDOF 6
ENDMDL
MODEL 5
REMARK VINA RESULT: -5.910487804      2.089      5.055
REMARK  6 active torsions:
REMARK  status: ('A' for Active; 'I' for Inactive)
REMARK    1  A    between atoms: C2_2  and  C3_3 
REMARK    2  A    between atoms: C3_3  and  C4_4 
REMARK    3  A    between atoms: C4_4  and  C5_5 
REMARK    4  A    between atoms: C5_5  and  C6_6 
REMARK    5  A    between atoms: C5_5  and  N1_12 
REMARK    6  A    between atoms: C6_6  and  C7_7 
REMARK       I    between atoms: N1_12  and  C11_14 
ROOT
HETATM    1  C5  UNL     1      17.490  28.104 -10.282  1.00  0.00     0.090 C 
ENDROOT
BRANCH   1   2
HETATM    2  C4  UNL     1      18.311  29.206  -9.705  1.00  0.00     0.029 C 
BRANCH   2   3
HETATM    3  C3  UNL     1      19.700  28.747  -9.302  1.00  0.00     0.028 C 
BRANCH   3   4
HETATM    4  C2  UNL     1      20.053  29.322  -7.977  1.00  0.00    -0.037 C 
HETATM    5  C1  UNL     1      19.459  30.417  -7.504  1.00  0.00     0.007 C 
ENDBRANCH   3   4
ENDBRANCH   2   3
ENDBRANCH   1   2
BRANCH   1   6
HETATM    6  C6  UNL     1      18.091  26.741 -10.081  1.00  0.00     0.090 C 
BRANCH   6   7
HETATM    7  C7  UNL     1      18.170  25.985 -11.377  1.00  0.00     0.054 A 
HETATM    8  C8  UNL     1      17.205  25.962 -12.364  1.00  0.00     0.034 A 
HETATM    9  C9  UNL     1      17.668  25.157 -13.373  1.00  0.00     0.027 A 
HETATM   10  C10 UNL     1      18.905  24.714 -12.965  1.00  0.00     0.142 A 
HETATM   11  O1  UNL     1      19.144  25.228 -11.796  1.00  0.00    -0.327 OA
ENDBRANCH   6   7
ENDBRANCH   1   6
BRANCH   1  12
HETATM   12  N1  UNL     1      16.154  28.080  -9.729  1.00  0.00    -0.360 N 
HETATM   13  C11 UNL     1      15.846  28.575  -8.435  1.00  0.00     0.182 C 
HETATM   14  N2  UNL     1      16.607  28.344  -7.435  1.00  0.00    -0.374 N 
HETATM   15  N3  UNL     1      14.673  29.339  -8.246  1.00  0.00    -0.064 NA
ATOM     16  H22 UNL     1      17.454  27.793  -7.572  1.00  0.00     0.158 HD
ATOM     17  H21 UNL     1      16.385  28.699  -6.505  1.00  0.00     0.158 HD
ATOM     18  H1  UNL     1      15.399  27.691 -10.294  1.00  0.00     0.162 HD
ENDBRANCH   1  12
TORSDOF 6
ENDMDL
