MODEL 1
REMARK VINA RESULT: -6.372512906      0.000      0.000
REMARK  6 active torsions:
REMARK  status: ('A' for Active; 'I' for Inactive)
REMARK    1  A    between atoms: C2_2  and  N2_7 
REMARK    2  A    between atoms: N1_3  and  O1_5 
REMARK    3  A    between atoms: N2_7  and  N3_9 
REMARK    4  A    between atoms: N3_9  and  N4_11 
REMARK    5  A    between atoms: N4_11  and  C3_13 
REMARK    6  A    between atoms: C5_17  and  N7_20 
ROOT
HETATM    1  C3  UNL     1       7.007   2.384  23.564  1.00  0.00     0.689 C 
HETATM    2  N5  UNL     1       7.027   1.326  24.313  1.00  0.00    -0.222 N 
ATOM      3  H5  UNL     1       6.443   0.545  24.014  1.00  0.00     0.177 HD
HETATM    4  C4  UNL     1       7.778   1.139  25.506  1.00  0.00     0.186 C 
HETATM    5  C5  UNL     1       8.652   2.289  25.927  1.00  0.00     0.151 C 
HETATM    6  C6  UNL     1       7.760   3.179  26.716  1.00  0.00     0.094 C 
HETATM    7  N6  UNL     1       7.040   3.880  27.329  1.00  0.00    -0.194 NA
HETATM    8  C11 UNL     1       9.071   3.071  24.734  1.00  0.00     0.186 C 
HETATM    9  N9  UNL     1       7.852   3.444  24.041  1.00  0.00    -0.222 N 
ATOM     10  H9  UNL     1       7.604   4.423  23.897  1.00  0.00     0.177 HD
ENDROOT
BRANCH   5  11
HETATM   11  N7  UNL     1       9.727   1.874  26.770  1.00  0.00    -0.386 N 
HETATM   12  C7  UNL     1       9.606   0.536  27.271  1.00  0.00     0.146 C 
HETATM   13  C8  UNL     1      10.750   0.096  28.106  1.00  0.00     0.251 C 
HETATM   14  N8  UNL     1      11.231   1.024  29.070  1.00  0.00    -0.072 N 
HETATM   15  C9  UNL     1      10.362   2.168  29.127  1.00  0.00     0.251 C 
ATOM     16  H82 UNL     1      11.356   0.593  29.986  1.00  0.00     0.277 HD
ATOM     17  H81 UNL     1      12.200   1.289  28.896  1.00  0.00     0.277 HD
HETATM   18  C10 UNL     1      10.201   2.786  27.722  1.00  0.00     0.146 C 
ENDBRANCH   5  11
BRANCH   1  19
HETATM   19  N4  UNL     1       6.244   2.527  22.378  1.00  0.00    -0.118 N 
ATOM     20  H4  UNL     1       6.490   2.009  21.534  1.00  0.00     0.207 HD
BRANCH  19  21
HETATM   21  N3  UNL     1       5.220   3.334  22.389  1.00  0.00    -0.227 N 
ATOM     22  H3  UNL     1       4.519   3.308  23.130  1.00  0.00     0.209 HD
BRANCH  21  23
HETATM   23  N2  UNL     1       5.140   4.251  21.306  1.00  0.00    -0.273 N 
ATOM     24  H2  UNL     1       4.923   3.910  20.370  1.00  0.00     0.190 HD
BRANCH  23  25
HETATM   25  C2  UNL     1       5.360   5.632  21.516  1.00  0.00     0.113 C 
HETATM   26  C1  UNL     1       4.203   6.572  21.489  1.00  0.00     0.092 C 
HETATM   27  N1  UNL     1       6.538   6.133  21.751  1.00  0.00    -0.256 N 
ATOM     28  H1  UNL     1       6.635   7.135  21.911  1.00  0.00     0.195 HD
BRANCH  27  29
HETATM   29  O1  UNL     1       7.655   5.330  21.784  1.00  0.00    -0.288 OA
ATOM     30  H1  UNL     1       8.123   5.176  22.597  1.00  0.00     0.244 HD
ENDBRANCH  27  29
ENDBRANCH  23  25
ENDBRANCH  21  23
ENDBRANCH  19  21
ENDBRANCH   1  19
TORSDOF 6
ENDMDL
MODEL 2
REMARK VINA RESULT: -6.311479522      4.803      7.962
REMARK  6 active torsions:
REMARK  status: ('A' for Active; 'I' for Inactive)
REMARK    1  A    between atoms: C2_2  and  N2_7 
REMARK    2  A    between atoms: N1_3  and  O1_5 
REMARK    3  A    between atoms: N2_7  and  N3_9 
REMARK    4  A    between atoms: N3_9  and  N4_11 
REMARK    5  A    between atoms: N4_11  and  C3_13 
REMARK    6  A    between atoms: C5_17  and  N7_20 
ROOT
HETATM    1  C3  UNL     1       9.523  -1.717  24.725  1.00  0.00     0.689 C 
HETATM    2  N5  UNL     1       8.621  -0.865  25.102  1.00  0.00    -0.222 N 
ATOM      3  H5  UNL     1       8.229  -0.998  26.034  1.00  0.00     0.177 HD
HETATM    4  C4  UNL     1       8.122   0.236  24.352  1.00  0.00     0.186 C 
HETATM    5  C5  UNL     1       8.721   0.434  22.986  1.00  0.00     0.151 C 
HETATM    6  C6  UNL     1       7.926  -0.443  22.087  1.00  0.00     0.094 C 
HETATM    7  N6  UNL     1       7.295  -1.151  21.389  1.00  0.00    -0.194 NA
HETATM    8  C11 UNL     1      10.111  -0.093  22.960  1.00  0.00     0.186 C 
HETATM    9  N9  UNL     1      10.033  -1.472  23.404  1.00  0.00    -0.222 N 
ATOM     10  H9  UNL     1      10.330  -2.239  22.802  1.00  0.00     0.177 HD
ENDROOT
BRANCH   5  11
HETATM   11  N7  UNL     1       8.590   1.779  22.527  1.00  0.00    -0.386 N 
HETATM   12  C7  UNL     1       8.543   2.761  23.569  1.00  0.00     0.146 C 
HETATM   13  C8  UNL     1       8.455   4.160  23.082  1.00  0.00     0.251 C 
HETATM   14  N8  UNL     1       7.540   4.410  22.022  1.00  0.00    -0.072 N 
HETATM   15  C9  UNL     1       6.761   3.232  21.757  1.00  0.00     0.251 C 
ATOM     16  H82 UNL     1       6.953   5.223  22.208  1.00  0.00     0.277 HD
ATOM     17  H81 UNL     1       8.010   4.753  21.184  1.00  0.00     0.277 HD
HETATM   18  C10 UNL     1       7.688   2.029  21.483  1.00  0.00     0.146 C 
ENDBRANCH   5  11
BRANCH   1  19
HETATM   19  N4  UNL     1       9.994  -2.801  25.509  1.00  0.00    -0.118 N 
ATOM     20  H4  UNL     1      10.002  -2.744  26.527  1.00  0.00     0.207 HD
BRANCH  19  21
HETATM   21  N3  UNL     1      10.418  -3.872  24.899  1.00  0.00    -0.227 N 
ATOM     22  H3  UNL     1      11.115  -3.831  24.155  1.00  0.00     0.209 HD
BRANCH  21  23
HETATM   23  N2  UNL     1       9.851  -5.101  25.335  1.00  0.00    -0.273 N 
ATOM     24  H2  UNL     1      10.169  -5.524  26.207  1.00  0.00     0.190 HD
BRANCH  23  25
HETATM   25  C2  UNL     1       8.850  -5.742  24.569  1.00  0.00     0.113 C 
HETATM   26  C1  UNL     1       9.193  -6.961  23.784  1.00  0.00     0.092 C 
HETATM   27  N1  UNL     1       7.619  -5.322  24.524  1.00  0.00    -0.256 N 
ATOM     28  H1  UNL     1       6.934  -5.834  23.967  1.00  0.00     0.195 HD
BRANCH  27  29
HETATM   29  O1  UNL     1       7.227  -4.199  25.215  1.00  0.00    -0.288 OA
ATOM     30  H1  UNL     1       6.805  -3.473  24.771  1.00  0.00     0.244 HD
ENDBRANCH  27  29
ENDBRANCH  23  25
ENDBRANCH  21  23
ENDBRANCH  19  21
ENDBRANCH   1  19
TORSDOF 6
ENDMDL
MODEL 3
REMARK VINA RESULT: -6.247108356      1.316      2.340
REMARK  6 active torsions:
REMARK  status: ('A' for Active; 'I' for Inactive)
REMARK    1  A    between atoms: C2_2  and  N2_7 
REMARK    2  A    between atoms: N1_3  and  O1_5 
REMARK    3  A    between atoms: N2_7  and  N3_9 
REMARK    4  A    between atoms: N3_9  and  N4_11 
REMARK    5  A    between atoms: N4_11  and  C3_13 
REMARK    6  A    between atoms: C5_17  and  N7_20 
ROOT
HETATM    1  C3  UNL     1       7.730   2.166  22.578  1.00  0.00     0.689 C 
HETATM    2  N5  UNL     1       8.733   2.758  23.147  1.00  0.00    -0.222 N 
ATOM      3  H5  UNL     1       9.192   3.494  22.612  1.00  0.00     0.177 HD
HETATM    4  C4  UNL     1       9.259   2.490  24.442  1.00  0.00     0.186 C 
HETATM    5  C5  UNL     1       8.561   1.416  25.231  1.00  0.00     0.151 C 
HETATM    6  C6  UNL     1       9.194   0.145  24.792  1.00  0.00     0.094 C 
HETATM    7  N6  UNL     1       9.696  -0.856  24.426  1.00  0.00    -0.194 NA
HETATM    8  C11 UNL     1       7.134   1.333  24.825  1.00  0.00     0.186 C 
HETATM    9  N9  UNL     1       7.128   1.142  23.387  1.00  0.00    -0.222 N 
ATOM     10  H9  UNL     1       6.713   0.311  22.965  1.00  0.00     0.177 HD
ENDROOT
BRANCH   5  11
HETATM   11  N7  UNL     1       8.769   1.555  26.637  1.00  0.00    -0.386 N 
HETATM   12  C7  UNL     1       8.858   2.911  27.093  1.00  0.00     0.146 C 
HETATM   13  C8  UNL     1       9.026   3.047  28.561  1.00  0.00     0.251 C 
HETATM   14  N8  UNL     1       9.964   2.175  29.179  1.00  0.00    -0.072 N 
HETATM   15  C9  UNL     1      10.682   1.436  28.178  1.00  0.00     0.251 C 
ATOM     16  H82 UNL     1      10.592   2.675  29.809  1.00  0.00     0.277 HD
ATOM     17  H81 UNL     1       9.522   1.562  29.864  1.00  0.00     0.277 HD
HETATM   18  C10 UNL     1       9.694   0.699  27.249  1.00  0.00     0.146 C 
ENDBRANCH   5  11
BRANCH   1  19
HETATM   19  N4  UNL     1       7.236   2.469  21.284  1.00  0.00    -0.118 N 
ATOM     20  H4  UNL     1       7.818   2.331  20.458  1.00  0.00     0.207 HD
BRANCH  19  21
HETATM   21  N3  UNL     1       6.020   2.927  21.173  1.00  0.00    -0.227 N 
ATOM     22  H3  UNL     1       5.389   2.613  20.435  1.00  0.00     0.209 HD
BRANCH  21  23
HETATM   23  N2  UNL     1       5.627   3.889  22.143  1.00  0.00    -0.273 N 
ATOM     24  H2  UNL     1       5.378   3.585  23.084  1.00  0.00     0.190 HD
BRANCH  23  25
HETATM   25  C2  UNL     1       5.580   5.263  21.814  1.00  0.00     0.113 C 
HETATM   26  C1  UNL     1       4.259   5.933  21.644  1.00  0.00     0.092 C 
HETATM   27  N1  UNL     1       6.648   5.990  21.661  1.00  0.00    -0.256 N 
ATOM     28  H1  UNL     1       6.554   6.982  21.439  1.00  0.00     0.195 HD
BRANCH  27  29
HETATM   29  O1  UNL     1       7.904   5.443  21.795  1.00  0.00    -0.288 OA
ATOM     30  H1  UNL     1       8.468   5.322  21.039  1.00  0.00     0.244 HD
ENDBRANCH  27  29
ENDBRANCH  23  25
ENDBRANCH  21  23
ENDBRANCH  19  21
ENDBRANCH   1  19
TORSDOF 6
ENDMDL
MODEL 4
REMARK VINA RESULT: -6.222805369      5.907      7.923
REMARK  6 active torsions:
REMARK  status: ('A' for Active; 'I' for Inactive)
REMARK    1  A    between atoms: C2_2  and  N2_7 
REMARK    2  A    between atoms: N1_3  and  O1_5 
REMARK    3  A    between atoms: N2_7  and  N3_9 
REMARK    4  A    between atoms: N3_9  and  N4_11 
REMARK    5  A    between atoms: N4_11  and  C3_13 
REMARK    6  A    between atoms: C5_17  and  N7_20 
ROOT
HETATM    1  C3  UNL     1      10.849  -1.555  21.766  1.00  0.00     0.689 C 
HETATM    2  N5  UNL     1      10.321  -1.908  22.897  1.00  0.00    -0.222 N 
ATOM      3  H5  UNL     1      10.656  -2.781  23.304  1.00  0.00     0.177 HD
HETATM    4  C4  UNL     1       9.324  -1.205  23.629  1.00  0.00     0.186 C 
HETATM    5  C5  UNL     1       8.852   0.092  23.029  1.00  0.00     0.151 C 
HETATM    6  C6  UNL     1       7.775  -0.295  22.079  1.00  0.00     0.094 C 
HETATM    7  N6  UNL     1       6.933  -0.616  21.322  1.00  0.00    -0.194 NA
HETATM    8  C11 UNL     1       9.934   0.696  22.209  1.00  0.00     0.186 C 
HETATM    9  N9  UNL     1      10.334  -0.317  21.250  1.00  0.00    -0.222 N 
ATOM     10  H9  UNL     1      10.253  -0.156  20.246  1.00  0.00     0.177 HD
ENDROOT
BRANCH   5  11
HETATM   11  N7  UNL     1       8.290   0.968  24.007  1.00  0.00    -0.386 N 
HETATM   12  C7  UNL     1       8.714   2.332  23.896  1.00  0.00     0.146 C 
HETATM   13  C8  UNL     1       8.088   3.244  24.885  1.00  0.00     0.251 C 
HETATM   14  N8  UNL     1       8.015   2.778  26.226  1.00  0.00    -0.072 N 
HETATM   15  C9  UNL     1       8.736   1.541  26.356  1.00  0.00     0.251 C 
ATOM     16  H82 UNL     1       8.337   3.479  26.892  1.00  0.00     0.277 HD
ATOM     17  H81 UNL     1       7.051   2.694  26.549  1.00  0.00     0.277 HD
HETATM   18  C10 UNL     1       8.218   0.511  25.329  1.00  0.00     0.146 C 
ENDBRANCH   5  11
BRANCH   1  19
HETATM   19  N4  UNL     1      11.845  -2.286  21.071  1.00  0.00    -0.118 N 
ATOM     20  H4  UNL     1      11.602  -2.865  20.267  1.00  0.00     0.207 HD
BRANCH  19  21
HETATM   21  N3  UNL     1      13.080  -2.203  21.482  1.00  0.00    -0.227 N 
ATOM     22  H3  UNL     1      13.570  -1.310  21.544  1.00  0.00     0.209 HD
BRANCH  21  23
HETATM   23  N2  UNL     1      13.700  -3.431  21.839  1.00  0.00    -0.273 N 
ATOM     24  H2  UNL     1      13.992  -3.589  22.804  1.00  0.00     0.190 HD
BRANCH  23  25
HETATM   25  C2  UNL     1      13.917  -4.436  20.868  1.00  0.00     0.113 C 
HETATM   26  C1  UNL     1      13.155  -5.714  20.951  1.00  0.00     0.092 C 
HETATM   27  N1  UNL     1      14.752  -4.294  19.880  1.00  0.00    -0.256 N 
ATOM     28  H1  UNL     1      14.856  -5.047  19.199  1.00  0.00     0.195 HD
BRANCH  27  29
HETATM   29  O1  UNL     1      15.497  -3.146  19.740  1.00  0.00    -0.288 OA
ATOM     30  H1  UNL     1      15.292  -2.508  19.066  1.00  0.00     0.244 HD
ENDBRANCH  27  29
ENDBRANCH  23  25
ENDBRANCH  21  23
ENDBRANCH  19  21
ENDBRANCH   1  19
TORSDOF 6
ENDMDL
MODEL 5
REMARK VINA RESULT: -6.219293916      3.987      6.720
REMARK  6 active torsions:
REMARK  status: ('A' for Active; 'I' for Inactive)
REMARK    1  A    between atoms: C2_2  and  N2_7 
REMARK    2  A    between atoms: N1_3  and  O1_5 
REMARK    3  A    between atoms: N2_7  and  N3_9 
REMARK    4  A    between atoms: N3_9  and  N4_11 
REMARK    5  A    between atoms: N4_11  and  C3_13 
REMARK    6  A    between atoms: C5_17  and  N7_20 
ROOT
HETATM    1  C3  UNL     1       8.538  -0.784  24.601  1.00  0.00     0.689 C 
HETATM    2  N5  UNL     1       7.410  -0.175  24.796  1.00  0.00    -0.222 N 
ATOM      3  H5  UNL     1       6.574  -0.640  24.442  1.00  0.00     0.177 HD
HETATM    4  C4  UNL     1       7.216   1.072  25.452  1.00  0.00     0.186 C 
HETATM    5  C5  UNL     1       8.453   1.739  25.989  1.00  0.00     0.151 C 
HETATM    6  C6  UNL     1       8.999   2.512  24.842  1.00  0.00     0.094 C 
HETATM    7  N6  UNL     1       9.427   3.110  23.923  1.00  0.00    -0.194 NA
HETATM    8  C11 UNL     1       9.476   0.715  26.326  1.00  0.00     0.186 C 
HETATM    9  N9  UNL     1       9.674  -0.076  25.126  1.00  0.00    -0.222 N 
ATOM     10  H9  UNL     1      10.585  -0.128  24.671  1.00  0.00     0.177 HD
ENDROOT
BRANCH   5  11
HETATM   11  N7  UNL     1       8.161   2.654  27.045  1.00  0.00    -0.386 N 
HETATM   12  C7  UNL     1       7.723   3.947  26.607  1.00  0.00     0.146 C 
HETATM   13  C8  UNL     1       7.375   4.876  27.710  1.00  0.00     0.251 C 
HETATM   14  N8  UNL     1       8.272   4.921  28.812  1.00  0.00    -0.072 N 
HETATM   15  C9  UNL     1       9.444   4.141  28.525  1.00  0.00     0.251 C 
ATOM     16  H82 UNL     1       8.506   5.878  29.075  1.00  0.00     0.277 HD
ATOM     17  H81 UNL     1       7.824   4.632  29.682  1.00  0.00     0.277 HD
HETATM   18  C10 UNL     1       9.044   2.703  28.131  1.00  0.00     0.146 C 
ENDBRANCH   5  11
BRANCH   1  19
HETATM   19  N4  UNL     1       8.686  -2.031  23.943  1.00  0.00    -0.118 N 
ATOM     20  H4  UNL     1       7.927  -2.417  23.382  1.00  0.00     0.207 HD
BRANCH  19  21
HETATM   21  N3  UNL     1       9.813  -2.673  24.071  1.00  0.00    -0.227 N 
ATOM     22  H3  UNL     1      10.539  -2.639  23.355  1.00  0.00     0.209 HD
BRANCH  21  23
HETATM   23  N2  UNL     1       9.969  -3.423  25.269  1.00  0.00    -0.273 N 
ATOM     24  H2  UNL     1      10.216  -2.946  26.136  1.00  0.00     0.190 HD
BRANCH  23  25
HETATM   25  C2  UNL     1       9.782  -4.825  25.268  1.00  0.00     0.113 C 
HETATM   26  C1  UNL     1      10.947  -5.721  25.515  1.00  0.00     0.092 C 
HETATM   27  N1  UNL     1       8.623  -5.383  25.073  1.00  0.00    -0.256 N 
ATOM     28  H1  UNL     1       8.544  -6.400  25.100  1.00  0.00     0.195 HD
BRANCH  27  29
HETATM   29  O1  UNL     1       7.502  -4.623  24.832  1.00  0.00    -0.288 OA
ATOM     30  H1  UNL     1       6.638  -5.019  24.804  1.00  0.00     0.244 HD
ENDBRANCH  27  29
ENDBRANCH  23  25
ENDBRANCH  21  23
ENDBRANCH  19  21
ENDBRANCH   1  19
TORSDOF 6
ENDMDL
