MODEL 1
REMARK VINA RESULT: -6.769358074      0.000      0.000
REMARK  3 active torsions:
REMARK  status: ('A' for Active; 'I' for Inactive)
REMARK    1  A    between atoms: N1_2  and  C2_4 
REMARK    2  A    between atoms: C2_4  and  C3_5 
REMARK    3  A    between atoms: C3_5  and  C6_8 
ROOT
HETATM    1  C6  UNL     1      13.988  -2.203  51.586  1.00  0.00     0.257 C 
HETATM    2  O1  UNL     1      13.091  -3.047  52.221  1.00  0.00    -0.224 OA
HETATM    3  O2  UNL     1      12.520  -2.604  53.276  1.00  0.00    -0.200 OA
HETATM    4  C7  UNL     1      11.939  -1.372  53.237  1.00  0.00     0.202 C 
HETATM    5  C8  UNL     1      10.504  -1.460  52.783  1.00  0.00     0.071 C 
HETATM    6  C9  UNL     1       9.619  -1.223  53.962  1.00  0.00     0.006 C 
HETATM    7  C10 UNL     1      10.509  -1.484  55.162  1.00  0.00     0.006 C 
HETATM    8  C11 UNL     1      11.798  -0.891  54.686  1.00  0.00     0.071 C 
HETATM    9  O3  UNL     1      12.684  -0.411  52.589  1.00  0.00    -0.297 OA
HETATM   10  C12 UNL     1      13.389  -0.862  51.478  1.00  0.00     0.318 C 
HETATM   11  F1  UNL     1      14.224   0.147  51.078  1.00  0.00    -0.190 F 
HETATM   12 CL1  UNL     1      12.164  -0.956  50.150  1.00  0.00    -0.050 Cl
ENDROOT
BRANCH   1  13
HETATM   13  C3  UNL     1      15.342  -2.343  52.184  1.00  0.00     0.020 C 
HETATM   14  C4  UNL     1      15.586  -3.776  52.692  1.00  0.00     0.023 C 
HETATM   15  C5  UNL     1      15.678  -1.472  53.328  1.00  0.00     0.023 C 
BRANCH  13  16
HETATM   16  C2  UNL     1      16.350  -2.167  51.081  1.00  0.00     0.066 C 
BRANCH  16  17
HETATM   17  N1  UNL     1      17.234  -1.081  51.155  1.00  0.00    -0.406 N 
HETATM   18  C1  UNL     1      17.327  -0.154  50.095  1.00  0.00     0.145 C 
ATOM     19  H1  UNL     1      17.816  -0.960  51.983  1.00  0.00     0.158 HD
ENDBRANCH  16  17
ENDBRANCH  13  16
ENDBRANCH   1  13
TORSDOF 3
ENDMDL
MODEL 2
REMARK VINA RESULT: -6.738257824      1.542      2.324
REMARK  3 active torsions:
REMARK  status: ('A' for Active; 'I' for Inactive)
REMARK    1  A    between atoms: N1_2  and  C2_4 
REMARK    2  A    between atoms: C2_4  and  C3_5 
REMARK    3  A    between atoms: C3_5  and  C6_8 
ROOT
HETATM    1  C6  UNL     1      15.089  -1.357  50.193  1.00  0.00     0.257 C 
HETATM    2  O1  UNL     1      14.296  -2.409  50.621  1.00  0.00    -0.224 OA
HETATM    3  O2  UNL     1      13.752  -2.299  51.774  1.00  0.00    -0.200 OA
HETATM    4  C7  UNL     1      13.077  -1.153  52.071  1.00  0.00     0.202 C 
HETATM    5  C8  UNL     1      11.630  -1.251  51.660  1.00  0.00     0.071 C 
HETATM    6  C9  UNL     1      10.797  -1.398  52.890  1.00  0.00     0.006 C 
HETATM    7  C10 UNL     1      11.771  -1.873  53.952  1.00  0.00     0.006 C 
HETATM    8  C11 UNL     1      12.981  -1.067  53.598  1.00  0.00     0.071 C 
HETATM    9  O3  UNL     1      13.709   0.002  51.664  1.00  0.00    -0.297 OA
HETATM   10  C12 UNL     1      14.383  -0.090  50.452  1.00  0.00     0.318 C 
HETATM   11  F1  UNL     1      15.114   1.056  50.294  1.00  0.00    -0.190 F 
HETATM   12 CL1  UNL     1      13.096   0.044  49.187  1.00  0.00    -0.050 Cl
ENDROOT
BRANCH   1  13
HETATM   13  C3  UNL     1      16.481  -1.523  50.688  1.00  0.00     0.020 C 
HETATM   14  C4  UNL     1      16.556  -1.363  52.217  1.00  0.00     0.023 C 
HETATM   15  C5  UNL     1      17.508  -0.603  50.157  1.00  0.00     0.023 C 
BRANCH  13  16
HETATM   16  C2  UNL     1      16.885  -2.951  50.447  1.00  0.00     0.066 C 
BRANCH  16  17
HETATM   17  N1  UNL     1      16.529  -3.914  51.403  1.00  0.00    -0.406 N 
HETATM   18  C1  UNL     1      17.309  -5.076  51.581  1.00  0.00     0.145 C 
ATOM     19  H1  UNL     1      15.697  -3.772  51.976  1.00  0.00     0.158 HD
ENDBRANCH  16  17
ENDBRANCH  13  16
ENDBRANCH   1  13
TORSDOF 3
ENDMDL
MODEL 3
REMARK VINA RESULT: -6.430130743      0.889      1.103
REMARK  3 active torsions:
REMARK  status: ('A' for Active; 'I' for Inactive)
REMARK    1  A    between atoms: N1_2  and  C2_4 
REMARK    2  A    between atoms: C2_4  and  C3_5 
REMARK    3  A    between atoms: C3_5  and  C6_8 
ROOT
HETATM    1  C6  UNL     1      14.092  -2.306  51.806  1.00  0.00     0.257 C 
HETATM    2  O1  UNL     1      13.143  -3.113  52.413  1.00  0.00    -0.224 OA
HETATM    3  O2  UNL     1      12.514  -2.623  53.414  1.00  0.00    -0.200 OA
HETATM    4  C7  UNL     1      11.957  -1.385  53.293  1.00  0.00     0.202 C 
HETATM    5  C8  UNL     1      10.552  -1.470  52.753  1.00  0.00     0.071 C 
HETATM    6  C9  UNL     1       9.599  -1.177  53.865  1.00  0.00     0.006 C 
HETATM    7  C10 UNL     1      10.408  -1.406  55.127  1.00  0.00     0.006 C 
HETATM    8  C11 UNL     1      11.733  -0.849  54.711  1.00  0.00     0.071 C 
HETATM    9  O3  UNL     1      12.757  -0.459  52.659  1.00  0.00    -0.297 OA
HETATM   10  C12 UNL     1      13.522  -0.961  51.612  1.00  0.00     0.318 C 
HETATM   11  F1  UNL     1      14.397   0.020  51.229  1.00  0.00    -0.190 F 
HETATM   12 CL1  UNL     1      12.381  -1.088  50.213  1.00  0.00    -0.050 Cl
ENDROOT
BRANCH   1  13
HETATM   13  C3  UNL     1      15.403  -2.443  52.493  1.00  0.00     0.020 C 
HETATM   14  C4  UNL     1      15.579  -3.850  53.093  1.00  0.00     0.023 C 
HETATM   15  C5  UNL     1      15.692  -1.515  53.605  1.00  0.00     0.023 C 
BRANCH  13  16
HETATM   16  C2  UNL     1      16.479  -2.353  51.446  1.00  0.00     0.066 C 
BRANCH  16  17
HETATM   17  N1  UNL     1      16.425  -3.238  50.359  1.00  0.00    -0.406 N 
HETATM   18  C1  UNL     1      17.546  -4.023  50.011  1.00  0.00     0.145 C 
ATOM     19  H1  UNL     1      15.566  -3.316  49.814  1.00  0.00     0.158 HD
ENDBRANCH  16  17
ENDBRANCH  13  16
ENDBRANCH   1  13
TORSDOF 3
ENDMDL
MODEL 4
REMARK VINA RESULT: -6.292424538      1.145      2.067
REMARK  3 active torsions:
REMARK  status: ('A' for Active; 'I' for Inactive)
REMARK    1  A    between atoms: N1_2  and  C2_4 
REMARK    2  A    between atoms: C2_4  and  C3_5 
REMARK    3  A    between atoms: C3_5  and  C6_8 
ROOT
HETATM    1  C6  UNL     1      14.230  -2.038  51.261  1.00  0.00     0.257 C 
HETATM    2  O1  UNL     1      13.384  -2.930  51.900  1.00  0.00    -0.224 OA
HETATM    3  O2  UNL     1      12.829  -2.535  52.983  1.00  0.00    -0.200 OA
HETATM    4  C7  UNL     1      12.202  -1.324  52.992  1.00  0.00     0.202 C 
HETATM    5  C8  UNL     1      10.758  -1.456  52.578  1.00  0.00     0.071 C 
HETATM    6  C9  UNL     1       9.901  -1.281  53.788  1.00  0.00     0.006 C 
HETATM    7  C10 UNL     1      10.837  -1.537  54.955  1.00  0.00     0.006 C 
HETATM    8  C11 UNL     1      12.087  -0.884  54.455  1.00  0.00     0.071 C 
HETATM    9  O3  UNL     1      12.891  -0.321  52.346  1.00  0.00    -0.297 OA
HETATM   10  C12 UNL     1      13.578  -0.718  51.204  1.00  0.00     0.318 C 
HETATM   11  F1  UNL     1      14.362   0.330  50.805  1.00  0.00    -0.190 F 
HETATM   12 CL1  UNL     1      12.317  -0.827  49.911  1.00  0.00    -0.050 Cl
ENDROOT
BRANCH   1  13
HETATM   13  C3  UNL     1      15.606  -2.141  51.815  1.00  0.00     0.020 C 
HETATM   14  C4  UNL     1      15.720  -1.425  53.173  1.00  0.00     0.023 C 
HETATM   15  C5  UNL     1      16.712  -1.597  51.002  1.00  0.00     0.023 C 
BRANCH  13  16
HETATM   16  C2  UNL     1      15.860  -3.588  52.140  1.00  0.00     0.066 C 
BRANCH  16  17
HETATM   17  N1  UNL     1      15.538  -4.047  53.426  1.00  0.00    -0.406 N 
HETATM   18  C1  UNL     1      16.017  -5.292  53.888  1.00  0.00     0.145 C 
ATOM     19  H1  UNL     1      14.952  -3.476  54.034  1.00  0.00     0.158 HD
ENDBRANCH  16  17
ENDBRANCH  13  16
ENDBRANCH   1  13
TORSDOF 3
ENDMDL
MODEL 5
REMARK VINA RESULT: -6.210146399      1.394      2.208
REMARK  3 active torsions:
REMARK  status: ('A' for Active; 'I' for Inactive)
REMARK    1  A    between atoms: N1_2  and  C2_4 
REMARK    2  A    between atoms: C2_4  and  C3_5 
REMARK    3  A    between atoms: C3_5  and  C6_8 
ROOT
HETATM    1  C6  UNL     1      14.950  -1.597  50.472  1.00  0.00     0.257 C 
HETATM    2  O1  UNL     1      14.168  -2.602  51.020  1.00  0.00    -0.224 OA
HETATM    3  O2  UNL     1      13.617  -2.363  52.149  1.00  0.00    -0.200 OA
HETATM    4  C7  UNL     1      12.925  -1.198  52.304  1.00  0.00     0.202 C 
HETATM    5  C8  UNL     1      11.481  -1.364  51.901  1.00  0.00     0.071 C 
HETATM    6  C9  UNL     1      10.643  -1.374  53.137  1.00  0.00     0.006 C 
HETATM    7  C10 UNL     1      11.617  -1.706  54.252  1.00  0.00     0.006 C 
HETATM    8  C11 UNL     1      12.819  -0.932  53.810  1.00  0.00     0.071 C 
HETATM    9  O3  UNL     1      13.544  -0.091  51.766  1.00  0.00    -0.297 OA
HETATM   10  C12 UNL     1      14.226  -0.319  50.575  1.00  0.00     0.318 C 
HETATM   11  F1  UNL     1      14.944   0.810  50.285  1.00  0.00    -0.190 F 
HETATM   12 CL1  UNL     1      12.945  -0.353  49.298  1.00  0.00    -0.050 Cl
ENDROOT
BRANCH   1  13
HETATM   13  C3  UNL     1      16.341  -1.685  50.989  1.00  0.00     0.020 C 
HETATM   14  C4  UNL     1      17.308  -0.831  50.148  1.00  0.00     0.023 C 
HETATM   15  C5  UNL     1      16.966  -3.022  51.046  1.00  0.00     0.023 C 
BRANCH  13  16
HETATM   16  C2  UNL     1      16.366  -1.038  52.347  1.00  0.00     0.066 C 
BRANCH  16  17
HETATM   17  N1  UNL     1      16.282  -1.864  53.478  1.00  0.00    -0.406 N 
HETATM   18  C1  UNL     1      16.498  -1.340  54.771  1.00  0.00     0.145 C 
ATOM     19  H1  UNL     1      16.062  -2.853  53.365  1.00  0.00     0.158 HD
ENDBRANCH  16  17
ENDBRANCH  13  16
ENDBRANCH   1  13
TORSDOF 3
ENDMDL
