MODEL 1
REMARK VINA RESULT: -9.528995558      0.000      0.000
REMARK  3 active torsions:
REMARK  status: ('A' for Active; 'I' for Inactive)
REMARK    1  A    between atoms: C2_2  and  C3_3 
REMARK    2  A    between atoms: N1_12  and  C9_13 
REMARK    3  A    between atoms: C9_13  and  C10_17 
ROOT
HETATM    1  C1  UNL     1      12.525  -1.633  49.893  1.00  0.00     0.062 C 
HETATM    2  C2  UNL     1      13.349  -1.324  51.110  1.00  0.00     0.164 C 
HETATM    3  O1  UNL     1      14.093  -0.180  50.971  1.00  0.00    -0.248 OA
HETATM    4  N1  UNL     1      15.352  -0.527  50.701  1.00  0.00    -0.200 N 
HETATM    5  C15 UNL     1      15.557  -1.870  51.189  1.00  0.00     0.100 A 
HETATM    6  C16 UNL     1      16.459  -2.859  51.507  1.00  0.00     0.059 A 
HETATM    7  C17 UNL     1      15.705  -3.938  51.952  1.00  0.00     0.144 A 
HETATM    8  O2  UNL     1      14.434  -3.608  51.900  1.00  0.00    -0.321 OA
HETATM    9  C18 UNL     1      14.301  -2.390  51.454  1.00  0.00     0.123 A 
ENDROOT
BRANCH   4  10
HETATM   10  C9  UNL     1      16.394   0.190  50.061  1.00  0.00     0.154 C 
HETATM   11  N2  UNL     1      17.619  -0.275  50.056  1.00  0.00    -0.382 N 
ATOM     12  H22 UNL     1      17.764  -1.166  50.531  1.00  0.00     0.157 HD
ATOM     13  H21 UNL     1      18.369   0.241  49.594  1.00  0.00     0.157 HD
BRANCH  10  14
HETATM   14  C10 UNL     1      16.187   1.458  49.383  1.00  0.00     0.078 A 
HETATM   15  C11 UNL     1      15.172   2.300  49.780  1.00  0.00     0.033 A 
HETATM   16  C12 UNL     1      14.926   3.526  49.167  1.00  0.00     0.004 A 
HETATM   17  C13 UNL     1      15.758   3.884  48.119  1.00  0.00     0.017 A 
HETATM   18  C14 UNL     1      16.768   3.035  47.732  1.00  0.00     0.088 A 
HETATM   19  N3  UNL     1      16.950   1.874  48.360  1.00  0.00    -0.363 N 
ATOM     20  H3  UNL     1      17.709   1.269  48.047  1.00  0.00     0.165 HD
ENDBRANCH  10  14
ENDBRANCH   4  10
BRANCH   2  21
HETATM   21  C3  UNL     1      12.411  -1.192  52.277  1.00  0.00    -0.012 A 
HETATM   22  C4  UNL     1      12.863  -0.891  53.538  1.00  0.00     0.014 A 
HETATM   23  C5  UNL     1      11.998  -0.769  54.613  1.00  0.00     0.046 A 
HETATM   24  C6  UNL     1      10.644  -0.949  54.436  1.00  0.00     0.154 A 
HETATM   25  F1  UNL     1       9.802  -0.828  55.495  1.00  0.00    -0.203 F 
HETATM   26  C7  UNL     1      10.150  -1.256  53.163  1.00  0.00     0.155 A 
HETATM   27  F2  UNL     1       8.815  -1.427  53.017  1.00  0.00    -0.203 F 
HETATM   28  C8  UNL     1      11.049  -1.367  52.122  1.00  0.00     0.056 A 
ENDBRANCH   2  21
TORSDOF 3
ENDMDL
MODEL 2
REMARK VINA RESULT: -8.847302441      2.018      2.592
REMARK  3 active torsions:
REMARK  status: ('A' for Active; 'I' for Inactive)
REMARK    1  A    between atoms: C2_2  and  C3_3 
REMARK    2  A    between atoms: N1_12  and  C9_13 
REMARK    3  A    between atoms: C9_13  and  C10_17 
ROOT
HETATM    1  C1  UNL     1      13.002  -4.230  52.810  1.00  0.00     0.062 C 
HETATM    2  C2  UNL     1      13.061  -2.762  53.119  1.00  0.00     0.164 C 
HETATM    3  O1  UNL     1      13.157  -1.986  51.992  1.00  0.00    -0.248 OA
HETATM    4  N1  UNL     1      14.426  -1.598  51.853  1.00  0.00    -0.200 N 
HETATM    5  C15 UNL     1      15.052  -1.659  53.153  1.00  0.00     0.100 A 
HETATM    6  C16 UNL     1      16.127  -1.304  53.936  1.00  0.00     0.059 A 
HETATM    7  C17 UNL     1      15.879  -1.840  55.194  1.00  0.00     0.144 A 
HETATM    8  O2  UNL     1      14.728  -2.473  55.158  1.00  0.00    -0.321 OA
HETATM    9  C18 UNL     1      14.203  -2.390  53.967  1.00  0.00     0.123 A 
ENDROOT
BRANCH   4  10
HETATM   10  C9  UNL     1      15.148  -1.182  50.708  1.00  0.00     0.154 C 
HETATM   11  N2  UNL     1      15.822  -2.048  49.991  1.00  0.00    -0.382 N 
ATOM     12  H22 UNL     1      15.789  -3.017  50.309  1.00  0.00     0.157 HD
ATOM     13  H21 UNL     1      16.342  -1.747  49.166  1.00  0.00     0.157 HD
BRANCH  10  14
HETATM   14  C10 UNL     1      15.195   0.198  50.255  1.00  0.00     0.078 A 
HETATM   15  C11 UNL     1      14.074   0.993  50.333  1.00  0.00     0.033 A 
HETATM   16  C12 UNL     1      14.060   2.321  49.914  1.00  0.00     0.004 A 
HETATM   17  C13 UNL     1      15.241   2.832  49.402  1.00  0.00     0.017 A 
HETATM   18  C14 UNL     1      16.354   2.029  49.330  1.00  0.00     0.088 A 
HETATM   19  N3  UNL     1      16.302   0.764  49.749  1.00  0.00    -0.363 N 
ATOM     20  H3  UNL     1      17.147   0.197  49.680  1.00  0.00     0.165 HD
ENDBRANCH  10  14
ENDBRANCH   4  10
BRANCH   2  21
HETATM   21  C3  UNL     1      11.820  -2.405  53.887  1.00  0.00    -0.012 A 
HETATM   22  C4  UNL     1      10.906  -1.501  53.406  1.00  0.00     0.014 A 
HETATM   23  C5  UNL     1       9.762  -1.172  54.114  1.00  0.00     0.046 A 
HETATM   24  C6  UNL     1       9.514  -1.755  55.337  1.00  0.00     0.154 A 
HETATM   25  F1  UNL     1       8.390  -1.427  56.026  1.00  0.00    -0.203 F 
HETATM   26  C7  UNL     1      10.425  -2.680  55.857  1.00  0.00     0.155 A 
HETATM   27  F2  UNL     1      10.156  -3.239  57.060  1.00  0.00    -0.203 F 
HETATM   28  C8  UNL     1      11.551  -2.978  55.115  1.00  0.00     0.056 A 
ENDBRANCH   2  21
TORSDOF 3
ENDMDL
MODEL 3
REMARK VINA RESULT: -8.795229625      1.942      2.289
REMARK  3 active torsions:
REMARK  status: ('A' for Active; 'I' for Inactive)
REMARK    1  A    between atoms: C2_2  and  C3_3 
REMARK    2  A    between atoms: N1_12  and  C9_13 
REMARK    3  A    between atoms: C9_13  and  C10_17 
ROOT
HETATM    1  C1  UNL     1      13.248  -4.322  52.765  1.00  0.00     0.062 C 
HETATM    2  C2  UNL     1      13.258  -2.853  53.081  1.00  0.00     0.164 C 
HETATM    3  O1  UNL     1      13.328  -2.070  51.957  1.00  0.00    -0.248 OA
HETATM    4  N1  UNL     1      14.583  -1.639  51.820  1.00  0.00    -0.200 N 
HETATM    5  C15 UNL     1      15.211  -1.685  53.120  1.00  0.00     0.100 A 
HETATM    6  C16 UNL     1      16.273  -1.298  53.904  1.00  0.00     0.059 A 
HETATM    7  C17 UNL     1      16.043  -1.847  55.160  1.00  0.00     0.144 A 
HETATM    8  O2  UNL     1      14.914  -2.518  55.121  1.00  0.00    -0.321 OA
HETATM    9  C18 UNL     1      14.386  -2.448  53.931  1.00  0.00     0.123 A 
ENDROOT
BRANCH   4  10
HETATM   10  C9  UNL     1      15.291  -1.194  50.677  1.00  0.00     0.154 C 
HETATM   11  N2  UNL     1      15.998  -2.033  49.959  1.00  0.00    -0.382 N 
ATOM     12  H22 UNL     1      15.999  -3.003  50.275  1.00  0.00     0.157 HD
ATOM     13  H21 UNL     1      16.507  -1.712  49.136  1.00  0.00     0.157 HD
BRANCH  10  14
HETATM   14  C10 UNL     1      15.288   0.188  50.227  1.00  0.00     0.078 A 
HETATM   15  C11 UNL     1      14.147   0.951  50.336  1.00  0.00     0.033 A 
HETATM   16  C12 UNL     1      14.085   2.279  49.921  1.00  0.00     0.004 A 
HETATM   17  C13 UNL     1      15.239   2.824  49.382  1.00  0.00     0.017 A 
HETATM   18  C14 UNL     1      16.372   2.052  49.279  1.00  0.00     0.088 A 
HETATM   19  N3  UNL     1      16.365   0.786  49.695  1.00  0.00    -0.363 N 
ATOM     20  H3  UNL     1      17.223   0.243  49.603  1.00  0.00     0.165 HD
ENDBRANCH  10  14
ENDBRANCH   4  10
BRANCH   2  21
HETATM   21  C3  UNL     1      12.005  -2.541  53.850  1.00  0.00    -0.012 A 
HETATM   22  C4  UNL     1      11.822  -2.976  55.140  1.00  0.00     0.014 A 
HETATM   23  C5  UNL     1      10.667  -2.688  55.848  1.00  0.00     0.046 A 
HETATM   24  C6  UNL     1       9.663  -1.948  55.265  1.00  0.00     0.154 A 
HETATM   25  F1  UNL     1       8.533  -1.670  55.966  1.00  0.00    -0.203 F 
HETATM   26  C7  UNL     1       9.818  -1.490  53.952  1.00  0.00     0.155 A 
HETATM   27  F2  UNL     1       8.816  -0.764  53.403  1.00  0.00    -0.203 F 
HETATM   28  C8  UNL     1      10.986  -1.800  53.285  1.00  0.00     0.056 A 
ENDBRANCH   2  21
TORSDOF 3
ENDMDL
MODEL 4
REMARK VINA RESULT: -8.759308964      3.653      6.812
REMARK  3 active torsions:
REMARK  status: ('A' for Active; 'I' for Inactive)
REMARK    1  A    between atoms: C2_2  and  C3_3 
REMARK    2  A    between atoms: N1_12  and  C9_13 
REMARK    3  A    between atoms: C9_13  and  C10_17 
ROOT
HETATM    1  C1  UNL     1      15.834  -1.481  49.405  1.00  0.00     0.062 C 
HETATM    2  C2  UNL     1      15.225  -0.500  50.364  1.00  0.00     0.164 C 
HETATM    3  O1  UNL     1      15.832  -0.514  51.595  1.00  0.00    -0.248 OA
HETATM    4  N1  UNL     1      15.061  -1.203  52.437  1.00  0.00    -0.200 N 
HETATM    5  C15 UNL     1      13.712  -1.182  51.922  1.00  0.00     0.100 A 
HETATM    6  C16 UNL     1      12.378  -1.409  52.168  1.00  0.00     0.059 A 
HETATM    7  C17 UNL     1      11.711  -1.092  50.991  1.00  0.00     0.144 A 
HETATM    8  O2  UNL     1      12.597  -0.702  50.102  1.00  0.00    -0.321 OA
HETATM    9  C18 UNL     1      13.796  -0.738  50.612  1.00  0.00     0.123 A 
ENDROOT
BRANCH   4  10
HETATM   10  C9  UNL     1      15.378  -1.879  53.641  1.00  0.00     0.154 C 
HETATM   11  N2  UNL     1      15.109  -1.335  54.803  1.00  0.00    -0.382 N 
ATOM     12  H22 UNL     1      14.667  -0.415  54.777  1.00  0.00     0.157 HD
ATOM     13  H21 UNL     1      15.337  -1.822  55.671  1.00  0.00     0.157 HD
BRANCH  10  14
HETATM   14  C10 UNL     1      16.007  -3.188  53.678  1.00  0.00     0.078 A 
HETATM   15  C11 UNL     1      17.266  -3.367  53.151  1.00  0.00     0.033 A 
HETATM   16  C12 UNL     1      17.918  -4.598  53.157  1.00  0.00     0.004 A 
HETATM   17  C13 UNL     1      17.242  -5.665  53.726  1.00  0.00     0.017 A 
HETATM   18  C14 UNL     1      15.986  -5.473  54.249  1.00  0.00     0.088 A 
HETATM   19  N3  UNL     1      15.417  -4.268  54.212  1.00  0.00    -0.363 N 
ATOM     20  H3  UNL     1      14.484  -4.162  54.609  1.00  0.00     0.165 HD
ENDBRANCH  10  14
ENDBRANCH   4  10
BRANCH   2  21
HETATM   21  C3  UNL     1      15.333   0.868  49.751  1.00  0.00    -0.012 A 
HETATM   22  C4  UNL     1      14.580   1.924  50.202  1.00  0.00     0.014 A 
HETATM   23  C5  UNL     1      14.680   3.185  49.636  1.00  0.00     0.046 A 
HETATM   24  C6  UNL     1      15.552   3.409  48.594  1.00  0.00     0.154 A 
HETATM   25  F1  UNL     1      15.644   4.648  48.044  1.00  0.00    -0.203 F 
HETATM   26  C7  UNL     1      16.333   2.354  48.110  1.00  0.00     0.155 A 
HETATM   27  F2  UNL     1      17.182   2.601  47.085  1.00  0.00    -0.203 F 
HETATM   28  C8  UNL     1      16.201   1.115  48.705  1.00  0.00     0.056 A 
ENDBRANCH   2  21
TORSDOF 3
ENDMDL
MODEL 5
REMARK VINA RESULT: -8.734239304      3.730      6.692
REMARK  3 active torsions:
REMARK  status: ('A' for Active; 'I' for Inactive)
REMARK    1  A    between atoms: C2_2  and  C3_3 
REMARK    2  A    between atoms: N1_12  and  C9_13 
REMARK    3  A    between atoms: C9_13  and  C10_17 
ROOT
HETATM    1  C1  UNL     1      13.453  -2.058  51.482  1.00  0.00     0.062 C 
HETATM    2  C2  UNL     1      14.876  -1.619  51.291  1.00  0.00     0.164 C 
HETATM    3  O1  UNL     1      15.585  -2.458  50.469  1.00  0.00    -0.248 OA
HETATM    4  N1  UNL     1      16.351  -3.243  51.226  1.00  0.00    -0.200 N 
HETATM    5  C15 UNL     1      16.559  -2.575  52.489  1.00  0.00     0.100 A 
HETATM    6  C16 UNL     1      17.279  -2.516  53.661  1.00  0.00     0.059 A 
HETATM    7  C17 UNL     1      16.756  -1.447  54.379  1.00  0.00     0.144 A 
HETATM    8  O2  UNL     1      15.786  -0.907  53.676  1.00  0.00    -0.321 OA
HETATM    9  C18 UNL     1      15.636  -1.543  52.547  1.00  0.00     0.123 A 
ENDROOT
BRANCH   4  10
HETATM   10  C9  UNL     1      16.920  -4.515  50.965  1.00  0.00     0.154 C 
HETATM   11  N2  UNL     1      17.820  -4.664  50.024  1.00  0.00    -0.382 N 
ATOM     12  H22 UNL     1      18.075  -3.821  49.509  1.00  0.00     0.157 HD
ATOM     13  H21 UNL     1      18.229  -5.580  49.837  1.00  0.00     0.157 HD
BRANCH  10  14
HETATM   14  C10 UNL     1      16.556  -5.715  51.699  1.00  0.00     0.078 A 
HETATM   15  C11 UNL     1      15.469  -5.709  52.544  1.00  0.00     0.033 A 
HETATM   16  C12 UNL     1      15.074  -6.828  53.274  1.00  0.00     0.004 A 
HETATM   17  C13 UNL     1      15.830  -7.979  53.118  1.00  0.00     0.017 A 
HETATM   18  C14 UNL     1      16.913  -7.972  52.272  1.00  0.00     0.088 A 
HETATM   19  N3  UNL     1      17.238  -6.866  51.602  1.00  0.00    -0.363 N 
ATOM     20  H3  UNL     1      18.048  -6.897  50.982  1.00  0.00     0.165 HD
ENDBRANCH  10  14
ENDBRANCH   4  10
BRANCH   2  21
HETATM   21  C3  UNL     1      14.854  -0.230  50.718  1.00  0.00    -0.012 A 
HETATM   22  C4  UNL     1      13.713   0.532  50.713  1.00  0.00     0.014 A 
HETATM   23  C5  UNL     1      13.693   1.812  50.184  1.00  0.00     0.046 A 
HETATM   24  C6  UNL     1      14.837   2.356  49.643  1.00  0.00     0.154 A 
HETATM   25  F1  UNL     1      14.810   3.611  49.125  1.00  0.00    -0.203 F 
HETATM   26  C7  UNL     1      16.018   1.604  49.631  1.00  0.00     0.155 A 
HETATM   27  F2  UNL     1      17.128   2.162  49.094  1.00  0.00    -0.203 F 
HETATM   28  C8  UNL     1      15.991   0.334  50.170  1.00  0.00     0.056 A 
ENDBRANCH   2  21
TORSDOF 3
ENDMDL
