MODEL 1
REMARK VINA RESULT: -7.682098655      0.000      0.000
REMARK  3 active torsions:
REMARK  status: ('A' for Active; 'I' for Inactive)
REMARK    1  A    between atoms: C5_6  and  N1_7 
REMARK    2  A    between atoms: N1_7  and  C6_9 
REMARK    3  A    between atoms: C8_13  and  N3_14 
ROOT
HETATM    1  C6  UNL     1      17.012  -1.323  50.126  1.00  0.00     0.151 A 
HETATM    2  N2  UNL     1      16.852  -2.444  49.425  1.00  0.00    -0.344 N 
ATOM      3  H2  UNL     1      16.921  -2.432  48.407  1.00  0.00     0.167 HD
HETATM    4  C7  UNL     1      16.608  -3.551  50.056  1.00  0.00     0.127 A 
HETATM    5  C8  UNL     1      16.526  -3.514  51.426  1.00  0.00     0.095 A 
HETATM    6  S2  UNL     1      16.810  -1.847  51.737  1.00  0.00    -0.035 SA
ENDROOT
BRANCH   1   7
HETATM    7  N1  UNL     1      17.263  -0.116  49.666  1.00  0.00    -0.336 N 
ATOM      8  H1  UNL     1      18.187   0.146  49.322  1.00  0.00     0.168 HD
BRANCH   7   9
HETATM    9  C5  UNL     1      16.170   0.813  49.674  1.00  0.00     0.036 A 
HETATM   10  C4  UNL     1      14.933   0.459  50.186  1.00  0.00     0.029 A 
HETATM   11  C3  UNL     1      13.938   1.420  50.151  1.00  0.00     0.005 A 
HETATM   12  C2  UNL     1      14.136   2.672  49.639  1.00  0.00     0.042 A 
HETATM   13  C1  UNL     1      15.388   2.992  49.133  1.00  0.00     0.118 A 
HETATM   14  F1  UNL     1      15.635   4.231  48.611  1.00  0.00    -0.206 F 
HETATM   15  C13 UNL     1      16.412   2.065  49.147  1.00  0.00     0.071 A 
ENDBRANCH   7   9
ENDBRANCH   1   7
BRANCH   5  16
HETATM   16  N3  UNL     1      16.261  -4.549  52.347  1.00  0.00    -0.329 N 
HETATM   17  C9  UNL     1      15.248  -4.587  53.098  1.00  0.00     0.158 C 
HETATM   18  S1  UNL     1      14.994  -5.963  54.256  1.00  0.00    -0.093 SA
HETATM   19  N4  UNL     1      14.242  -3.588  53.087  1.00  0.00    -0.270 N 
HETATM   20  C10 UNL     1      13.715  -5.452  55.421  1.00  0.00     0.084 C 
HETATM   21  C11 UNL     1      12.822  -4.378  54.841  1.00  0.00     0.032 C 
HETATM   22  C12 UNL     1      13.641  -3.205  54.345  1.00  0.00     0.146 C 
HETATM   23 CL1  UNL     1      13.733  -2.847  51.579  1.00  0.00     0.015 Cl
ATOM     24  H3  UNL     1      16.931  -5.316  52.410  1.00  0.00     0.168 HD
ENDBRANCH   5  16
TORSDOF 3
ENDMDL
MODEL 2
REMARK VINA RESULT: -7.502100619      1.138      1.541
REMARK  3 active torsions:
REMARK  status: ('A' for Active; 'I' for Inactive)
REMARK    1  A    between atoms: C5_6  and  N1_7 
REMARK    2  A    between atoms: N1_7  and  C6_9 
REMARK    3  A    between atoms: C8_13  and  N3_14 
ROOT
HETATM    1  C6  UNL     1      17.078  -1.367  50.124  1.00  0.00     0.151 A 
HETATM    2  N2  UNL     1      16.913  -2.474  49.403  1.00  0.00    -0.344 N 
ATOM      3  H2  UNL     1      16.952  -2.440  48.384  1.00  0.00     0.167 HD
HETATM    4  C7  UNL     1      16.700  -3.598  50.016  1.00  0.00     0.127 A 
HETATM    5  C8  UNL     1      16.656  -3.592  51.388  1.00  0.00     0.095 A 
HETATM    6  S2  UNL     1      16.929  -1.929  51.728  1.00  0.00    -0.035 SA
ENDROOT
BRANCH   1   7
HETATM    7  N1  UNL     1      17.301  -0.148  49.684  1.00  0.00    -0.336 N 
ATOM      8  H1  UNL     1      18.212   0.134  49.322  1.00  0.00     0.168 HD
BRANCH   7   9
HETATM    9  C5  UNL     1      16.197   0.766  49.740  1.00  0.00     0.036 A 
HETATM   10  C4  UNL     1      16.346   2.093  49.371  1.00  0.00     0.029 A 
HETATM   11  C3  UNL     1      15.225   2.900  49.457  1.00  0.00     0.005 A 
HETATM   12  C2  UNL     1      14.011   2.439  49.885  1.00  0.00     0.042 A 
HETATM   13  C1  UNL     1      13.899   1.104  50.248  1.00  0.00     0.118 A 
HETATM   14  F1  UNL     1      12.706   0.596  50.682  1.00  0.00    -0.206 F 
HETATM   15  C13 UNL     1      14.990   0.260  50.178  1.00  0.00     0.071 A 
ENDBRANCH   7   9
ENDBRANCH   1   7
BRANCH   5  16
HETATM   16  N3  UNL     1      16.430  -4.651  52.294  1.00  0.00    -0.329 N 
HETATM   17  C9  UNL     1      15.440  -4.717  53.073  1.00  0.00     0.158 C 
HETATM   18  S1  UNL     1      15.236  -6.122  54.206  1.00  0.00    -0.093 SA
HETATM   19  N4  UNL     1      14.423  -3.730  53.113  1.00  0.00    -0.270 N 
HETATM   20  C10 UNL     1      13.987  -5.652  55.420  1.00  0.00     0.084 C 
HETATM   21  C11 UNL     1      13.064  -4.576  54.890  1.00  0.00     0.032 C 
HETATM   22  C12 UNL     1      13.854  -3.383  54.396  1.00  0.00     0.146 C 
HETATM   23 CL1  UNL     1      13.862  -2.962  51.638  1.00  0.00     0.015 Cl
ATOM     24  H3  UNL     1      17.111  -5.411  52.320  1.00  0.00     0.168 HD
ENDBRANCH   5  16
TORSDOF 3
ENDMDL
MODEL 3
REMARK VINA RESULT: -7.426128256      1.185      1.394
REMARK  3 active torsions:
REMARK  status: ('A' for Active; 'I' for Inactive)
REMARK    1  A    between atoms: C5_6  and  N1_7 
REMARK    2  A    between atoms: N1_7  and  C6_9 
REMARK    3  A    between atoms: C8_13  and  N3_14 
ROOT
HETATM    1  C6  UNL     1      16.837  -1.532  50.582  1.00  0.00     0.151 A 
HETATM    2  N2  UNL     1      17.090  -1.300  51.869  1.00  0.00    -0.344 N 
ATOM      3  H2  UNL     1      17.245  -0.348  52.202  1.00  0.00     0.167 HD
HETATM    4  C7  UNL     1      17.136  -2.303  52.692  1.00  0.00     0.127 A 
HETATM    5  C8  UNL     1      16.920  -3.564  52.193  1.00  0.00     0.095 A 
HETATM    6  S2  UNL     1      16.658  -3.228  50.527  1.00  0.00    -0.035 SA
ENDROOT
BRANCH   1   7
HETATM    7  N1  UNL     1      16.752  -0.652  49.608  1.00  0.00    -0.336 N 
ATOM      8  H1  UNL     1      17.374  -0.684  48.800  1.00  0.00     0.168 HD
BRANCH   7   9
HETATM    9  C5  UNL     1      15.740   0.355  49.741  1.00  0.00     0.036 A 
HETATM   10  C4  UNL     1      14.496   0.055  50.272  1.00  0.00     0.029 A 
HETATM   11  C3  UNL     1      13.583   1.091  50.361  1.00  0.00     0.005 A 
HETATM   12  C2  UNL     1      13.864   2.364  49.952  1.00  0.00     0.042 A 
HETATM   13  C1  UNL     1      15.121   2.629  49.424  1.00  0.00     0.118 A 
HETATM   14  F1  UNL     1      15.450   3.886  49.001  1.00  0.00    -0.206 F 
HETATM   15  C13 UNL     1      16.065   1.627  49.315  1.00  0.00     0.071 A 
ENDBRANCH   7   9
ENDBRANCH   1   7
BRANCH   5  16
HETATM   16  N3  UNL     1      16.927  -4.813  52.849  1.00  0.00    -0.329 N 
HETATM   17  C9  UNL     1      16.016  -5.209  53.626  1.00  0.00     0.158 C 
HETATM   18  S1  UNL     1      16.115  -6.836  54.428  1.00  0.00    -0.093 SA
HETATM   19  N4  UNL     1      14.860  -4.441  53.914  1.00  0.00    -0.270 N 
HETATM   20  C10 UNL     1      14.891  -6.853  55.754  1.00  0.00     0.084 C 
HETATM   21  C11 UNL     1      13.776  -5.861  55.503  1.00  0.00     0.032 C 
HETATM   22  C12 UNL     1      14.332  -4.474  55.260  1.00  0.00     0.146 C 
HETATM   23 CL1  UNL     1      14.085  -3.484  52.663  1.00  0.00     0.015 Cl
ATOM     24  H3  UNL     1      17.720  -5.434  52.686  1.00  0.00     0.168 HD
ENDBRANCH   5  16
TORSDOF 3
ENDMDL
MODEL 4
REMARK VINA RESULT: -7.412437991      4.886      8.535
REMARK  3 active torsions:
REMARK  status: ('A' for Active; 'I' for Inactive)
REMARK    1  A    between atoms: C5_6  and  N1_7 
REMARK    2  A    between atoms: N1_7  and  C6_9 
REMARK    3  A    between atoms: C8_13  and  N3_14 
ROOT
HETATM    1  C6  UNL     1      11.131  -2.137  55.312  1.00  0.00     0.151 A 
HETATM    2  N2  UNL     1      10.677  -2.684  54.186  1.00  0.00    -0.344 N 
ATOM      3  H2  UNL     1      10.022  -3.465  54.217  1.00  0.00     0.167 HD
HETATM    4  C7  UNL     1      11.081  -2.208  53.048  1.00  0.00     0.127 A 
HETATM    5  C8  UNL     1      11.962  -1.155  53.060  1.00  0.00     0.095 A 
HETATM    6  S2  UNL     1      12.167  -0.905  54.748  1.00  0.00    -0.035 SA
ENDROOT
BRANCH   1   7
HETATM    7  N1  UNL     1      10.839  -2.481  56.547  1.00  0.00    -0.336 N 
ATOM      8  H1  UNL     1      11.489  -2.323  57.317  1.00  0.00     0.168 HD
BRANCH   7   9
HETATM    9  C5  UNL     1       9.557  -3.090  56.757  1.00  0.00     0.036 A 
HETATM   10  C4  UNL     1       9.442  -4.445  57.021  1.00  0.00     0.029 A 
HETATM   11  C3  UNL     1       8.166  -4.945  57.209  1.00  0.00     0.005 A 
HETATM   12  C2  UNL     1       7.047  -4.162  57.143  1.00  0.00     0.042 A 
HETATM   13  C1  UNL     1       7.199  -2.808  56.876  1.00  0.00     0.118 A 
HETATM   14  F1  UNL     1       6.111  -1.984  56.801  1.00  0.00    -0.206 F 
HETATM   15  C13 UNL     1       8.454  -2.265  56.681  1.00  0.00     0.071 A 
ENDBRANCH   7   9
ENDBRANCH   1   7
BRANCH   5  16
HETATM   16  N3  UNL     1      12.565  -0.464  51.987  1.00  0.00    -0.329 N 
HETATM   17  C9  UNL     1      13.738  -0.678  51.577  1.00  0.00     0.158 C 
HETATM   18  S1  UNL     1      14.428   0.266  50.187  1.00  0.00    -0.093 SA
HETATM   19  N4  UNL     1      14.586  -1.662  52.145  1.00  0.00    -0.270 N 
HETATM   20  C10 UNL     1      16.211  -0.009  50.187  1.00  0.00     0.084 C 
HETATM   21  C11 UNL     1      16.580  -1.306  50.874  1.00  0.00     0.032 C 
HETATM   22  C12 UNL     1      15.996  -1.363  52.269  1.00  0.00     0.146 C 
HETATM   23 CL1  UNL     1      13.940  -3.206  52.672  1.00  0.00     0.015 Cl
ATOM     24  H3  UNL     1      12.016   0.254  51.513  1.00  0.00     0.168 HD
ENDBRANCH   5  16
TORSDOF 3
ENDMDL
MODEL 5
REMARK VINA RESULT: -7.401651074      2.111      2.679
REMARK  3 active torsions:
REMARK  status: ('A' for Active; 'I' for Inactive)
REMARK    1  A    between atoms: C5_6  and  N1_7 
REMARK    2  A    between atoms: N1_7  and  C6_9 
REMARK    3  A    between atoms: C8_13  and  N3_14 
ROOT
HETATM    1  C6  UNL     1      16.418  -1.469  51.036  1.00  0.00     0.151 A 
HETATM    2  N2  UNL     1      16.932  -1.227  52.241  1.00  0.00    -0.344 N 
ATOM      3  H2  UNL     1      17.535  -0.419  52.394  1.00  0.00     0.167 HD
HETATM    4  C7  UNL     1      16.653  -2.036  53.217  1.00  0.00     0.127 A 
HETATM    5  C8  UNL     1      15.835  -3.109  52.959  1.00  0.00     0.095 A 
HETATM    6  S2  UNL     1      15.507  -2.890  51.286  1.00  0.00    -0.035 SA
ENDROOT
BRANCH   1   7
HETATM    7  N1  UNL     1      16.588  -0.769  49.935  1.00  0.00    -0.336 N 
ATOM      8  H1  UNL     1      17.218  -1.077  49.195  1.00  0.00     0.168 HD
BRANCH   7   9
HETATM    9  C5  UNL     1      15.840   0.450  49.830  1.00  0.00     0.036 A 
HETATM   10  C4  UNL     1      14.535   0.532  50.286  1.00  0.00     0.029 A 
HETATM   11  C3  UNL     1      13.891   1.748  50.143  1.00  0.00     0.005 A 
HETATM   12  C2  UNL     1      14.490   2.841  49.579  1.00  0.00     0.042 A 
HETATM   13  C1  UNL     1      15.799   2.723  49.131  1.00  0.00     0.118 A 
HETATM   14  F1  UNL     1      16.440   3.786  48.561  1.00  0.00    -0.206 F 
HETATM   15  C13 UNL     1      16.481   1.528  49.254  1.00  0.00     0.071 A 
ENDBRANCH   7   9
ENDBRANCH   1   7
BRANCH   5  16
HETATM   16  N3  UNL     1      15.389  -4.136  53.817  1.00  0.00    -0.329 N 
HETATM   17  C9  UNL     1      15.902  -5.287  53.871  1.00  0.00     0.158 C 
HETATM   18  S1  UNL     1      15.255  -6.546  55.009  1.00  0.00    -0.093 SA
HETATM   19  N4  UNL     1      17.011  -5.674  53.077  1.00  0.00    -0.270 N 
HETATM   20  C10 UNL     1      15.940  -8.133  54.495  1.00  0.00     0.084 C 
HETATM   21  C11 UNL     1      17.231  -7.966  53.723  1.00  0.00     0.032 C 
HETATM   22  C12 UNL     1      17.043  -7.022  52.555  1.00  0.00     0.146 C 
HETATM   23 CL1  UNL     1      18.316  -4.547  52.750  1.00  0.00     0.015 Cl
ATOM     24  H3  UNL     1      14.600  -3.935  54.433  1.00  0.00     0.168 HD
ENDBRANCH   5  16
TORSDOF 3
ENDMDL
