MODEL 1
REMARK VINA RESULT: -5.951093022      0.000      0.000
REMARK  3 active torsions:
REMARK  status: ('A' for Active; 'I' for Inactive)
REMARK    1  A    between atoms: C2_2  and  C3_3 
REMARK    2  A    between atoms: C4_6  and  N2_7 
REMARK    3  A    between atoms: N2_7  and  C5_9 
ROOT
HETATM    1  C3  UNL     1      30.787  -2.763   5.128  1.00  0.00     0.049 A 
HETATM    2  N1  UNL     1      29.871  -2.006   5.758  1.00  0.00    -0.194 N 
ATOM      3  H1  UNL     1      29.269  -1.397   5.204  1.00  0.00     0.184 HD
HETATM    4  C4  UNL     1      29.724  -2.026   7.102  1.00  0.00     0.687 A 
HETATM    5  N3  UNL     1      30.539  -2.843   7.797  1.00  0.00    -0.155 N 
ATOM      6  H3  UNL     1      30.447  -2.876   8.813  1.00  0.00     0.187 HD
HETATM    7  C6  UNL     1      31.472  -3.622   7.206  1.00  0.00     0.279 A 
HETATM    8  O2  UNL     1      32.222  -4.379   7.889  1.00  0.00    -0.266 OA
HETATM    9  C7  UNL     1      31.631  -3.608   5.832  1.00  0.00     0.102 A 
HETATM   10 BR1  UNL     1      32.928  -4.689   4.947  1.00  0.00    -0.043 Br
ENDROOT
BRANCH   4  11
HETATM   11  N2  UNL     1      28.866  -1.325   7.728  1.00  0.00    -0.167 N 
ATOM     12  H2  UNL     1      28.860  -0.331   7.498  1.00  0.00     0.186 HD
BRANCH  11  13
HETATM   13  C5  UNL     1      27.934  -1.723   8.682  1.00  0.00     0.368 C 
HETATM   14  O1  UNL     1      28.207  -2.153   9.835  1.00  0.00    -0.283 OA
ENDBRANCH  11  13
ENDBRANCH   4  11
BRANCH   1  15
HETATM   15  C2  UNL     1      30.933  -2.710   3.636  1.00  0.00     0.055 C 
HETATM   16  C1  UNL     1      30.203  -3.878   2.988  1.00  0.00     0.011 C 
ENDBRANCH   1  15
TORSDOF 3
ENDMDL
MODEL 2
REMARK VINA RESULT: -5.796616265      4.082      4.451
REMARK  3 active torsions:
REMARK  status: ('A' for Active; 'I' for Inactive)
REMARK    1  A    between atoms: C2_2  and  C3_3 
REMARK    2  A    between atoms: C4_6  and  N2_7 
REMARK    3  A    between atoms: N2_7  and  C5_9 
ROOT
HETATM    1  C3  UNL     1      34.724  -1.036   5.282  1.00  0.00     0.049 A 
HETATM    2  N1  UNL     1      33.533  -1.631   5.096  1.00  0.00    -0.194 N 
ATOM      3  H1  UNL     1      33.408  -2.244   4.290  1.00  0.00     0.184 HD
HETATM    4  C4  UNL     1      32.495  -1.443   5.942  1.00  0.00     0.687 A 
HETATM    5  N3  UNL     1      32.701  -0.626   6.994  1.00  0.00    -0.155 N 
ATOM      6  H3  UNL     1      31.934  -0.468   7.647  1.00  0.00     0.187 HD
HETATM    7  C6  UNL     1      33.881  -0.008   7.220  1.00  0.00     0.279 A 
HETATM    8  O2  UNL     1      34.041   0.754   8.219  1.00  0.00    -0.266 OA
HETATM    9  C7  UNL     1      34.948  -0.194   6.360  1.00  0.00     0.102 A 
HETATM   10 BR1  UNL     1      36.636   0.650   6.635  1.00  0.00    -0.043 Br
ENDROOT
BRANCH   4  11
HETATM   11  N2  UNL     1      31.357  -1.993   5.797  1.00  0.00    -0.167 N 
ATOM     12  H2  UNL     1      31.063  -2.142   4.831  1.00  0.00     0.186 HD
BRANCH  11  13
HETATM   13  C5  UNL     1      30.458  -2.421   6.768  1.00  0.00     0.368 C 
HETATM   14  O1  UNL     1      30.768  -2.867   7.906  1.00  0.00    -0.283 OA
ENDBRANCH  11  13
ENDBRANCH   4  11
BRANCH   1  15
HETATM   15  C2  UNL     1      35.853  -1.257   4.318  1.00  0.00     0.055 C 
HETATM   16  C1  UNL     1      35.466  -2.297   3.276  1.00  0.00     0.011 C 
ENDBRANCH   1  15
TORSDOF 3
ENDMDL
MODEL 3
REMARK VINA RESULT: -5.691786043      8.511      9.064
REMARK  3 active torsions:
REMARK  status: ('A' for Active; 'I' for Inactive)
REMARK    1  A    between atoms: C2_2  and  C3_3 
REMARK    2  A    between atoms: C4_6  and  N2_7 
REMARK    3  A    between atoms: N2_7  and  C5_9 
ROOT
HETATM    1  C3  UNL     1      37.790   2.395   8.421  1.00  0.00     0.049 A 
HETATM    2  N1  UNL     1      36.848   1.436   8.404  1.00  0.00    -0.194 N 
ATOM      3  H1  UNL     1      36.447   1.153   7.510  1.00  0.00     0.184 HD
HETATM    4  C4  UNL     1      36.415   0.833   9.535  1.00  0.00     0.687 A 
HETATM    5  N3  UNL     1      36.970   1.235  10.695  1.00  0.00    -0.155 N 
ATOM      6  H3  UNL     1      36.660   0.796  11.562  1.00  0.00     0.187 HD
HETATM    7  C6  UNL     1      37.919   2.195  10.759  1.00  0.00     0.279 A 
HETATM    8  O2  UNL     1      38.419   2.550  11.867  1.00  0.00    -0.266 OA
HETATM    9  C7  UNL     1      38.368   2.817   9.608  1.00  0.00     0.102 A 
HETATM   10 BR1  UNL     1      39.707   4.174   9.641  1.00  0.00    -0.043 Br
ENDROOT
BRANCH   4  11
HETATM   11  N2  UNL     1      35.529  -0.079   9.553  1.00  0.00    -0.167 N 
ATOM     12  H2  UNL     1      35.752  -0.895  10.124  1.00  0.00     0.186 HD
BRANCH  11  13
HETATM   13  C5  UNL     1      34.299  -0.122   8.904  1.00  0.00     0.368 C 
HETATM   14  O1  UNL     1      33.910   0.688   8.020  1.00  0.00    -0.283 OA
ENDBRANCH  11  13
ENDBRANCH   4  11
BRANCH   1  15
HETATM   15  C2  UNL     1      38.240   3.052   7.149  1.00  0.00     0.055 C 
HETATM   16  C1  UNL     1      38.645   2.003   6.124  1.00  0.00     0.011 C 
ENDBRANCH   1  15
TORSDOF 3
ENDMDL
MODEL 4
REMARK VINA RESULT: -5.650001961      7.725      8.141
REMARK  3 active torsions:
REMARK  status: ('A' for Active; 'I' for Inactive)
REMARK    1  A    between atoms: C2_2  and  C3_3 
REMARK    2  A    between atoms: C4_6  and  N2_7 
REMARK    3  A    between atoms: N2_7  and  C5_9 
ROOT
HETATM    1  C3  UNL     1      37.256   0.230   6.469  1.00  0.00     0.049 A 
HETATM    2  N1  UNL     1      36.341   0.340   7.448  1.00  0.00    -0.194 N 
ATOM      3  H1  UNL     1      35.393   0.005   7.277  1.00  0.00     0.184 HD
HETATM    4  C4  UNL     1      36.636   0.882   8.651  1.00  0.00     0.687 A 
HETATM    5  N3  UNL     1      37.899   1.313   8.837  1.00  0.00    -0.155 N 
ATOM      6  H3  UNL     1      38.147   1.726   9.736  1.00  0.00     0.187 HD
HETATM    7  C6  UNL     1      38.851   1.222   7.882  1.00  0.00     0.279 A 
HETATM    8  O2  UNL     1      40.029   1.637   8.089  1.00  0.00    -0.266 OA
HETATM    9  C7  UNL     1      38.559   0.670   6.648  1.00  0.00     0.102 A 
HETATM   10 BR1  UNL     1      39.864   0.513   5.268  1.00  0.00    -0.043 Br
ENDROOT
BRANCH   4  11
HETATM   11  N2  UNL     1      35.794   0.998   9.598  1.00  0.00    -0.167 N 
ATOM     12  H2  UNL     1      34.966   0.408   9.523  1.00  0.00     0.186 HD
BRANCH  11  13
HETATM   13  C5  UNL     1      35.845   1.816  10.723  1.00  0.00     0.368 C 
HETATM   14  O1  UNL     1      36.012   3.066  10.710  1.00  0.00    -0.283 OA
ENDBRANCH  11  13
ENDBRANCH   4  11
BRANCH   1  15
HETATM   15  C2  UNL     1      36.893  -0.366   5.141  1.00  0.00     0.055 C 
HETATM   16  C1  UNL     1      35.446  -0.838   5.147  1.00  0.00     0.011 C 
ENDBRANCH   1  15
TORSDOF 3
ENDMDL
MODEL 5
REMARK VINA RESULT: -5.644110678      4.260      4.724
REMARK  3 active torsions:
REMARK  status: ('A' for Active; 'I' for Inactive)
REMARK    1  A    between atoms: C2_2  and  C3_3 
REMARK    2  A    between atoms: C4_6  and  N2_7 
REMARK    3  A    between atoms: N2_7  and  C5_9 
ROOT
HETATM    1  C3  UNL     1      34.665  -1.110   5.208  1.00  0.00     0.049 A 
HETATM    2  N1  UNL     1      33.437  -1.655   5.151  1.00  0.00    -0.194 N 
ATOM      3  H1  UNL     1      33.213  -2.285   4.381  1.00  0.00     0.184 HD
HETATM    4  C4  UNL     1      32.491  -1.396   6.082  1.00  0.00     0.687 A 
HETATM    5  N3  UNL     1      32.828  -0.558   7.083  1.00  0.00    -0.155 N 
ATOM      6  H3  UNL     1      32.131  -0.347   7.797  1.00  0.00     0.187 HD
HETATM    7  C6  UNL     1      34.049   0.012   7.179  1.00  0.00     0.279 A 
HETATM    8  O2  UNL     1      34.333   0.795   8.133  1.00  0.00    -0.266 OA
HETATM    9  C7  UNL     1      35.023  -0.247   6.233  1.00  0.00     0.102 A 
HETATM   10 BR1  UNL     1      36.763   0.528   6.324  1.00  0.00    -0.043 Br
ENDROOT
BRANCH   4  11
HETATM   11  N2  UNL     1      31.323  -1.898   6.059  1.00  0.00    -0.167 N 
ATOM     12  H2  UNL     1      30.903  -2.074   6.972  1.00  0.00     0.186 HD
BRANCH  11  13
HETATM   13  C5  UNL     1      30.535  -2.241   4.964  1.00  0.00     0.368 C 
HETATM   14  O1  UNL     1      30.354  -1.525   3.941  1.00  0.00    -0.283 OA
ENDBRANCH  11  13
ENDBRANCH   4  11
BRANCH   1  15
HETATM   15  C2  UNL     1      35.689  -1.409   4.154  1.00  0.00     0.055 C 
HETATM   16  C1  UNL     1      35.194  -2.514   3.230  1.00  0.00     0.011 C 
ENDBRANCH   1  15
TORSDOF 3
ENDMDL
