MODEL 1
REMARK VINA RESULT: -5.851270255      0.000      0.000
REMARK  3 active torsions:
REMARK  status: ('A' for Active; 'I' for Inactive)
REMARK    1  A    between atoms: N1_2  and  C2_4 
REMARK    2  A    between atoms: C11_13  and  N2_14 
REMARK    3  A    between atoms: N2_14  and  C12_16 
ROOT
HETATM    1  C2  UNL     1      67.823  51.300   9.628  1.00  0.00     0.011 C 
HETATM    2  C3  UNL     1      66.703  50.343   9.856  1.00  0.00     0.055 C 
HETATM    3  C4  UNL     1      65.940  50.540  11.123  1.00  0.00     0.006 C 
HETATM    4  C5  UNL     1      66.735  50.985  12.314  1.00  0.00     0.008 C 
HETATM    5  C6  UNL     1      68.107  51.409  11.937  1.00  0.00     0.024 C 
HETATM    6  C7  UNL     1      69.258  51.313  12.474  1.00  0.00    -0.003 A 
HETATM    7  C8  UNL     1      70.738  51.398  12.760  1.00  0.00     0.010 A 
HETATM    8  C9  UNL     1      70.363  51.534  11.388  1.00  0.00    -0.007 A 
HETATM    9  C10 UNL     1      69.684  52.652  10.670  1.00  0.00     0.042 C 
HETATM   10  C11 UNL     1      68.239  52.241  10.670  1.00  0.00     0.072 C 
ENDROOT
BRANCH  10  11
HETATM   11  N2  UNL     1      67.363  53.384  10.723  1.00  0.00    -0.375 N 
ATOM     12  H2  UNL     1      66.379  53.279  10.972  1.00  0.00     0.160 HD
BRANCH  11  13
HETATM   13  C12 UNL     1      67.854  54.542  10.447  1.00  0.00     0.166 C 
HETATM   14  S1  UNL     1      68.177  55.786   9.473  1.00  0.00    -0.075 SA
ENDBRANCH  11  13
ENDBRANCH  10  11
BRANCH   1  15
HETATM   15  N1  UNL     1      68.437  51.312   8.514  1.00  0.00    -0.399 N 
HETATM   16  C1  UNL     1      69.060  50.103   8.064  1.00  0.00     0.145 C 
ATOM     17  H1  UNL     1      68.484  52.162   7.953  1.00  0.00     0.158 HD
ENDBRANCH   1  15
TORSDOF 3
ENDMDL
MODEL 2
REMARK VINA RESULT: -5.830247129      3.786      4.750
REMARK  3 active torsions:
REMARK  status: ('A' for Active; 'I' for Inactive)
REMARK    1  A    between atoms: N1_2  and  C2_4 
REMARK    2  A    between atoms: C11_13  and  N2_14 
REMARK    3  A    between atoms: N2_14  and  C12_16 
ROOT
HETATM    1  C2  UNL     1      70.858  48.321   9.933  1.00  0.00     0.011 C 
HETATM    2  C3  UNL     1      69.383  48.503   9.819  1.00  0.00     0.055 C 
HETATM    3  C4  UNL     1      68.906  49.916   9.872  1.00  0.00     0.006 C 
HETATM    4  C5  UNL     1      69.656  50.836  10.788  1.00  0.00     0.008 C 
HETATM    5  C6  UNL     1      70.918  50.223  11.276  1.00  0.00     0.024 C 
HETATM    6  C7  UNL     1      71.563  50.247  12.373  1.00  0.00    -0.003 A 
HETATM    7  C8  UNL     1      72.586  50.020  13.461  1.00  0.00     0.010 A 
HETATM    8  C9  UNL     1      72.562  49.042  12.420  1.00  0.00    -0.007 A 
HETATM    9  C10 UNL     1      73.004  49.124  10.997  1.00  0.00     0.042 C 
HETATM   10  C11 UNL     1      71.738  49.447  10.255  1.00  0.00     0.072 C 
ENDROOT
BRANCH  10  11
HETATM   11  N2  UNL     1      71.996  50.258   9.093  1.00  0.00    -0.375 N 
ATOM     12  H2  UNL     1      71.319  50.954   8.778  1.00  0.00     0.160 HD
BRANCH  11  13
HETATM   13  C12 UNL     1      73.105  50.081   8.461  1.00  0.00     0.166 C 
HETATM   14  S1  UNL     1      74.047  49.387   7.353  1.00  0.00    -0.075 SA
ENDBRANCH  11  13
ENDBRANCH  10  11
BRANCH   1  15
HETATM   15  N1  UNL     1      71.377  47.174   9.750  1.00  0.00    -0.399 N 
HETATM   16  C1  UNL     1      71.379  46.628   8.426  1.00  0.00     0.145 C 
ATOM     17  H1  UNL     1      71.782  46.654  10.529  1.00  0.00     0.158 HD
ENDBRANCH   1  15
TORSDOF 3
ENDMDL
MODEL 3
REMARK VINA RESULT: -5.771506158      2.184      3.465
REMARK  3 active torsions:
REMARK  status: ('A' for Active; 'I' for Inactive)
REMARK    1  A    between atoms: N1_2  and  C2_4 
REMARK    2  A    between atoms: C11_13  and  N2_14 
REMARK    3  A    between atoms: N2_14  and  C12_16 
ROOT
HETATM    1  C2  UNL     1      69.901  51.890  10.540  1.00  0.00     0.011 C 
HETATM    2  C3  UNL     1      70.405  51.272   9.280  1.00  0.00     0.055 C 
HETATM    3  C4  UNL     1      70.510  49.784   9.293  1.00  0.00     0.006 C 
HETATM    4  C5  UNL     1      70.921  49.159  10.593  1.00  0.00     0.008 C 
HETATM    5  C6  UNL     1      70.887  50.135  11.711  1.00  0.00     0.024 C 
HETATM    6  C7  UNL     1      71.597  50.339  12.748  1.00  0.00    -0.003 A 
HETATM    7  C8  UNL     1      72.164  50.894  14.032  1.00  0.00     0.010 A 
HETATM    8  C9  UNL     1      71.339  51.787  13.283  1.00  0.00    -0.007 A 
HETATM    9  C10 UNL     1      69.863  51.797  13.064  1.00  0.00     0.042 C 
HETATM   10  C11 UNL     1      69.701  51.088  11.749  1.00  0.00     0.072 C 
ENDROOT
BRANCH  10  11
HETATM   11  N2  UNL     1      68.462  50.355  11.691  1.00  0.00    -0.375 N 
ATOM     12  H2  UNL     1      68.449  49.338  11.782  1.00  0.00     0.160 HD
BRANCH  11  13
HETATM   13  C12 UNL     1      67.370  51.016  11.521  1.00  0.00     0.166 C 
HETATM   14  S1  UNL     1      65.980  51.355  10.778  1.00  0.00    -0.075 SA
ENDBRANCH  11  13
ENDBRANCH  10  11
BRANCH   1  15
HETATM   15  N1  UNL     1      69.634  53.133  10.580  1.00  0.00    -0.399 N 
HETATM   16  C1  UNL     1      68.770  53.680   9.577  1.00  0.00     0.145 C 
ATOM     17  H1  UNL     1      70.027  53.727  11.311  1.00  0.00     0.158 HD
ENDBRANCH   1  15
TORSDOF 3
ENDMDL
MODEL 4
REMARK VINA RESULT: -5.748288693      1.740      3.770
REMARK  3 active torsions:
REMARK  status: ('A' for Active; 'I' for Inactive)
REMARK    1  A    between atoms: N1_2  and  C2_4 
REMARK    2  A    between atoms: C11_13  and  N2_14 
REMARK    3  A    between atoms: N2_14  and  C12_16 
ROOT
HETATM    1  C2  UNL     1      70.087  51.278  12.230  1.00  0.00     0.011 C 
HETATM    2  C3  UNL     1      71.043  50.187  11.884  1.00  0.00     0.055 C 
HETATM    3  C4  UNL     1      71.025  49.747  10.459  1.00  0.00     0.006 C 
HETATM    4  C5  UNL     1      69.687  49.746   9.781  1.00  0.00     0.008 C 
HETATM    5  C6  UNL     1      68.658  50.448  10.589  1.00  0.00     0.024 C 
HETATM    6  C7  UNL     1      67.416  50.274  10.810  1.00  0.00    -0.003 A 
HETATM    7  C8  UNL     1      65.999  50.406  11.313  1.00  0.00     0.010 A 
HETATM    8  C9  UNL     1      66.999  51.056  12.100  1.00  0.00    -0.007 A 
HETATM    9  C10 UNL     1      67.804  52.283  11.831  1.00  0.00     0.042 C 
HETATM   10  C11 UNL     1      69.087  51.741  11.266  1.00  0.00     0.072 C 
ENDROOT
BRANCH  10  11
HETATM   11  N2  UNL     1      69.667  52.646  10.306  1.00  0.00    -0.375 N 
ATOM     12  H2  UNL     1      70.634  52.538  10.001  1.00  0.00     0.160 HD
BRANCH  11  13
HETATM   13  C12 UNL     1      68.930  53.595   9.841  1.00  0.00     0.166 C 
HETATM   14  S1  UNL     1      68.587  55.135   9.511  1.00  0.00    -0.075 SA
ENDBRANCH  11  13
ENDBRANCH  10  11
BRANCH   1  15
HETATM   15  N1  UNL     1      70.129  51.824  13.378  1.00  0.00    -0.399 N 
HETATM   16  C1  UNL     1      71.335  51.718  14.142  1.00  0.00     0.145 C 
ATOM     17  H1  UNL     1      69.321  52.327  13.746  1.00  0.00     0.158 HD
ENDBRANCH   1  15
TORSDOF 3
ENDMDL
MODEL 5
REMARK VINA RESULT: -5.699462540      3.395      4.777
REMARK  3 active torsions:
REMARK  status: ('A' for Active; 'I' for Inactive)
REMARK    1  A    between atoms: N1_2  and  C2_4 
REMARK    2  A    between atoms: C11_13  and  N2_14 
REMARK    3  A    between atoms: N2_14  and  C12_16 
ROOT
HETATM    1  C2  UNL     1      71.709  50.051   9.354  1.00  0.00     0.011 C 
HETATM    2  C3  UNL     1      73.097  49.564   9.594  1.00  0.00     0.055 C 
HETATM    3  C4  UNL     1      73.261  48.640  10.754  1.00  0.00     0.006 C 
HETATM    4  C5  UNL     1      72.400  48.917  11.950  1.00  0.00     0.008 C 
HETATM    5  C6  UNL     1      71.340  49.912  11.650  1.00  0.00     0.024 C 
HETATM    6  C7  UNL     1      70.788  50.860  12.297  1.00  0.00    -0.003 A 
HETATM    7  C8  UNL     1      69.922  52.029  12.703  1.00  0.00     0.010 A 
HETATM    8  C9  UNL     1      70.079  51.834  11.296  1.00  0.00    -0.007 A 
HETATM    9  C10 UNL     1      69.526  50.785  10.390  1.00  0.00     0.042 C 
HETATM   10  C11 UNL     1      70.634  49.773  10.309  1.00  0.00     0.072 C 
ENDROOT
BRANCH  10  11
HETATM   11  N2  UNL     1      70.121  48.437  10.144  1.00  0.00    -0.375 N 
ATOM     12  H2  UNL     1      70.567  47.644  10.607  1.00  0.00     0.160 HD
BRANCH  11  13
HETATM   13  C12 UNL     1      69.085  48.270   9.398  1.00  0.00     0.166 C 
HETATM   14  S1  UNL     1      68.292  47.665   8.131  1.00  0.00    -0.075 SA
ENDBRANCH  11  13
ENDBRANCH  10  11
BRANCH   1  15
HETATM   15  N1  UNL     1      71.439  50.721   8.307  1.00  0.00    -0.399 N 
HETATM   16  C1  UNL     1      71.397  50.036   7.050  1.00  0.00     0.145 C 
ATOM     17  H1  UNL     1      71.256  51.723   8.361  1.00  0.00     0.158 HD
ENDBRANCH   1  15
TORSDOF 3
ENDMDL
