MODEL 1
REMARK VINA RESULT: -6.591698374      0.000      0.000
REMARK  3 active torsions:
REMARK  status: ('A' for Active; 'I' for Inactive)
REMARK    1  A    between atoms: N2_4  and  N3_6 
REMARK       I    between atoms: N3_6  and  C1_8 
REMARK    2  A    between atoms: N5_10  and  C2_12 
REMARK    3  A    between atoms: C5_15  and  N6_17 
ROOT
HETATM    1  N3  UNL     1     -21.071  -3.527 -20.514  1.00  0.00    -0.260 N 
ATOM      2  H3  UNL     1     -22.072  -3.449 -20.697  1.00  0.00     0.191 HD
HETATM    3  C1  UNL     1     -20.444  -2.466 -19.832  1.00  0.00     0.206 C 
HETATM    4  N4  UNL     1     -19.113  -2.654 -19.380  1.00  0.00    -0.062 NA
HETATM    5  N5  UNL     1     -21.054  -1.374 -19.629  1.00  0.00    -0.337 N 
ATOM      6  H5  UNL     1     -22.010  -1.297 -19.978  1.00  0.00     0.164 HD
ENDROOT
BRANCH   5   7
HETATM    7  C2  UNL     1     -20.503  -0.227 -18.941  1.00  0.00     0.223 C 
HETATM    8  C3  UNL     1     -21.660   0.534 -18.350  1.00  0.00     0.059 C 
HETATM    9  C4  UNL     1     -21.310   1.864 -17.804  1.00  0.00     0.079 C 
HETATM   10  C5  UNL     1     -20.086   2.493 -18.350  1.00  0.00     0.257 C 
HETATM   11  F1  UNL     1     -20.396   3.476 -19.290  1.00  0.00    -0.210 F 
HETATM   12  C6  UNL     1     -19.125   1.542 -19.002  1.00  0.00     0.243 C 
HETATM   13  O3  UNL     1     -19.792   0.617 -19.780  1.00  0.00    -0.361 OA
BRANCH  10  14
HETATM   14  N6  UNL     1     -19.395   3.173 -17.267  1.00  0.00    -0.110 N 
HETATM   15  O1  UNL     1     -19.868   3.292 -16.121  1.00  0.00    -0.534 OA
HETATM   16  O2  UNL     1     -18.138   3.735 -17.483  1.00  0.00    -0.534 OA
ENDBRANCH  10  14
ENDBRANCH   5   7
BRANCH   1  17
HETATM   17  N2  UNL     1     -20.421  -4.670 -20.955  1.00  0.00    -0.247 N 
HETATM   18  N1  UNL     1     -19.325  -4.569 -21.559  1.00  0.00    -0.331 N 
ATOM     19  H12 UNL     1     -18.928  -3.643 -21.716  1.00  0.00     0.178 HD
ATOM     20  H11 UNL     1     -18.847  -5.410 -21.882  1.00  0.00     0.178 HD
ATOM     21  H2  UNL     1     -20.832  -5.590 -20.790  1.00  0.00     0.207 HD
ENDBRANCH   1  17
TORSDOF 3
ENDMDL
MODEL 2
REMARK VINA RESULT: -6.393448400      3.448      4.832
REMARK  3 active torsions:
REMARK  status: ('A' for Active; 'I' for Inactive)
REMARK    1  A    between atoms: N2_4  and  N3_6 
REMARK       I    between atoms: N3_6  and  C1_8 
REMARK    2  A    between atoms: N5_10  and  C2_12 
REMARK    3  A    between atoms: C5_15  and  N6_17 
ROOT
HETATM    1  N3  UNL     1     -17.383   0.479 -18.510  1.00  0.00    -0.260 N 
ATOM      2  H3  UNL     1     -17.089   1.372 -18.114  1.00  0.00     0.191 HD
HETATM    3  C1  UNL     1     -18.699   0.380 -19.000  1.00  0.00     0.206 C 
HETATM    4  N4  UNL     1     -19.051  -0.774 -19.747  1.00  0.00    -0.062 NA
HETATM    5  N5  UNL     1     -19.546   1.297 -18.779  1.00  0.00    -0.337 N 
ATOM      6  H5  UNL     1     -19.235   2.102 -18.235  1.00  0.00     0.164 HD
ENDROOT
BRANCH   5   7
HETATM    7  C2  UNL     1     -20.917   1.292 -19.237  1.00  0.00     0.223 C 
HETATM    8  C3  UNL     1     -21.305   2.726 -19.489  1.00  0.00     0.059 C 
HETATM    9  C4  UNL     1     -22.747   2.940 -19.743  1.00  0.00     0.079 C 
HETATM   10  C5  UNL     1     -23.664   1.905 -19.214  1.00  0.00     0.257 C 
HETATM   11  F1  UNL     1     -24.284   2.330 -18.037  1.00  0.00    -0.210 F 
HETATM   12  C6  UNL     1     -23.022   0.580 -18.924  1.00  0.00     0.243 C 
HETATM   13  O3  UNL     1     -21.795   0.747 -18.313  1.00  0.00    -0.361 OA
BRANCH  10  14
HETATM   14  N6  UNL     1     -24.731   1.698 -20.179  1.00  0.00    -0.110 N 
HETATM   15  O1  UNL     1     -25.372   2.628 -20.702  1.00  0.00    -0.534 OA
HETATM   16  O2  UNL     1     -25.082   0.405 -20.564  1.00  0.00    -0.534 OA
ENDBRANCH  10  14
ENDBRANCH   5   7
BRANCH   1  17
HETATM   17  N2  UNL     1     -16.457  -0.555 -18.529  1.00  0.00    -0.247 N 
HETATM   18  N1  UNL     1     -15.313  -0.373 -18.045  1.00  0.00    -0.331 N 
ATOM     19  H12 UNL     1     -15.080   0.535 -17.645  1.00  0.00     0.178 HD
ATOM     20  H11 UNL     1     -14.633  -1.134 -18.059  1.00  0.00     0.178 HD
ATOM     21  H2  UNL     1     -16.706  -1.458 -18.934  1.00  0.00     0.207 HD
ENDBRANCH   1  17
TORSDOF 3
ENDMDL
MODEL 3
REMARK VINA RESULT: -6.068842221      3.569      4.184
REMARK  3 active torsions:
REMARK  status: ('A' for Active; 'I' for Inactive)
REMARK    1  A    between atoms: N2_4  and  N3_6 
REMARK       I    between atoms: N3_6  and  C1_8 
REMARK    2  A    between atoms: N5_10  and  C2_12 
REMARK    3  A    between atoms: C5_15  and  N6_17 
ROOT
HETATM    1  N3  UNL     1     -19.332  -3.300 -19.275  1.00  0.00    -0.260 N 
ATOM      2  H3  UNL     1     -18.825  -2.990 -18.445  1.00  0.00     0.191 HD
HETATM    3  C1  UNL     1     -20.382  -2.487 -19.744  1.00  0.00     0.206 C 
HETATM    4  N4  UNL     1     -20.946  -2.787 -21.011  1.00  0.00    -0.062 NA
HETATM    5  N5  UNL     1     -20.809  -1.514 -19.053  1.00  0.00    -0.337 N 
ATOM      6  H5  UNL     1     -20.364  -1.348 -18.150  1.00  0.00     0.164 HD
ENDROOT
BRANCH   5   7
HETATM    7  C2  UNL     1     -21.878  -0.622 -19.443  1.00  0.00     0.223 C 
HETATM    8  C3  UNL     1     -22.040   0.386 -18.335  1.00  0.00     0.059 C 
HETATM    9  C4  UNL     1     -23.241   1.242 -18.450  1.00  0.00     0.079 C 
HETATM   10  C5  UNL     1     -24.357   0.697 -19.256  1.00  0.00     0.257 C 
HETATM   11  F1  UNL     1     -25.370   0.187 -18.442  1.00  0.00    -0.210 F 
HETATM   12  C6  UNL     1     -23.970  -0.389 -20.218  1.00  0.00     0.243 C 
HETATM   13  O3  UNL     1     -23.086  -1.275 -19.636  1.00  0.00    -0.361 OA
BRANCH  10  14
HETATM   14  N6  UNL     1     -24.955   1.786 -20.010  1.00  0.00    -0.110 N 
HETATM   15  O1  UNL     1     -24.573   2.125 -21.146  1.00  0.00    -0.534 OA
HETATM   16  O2  UNL     1     -26.013   2.514 -19.467  1.00  0.00    -0.534 OA
ENDBRANCH  10  14
ENDBRANCH   5   7
BRANCH   1  17
HETATM   17  N2  UNL     1     -18.939  -4.494 -19.863  1.00  0.00    -0.247 N 
HETATM   18  N1  UNL     1     -18.979  -4.614 -21.113  1.00  0.00    -0.331 N 
ATOM     19  H12 UNL     1     -19.302  -3.828 -21.677  1.00  0.00     0.178 HD
ATOM     20  H11 UNL     1     -18.691  -5.491 -21.545  1.00  0.00     0.178 HD
ATOM     21  H2  UNL     1     -18.620  -5.271 -19.283  1.00  0.00     0.207 HD
ENDBRANCH   1  17
TORSDOF 3
ENDMDL
MODEL 4
REMARK VINA RESULT: -5.919652567      3.004      3.761
REMARK  3 active torsions:
REMARK  status: ('A' for Active; 'I' for Inactive)
REMARK    1  A    between atoms: N2_4  and  N3_6 
REMARK       I    between atoms: N3_6  and  C1_8 
REMARK    2  A    between atoms: N5_10  and  C2_12 
REMARK    3  A    between atoms: C5_15  and  N6_17 
ROOT
HETATM    1  N3  UNL     1     -19.204  -2.948 -19.025  1.00  0.00    -0.260 N 
ATOM      2  H3  UNL     1     -18.598  -2.525 -18.322  1.00  0.00     0.191 HD
HETATM    3  C1  UNL     1     -20.293  -2.188 -19.495  1.00  0.00     0.206 C 
HETATM    4  N4  UNL     1     -21.009  -2.668 -20.621  1.00  0.00    -0.062 NA
HETATM    5  N5  UNL     1     -20.623  -1.105 -18.925  1.00  0.00    -0.337 N 
ATOM      6  H5  UNL     1     -20.071  -0.811 -18.119  1.00  0.00     0.164 HD
ENDROOT
BRANCH   5   7
HETATM    7  C2  UNL     1     -21.720  -0.253 -19.327  1.00  0.00     0.223 C 
HETATM    8  C3  UNL     1     -21.223   1.168 -19.268  1.00  0.00     0.059 C 
HETATM    9  C4  UNL     1     -22.275   2.197 -19.423  1.00  0.00     0.079 C 
HETATM   10  C5  UNL     1     -23.654   1.778 -19.085  1.00  0.00     0.257 C 
HETATM   11  F1  UNL     1     -24.033   2.247 -17.826  1.00  0.00    -0.210 F 
HETATM   12  C6  UNL     1     -23.884   0.294 -19.095  1.00  0.00     0.243 C 
HETATM   13  O3  UNL     1     -22.830  -0.374 -18.504  1.00  0.00    -0.361 OA
BRANCH  10  14
HETATM   14  N6  UNL     1     -24.567   2.390 -20.036  1.00  0.00    -0.110 N 
HETATM   15  O1  UNL     1     -25.761   2.633 -19.780  1.00  0.00    -0.534 OA
HETATM   16  O2  UNL     1     -24.121   2.736 -21.310  1.00  0.00    -0.534 OA
ENDBRANCH  10  14
ENDBRANCH   5   7
BRANCH   1  17
HETATM   17  N2  UNL     1     -18.899  -4.231 -19.454  1.00  0.00    -0.247 N 
HETATM   18  N1  UNL     1     -18.878  -4.487 -20.684  1.00  0.00    -0.331 N 
ATOM     19  H12 UNL     1     -19.087  -3.744 -21.350  1.00  0.00     0.178 HD
ATOM     20  H11 UNL     1     -18.653  -5.431 -20.999  1.00  0.00     0.178 HD
ATOM     21  H2  UNL     1     -18.693  -4.964 -18.774  1.00  0.00     0.207 HD
ENDBRANCH   1  17
TORSDOF 3
ENDMDL
MODEL 5
REMARK VINA RESULT: -5.910930503      3.764      6.366
REMARK  3 active torsions:
REMARK  status: ('A' for Active; 'I' for Inactive)
REMARK    1  A    between atoms: N2_4  and  N3_6 
REMARK       I    between atoms: N3_6  and  C1_8 
REMARK    2  A    between atoms: N5_10  and  C2_12 
REMARK    3  A    between atoms: C5_15  and  N6_17 
ROOT
HETATM    1  N3  UNL     1     -23.686   1.511 -18.361  1.00  0.00    -0.260 N 
ATOM      2  H3  UNL     1     -23.069   2.042 -17.746  1.00  0.00     0.191 HD
HETATM    3  C1  UNL     1     -23.233   0.260 -18.823  1.00  0.00     0.206 C 
HETATM    4  N4  UNL     1     -24.158  -0.582 -19.493  1.00  0.00    -0.062 NA
HETATM    5  N5  UNL     1     -22.031  -0.102 -18.644  1.00  0.00    -0.337 N 
ATOM      6  H5  UNL     1     -21.413   0.546 -18.157  1.00  0.00     0.164 HD
ENDROOT
BRANCH   5   7
HETATM    7  C2  UNL     1     -21.469  -1.362 -19.078  1.00  0.00     0.223 C 
HETATM    8  C3  UNL     1     -19.979  -1.277 -18.867  1.00  0.00     0.059 C 
HETATM    9  C4  UNL     1     -19.207  -2.387 -19.468  1.00  0.00     0.079 C 
HETATM   10  C5  UNL     1     -19.854  -3.100 -20.593  1.00  0.00     0.257 C 
HETATM   11  F1  UNL     1     -19.332  -2.689 -21.821  1.00  0.00    -0.210 F 
HETATM   12  C6  UNL     1     -21.345  -2.940 -20.667  1.00  0.00     0.243 C 
HETATM   13  O3  UNL     1     -21.717  -1.635 -20.414  1.00  0.00    -0.361 OA
BRANCH  10  14
HETATM   14  N6  UNL     1     -19.549  -4.516 -20.478  1.00  0.00    -0.110 N 
HETATM   15  O1  UNL     1     -18.522  -4.953 -19.925  1.00  0.00    -0.534 OA
HETATM   16  O2  UNL     1     -20.426  -5.464 -21.000  1.00  0.00    -0.534 OA
ENDBRANCH  10  14
ENDBRANCH   5   7
BRANCH   1  17
HETATM   17  N2  UNL     1     -24.914   2.071 -18.684  1.00  0.00    -0.247 N 
HETATM   18  N1  UNL     1     -25.301   2.071 -19.879  1.00  0.00    -0.331 N 
ATOM     19  H12 UNL     1     -24.704   1.658 -20.596  1.00  0.00     0.178 HD
ATOM     20  H11 UNL     1     -26.204   2.482 -20.116  1.00  0.00     0.178 HD
ATOM     21  H2  UNL     1     -25.499   2.480 -17.955  1.00  0.00     0.207 HD
ENDBRANCH   1  17
TORSDOF 3
ENDMDL
