MODEL 1
REMARK VINA RESULT: -6.472237561      0.000      0.000
REMARK  5 active torsions:
REMARK  status: ('A' for Active; 'I' for Inactive)
REMARK    1  A    between atoms: N1_2  and  C2_4 
REMARK    2  A    between atoms: C2_4  and  C3_5 
REMARK    3  A    between atoms: C3_5  and  C4_6 
REMARK    4  A    between atoms: C4_6  and  N2_7 
REMARK       I    between atoms: N3_10  and  C7_11 
REMARK       I    between atoms: C7_11  and  N5_17 
REMARK    5  A    between atoms: N4_12  and  C8_14 
ROOT
HETATM    1  N2  UNL     1      -0.001  -5.902  30.376  1.00  0.00     0.091 N 
HETATM    2  C5  UNL     1      -1.258  -6.541  30.646  1.00  0.00     0.292 C 
HETATM    3  C6  UNL     1      -1.475  -6.582  32.155  1.00  0.00     0.171 C 
HETATM    4  N3  UNL     1      -0.256  -7.012  32.822  1.00  0.00    -0.214 N 
HETATM    5  C7  UNL     1      -0.191  -6.977  34.220  1.00  0.00     0.685 C 
HETATM    6  N4  UNL     1       0.575  -6.130  34.791  1.00  0.00    -0.222 N 
ATOM      7  H4  UNL     1       1.103  -5.518  34.169  1.00  0.00     0.178 HD
HETATM    8  N5  UNL     1      -0.959  -7.863  35.003  1.00  0.00    -0.126 N 
ATOM      9  H5  UNL     1      -1.970  -7.736  35.035  1.00  0.00     0.197 HD
HETATM   10  C11 UNL     1      -0.382  -8.918  35.745  1.00  0.00     0.196 C 
HETATM   11  N6  UNL     1       0.104  -9.788  36.355  1.00  0.00    -0.171 NA
HETATM   12  C12 UNL     1       0.881  -7.472  32.086  1.00  0.00     0.171 C 
HETATM   13  C13 UNL     1       1.119  -6.717  30.814  1.00  0.00     0.292 C 
ENDROOT
BRANCH   6  14
HETATM   14  C8  UNL     1       0.786  -5.931  36.185  1.00  0.00     0.091 C 
HETATM   15  C9  UNL     1       2.158  -5.279  36.343  1.00  0.00     0.032 C 
HETATM   16  C10 UNL     1      -0.215  -4.905  36.724  1.00  0.00     0.032 C 
ENDBRANCH   6  14
BRANCH   1  17
HETATM   17  C4  UNL     1       0.241  -5.676  28.974  1.00  0.00     0.274 C 
BRANCH  17  18
HETATM   18  C3  UNL     1       1.385  -6.431  28.386  1.00  0.00     0.049 C 
BRANCH  18  19
HETATM   19  C2  UNL     1       1.886  -5.610  27.214  1.00  0.00     0.115 C 
BRANCH  19  20
HETATM   20  N1  UNL     1       1.736  -6.350  26.006  1.00  0.00    -0.425 N 
HETATM   21  C1  UNL     1       0.638  -5.966  25.174  1.00  0.00     0.139 C 
ATOM     22  H1  UNL     1       2.371  -7.105  25.751  1.00  0.00     0.152 HD
ENDBRANCH  19  20
ENDBRANCH  18  19
ENDBRANCH  17  18
ENDBRANCH   1  17
TORSDOF 5
ENDMDL
MODEL 2
REMARK VINA RESULT: -6.269226710      2.790      4.844
REMARK  5 active torsions:
REMARK  status: ('A' for Active; 'I' for Inactive)
REMARK    1  A    between atoms: N1_2  and  C2_4 
REMARK    2  A    between atoms: C2_4  and  C3_5 
REMARK    3  A    between atoms: C3_5  and  C4_6 
REMARK    4  A    between atoms: C4_6  and  N2_7 
REMARK       I    between atoms: N3_10  and  C7_11 
REMARK       I    between atoms: C7_11  and  N5_17 
REMARK    5  A    between atoms: N4_12  and  C8_14 
ROOT
HETATM    1  N2  UNL     1       0.143  -5.967  26.505  1.00  0.00     0.091 N 
HETATM    2  C5  UNL     1       1.551  -5.918  26.780  1.00  0.00     0.292 C 
HETATM    3  C6  UNL     1       1.819  -6.637  28.099  1.00  0.00     0.171 C 
HETATM    4  N3  UNL     1       0.845  -6.225  29.097  1.00  0.00    -0.214 N 
HETATM    5  C7  UNL     1       0.818  -6.874  30.337  1.00  0.00     0.685 C 
HETATM    6  N4  UNL     1      -0.173  -7.625  30.631  1.00  0.00    -0.222 N 
ATOM      7  H4  UNL     1      -0.899  -7.702  29.919  1.00  0.00     0.178 HD
HETATM    8  N5  UNL     1       1.868  -6.711  31.263  1.00  0.00    -0.126 N 
ATOM      9  H5  UNL     1       2.776  -7.126  31.052  1.00  0.00     0.197 HD
HETATM   10  C11 UNL     1       1.713  -5.995  32.471  1.00  0.00     0.196 C 
HETATM   11  N6  UNL     1       1.575  -5.401  33.469  1.00  0.00    -0.171 NA
HETATM   12  C12 UNL     1      -0.091  -5.172  28.845  1.00  0.00     0.171 C 
HETATM   13  C13 UNL     1      -0.615  -5.157  27.442  1.00  0.00     0.292 C 
ENDROOT
BRANCH   6  14
HETATM   14  C8  UNL     1      -0.392  -8.367  31.825  1.00  0.00     0.091 C 
HETATM   15  C9  UNL     1      -1.897  -8.366  32.085  1.00  0.00     0.032 C 
HETATM   16  C10 UNL     1      -0.021  -9.837  31.604  1.00  0.00     0.032 C 
ENDBRANCH   6  14
BRANCH   1  17
HETATM   17  C4  UNL     1      -0.208  -5.446  25.208  1.00  0.00     0.274 C 
BRANCH  17  18
HETATM   18  C3  UNL     1       0.698  -5.834  24.089  1.00  0.00     0.049 C 
BRANCH  18  19
HETATM   19  C2  UNL     1       0.138  -5.185  22.837  1.00  0.00     0.115 C 
BRANCH  19  20
HETATM   20  N1  UNL     1      -1.213  -5.595  22.644  1.00  0.00    -0.425 N 
HETATM   21  C1  UNL     1      -1.636  -5.721  21.285  1.00  0.00     0.139 C 
ATOM     22  H1  UNL     1      -1.839  -5.786  23.427  1.00  0.00     0.152 HD
ENDBRANCH  19  20
ENDBRANCH  18  19
ENDBRANCH  17  18
ENDBRANCH   1  17
TORSDOF 5
ENDMDL
MODEL 3
REMARK VINA RESULT: -6.261231067      0.943      1.192
REMARK  5 active torsions:
REMARK  status: ('A' for Active; 'I' for Inactive)
REMARK    1  A    between atoms: N1_2  and  C2_4 
REMARK    2  A    between atoms: C2_4  and  C3_5 
REMARK    3  A    between atoms: C3_5  and  C4_6 
REMARK    4  A    between atoms: C4_6  and  N2_7 
REMARK       I    between atoms: N3_10  and  C7_11 
REMARK       I    between atoms: C7_11  and  N5_17 
REMARK    5  A    between atoms: N4_12  and  C8_14 
ROOT
HETATM    1  N2  UNL     1      -0.486  -5.597  30.353  1.00  0.00     0.091 N 
HETATM    2  C5  UNL     1      -1.664  -6.352  30.673  1.00  0.00     0.292 C 
HETATM    3  C6  UNL     1      -1.757  -6.498  32.189  1.00  0.00     0.171 C 
HETATM    4  N3  UNL     1      -0.460  -6.864  32.735  1.00  0.00    -0.214 N 
HETATM    5  C7  UNL     1      -0.288  -6.905  34.123  1.00  0.00     0.685 C 
HETATM    6  N4  UNL     1       0.453  -6.031  34.689  1.00  0.00    -0.222 N 
ATOM      7  H4  UNL     1       0.881  -5.342  34.071  1.00  0.00     0.178 HD
HETATM    8  N5  UNL     1      -0.919  -7.894  34.902  1.00  0.00    -0.126 N 
ATOM      9  H5  UNL     1      -1.932  -7.855  35.018  1.00  0.00     0.197 HD
HETATM   10  C11 UNL     1      -0.205  -8.940  35.530  1.00  0.00     0.196 C 
HETATM   11  N6  UNL     1       0.395  -9.800  36.047  1.00  0.00    -0.171 NA
HETATM   12  C12 UNL     1       0.649  -7.184  31.888  1.00  0.00     0.171 C 
HETATM   13  C13 UNL     1       0.726  -6.340  30.653  1.00  0.00     0.292 C 
ENDROOT
BRANCH   6  14
HETATM   14  C8  UNL     1       0.757  -5.897  36.073  1.00  0.00     0.091 C 
HETATM   15  C9  UNL     1       2.113  -5.202  36.170  1.00  0.00     0.032 C 
HETATM   16  C10 UNL     1      -0.237  -4.939  36.737  1.00  0.00     0.032 C 
ENDBRANCH   6  14
BRANCH   1  17
HETATM   17  C4  UNL     1      -0.374  -5.271  28.954  1.00  0.00     0.274 C 
BRANCH  17  18
HETATM   18  C3  UNL     1      -1.657  -5.227  28.196  1.00  0.00     0.049 C 
BRANCH  18  19
HETATM   19  C2  UNL     1      -1.287  -5.205  26.725  1.00  0.00     0.115 C 
BRANCH  19  20
HETATM   20  N1  UNL     1       0.078  -5.579  26.564  1.00  0.00    -0.425 N 
HETATM   21  C1  UNL     1       0.472  -5.936  25.238  1.00  0.00     0.139 C 
ATOM     22  H1  UNL     1       0.732  -5.591  27.346  1.00  0.00     0.152 HD
ENDBRANCH  19  20
ENDBRANCH  18  19
ENDBRANCH  17  18
ENDBRANCH   1  17
TORSDOF 5
ENDMDL
MODEL 4
REMARK VINA RESULT: -6.210504267      1.404      1.580
REMARK  5 active torsions:
REMARK  status: ('A' for Active; 'I' for Inactive)
REMARK    1  A    between atoms: N1_2  and  C2_4 
REMARK    2  A    between atoms: C2_4  and  C3_5 
REMARK    3  A    between atoms: C3_5  and  C4_6 
REMARK    4  A    between atoms: C4_6  and  N2_7 
REMARK       I    between atoms: N3_10  and  C7_11 
REMARK       I    between atoms: C7_11  and  N5_17 
REMARK    5  A    between atoms: N4_12  and  C8_14 
ROOT
HETATM    1  N2  UNL     1       0.473  -5.616  29.148  1.00  0.00     0.091 N 
HETATM    2  C5  UNL     1      -0.883  -5.796  29.581  1.00  0.00     0.292 C 
HETATM    3  C6  UNL     1      -0.959  -5.533  31.081  1.00  0.00     0.171 C 
HETATM    4  N3  UNL     1       0.141  -6.200  31.761  1.00  0.00    -0.214 N 
HETATM    5  C7  UNL     1       0.345  -5.968  33.125  1.00  0.00     0.685 C 
HETATM    6  N4  UNL     1       1.374  -5.312  33.503  1.00  0.00    -0.222 N 
ATOM      7  H4  UNL     1       1.995  -4.992  32.760  1.00  0.00     0.178 HD
HETATM    8  N5  UNL     1      -0.568  -6.447  34.086  1.00  0.00    -0.126 N 
ATOM      9  H5  UNL     1      -1.492  -6.019  34.140  1.00  0.00     0.197 HD
HETATM   10  C11 UNL     1      -0.254  -7.498  34.978  1.00  0.00     0.196 C 
HETATM   11  N6  UNL     1       0.016  -8.367  35.712  1.00  0.00    -0.171 NA
HETATM   12  C12 UNL     1       1.022  -7.090  31.069  1.00  0.00     0.171 C 
HETATM   13  C13 UNL     1       1.346  -6.651  29.674  1.00  0.00     0.292 C 
ENDROOT
BRANCH   6  14
HETATM   14  C8  UNL     1       1.764  -4.970  34.829  1.00  0.00     0.091 C 
HETATM   15  C9  UNL     1       3.290  -4.910  34.847  1.00  0.00     0.032 C 
HETATM   16  C10 UNL     1       1.299  -3.549  35.161  1.00  0.00     0.032 C 
ENDBRANCH   6  14
BRANCH   1  17
HETATM   17  C4  UNL     1       0.636  -5.696  27.718  1.00  0.00     0.274 C 
BRANCH  17  18
HETATM   18  C3  UNL     1       2.044  -5.665  27.226  1.00  0.00     0.049 C 
BRANCH  18  19
HETATM   19  C2  UNL     1       1.993  -6.030  25.755  1.00  0.00     0.115 C 
BRANCH  19  20
HETATM   20  N1  UNL     1       0.661  -6.379  25.389  1.00  0.00    -0.425 N 
HETATM   21  C1  UNL     1       0.250  -5.979  24.080  1.00  0.00     0.139 C 
ATOM     22  H1  UNL     1       0.039  -6.883  26.022  1.00  0.00     0.152 HD
ENDBRANCH  19  20
ENDBRANCH  18  19
ENDBRANCH  17  18
ENDBRANCH   1  17
TORSDOF 5
ENDMDL
MODEL 5
REMARK VINA RESULT: -6.203984283      1.755      2.626
REMARK  5 active torsions:
REMARK  status: ('A' for Active; 'I' for Inactive)
REMARK    1  A    between atoms: N1_2  and  C2_4 
REMARK    2  A    between atoms: C2_4  and  C3_5 
REMARK    3  A    between atoms: C3_5  and  C4_6 
REMARK    4  A    between atoms: C4_6  and  N2_7 
REMARK       I    between atoms: N3_10  and  C7_11 
REMARK       I    between atoms: C7_11  and  N5_17 
REMARK    5  A    between atoms: N4_12  and  C8_14 
ROOT
HETATM    1  N2  UNL     1      -0.502  -5.641  30.510  1.00  0.00     0.091 N 
HETATM    2  C5  UNL     1      -1.692  -6.381  30.823  1.00  0.00     0.292 C 
HETATM    3  C6  UNL     1      -1.790  -6.537  32.337  1.00  0.00     0.171 C 
HETATM    4  N3  UNL     1      -0.498  -6.927  32.882  1.00  0.00    -0.214 N 
HETATM    5  C7  UNL     1      -0.329  -6.980  34.270  1.00  0.00     0.685 C 
HETATM    6  N4  UNL     1       0.424  -6.122  34.844  1.00  0.00    -0.222 N 
ATOM      7  H4  UNL     1       0.862  -5.434  34.231  1.00  0.00     0.178 HD
HETATM    8  N5  UNL     1      -0.977  -7.966  35.041  1.00  0.00    -0.126 N 
ATOM      9  H5  UNL     1      -1.988  -7.912  35.155  1.00  0.00     0.197 HD
HETATM   10  C11 UNL     1      -0.279  -9.026  35.663  1.00  0.00     0.196 C 
HETATM   11  N6  UNL     1       0.308  -9.899  36.173  1.00  0.00    -0.171 NA
HETATM   12  C12 UNL     1       0.606  -7.257  32.035  1.00  0.00     0.171 C 
HETATM   13  C13 UNL     1       0.698  -6.405  30.806  1.00  0.00     0.292 C 
ENDROOT
BRANCH   6  14
HETATM   14  C8  UNL     1       0.727  -6.002  36.229  1.00  0.00     0.091 C 
HETATM   15  C9  UNL     1       2.078  -5.297  36.334  1.00  0.00     0.032 C 
HETATM   16  C10 UNL     1      -0.274  -5.060  36.905  1.00  0.00     0.032 C 
ENDBRANCH   6  14
BRANCH   1  17
HETATM   17  C4  UNL     1      -0.383  -5.307  29.113  1.00  0.00     0.274 C 
BRANCH  17  18
HETATM   18  C3  UNL     1      -1.604  -4.729  28.481  1.00  0.00     0.049 C 
BRANCH  18  19
HETATM   19  C2  UNL     1      -1.534  -3.230  28.702  1.00  0.00     0.115 C 
BRANCH  19  20
HETATM   20  N1  UNL     1      -2.473  -2.846  29.703  1.00  0.00    -0.425 N 
HETATM   21  C1  UNL     1      -2.180  -1.629  30.394  1.00  0.00     0.139 C 
ATOM     22  H1  UNL     1      -3.300  -3.403  29.912  1.00  0.00     0.152 HD
ENDBRANCH  19  20
ENDBRANCH  18  19
ENDBRANCH  17  18
ENDBRANCH   1  17
TORSDOF 5
ENDMDL
