MODEL 1
REMARK VINA RESULT: -6.316412911      0.000      0.000
REMARK  3 active torsions:
REMARK  status: ('A' for Active; 'I' for Inactive)
REMARK    1  A    between atoms: C2_2  and  C4_4 
REMARK    2  A    between atoms: N1_6  and  C6_7 
REMARK    3  A    between atoms: C6_7  and  C7_8 
ROOT
HETATM    1  C4  UNL     1      18.321   4.367  13.394  1.00  0.00     0.116 C 
HETATM    2  C5  UNL     1      18.123   3.561  14.694  1.00  0.00     0.144 C 
HETATM    3  N1  UNL     1      16.920   2.842  14.702  1.00  0.00    -0.390 N 
HETATM    4  C11 UNL     1      16.340   2.517  13.440  1.00  0.00     0.139 C 
HETATM    5  C12 UNL     1      17.276   1.957  12.428  1.00  0.00     0.150 C 
HETATM    6  N2  UNL     1      18.667   2.207  12.710  1.00  0.00    -0.147 NA
HETATM    7  N3  UNL     1      19.012   3.518  12.477  1.00  0.00    -0.142 NA
ENDROOT
BRANCH   3   8
HETATM    8  C6  UNL     1      16.751   1.831  15.667  1.00  0.00     0.065 C 
BRANCH   8   9
HETATM    9  C7  UNL     1      15.493   1.048  15.680  1.00  0.00     0.050 C 
HETATM   10  C8  UNL     1      14.416   1.583  16.556  1.00  0.00     0.038 C 
HETATM   11  C9  UNL     1      13.750   0.310  17.078  1.00  0.00     0.168 C 
HETATM   12  O1  UNL     1      14.489  -0.749  16.609  1.00  0.00    -0.390 OA
HETATM   13  C10 UNL     1      15.789  -0.282  16.392  1.00  0.00     0.177 C 
ENDBRANCH   8   9
ENDBRANCH   3   8
BRANCH   1  14
HETATM   14  C2  UNL     1      19.205   5.556  13.712  1.00  0.00    -0.000 C 
HETATM   15  C1  UNL     1      18.463   6.593  14.554  1.00  0.00     0.011 C 
HETATM   16  C3  UNL     1      19.614   6.238  12.425  1.00  0.00     0.011 C 
ENDBRANCH   1  14
TORSDOF 3
ENDMDL
MODEL 2
REMARK VINA RESULT: -6.282148540      1.716      2.967
REMARK  3 active torsions:
REMARK  status: ('A' for Active; 'I' for Inactive)
REMARK    1  A    between atoms: C2_2  and  C4_4 
REMARK    2  A    between atoms: N1_6  and  C6_7 
REMARK    3  A    between atoms: C6_7  and  C7_8 
ROOT
HETATM    1  C4  UNL     1      16.803   3.544  12.317  1.00  0.00     0.116 C 
HETATM    2  C5  UNL     1      16.558   2.415  13.340  1.00  0.00     0.144 C 
HETATM    3  N1  UNL     1      17.243   2.626  14.545  1.00  0.00    -0.390 N 
HETATM    4  C11 UNL     1      17.597   3.968  14.875  1.00  0.00     0.139 C 
HETATM    5  C12 UNL     1      16.518   4.977  14.705  1.00  0.00     0.150 C 
HETATM    6  N2  UNL     1      15.433   4.544  13.859  1.00  0.00    -0.147 NA
HETATM    7  N3  UNL     1      15.790   4.529  12.531  1.00  0.00    -0.142 NA
ENDROOT
BRANCH   3   8
HETATM    8  C6  UNL     1      16.875   1.858  15.667  1.00  0.00     0.065 C 
BRANCH   8   9
HETATM    9  C7  UNL     1      15.580   1.138  15.656  1.00  0.00     0.050 C 
HETATM   10  C8  UNL     1      14.553   1.656  16.599  1.00  0.00     0.038 C 
HETATM   11  C9  UNL     1      13.836   0.381  17.043  1.00  0.00     0.168 C 
HETATM   12  O1  UNL     1      14.510  -0.674  16.475  1.00  0.00    -0.390 OA
HETATM   13  C10 UNL     1      15.826  -0.256  16.258  1.00  0.00     0.177 C 
ENDBRANCH   8   9
ENDBRANCH   3   8
BRANCH   1  14
HETATM   14  C2  UNL     1      16.626   2.962  10.930  1.00  0.00    -0.000 C 
HETATM   15  C1  UNL     1      16.513   1.440  10.974  1.00  0.00     0.011 C 
HETATM   16  C3  UNL     1      17.838   3.294  10.086  1.00  0.00     0.011 C 
ENDBRANCH   1  14
TORSDOF 3
ENDMDL
MODEL 3
REMARK VINA RESULT: -6.199519910      1.904      3.572
REMARK  3 active torsions:
REMARK  status: ('A' for Active; 'I' for Inactive)
REMARK    1  A    between atoms: C2_2  and  C4_4 
REMARK    2  A    between atoms: N1_6  and  C6_7 
REMARK    3  A    between atoms: C6_7  and  C7_8 
ROOT
HETATM    1  C4  UNL     1      16.998   2.005  12.828  1.00  0.00     0.116 C 
HETATM    2  C5  UNL     1      15.824   1.813  13.811  1.00  0.00     0.144 C 
HETATM    3  N1  UNL     1      15.989   2.548  14.994  1.00  0.00    -0.390 N 
HETATM    4  C11 UNL     1      16.836   3.694  14.943  1.00  0.00     0.139 C 
HETATM    5  C12 UNL     1      16.614   4.606  13.789  1.00  0.00     0.150 C 
HETATM    6  N2  UNL     1      15.891   4.008  12.695  1.00  0.00    -0.147 NA
HETATM    7  N3  UNL     1      16.665   3.115  11.993  1.00  0.00    -0.142 NA
ENDROOT
BRANCH   3   8
HETATM    8  C6  UNL     1      14.874   2.718  15.836  1.00  0.00     0.065 C 
BRANCH   8   9
HETATM    9  C7  UNL     1      14.627   1.734  16.915  1.00  0.00     0.050 C 
HETATM   10  C8  UNL     1      15.756   0.809  17.207  1.00  0.00     0.038 C 
HETATM   11  C9  UNL     1      15.035  -0.492  17.561  1.00  0.00     0.168 C 
HETATM   12  O1  UNL     1      13.694  -0.275  17.354  1.00  0.00    -0.390 OA
HETATM   13  C10 UNL     1      13.582   0.734  16.393  1.00  0.00     0.177 C 
ENDBRANCH   8   9
ENDBRANCH   3   8
BRANCH   1  14
HETATM   14  C2  UNL     1      17.093   0.763  11.967  1.00  0.00    -0.000 C 
HETATM   15  C1  UNL     1      15.961   0.707  10.943  1.00  0.00     0.011 C 
HETATM   16  C3  UNL     1      16.964  -0.467  12.840  1.00  0.00     0.011 C 
ENDBRANCH   1  14
TORSDOF 3
ENDMDL
MODEL 4
REMARK VINA RESULT: -6.123013885      2.999      5.452
REMARK  3 active torsions:
REMARK  status: ('A' for Active; 'I' for Inactive)
REMARK    1  A    between atoms: C2_2  and  C4_4 
REMARK    2  A    between atoms: N1_6  and  C6_7 
REMARK    3  A    between atoms: C6_7  and  C7_8 
ROOT
HETATM    1  C4  UNL     1      16.463   0.070  13.646  1.00  0.00     0.116 C 
HETATM    2  C5  UNL     1      17.048   1.465  13.950  1.00  0.00     0.144 C 
HETATM    3  N1  UNL     1      16.230   2.215  14.805  1.00  0.00    -0.390 N 
HETATM    4  C11 UNL     1      15.335   1.500  15.655  1.00  0.00     0.139 C 
HETATM    5  C12 UNL     1      15.925   0.342  16.380  1.00  0.00     0.150 C 
HETATM    6  N2  UNL     1      17.164  -0.135  15.819  1.00  0.00    -0.147 NA
HETATM    7  N3  UNL     1      16.967  -0.821  14.643  1.00  0.00    -0.142 NA
ENDROOT
BRANCH   3   8
HETATM    8  C6  UNL     1      16.772   3.364  15.412  1.00  0.00     0.065 C 
BRANCH   8   9
HETATM    9  C7  UNL     1      16.667   4.667  14.716  1.00  0.00     0.050 C 
HETATM   10  C8  UNL     1      15.818   4.671  13.493  1.00  0.00     0.038 C 
HETATM   11  C9  UNL     1      16.551   5.657  12.584  1.00  0.00     0.168 C 
HETATM   12  O1  UNL     1      17.707   6.017  13.235  1.00  0.00    -0.390 OA
HETATM   13  C10 UNL     1      18.042   4.967  14.095  1.00  0.00     0.177 C 
ENDBRANCH   8   9
ENDBRANCH   3   8
BRANCH   1  14
HETATM   14  C2  UNL     1      16.986  -0.372  12.295  1.00  0.00    -0.000 C 
HETATM   15  C1  UNL     1      16.097   0.134  11.161  1.00  0.00     0.011 C 
HETATM   16  C3  UNL     1      16.982  -1.884  12.223  1.00  0.00     0.011 C 
ENDBRANCH   1  14
TORSDOF 3
ENDMDL
MODEL 5
REMARK VINA RESULT: -6.076570679      2.768      5.356
REMARK  3 active torsions:
REMARK  status: ('A' for Active; 'I' for Inactive)
REMARK    1  A    between atoms: C2_2  and  C4_4 
REMARK    2  A    between atoms: N1_6  and  C6_7 
REMARK    3  A    between atoms: C6_7  and  C7_8 
ROOT
HETATM    1  C4  UNL     1      15.529   1.848  16.464  1.00  0.00     0.116 C 
HETATM    2  C5  UNL     1      15.451   1.512  14.960  1.00  0.00     0.144 C 
HETATM    3  N1  UNL     1      16.332   2.283  14.191  1.00  0.00    -0.390 N 
HETATM    4  C11 UNL     1      17.473   2.832  14.850  1.00  0.00     0.139 C 
HETATM    5  C12 UNL     1      18.227   1.889  15.719  1.00  0.00     0.150 C 
HETATM    6  N2  UNL     1      17.485   0.711  16.095  1.00  0.00    -0.147 NA
HETATM    7  N3  UNL     1      16.519   0.989  17.033  1.00  0.00    -0.142 NA
ENDROOT
BRANCH   3   8
HETATM    8  C6  UNL     1      16.596   1.879  12.869  1.00  0.00     0.065 C 
BRANCH   8   9
HETATM    9  C7  UNL     1      16.119   0.554  12.410  1.00  0.00     0.050 C 
HETATM   10  C8  UNL     1      16.982  -0.600  12.784  1.00  0.00     0.038 C 
HETATM   11  C9  UNL     1      16.847  -1.521  11.571  1.00  0.00     0.168 C 
HETATM   12  O1  UNL     1      16.094  -0.847  10.640  1.00  0.00    -0.390 OA
HETATM   13  C10 UNL     1      16.264   0.519  10.880  1.00  0.00     0.177 C 
ENDBRANCH   8   9
ENDBRANCH   3   8
BRANCH   1  14
HETATM   14  C2  UNL     1      14.188   1.519  17.086  1.00  0.00    -0.000 C 
HETATM   15  C1  UNL     1      14.241   1.619  18.610  1.00  0.00     0.011 C 
HETATM   16  C3  UNL     1      13.813   0.092  16.749  1.00  0.00     0.011 C 
ENDBRANCH   1  14
TORSDOF 3
ENDMDL
