MODEL 1
REMARK VINA RESULT: -7.602751477      0.000      0.000
REMARK  7 active torsions:
REMARK  status: ('A' for Active; 'I' for Inactive)
REMARK    1  A    between atoms: N1_2  and  C2_3 
REMARK    2  A    between atoms: N1_2  and  C7_15 
REMARK    3  A    between atoms: C2_3  and  C3_4 
REMARK    4  A    between atoms: C3_4  and  C4_7 
REMARK    5  A    between atoms: C7_15  and  C8_16 
REMARK    6  A    between atoms: C8_16  and  O2_17 
REMARK    7  A    between atoms: O2_17  and  C9_18 
ROOT
HETATM    1  C7  UNL     1      17.620   3.291  12.270  1.00  0.00     0.128 C 
HETATM    2  N4  UNL     1      17.178   3.519  11.149  1.00  0.00    -0.210 N 
ATOM      3  H4  UNL     1      17.500   4.376  10.700  1.00  0.00     0.201 HD
HETATM    4  F8  UNL     1      16.313   2.762  10.447  1.00  0.00    -0.100 F 
ENDROOT
BRANCH   1   5
HETATM    5  N1  UNL     1      18.564   4.202  12.920  1.00  0.00    -0.366 N 
HETATM    6  C1  UNL     1      19.858   4.339  12.345  1.00  0.00     0.151 C 
BRANCH   5   7
HETATM    7  C2  UNL     1      18.182   4.809  14.143  1.00  0.00     0.209 C 
BRANCH   7   8
HETATM    8  C3  UNL     1      17.618   6.175  14.156  1.00  0.00     0.302 C 
HETATM    9  F1  UNL     1      16.773   6.259  15.292  1.00  0.00    -0.197 F 
HETATM   10  F2  UNL     1      18.699   7.024  14.587  1.00  0.00    -0.197 F 
BRANCH   8  11
HETATM   11  C4  UNL     1      16.986   6.721  12.989  1.00  0.00     0.102 A 
HETATM   12  C5  UNL     1      17.451   7.600  12.031  1.00  0.00     0.124 A 
HETATM   13  N2  UNL     1      16.484   7.798  11.090  1.00  0.00    -0.317 N 
HETATM   14  C6  UNL     1      15.434   7.048  11.462  1.00  0.00     0.324 A 
ATOM     15  H2  UNL     1      16.546   8.398  10.267  1.00  0.00     0.170 HD
HETATM   16  O1  UNL     1      14.330   6.959  10.848  1.00  0.00    -0.247 OA
HETATM   17  N3  UNL     1      15.727   6.400  12.594  1.00  0.00    -0.306 N 
ATOM     18  H3  UNL     1      15.100   5.764  13.087  1.00  0.00     0.170 HD
ENDBRANCH   8  11
ENDBRANCH   7   8
ENDBRANCH   5   7
ENDBRANCH   1   5
BRANCH   1  19
HETATM   19  C8  UNL     1      17.246   2.084  13.078  1.00  0.00     0.254 C 
BRANCH  19  20
HETATM   20  O2  UNL     1      15.965   2.255  13.626  1.00  0.00    -0.338 OA
BRANCH  20  21
HETATM   21  C9  UNL     1      15.600   2.140  14.938  1.00  0.00     0.153 A 
HETATM   22  C10 UNL     1      14.920   3.263  15.454  1.00  0.00     0.194 A 
HETATM   23  F3  UNL     1      14.734   4.309  14.608  1.00  0.00    -0.200 F 
HETATM   24  C11 UNL     1      14.481   3.319  16.738  1.00  0.00     0.199 A 
HETATM   25  F4  UNL     1      13.833   4.431  17.176  1.00  0.00    -0.199 F 
HETATM   26  C12 UNL     1      14.688   2.261  17.584  1.00  0.00     0.199 A 
HETATM   27  F5  UNL     1      14.232   2.339  18.864  1.00  0.00    -0.199 F 
HETATM   28  C13 UNL     1      15.358   1.132  17.109  1.00  0.00     0.199 A 
HETATM   29  F6  UNL     1      15.532   0.113  17.973  1.00  0.00    -0.199 F 
HETATM   30  C14 UNL     1      15.807   1.096  15.778  1.00  0.00     0.194 A 
HETATM   31  F7  UNL     1      16.457  -0.033  15.390  1.00  0.00    -0.200 F 
ENDBRANCH  20  21
ENDBRANCH  19  20
ENDBRANCH   1  19
TORSDOF 7
ENDMDL
MODEL 2
REMARK VINA RESULT: -7.583955826      1.820      3.480
REMARK  7 active torsions:
REMARK  status: ('A' for Active; 'I' for Inactive)
REMARK    1  A    between atoms: N1_2  and  C2_3 
REMARK    2  A    between atoms: N1_2  and  C7_15 
REMARK    3  A    between atoms: C2_3  and  C3_4 
REMARK    4  A    between atoms: C3_4  and  C4_7 
REMARK    5  A    between atoms: C7_15  and  C8_16 
REMARK    6  A    between atoms: C8_16  and  O2_17 
REMARK    7  A    between atoms: O2_17  and  C9_18 
ROOT
HETATM    1  C7  UNL     1      16.995   3.664  12.192  1.00  0.00     0.128 C 
HETATM    2  N4  UNL     1      16.556   3.486  11.062  1.00  0.00    -0.210 N 
ATOM      3  H4  UNL     1      16.369   4.324  10.510  1.00  0.00     0.201 HD
HETATM    4  F8  UNL     1      16.294   2.306  10.468  1.00  0.00    -0.100 F 
ENDROOT
BRANCH   1   5
HETATM    5  N1  UNL     1      17.241   5.010  12.715  1.00  0.00    -0.366 N 
HETATM    6  C1  UNL     1      16.858   6.117  11.907  1.00  0.00     0.151 C 
BRANCH   5   7
HETATM    7  C2  UNL     1      17.944   5.139  13.939  1.00  0.00     0.209 C 
BRANCH   7   8
HETATM    8  C3  UNL     1      19.398   5.398  13.943  1.00  0.00     0.302 C 
HETATM    9  F1  UNL     1      19.594   6.631  14.616  1.00  0.00    -0.197 F 
HETATM   10  F2  UNL     1      19.938   4.492  14.924  1.00  0.00    -0.197 F 
BRANCH   8  11
HETATM   11  C4  UNL     1      20.160   5.335  12.729  1.00  0.00     0.102 A 
HETATM   12  C5  UNL     1      20.612   6.332  11.887  1.00  0.00     0.124 A 
HETATM   13  N2  UNL     1      21.326   5.773  10.867  1.00  0.00    -0.317 N 
HETATM   14  C6  UNL     1      21.316   4.447  11.079  1.00  0.00     0.324 A 
ATOM     15  H2  UNL     1      21.778   6.266  10.097  1.00  0.00     0.170 HD
HETATM   16  O1  UNL     1      21.870   3.574  10.347  1.00  0.00    -0.247 OA
HETATM   17  N3  UNL     1      20.623   4.178  12.190  1.00  0.00    -0.306 N 
ATOM     18  H3  UNL     1      20.466   3.246  12.574  1.00  0.00     0.170 HD
ENDBRANCH   8  11
ENDBRANCH   7   8
ENDBRANCH   5   7
ENDBRANCH   1   5
BRANCH   1  19
HETATM   19  C8  UNL     1      17.317   2.548  13.141  1.00  0.00     0.254 C 
BRANCH  19  20
HETATM   20  O2  UNL     1      16.131   2.009  13.664  1.00  0.00    -0.338 OA
BRANCH  20  21
HETATM   21  C9  UNL     1      15.603   2.213  14.908  1.00  0.00     0.153 A 
HETATM   22  C10 UNL     1      15.787   1.137  15.801  1.00  0.00     0.194 A 
HETATM   23  F3  UNL     1      16.433   0.043  15.319  1.00  0.00    -0.200 F 
HETATM   24  C11 UNL     1      15.332   1.168  17.080  1.00  0.00     0.199 A 
HETATM   25  F4  UNL     1      15.539   0.097  17.891  1.00  0.00    -0.199 F 
HETATM   26  C12 UNL     1      14.669   2.274  17.548  1.00  0.00     0.199 A 
HETATM   27  F5  UNL     1      14.229   2.284  18.837  1.00  0.00    -0.199 F 
HETATM   28  C13 UNL     1      14.468   3.358  16.694  1.00  0.00     0.199 A 
HETATM   29  F6  UNL     1      13.820   4.425  17.199  1.00  0.00    -0.199 F 
HETATM   30  C14 UNL     1      14.945   3.303  15.372  1.00  0.00     0.194 A 
HETATM   31  F7  UNL     1      14.705   4.394  14.598  1.00  0.00    -0.200 F 
ENDBRANCH  20  21
ENDBRANCH  19  20
ENDBRANCH   1  19
TORSDOF 7
ENDMDL
MODEL 3
REMARK VINA RESULT: -7.567254870      3.150      6.734
REMARK  7 active torsions:
REMARK  status: ('A' for Active; 'I' for Inactive)
REMARK    1  A    between atoms: N1_2  and  C2_3 
REMARK    2  A    between atoms: N1_2  and  C7_15 
REMARK    3  A    between atoms: C2_3  and  C3_4 
REMARK    4  A    between atoms: C3_4  and  C4_7 
REMARK    5  A    between atoms: C7_15  and  C8_16 
REMARK    6  A    between atoms: C8_16  and  O2_17 
REMARK    7  A    between atoms: O2_17  and  C9_18 
ROOT
HETATM    1  C7  UNL     1      18.172   3.508  12.199  1.00  0.00     0.128 C 
HETATM    2  N4  UNL     1      19.270   3.595  12.737  1.00  0.00    -0.210 N 
ATOM      3  H4  UNL     1      19.358   3.168  13.659  1.00  0.00     0.201 HD
HETATM    4  F8  UNL     1      20.372   4.192  12.245  1.00  0.00    -0.100 F 
ENDROOT
BRANCH   1   5
HETATM    5  N1  UNL     1      17.053   2.823  12.848  1.00  0.00    -0.366 N 
HETATM    6  C1  UNL     1      16.869   1.439  12.570  1.00  0.00     0.151 C 
BRANCH   5   7
HETATM    7  C2  UNL     1      16.151   3.592  13.626  1.00  0.00     0.209 C 
BRANCH   7   8
HETATM    8  C3  UNL     1      16.272   3.625  15.098  1.00  0.00     0.302 C 
HETATM    9  F1  UNL     1      17.658   3.605  15.397  1.00  0.00    -0.197 F 
HETATM   10  F2  UNL     1      15.957   4.980  15.470  1.00  0.00    -0.197 F 
BRANCH   8  11
HETATM   11  C4  UNL     1      15.544   2.698  15.917  1.00  0.00     0.102 A 
HETATM   12  C5  UNL     1      14.352   2.831  16.601  1.00  0.00     0.124 A 
HETATM   13  N2  UNL     1      14.051   1.652  17.218  1.00  0.00    -0.317 N 
HETATM   14  C6  UNL     1      15.044   0.801  16.917  1.00  0.00     0.324 A 
ATOM     15  H2  UNL     1      13.232   1.457  17.794  1.00  0.00     0.170 HD
HETATM   16  O1  UNL     1      15.135  -0.401  17.304  1.00  0.00    -0.247 OA
HETATM   17  N3  UNL     1      15.940   1.418  16.139  1.00  0.00    -0.306 N 
ATOM     18  H3  UNL     1      16.790   0.992  15.769  1.00  0.00     0.170 HD
ENDBRANCH   8  11
ENDBRANCH   7   8
ENDBRANCH   5   7
ENDBRANCH   1   5
BRANCH   1  19
HETATM   19  C8  UNL     1      17.863   4.085  10.849  1.00  0.00     0.254 C 
BRANCH  19  20
HETATM   20  O2  UNL     1      17.638   5.467  10.961  1.00  0.00    -0.338 OA
BRANCH  20  21
HETATM   21  C9  UNL     1      16.479   6.143  10.705  1.00  0.00     0.153 A 
HETATM   22  C10 UNL     1      16.188   6.302   9.334  1.00  0.00     0.194 A 
HETATM   23  F3  UNL     1      17.089   5.793   8.454  1.00  0.00    -0.200 F 
HETATM   24  C11 UNL     1      15.075   6.944   8.897  1.00  0.00     0.199 A 
HETATM   25  F4  UNL     1      14.853   7.067   7.561  1.00  0.00    -0.199 F 
HETATM   26  C12 UNL     1      14.182   7.465   9.798  1.00  0.00     0.199 A 
HETATM   27  F5  UNL     1      13.069   8.099   9.335  1.00  0.00    -0.199 F 
HETATM   28  C13 UNL     1      14.435   7.327  11.163  1.00  0.00     0.199 A 
HETATM   29  F6  UNL     1      13.526   7.846  12.011  1.00  0.00    -0.199 F 
HETATM   30  C14 UNL     1      15.596   6.661  11.593  1.00  0.00     0.194 A 
HETATM   31  F7  UNL     1      15.778   6.573  12.938  1.00  0.00    -0.200 F 
ENDBRANCH  20  21
ENDBRANCH  19  20
ENDBRANCH   1  19
TORSDOF 7
ENDMDL
MODEL 4
REMARK VINA RESULT: -7.553548941      1.822      2.845
REMARK  7 active torsions:
REMARK  status: ('A' for Active; 'I' for Inactive)
REMARK    1  A    between atoms: N1_2  and  C2_3 
REMARK    2  A    between atoms: N1_2  and  C7_15 
REMARK    3  A    between atoms: C2_3  and  C3_4 
REMARK    4  A    between atoms: C3_4  and  C4_7 
REMARK    5  A    between atoms: C7_15  and  C8_16 
REMARK    6  A    between atoms: C8_16  and  O2_17 
REMARK    7  A    between atoms: O2_17  and  C9_18 
ROOT
HETATM    1  C7  UNL     1      17.011   3.880  12.175  1.00  0.00     0.128 C 
HETATM    2  N4  UNL     1      16.698   3.722  11.000  1.00  0.00    -0.210 N 
ATOM      3  H4  UNL     1      16.589   4.569  10.442  1.00  0.00     0.201 HD
HETATM    4  F8  UNL     1      16.484   2.554  10.366  1.00  0.00    -0.100 F 
ENDROOT
BRANCH   1   5
HETATM    5  N1  UNL     1      17.220   5.215  12.738  1.00  0.00    -0.366 N 
HETATM    6  C1  UNL     1      16.795   6.335  11.971  1.00  0.00     0.151 C 
BRANCH   5   7
HETATM    7  C2  UNL     1      17.931   5.328  13.960  1.00  0.00     0.209 C 
BRANCH   7   8
HETATM    8  C3  UNL     1      19.399   5.494  13.959  1.00  0.00     0.302 C 
HETATM    9  F1  UNL     1      19.677   6.697  14.657  1.00  0.00    -0.197 F 
HETATM   10  F2  UNL     1      19.886   4.534  14.915  1.00  0.00    -0.197 F 
BRANCH   8  11
HETATM   11  C4  UNL     1      20.148   5.410  12.737  1.00  0.00     0.102 A 
HETATM   12  C5  UNL     1      20.574   6.391  11.864  1.00  0.00     0.124 A 
HETATM   13  N2  UNL     1      21.285   5.816  10.851  1.00  0.00    -0.317 N 
HETATM   14  C6  UNL     1      21.299   4.497  11.098  1.00  0.00     0.324 A 
ATOM     15  H2  UNL     1      21.720   6.295  10.062  1.00  0.00     0.170 HD
HETATM   16  O1  UNL     1      21.859   3.613  10.384  1.00  0.00    -0.247 OA
HETATM   17  N3  UNL     1      20.623   4.246  12.224  1.00  0.00    -0.306 N 
ATOM     18  H3  UNL     1      20.485   3.323  12.635  1.00  0.00     0.170 HD
ENDBRANCH   8  11
ENDBRANCH   7   8
ENDBRANCH   5   7
ENDBRANCH   1   5
BRANCH   1  19
HETATM   19  C8  UNL     1      17.206   2.749  13.139  1.00  0.00     0.254 C 
BRANCH  19  20
HETATM   20  O2  UNL     1      15.963   2.329  13.639  1.00  0.00    -0.338 OA
BRANCH  20  21
HETATM   21  C9  UNL     1      15.597   2.193  14.948  1.00  0.00     0.153 A 
HETATM   22  C10 UNL     1      14.908   3.304  15.479  1.00  0.00     0.194 A 
HETATM   23  F3  UNL     1      14.717   4.360  14.647  1.00  0.00    -0.200 F 
HETATM   24  C11 UNL     1      14.466   3.339  16.762  1.00  0.00     0.199 A 
HETATM   25  F4  UNL     1      13.811   4.441  17.214  1.00  0.00    -0.199 F 
HETATM   26  C12 UNL     1      14.680   2.270  17.594  1.00  0.00     0.199 A 
HETATM   27  F5  UNL     1      14.220   2.327  18.875  1.00  0.00    -0.199 F 
HETATM   28  C13 UNL     1      15.357   1.153  17.105  1.00  0.00     0.199 A 
HETATM   29  F6  UNL     1      15.536   0.123  17.955  1.00  0.00    -0.199 F 
HETATM   30  C14 UNL     1      15.809   1.139  15.774  1.00  0.00     0.194 A 
HETATM   31  F7  UNL     1      16.467   0.019  15.371  1.00  0.00    -0.200 F 
ENDBRANCH  20  21
ENDBRANCH  19  20
ENDBRANCH   1  19
TORSDOF 7
ENDMDL
MODEL 5
REMARK VINA RESULT: -7.538369074      3.196      6.773
REMARK  7 active torsions:
REMARK  status: ('A' for Active; 'I' for Inactive)
REMARK    1  A    between atoms: N1_2  and  C2_3 
REMARK    2  A    between atoms: N1_2  and  C7_15 
REMARK    3  A    between atoms: C2_3  and  C3_4 
REMARK    4  A    between atoms: C3_4  and  C4_7 
REMARK    5  A    between atoms: C7_15  and  C8_16 
REMARK    6  A    between atoms: C8_16  and  O2_17 
REMARK    7  A    between atoms: O2_17  and  C9_18 
ROOT
HETATM    1  C7  UNL     1      18.220   3.532  12.253  1.00  0.00     0.128 C 
HETATM    2  N4  UNL     1      19.322   3.593  12.786  1.00  0.00    -0.210 N 
ATOM      3  H4  UNL     1      19.415   3.129  13.690  1.00  0.00     0.201 HD
HETATM    4  F8  UNL     1      20.423   4.206  12.311  1.00  0.00    -0.100 F 
ENDROOT
BRANCH   1   5
HETATM    5  N1  UNL     1      17.103   2.825  12.882  1.00  0.00    -0.366 N 
HETATM    6  C1  UNL     1      16.937   1.443  12.583  1.00  0.00     0.151 C 
BRANCH   5   7
HETATM    7  C2  UNL     1      16.185   3.572  13.662  1.00  0.00     0.209 C 
BRANCH   7   8
HETATM    8  C3  UNL     1      16.305   3.603  15.135  1.00  0.00     0.302 C 
HETATM    9  F1  UNL     1      17.691   3.568  15.435  1.00  0.00    -0.197 F 
HETATM   10  F2  UNL     1      16.004   4.961  15.508  1.00  0.00    -0.197 F 
BRANCH   8  11
HETATM   11  C4  UNL     1      15.567   2.683  15.952  1.00  0.00     0.102 A 
HETATM   12  C5  UNL     1      14.370   2.825  16.626  1.00  0.00     0.124 A 
HETATM   13  N2  UNL     1      14.058   1.650  17.246  1.00  0.00    -0.317 N 
HETATM   14  C6  UNL     1      15.050   0.792  16.955  1.00  0.00     0.324 A 
ATOM     15  H2  UNL     1      13.234   1.461  17.816  1.00  0.00     0.170 HD
HETATM   16  O1  UNL     1      15.132  -0.409  17.348  1.00  0.00    -0.247 OA
HETATM   17  N3  UNL     1      15.954   1.401  16.182  1.00  0.00    -0.306 N 
ATOM     18  H3  UNL     1      16.805   0.970  15.820  1.00  0.00     0.170 HD
ENDBRANCH   8  11
ENDBRANCH   7   8
ENDBRANCH   5   7
ENDBRANCH   1   5
BRANCH   1  19
HETATM   19  C8  UNL     1      17.904   4.164  10.930  1.00  0.00     0.254 C 
BRANCH  19  20
HETATM   20  O2  UNL     1      17.500   5.495  11.122  1.00  0.00    -0.338 OA
BRANCH  20  21
HETATM   21  C9  UNL     1      16.451   6.139  10.529  1.00  0.00     0.153 A 
HETATM   22  C10 UNL     1      15.512   6.677  11.434  1.00  0.00     0.194 A 
HETATM   23  F3  UNL     1      15.748   6.474  12.756  1.00  0.00    -0.200 F 
HETATM   24  C11 UNL     1      14.410   7.353  11.020  1.00  0.00     0.199 A 
HETATM   25  F4  UNL     1      13.540   7.845  11.942  1.00  0.00    -0.199 F 
HETATM   26  C12 UNL     1      14.177   7.537   9.681  1.00  0.00     0.199 A 
HETATM   27  F5  UNL     1      13.068   8.225   9.291  1.00  0.00    -0.199 F 
HETATM   28  C13 UNL     1      15.084   7.019   8.756  1.00  0.00     0.199 A 
HETATM   29  F6  UNL     1      14.820   7.232   7.452  1.00  0.00    -0.199 F 
HETATM   30  C14 UNL     1      16.217   6.320   9.206  1.00  0.00     0.194 A 
HETATM   31  F7  UNL     1      17.051   5.839   8.246  1.00  0.00    -0.200 F 
ENDBRANCH  20  21
ENDBRANCH  19  20
ENDBRANCH   1  19
TORSDOF 7
ENDMDL
