MODEL 1
REMARK VINA RESULT: -8.022909966      0.000      0.000
REMARK  9 active torsions:
REMARK  status: ('A' for Active; 'I' for Inactive)
REMARK    1  A    between atoms: C1_2  and  C2_3 
REMARK    2  A    between atoms: N1_6  and  C4_7 
REMARK    3  A    between atoms: C4_7  and  C5_8 
REMARK    4  A    between atoms: C5_8  and  C6_9 
REMARK    5  A    between atoms: C6_9  and  N2_10 
REMARK    6  A    between atoms: N2_10  and  C7_12 
REMARK    7  A    between atoms: C9_14  and  C10_15 
REMARK    8  A    between atoms: C11_20  and  N4_21 
REMARK    9  A    between atoms: C12_23  and  C13_24 
ROOT
HETATM    1  C7  UNL     1      16.856   4.472  13.002  1.00  0.00     0.118 A 
HETATM    2  C8  UNL     1      17.141   3.238  12.459  1.00  0.00     0.080 A 
HETATM    3  C9  UNL     1      16.585   2.130  13.063  1.00  0.00     0.094 A 
HETATM    4  N3  UNL     1      15.813   2.292  14.122  1.00  0.00    -0.190 N 
ATOM      5  H3  UNL     1      15.418   1.454  14.547  1.00  0.00     0.184 HD
HETATM    6  C11 UNL     1      15.503   3.489  14.693  1.00  0.00     0.684 A 
HETATM    7  N5  UNL     1      16.067   4.588  14.078  1.00  0.00    -0.177 N 
ATOM      8  H5  UNL     1      15.877   5.517  14.453  1.00  0.00     0.186 HD
ENDROOT
BRANCH   1   9
HETATM    9  N2  UNL     1      17.370   5.530  12.446  1.00  0.00    -0.376 N 
ATOM     10  H2  UNL     1      18.258   5.427  11.956  1.00  0.00     0.161 HD
BRANCH   9  11
HETATM   11  C6  UNL     1      16.771   6.828  12.476  1.00  0.00     0.123 C 
BRANCH  11  12
HETATM   12  C5  UNL     1      15.801   7.068  11.337  1.00  0.00     0.050 C 
BRANCH  12  13
HETATM   13  C4  UNL     1      16.459   6.795   9.992  1.00  0.00     0.274 C 
BRANCH  13  14
HETATM   14  N1  UNL     1      15.474   6.765   8.972  1.00  0.00     0.098 N 
HETATM   15  C3  UNL     1      14.148   7.126   9.377  1.00  0.00     0.325 C 
HETATM   16  C2  UNL     1      13.420   7.218   8.034  1.00  0.00     0.222 C 
HETATM   17  F2  UNL     1      12.751   6.008   7.893  1.00  0.00    -0.232 F 
HETATM   18  C15 UNL     1      14.494   7.400   7.014  1.00  0.00     0.309 C 
HETATM   19  C14 UNL     1      15.711   7.671   7.875  1.00  0.00     0.355 C 
HETATM   20  F8  UNL     1      14.247   8.408   6.114  1.00  0.00    -0.201 F 
HETATM   21  F9  UNL     1      14.699   6.183   6.396  1.00  0.00    -0.201 F 
BRANCH  16  22
HETATM   22  C1  UNL     1      12.409   8.311   8.092  1.00  0.00     0.274 C 
HETATM   23  F1  UNL     1      11.124   7.875   7.979  1.00  0.00    -0.252 F 
ENDBRANCH  16  22
ENDBRANCH  13  14
ENDBRANCH  12  13
ENDBRANCH  11  12
ENDBRANCH   9  11
ENDBRANCH   1   9
BRANCH   3  24
HETATM   24  C10 UNL     1      16.909   0.809  12.460  1.00  0.00     0.403 C 
HETATM   25  F3  UNL     1      16.765  -0.131  13.465  1.00  0.00    -0.207 F 
HETATM   26  F4  UNL     1      15.908   0.557  11.521  1.00  0.00    -0.207 F 
ENDBRANCH   3  24
BRANCH   6  27
HETATM   27  N4  UNL     1      14.785   3.611  15.670  1.00  0.00    -0.197 N 
HETATM   28  C12 UNL     1      14.232   3.322  16.854  1.00  0.00     0.194 C 
ATOM     29  H4  UNL     1      14.302   4.480  15.441  1.00  0.00     0.183 HD
BRANCH  28  30
HETATM   30  C13 UNL     1      14.652   2.073  17.622  1.00  0.00     0.422 C 
HETATM   31  F5  UNL     1      14.651   2.447  18.987  1.00  0.00    -0.166 F 
HETATM   32  F6  UNL     1      15.943   1.695  17.351  1.00  0.00    -0.166 F 
HETATM   33  F7  UNL     1      13.740   1.062  17.542  1.00  0.00    -0.166 F 
ENDBRANCH  28  30
ENDBRANCH   6  27
TORSDOF 9
ENDMDL
MODEL 2
REMARK VINA RESULT: -7.827962319      1.076      1.370
REMARK  9 active torsions:
REMARK  status: ('A' for Active; 'I' for Inactive)
REMARK    1  A    between atoms: C1_2  and  C2_3 
REMARK    2  A    between atoms: N1_6  and  C4_7 
REMARK    3  A    between atoms: C4_7  and  C5_8 
REMARK    4  A    between atoms: C5_8  and  C6_9 
REMARK    5  A    between atoms: C6_9  and  N2_10 
REMARK    6  A    between atoms: N2_10  and  C7_12 
REMARK    7  A    between atoms: C9_14  and  C10_15 
REMARK    8  A    between atoms: C11_20  and  N4_21 
REMARK    9  A    between atoms: C12_23  and  C13_24 
ROOT
HETATM    1  C7  UNL     1      16.864   3.232  13.137  1.00  0.00     0.118 A 
HETATM    2  C8  UNL     1      16.883   2.234  12.188  1.00  0.00     0.080 A 
HETATM    3  C9  UNL     1      16.743   0.933  12.626  1.00  0.00     0.094 A 
HETATM    4  N3  UNL     1      16.598   0.700  13.918  1.00  0.00    -0.190 N 
ATOM      5  H3  UNL     1      16.497  -0.271  14.211  1.00  0.00     0.184 HD
HETATM    6  C11 UNL     1      16.572   1.653  14.891  1.00  0.00     0.684 A 
HETATM    7  N5  UNL     1      16.714   2.949  14.438  1.00  0.00    -0.177 N 
ATOM      8  H5  UNL     1      16.704   3.713  15.112  1.00  0.00     0.186 HD
ENDROOT
BRANCH   1   9
HETATM    9  N2  UNL     1      16.994   4.466  12.744  1.00  0.00    -0.376 N 
ATOM     10  H2  UNL     1      17.209   5.171  13.449  1.00  0.00     0.161 HD
BRANCH   9  11
HETATM   11  C6  UNL     1      16.856   4.899  11.388  1.00  0.00     0.123 C 
BRANCH  11  12
HETATM   12  C5  UNL     1      15.949   6.103  11.232  1.00  0.00     0.050 C 
BRANCH  12  13
HETATM   13  C4  UNL     1      16.391   6.973  10.063  1.00  0.00     0.274 C 
BRANCH  13  14
HETATM   14  N1  UNL     1      15.436   6.895   9.018  1.00  0.00     0.098 N 
HETATM   15  C3  UNL     1      14.097   7.262   9.370  1.00  0.00     0.325 C 
HETATM   16  C2  UNL     1      13.408   7.294   8.004  1.00  0.00     0.222 C 
HETATM   17  F2  UNL     1      12.751   6.075   7.892  1.00  0.00    -0.232 F 
HETATM   18  C15 UNL     1      14.510   7.443   7.009  1.00  0.00     0.309 C 
HETATM   19  C14 UNL     1      15.700   7.757   7.892  1.00  0.00     0.355 C 
HETATM   20  F8  UNL     1      14.283   8.411   6.062  1.00  0.00    -0.201 F 
HETATM   21  F9  UNL     1      14.740   6.203   6.447  1.00  0.00    -0.201 F 
BRANCH  16  22
HETATM   22  C1  UNL     1      12.389   8.382   7.988  1.00  0.00     0.274 C 
HETATM   23  F1  UNL     1      11.106   7.929   7.938  1.00  0.00    -0.252 F 
ENDBRANCH  16  22
ENDBRANCH  13  14
ENDBRANCH  12  13
ENDBRANCH  11  12
ENDBRANCH   9  11
ENDBRANCH   1   9
BRANCH   3  24
HETATM   24  C10 UNL     1      16.769  -0.128  11.584  1.00  0.00     0.403 C 
HETATM   25  F3  UNL     1      16.487  -1.321  12.226  1.00  0.00    -0.207 F 
HETATM   26  F4  UNL     1      15.695   0.140  10.733  1.00  0.00    -0.207 F 
ENDBRANCH   3  24
BRANCH   6  27
HETATM   27  N4  UNL     1      16.433   1.411  16.077  1.00  0.00    -0.197 N 
HETATM   28  C12 UNL     1      15.853   1.381  17.283  1.00  0.00     0.194 C 
ATOM     29  H4  UNL     1      17.308   0.927  16.275  1.00  0.00     0.183 HD
BRANCH  28  30
HETATM   30  C13 UNL     1      14.475   1.999  17.497  1.00  0.00     0.422 C 
HETATM   31  F5  UNL     1      14.437   2.385  18.858  1.00  0.00    -0.166 F 
HETATM   32  F6  UNL     1      13.459   1.088  17.351  1.00  0.00    -0.166 F 
HETATM   33  F7  UNL     1      14.294   3.160  16.804  1.00  0.00    -0.166 F 
ENDBRANCH  28  30
ENDBRANCH   6  27
TORSDOF 9
ENDMDL
MODEL 3
REMARK VINA RESULT: -7.775762571      4.207      5.302
REMARK  9 active torsions:
REMARK  status: ('A' for Active; 'I' for Inactive)
REMARK    1  A    between atoms: C1_2  and  C2_3 
REMARK    2  A    between atoms: N1_6  and  C4_7 
REMARK    3  A    between atoms: C4_7  and  C5_8 
REMARK    4  A    between atoms: C5_8  and  C6_9 
REMARK    5  A    between atoms: C6_9  and  N2_10 
REMARK    6  A    between atoms: N2_10  and  C7_12 
REMARK    7  A    between atoms: C9_14  and  C10_15 
REMARK    8  A    between atoms: C11_20  and  N4_21 
REMARK    9  A    between atoms: C12_23  and  C13_24 
ROOT
HETATM    1  C7  UNL     1      16.696   2.265  12.310  1.00  0.00     0.118 A 
HETATM    2  C8  UNL     1      16.742   1.004  11.757  1.00  0.00     0.080 A 
HETATM    3  C9  UNL     1      16.754  -0.072  12.621  1.00  0.00     0.094 A 
HETATM    4  N3  UNL     1      16.720   0.146  13.923  1.00  0.00    -0.190 N 
ATOM      5  H3  UNL     1      16.730  -0.669  14.536  1.00  0.00     0.184 HD
HETATM    6  C11 UNL     1      16.673   1.372  14.514  1.00  0.00     0.684 A 
HETATM    7  N5  UNL     1      16.663   2.438  13.637  1.00  0.00    -0.177 N 
ATOM      8  H5  UNL     1      16.629   3.386  14.011  1.00  0.00     0.186 HD
ENDROOT
BRANCH   1   9
HETATM    9  N2  UNL     1      16.684   3.293  11.511  1.00  0.00    -0.376 N 
ATOM     10  H2  UNL     1      15.786   3.591  11.132  1.00  0.00     0.161 HD
BRANCH   9  11
HETATM   11  C6  UNL     1      17.848   4.032  11.131  1.00  0.00     0.123 C 
BRANCH  11  12
HETATM   12  C5  UNL     1      17.538   5.235  10.265  1.00  0.00     0.050 C 
BRANCH  12  13
HETATM   13  C4  UNL     1      16.911   6.353  11.087  1.00  0.00     0.274 C 
BRANCH  13  14
HETATM   14  N1  UNL     1      17.454   6.350  12.396  1.00  0.00     0.098 N 
HETATM   15  C3  UNL     1      18.343   7.430  12.705  1.00  0.00     0.325 C 
HETATM   16  C2  UNL     1      18.543   7.255  14.212  1.00  0.00     0.222 C 
HETATM   17  F2  UNL     1      19.752   6.585  14.350  1.00  0.00    -0.232 F 
HETATM   18  C15 UNL     1      17.382   6.440  14.673  1.00  0.00     0.309 C 
HETATM   19  C14 UNL     1      16.480   6.449  13.456  1.00  0.00     0.355 C 
HETATM   20  F8  UNL     1      16.761   6.932  15.795  1.00  0.00    -0.201 F 
HETATM   21  F9  UNL     1      17.819   5.141  14.842  1.00  0.00    -0.201 F 
BRANCH  16  22
HETATM   22  C1  UNL     1      18.672   8.594  14.853  1.00  0.00     0.274 C 
HETATM   23  F1  UNL     1      19.503   8.607  15.932  1.00  0.00    -0.252 F 
ENDBRANCH  16  22
ENDBRANCH  13  14
ENDBRANCH  12  13
ENDBRANCH  11  12
ENDBRANCH   9  11
ENDBRANCH   1   9
BRANCH   3  24
HETATM   24  C10 UNL     1      16.805  -1.424  12.002  1.00  0.00     0.403 C 
HETATM   25  F3  UNL     1      16.514  -1.256  10.659  1.00  0.00    -0.207 F 
HETATM   26  F4  UNL     1      18.136  -1.836  12.082  1.00  0.00    -0.207 F 
ENDBRANCH   3  24
BRANCH   6  27
HETATM   27  N4  UNL     1      16.639   1.546  15.719  1.00  0.00    -0.197 N 
HETATM   28  C12 UNL     1      16.131   1.842  16.922  1.00  0.00     0.194 C 
ATOM     29  H4  UNL     1      17.604   1.331  15.968  1.00  0.00     0.183 HD
BRANCH  28  30
HETATM   30  C13 UNL     1      14.665   2.235  17.069  1.00  0.00     0.422 C 
HETATM   31  F5  UNL     1      14.502   2.596  18.428  1.00  0.00    -0.166 F 
HETATM   32  F6  UNL     1      13.812   1.178  16.871  1.00  0.00    -0.166 F 
HETATM   33  F7  UNL     1      14.339   3.361  16.372  1.00  0.00    -0.166 F 
ENDBRANCH  28  30
ENDBRANCH   6  27
TORSDOF 9
ENDMDL
MODEL 4
REMARK VINA RESULT: -7.725898936      1.946      2.768
REMARK  9 active torsions:
REMARK  status: ('A' for Active; 'I' for Inactive)
REMARK    1  A    between atoms: C1_2  and  C2_3 
REMARK    2  A    between atoms: N1_6  and  C4_7 
REMARK    3  A    between atoms: C4_7  and  C5_8 
REMARK    4  A    between atoms: C5_8  and  C6_9 
REMARK    5  A    between atoms: C6_9  and  N2_10 
REMARK    6  A    between atoms: N2_10  and  C7_12 
REMARK    7  A    between atoms: C9_14  and  C10_15 
REMARK    8  A    between atoms: C11_20  and  N4_21 
REMARK    9  A    between atoms: C12_23  and  C13_24 
ROOT
HETATM    1  C7  UNL     1      17.082   3.094  13.396  1.00  0.00     0.118 A 
HETATM    2  C8  UNL     1      17.069   2.163  12.380  1.00  0.00     0.080 A 
HETATM    3  C9  UNL     1      16.800   0.853  12.718  1.00  0.00     0.094 A 
HETATM    4  N3  UNL     1      16.570   0.547  13.982  1.00  0.00    -0.190 N 
ATOM      5  H3  UNL     1      16.375  -0.430  14.200  1.00  0.00     0.184 HD
HETATM    6  C11 UNL     1      16.571   1.431  15.018  1.00  0.00     0.684 A 
HETATM    7  N5  UNL     1      16.842   2.737  14.665  1.00  0.00    -0.177 N 
ATOM      8  H5  UNL     1      16.860   3.453  15.391  1.00  0.00     0.186 HD
ENDROOT
BRANCH   1   9
HETATM    9  N2  UNL     1      17.333   4.336  13.098  1.00  0.00    -0.376 N 
ATOM     10  H2  UNL     1      17.139   4.646  12.146  1.00  0.00     0.161 HD
BRANCH   9  11
HETATM   11  C6  UNL     1      17.863   5.294  14.017  1.00  0.00     0.123 C 
BRANCH  11  12
HETATM   12  C5  UNL     1      17.552   6.727  13.635  1.00  0.00     0.050 C 
BRANCH  12  13
HETATM   13  C4  UNL     1      17.665   6.928  12.130  1.00  0.00     0.274 C 
BRANCH  13  14
HETATM   14  N1  UNL     1      16.475   7.519  11.634  1.00  0.00     0.098 N 
HETATM   15  C3  UNL     1      16.651   8.523  10.628  1.00  0.00     0.325 C 
HETATM   16  C2  UNL     1      15.212   8.763  10.164  1.00  0.00     0.222 C 
HETATM   17  F2  UNL     1      14.792   9.903  10.837  1.00  0.00    -0.232 F 
HETATM   18  C15 UNL     1      14.456   7.544  10.575  1.00  0.00     0.309 C 
HETATM   19  C14 UNL     1      15.568   6.601  10.988  1.00  0.00     0.355 C 
HETATM   20  F8  UNL     1      13.658   7.019   9.588  1.00  0.00    -0.201 F 
HETATM   21  F9  UNL     1      13.745   7.854  11.717  1.00  0.00    -0.201 F 
BRANCH  16  22
HETATM   22  C1  UNL     1      15.204   9.050   8.701  1.00  0.00     0.274 C 
HETATM   23  F1  UNL     1      14.068   9.664   8.271  1.00  0.00    -0.252 F 
ENDBRANCH  16  22
ENDBRANCH  13  14
ENDBRANCH  12  13
ENDBRANCH  11  12
ENDBRANCH   9  11
ENDBRANCH   1   9
BRANCH   3  24
HETATM   24  C10 UNL     1      16.793  -0.134  11.605  1.00  0.00     0.403 C 
HETATM   25  F3  UNL     1      16.496  -1.363  12.168  1.00  0.00    -0.207 F 
HETATM   26  F4  UNL     1      15.715   0.211  10.789  1.00  0.00    -0.207 F 
ENDBRANCH   3  24
BRANCH   6  27
HETATM   27  N4  UNL     1      16.352   1.123  16.176  1.00  0.00    -0.197 N 
HETATM   28  C12 UNL     1      15.737   1.102  17.365  1.00  0.00     0.194 C 
ATOM     29  H4  UNL     1      17.118   0.472  16.347  1.00  0.00     0.183 HD
BRANCH  28  30
HETATM   30  C13 UNL     1      14.487   1.942  17.606  1.00  0.00     0.422 C 
HETATM   31  F5  UNL     1      14.562   2.357  18.958  1.00  0.00    -0.166 F 
HETATM   32  F6  UNL     1      13.331   1.208  17.518  1.00  0.00    -0.166 F 
HETATM   33  F7  UNL     1      14.474   3.103  16.890  1.00  0.00    -0.166 F 
ENDBRANCH  28  30
ENDBRANCH   6  27
TORSDOF 9
ENDMDL
MODEL 5
REMARK VINA RESULT: -7.722874760      0.897      1.747
REMARK  9 active torsions:
REMARK  status: ('A' for Active; 'I' for Inactive)
REMARK    1  A    between atoms: C1_2  and  C2_3 
REMARK    2  A    between atoms: N1_6  and  C4_7 
REMARK    3  A    between atoms: C4_7  and  C5_8 
REMARK    4  A    between atoms: C5_8  and  C6_9 
REMARK    5  A    between atoms: C6_9  and  N2_10 
REMARK    6  A    between atoms: N2_10  and  C7_12 
REMARK    7  A    between atoms: C9_14  and  C10_15 
REMARK    8  A    between atoms: C11_20  and  N4_21 
REMARK    9  A    between atoms: C12_23  and  C13_24 
ROOT
HETATM    1  C7  UNL     1      16.813   4.491  12.989  1.00  0.00     0.118 A 
HETATM    2  C8  UNL     1      17.103   3.255  12.455  1.00  0.00     0.080 A 
HETATM    3  C9  UNL     1      16.567   2.147  13.079  1.00  0.00     0.094 A 
HETATM    4  N3  UNL     1      15.809   2.314  14.148  1.00  0.00    -0.190 N 
ATOM      5  H3  UNL     1      15.427   1.477  14.587  1.00  0.00     0.184 HD
HETATM    6  C11 UNL     1      15.495   3.514  14.710  1.00  0.00     0.684 A 
HETATM    7  N5  UNL     1      16.039   4.612  14.075  1.00  0.00    -0.177 N 
ATOM      8  H5  UNL     1      15.845   5.543  14.443  1.00  0.00     0.186 HD
ENDROOT
BRANCH   1   9
HETATM    9  N2  UNL     1      17.309   5.548  12.414  1.00  0.00    -0.376 N 
ATOM     10  H2  UNL     1      18.212   5.458  11.948  1.00  0.00     0.161 HD
BRANCH   9  11
HETATM   11  C6  UNL     1      16.671   6.828  12.391  1.00  0.00     0.123 C 
BRANCH  11  12
HETATM   12  C5  UNL     1      15.482   6.888  11.455  1.00  0.00     0.050 C 
BRANCH  12  13
HETATM   13  C4  UNL     1      15.255   8.307  10.950  1.00  0.00     0.274 C 
BRANCH  13  14
HETATM   14  N1  UNL     1      14.377   8.286   9.837  1.00  0.00     0.098 N 
HETATM   15  C3  UNL     1      14.823   9.003   8.679  1.00  0.00     0.325 C 
HETATM   16  C2  UNL     1      13.789   8.586   7.630  1.00  0.00     0.222 C 
HETATM   17  F2  UNL     1      12.870   9.627   7.581  1.00  0.00    -0.232 F 
HETATM   18  C15 UNL     1      13.192   7.319   8.146  1.00  0.00     0.309 C 
HETATM   19  C14 UNL     1      14.116   6.974   9.297  1.00  0.00     0.355 C 
HETATM   20  F8  UNL     1      13.112   6.315   7.212  1.00  0.00    -0.201 F 
HETATM   21  F9  UNL     1      11.962   7.626   8.694  1.00  0.00    -0.201 F 
BRANCH  16  22
HETATM   22  C1  UNL     1      14.450   8.478   6.299  1.00  0.00     0.274 C 
HETATM   23  F1  UNL     1      15.540   7.662   6.294  1.00  0.00    -0.252 F 
ENDBRANCH  16  22
ENDBRANCH  13  14
ENDBRANCH  12  13
ENDBRANCH  11  12
ENDBRANCH   9  11
ENDBRANCH   1   9
BRANCH   3  24
HETATM   24  C10 UNL     1      16.894   0.823  12.486  1.00  0.00     0.403 C 
HETATM   25  F3  UNL     1      16.741  -0.112  13.495  1.00  0.00    -0.207 F 
HETATM   26  F4  UNL     1      15.901   0.567  11.539  1.00  0.00    -0.207 F 
ENDBRANCH   3  24
BRANCH   6  27
HETATM   27  N4  UNL     1      14.790   3.640  15.695  1.00  0.00    -0.197 N 
HETATM   28  C12 UNL     1      14.246   3.351  16.885  1.00  0.00     0.194 C 
ATOM     29  H4  UNL     1      14.316   4.516  15.478  1.00  0.00     0.183 HD
BRANCH  28  30
HETATM   30  C13 UNL     1      14.658   2.092  17.640  1.00  0.00     0.422 C 
HETATM   31  F5  UNL     1      14.666   2.454  19.009  1.00  0.00    -0.166 F 
HETATM   32  F6  UNL     1      15.945   1.705  17.361  1.00  0.00    -0.166 F 
HETATM   33  F7  UNL     1      13.737   1.090  17.554  1.00  0.00    -0.166 F 
ENDBRANCH  28  30
ENDBRANCH   6  27
TORSDOF 9
ENDMDL
