MODEL 1
REMARK VINA RESULT: -5.877389765      0.000      0.000
REMARK  8 active torsions:
REMARK  status: ('A' for Active; 'I' for Inactive)
REMARK    1  A    between atoms: C2_2  and  C3_3 
REMARK    2  A    between atoms: C3_3  and  N1_4 
REMARK    3  A    between atoms: N1_4  and  C4_6 
REMARK    4  A    between atoms: C4_6  and  N2_8 
REMARK    5  A    between atoms: N2_8  and  C5_10 
REMARK    6  A    between atoms: C8_14  and  C9_15 
REMARK    7  A    between atoms: C9_15  and  C10_16 
REMARK    8  A    between atoms: C12_18  and  O1_19 
ROOT
HETATM    1  C5  UNL     1      17.587   3.504  14.310  1.00  0.00     0.143 C 
HETATM    2  C6  UNL     1      16.873   4.835  14.432  1.00  0.00     0.300 C 
HETATM    3  N3  UNL     1      15.485   4.556  14.576  1.00  0.00     0.093 N 
HETATM    4  C7  UNL     1      14.711   5.567  15.208  1.00  0.00     0.310 C 
HETATM    5  C8  UNL     1      15.313   3.221  14.985  1.00  0.00     0.256 C 
HETATM    6  C12 UNL     1      16.539   2.453  14.522  1.00  0.00     0.178 C 
ENDROOT
BRANCH   1   7
HETATM    7  N2  UNL     1      18.320   3.369  13.081  1.00  0.00    -0.358 N 
ATOM      8  H2  UNL     1      19.185   3.902  12.991  1.00  0.00     0.162 HD
BRANCH   7   9
HETATM    9  C4  UNL     1      17.942   2.559  11.989  1.00  0.00     0.168 C 
HETATM   10  S1  UNL     1      16.868   3.027  10.855  1.00  0.00    -0.041 SA
BRANCH   9  11
HETATM   11  N1  UNL     1      18.518   1.271  11.854  1.00  0.00    -0.364 N 
ATOM     12  H1  UNL     1      19.257   0.990  12.499  1.00  0.00     0.162 HD
BRANCH  11  13
HETATM   13  C3  UNL     1      18.091   0.343  10.829  1.00  0.00     0.148 C 
BRANCH  13  14
HETATM   14  C2  UNL     1      17.439  -0.857  11.397  1.00  0.00    -0.018 C 
HETATM   15  C1  UNL     1      18.066  -2.017  11.467  1.00  0.00     0.008 C 
ENDBRANCH  13  14
ENDBRANCH  11  13
ENDBRANCH   9  11
ENDBRANCH   7   9
ENDBRANCH   1   7
BRANCH   6  16
HETATM   16  O1  UNL     1      16.904   1.460  15.395  1.00  0.00    -0.386 OA
HETATM   17  C13 UNL     1      16.733   0.176  14.894  1.00  0.00     0.202 C 
ENDBRANCH   6  16
BRANCH   5  18
HETATM   18  C9  UNL     1      15.065   3.060  16.442  1.00  0.00     0.065 C 
BRANCH  18  19
HETATM   19  C10 UNL     1      13.856   2.251  16.775  1.00  0.00    -0.035 C 
HETATM   20  C11 UNL     1      13.895   1.002  17.154  1.00  0.00     0.007 C 
ENDBRANCH  18  19
ENDBRANCH   5  18
TORSDOF 8
ENDMDL
MODEL 2
REMARK VINA RESULT: -5.498543235      1.198      1.822
REMARK  8 active torsions:
REMARK  status: ('A' for Active; 'I' for Inactive)
REMARK    1  A    between atoms: C2_2  and  C3_3 
REMARK    2  A    between atoms: C3_3  and  N1_4 
REMARK    3  A    between atoms: N1_4  and  C4_6 
REMARK    4  A    between atoms: C4_6  and  N2_8 
REMARK    5  A    between atoms: N2_8  and  C5_10 
REMARK    6  A    between atoms: C8_14  and  C9_15 
REMARK    7  A    between atoms: C9_15  and  C10_16 
REMARK    8  A    between atoms: C12_18  and  O1_19 
ROOT
HETATM    1  C5  UNL     1      17.596   3.579  14.382  1.00  0.00     0.143 C 
HETATM    2  C6  UNL     1      16.860   4.897  14.518  1.00  0.00     0.300 C 
HETATM    3  N3  UNL     1      15.473   4.594  14.622  1.00  0.00     0.093 N 
HETATM    4  C7  UNL     1      14.670   5.580  15.258  1.00  0.00     0.310 C 
HETATM    5  C8  UNL     1      15.311   3.248  14.996  1.00  0.00     0.256 C 
HETATM    6  C12 UNL     1      16.559   2.509  14.545  1.00  0.00     0.178 C 
ENDROOT
BRANCH   1   7
HETATM    7  N2  UNL     1      18.360   3.483  13.169  1.00  0.00    -0.358 N 
ATOM      8  H2  UNL     1      19.259   3.964  13.142  1.00  0.00     0.162 HD
BRANCH   7   9
HETATM    9  C4  UNL     1      17.969   2.777  12.011  1.00  0.00     0.168 C 
HETATM   10  S1  UNL     1      16.846   3.326  10.963  1.00  0.00    -0.041 SA
BRANCH   9  11
HETATM   11  N1  UNL     1      18.575   1.528  11.727  1.00  0.00    -0.364 N 
ATOM     12  H1  UNL     1      18.448   0.757  12.382  1.00  0.00     0.162 HD
BRANCH  11  13
HETATM   13  C3  UNL     1      19.369   1.314  10.536  1.00  0.00     0.148 C 
BRANCH  13  14
HETATM   14  C2  UNL     1      20.300   2.434  10.276  1.00  0.00    -0.018 C 
HETATM   15  C1  UNL     1      20.294   3.087   9.128  1.00  0.00     0.008 C 
ENDBRANCH  13  14
ENDBRANCH  11  13
ENDBRANCH   9  11
ENDBRANCH   7   9
ENDBRANCH   1   7
BRANCH   6  16
HETATM   16  O1  UNL     1      16.918   1.500  15.404  1.00  0.00    -0.386 OA
HETATM   17  C13 UNL     1      16.743   0.225  14.882  1.00  0.00     0.202 C 
ENDBRANCH   6  16
BRANCH   5  18
HETATM   18  C9  UNL     1      15.031   3.050  16.443  1.00  0.00     0.065 C 
BRANCH  18  19
HETATM   19  C10 UNL     1      13.832   2.208  16.728  1.00  0.00    -0.035 C 
HETATM   20  C11 UNL     1      13.891   0.973  17.146  1.00  0.00     0.007 C 
ENDBRANCH  18  19
ENDBRANCH   5  18
TORSDOF 8
ENDMDL
MODEL 3
REMARK VINA RESULT: -5.492173990      2.378      6.078
REMARK  8 active torsions:
REMARK  status: ('A' for Active; 'I' for Inactive)
REMARK    1  A    between atoms: C2_2  and  C3_3 
REMARK    2  A    between atoms: C3_3  and  N1_4 
REMARK    3  A    between atoms: N1_4  and  C4_6 
REMARK    4  A    between atoms: C4_6  and  N2_8 
REMARK    5  A    between atoms: N2_8  and  C5_10 
REMARK    6  A    between atoms: C8_14  and  C9_15 
REMARK    7  A    between atoms: C9_15  and  C10_16 
REMARK    8  A    between atoms: C12_18  and  O1_19 
ROOT
HETATM    1  C5  UNL     1      17.034   1.974  13.099  1.00  0.00     0.143 C 
HETATM    2  C6  UNL     1      16.776   0.694  12.331  1.00  0.00     0.300 C 
HETATM    3  N3  UNL     1      17.184   0.922  10.986  1.00  0.00     0.093 N 
HETATM    4  C7  UNL     1      17.517  -0.237  10.234  1.00  0.00     0.310 C 
HETATM    5  C8  UNL     1      18.049   2.030  10.937  1.00  0.00     0.256 C 
HETATM    6  C12 UNL     1      17.729   2.897  12.144  1.00  0.00     0.178 C 
ENDROOT
BRANCH   1   7
HETATM    7  N2  UNL     1      15.847   2.524  13.693  1.00  0.00    -0.358 N 
ATOM      8  H2  UNL     1      14.975   2.427  13.171  1.00  0.00     0.162 HD
BRANCH   7   9
HETATM    9  C4  UNL     1      15.786   3.187  14.937  1.00  0.00     0.168 C 
HETATM   10  S1  UNL     1      14.946   4.564  15.180  1.00  0.00    -0.041 SA
BRANCH   9  11
HETATM   11  N1  UNL     1      16.483   2.641  16.044  1.00  0.00    -0.364 N 
ATOM     12  H1  UNL     1      17.243   3.176  16.462  1.00  0.00     0.162 HD
BRANCH  11  13
HETATM   13  C3  UNL     1      16.148   1.347  16.598  1.00  0.00     0.148 C 
BRANCH  13  14
HETATM   14  C2  UNL     1      14.988   1.413  17.513  1.00  0.00    -0.018 C 
HETATM   15  C1  UNL     1      13.765   1.127  17.104  1.00  0.00     0.008 C 
ENDBRANCH  13  14
ENDBRANCH  11  13
ENDBRANCH   9  11
ENDBRANCH   7   9
ENDBRANCH   1   7
BRANCH   6  16
HETATM   16  O1  UNL     1      18.840   3.515  12.661  1.00  0.00    -0.386 OA
HETATM   17  C13 UNL     1      18.615   4.819  13.082  1.00  0.00     0.202 C 
ENDBRANCH   6  16
BRANCH   5  18
HETATM   18  C9  UNL     1      19.490   1.671  10.867  1.00  0.00     0.065 C 
BRANCH  18  19
HETATM   19  C10 UNL     1      20.240   2.346   9.767  1.00  0.00    -0.035 C 
HETATM   20  C11 UNL     1      21.102   3.308   9.955  1.00  0.00     0.007 C 
ENDBRANCH  18  19
ENDBRANCH   5  18
TORSDOF 8
ENDMDL
MODEL 4
REMARK VINA RESULT: -5.348264634      2.044      3.581
REMARK  8 active torsions:
REMARK  status: ('A' for Active; 'I' for Inactive)
REMARK    1  A    between atoms: C2_2  and  C3_3 
REMARK    2  A    between atoms: C3_3  and  N1_4 
REMARK    3  A    between atoms: N1_4  and  C4_6 
REMARK    4  A    between atoms: C4_6  and  N2_8 
REMARK    5  A    between atoms: N2_8  and  C5_10 
REMARK    6  A    between atoms: C8_14  and  C9_15 
REMARK    7  A    between atoms: C9_15  and  C10_16 
REMARK    8  A    between atoms: C12_18  and  O1_19 
ROOT
HETATM    1  C5  UNL     1      16.472   1.283  13.593  1.00  0.00     0.143 C 
HETATM    2  C6  UNL     1      16.209   0.952  15.049  1.00  0.00     0.300 C 
HETATM    3  N3  UNL     1      16.453   2.137  15.799  1.00  0.00     0.093 N 
HETATM    4  C7  UNL     1      15.797   2.220  17.057  1.00  0.00     0.310 C 
HETATM    5  C8  UNL     1      16.417   3.253  14.944  1.00  0.00     0.256 C 
HETATM    6  C12 UNL     1      16.755   2.754  13.549  1.00  0.00     0.178 C 
ENDROOT
BRANCH   1   7
HETATM    7  N2  UNL     1      17.498   0.466  13.007  1.00  0.00    -0.358 N 
ATOM      8  H2  UNL     1      18.034  -0.135  13.634  1.00  0.00     0.162 HD
BRANCH   7   9
HETATM    9  C4  UNL     1      17.826   0.425  11.635  1.00  0.00     0.168 C 
HETATM   10  S1  UNL     1      16.725   0.186  10.456  1.00  0.00    -0.041 SA
BRANCH   9  11
HETATM   11  N1  UNL     1      19.176   0.603  11.243  1.00  0.00    -0.364 N 
ATOM     12  H1  UNL     1      19.722  -0.213  10.964  1.00  0.00     0.162 HD
BRANCH  11  13
HETATM   13  C3  UNL     1      19.805   1.907  11.227  1.00  0.00     0.148 C 
BRANCH  13  14
HETATM   14  C2  UNL     1      19.864   2.482   9.866  1.00  0.00    -0.018 C 
HETATM   15  C1  UNL     1      20.827   3.311   9.506  1.00  0.00     0.008 C 
ENDBRANCH  13  14
ENDBRANCH  11  13
ENDBRANCH   9  11
ENDBRANCH   7   9
ENDBRANCH   1   7
BRANCH   6  16
HETATM   16  O1  UNL     1      16.077   3.431  12.566  1.00  0.00    -0.386 OA
HETATM   17  C13 UNL     1      16.902   4.087  11.662  1.00  0.00     0.202 C 
ENDBRANCH   6  16
BRANCH   5  18
HETATM   18  C9  UNL     1      15.133   4.002  14.979  1.00  0.00     0.065 C 
BRANCH  18  19
HETATM   19  C10 UNL     1      15.286   5.478  15.134  1.00  0.00    -0.035 C 
HETATM   20  C11 UNL     1      16.414   6.116  14.974  1.00  0.00     0.007 C 
ENDBRANCH  18  19
ENDBRANCH   5  18
TORSDOF 8
ENDMDL
MODEL 5
REMARK VINA RESULT: -5.289253174      1.947      2.931
REMARK  8 active torsions:
REMARK  status: ('A' for Active; 'I' for Inactive)
REMARK    1  A    between atoms: C2_2  and  C3_3 
REMARK    2  A    between atoms: C3_3  and  N1_4 
REMARK    3  A    between atoms: N1_4  and  C4_6 
REMARK    4  A    between atoms: C4_6  and  N2_8 
REMARK    5  A    between atoms: N2_8  and  C5_10 
REMARK    6  A    between atoms: C8_14  and  C9_15 
REMARK    7  A    between atoms: C9_15  and  C10_16 
REMARK    8  A    between atoms: C12_18  and  O1_19 
ROOT
HETATM    1  C5  UNL     1      16.293   3.041  13.132  1.00  0.00     0.143 C 
HETATM    2  C6  UNL     1      16.666   1.622  13.510  1.00  0.00     0.300 C 
HETATM    3  N3  UNL     1      16.710   1.564  14.932  1.00  0.00     0.093 N 
HETATM    4  C7  UNL     1      16.527   0.277  15.506  1.00  0.00     0.310 C 
HETATM    5  C8  UNL     1      15.998   2.651  15.471  1.00  0.00     0.256 C 
HETATM    6  C12 UNL     1      16.004   3.750  14.422  1.00  0.00     0.178 C 
ENDROOT
BRANCH   1   7
HETATM    7  N2  UNL     1      17.283   3.685  12.313  1.00  0.00    -0.358 N 
ATOM      8  H2  UNL     1      16.968   4.098  11.435  1.00  0.00     0.162 HD
BRANCH   7   9
HETATM    9  C4  UNL     1      18.655   3.794  12.624  1.00  0.00     0.168 C 
HETATM   10  S1  UNL     1      19.257   4.909  13.650  1.00  0.00    -0.041 SA
BRANCH   9  11
HETATM   11  N1  UNL     1      19.571   2.893  12.025  1.00  0.00    -0.364 N 
ATOM     12  H1  UNL     1      20.465   2.719  12.484  1.00  0.00     0.162 HD
BRANCH  11  13
HETATM   13  C3  UNL     1      19.276   2.213  10.782  1.00  0.00     0.148 C 
BRANCH  13  14
HETATM   14  C2  UNL     1      19.175   0.748  10.955  1.00  0.00    -0.018 C 
HETATM   15  C1  UNL     1      18.141   0.066  10.499  1.00  0.00     0.008 C 
ENDBRANCH  13  14
ENDBRANCH  11  13
ENDBRANCH   9  11
ENDBRANCH   7   9
ENDBRANCH   1   7
BRANCH   6  16
HETATM   16  O1  UNL     1      14.845   4.484  14.416  1.00  0.00    -0.386 OA
HETATM   17  C13 UNL     1      15.009   5.801  14.823  1.00  0.00     0.202 C 
ENDBRANCH   6  16
BRANCH   5  18
HETATM   18  C9  UNL     1      14.623   2.310  15.922  1.00  0.00     0.065 C 
BRANCH  18  19
HETATM   19  C10 UNL     1      14.352   2.621  17.356  1.00  0.00    -0.035 C 
HETATM   20  C11 UNL     1      14.897   1.984  18.357  1.00  0.00     0.007 C 
ENDBRANCH  18  19
ENDBRANCH   5  18
TORSDOF 8
ENDMDL
