MODEL 1
REMARK VINA RESULT: -7.468114187      0.000      0.000
REMARK  8 active torsions:
REMARK  status: ('A' for Active; 'I' for Inactive)
REMARK    1  A    between atoms: C2_2  and  C3_3 
REMARK    2  A    between atoms: C2_2  and  C7_16 
REMARK    3  A    between atoms: C3_3  and  C4_6 
REMARK       I    between atoms: C4_6  and  N1_8 
REMARK    4  A    between atoms: N1_8  and  C5_10 
REMARK    5  A    between atoms: C5_10  and  C6_12 
REMARK    6  A    between atoms: C7_16  and  C8_19 
REMARK    7  A    between atoms: C8_19  and  O2_20 
REMARK    8  A    between atoms: C8_19  and  S1_22 
ROOT
HETATM    1  C3  UNL     1      17.690   4.652  13.978  1.00  0.00     0.331 C 
HETATM    2  F1  UNL     1      17.538   5.957  14.391  1.00  0.00    -0.195 F 
HETATM    3  F2  UNL     1      18.984   4.446  13.535  1.00  0.00    -0.195 F 
ENDROOT
BRANCH   1   4
HETATM    4  C2  UNL     1      16.776   4.367  12.829  1.00  0.00     0.140 C 
HETATM    5  C1  UNL     1      16.277   5.614  12.153  1.00  0.00     0.023 C 
BRANCH   4   6
HETATM    6  C7  UNL     1      17.454   3.425  11.872  1.00  0.00     0.293 C 
HETATM    7  F3  UNL     1      18.717   3.032  12.297  1.00  0.00    -0.202 F 
HETATM    8  F4  UNL     1      17.575   3.990  10.621  1.00  0.00    -0.202 F 
BRANCH   6   9
HETATM    9  C8  UNL     1      16.667   2.103  11.768  1.00  0.00     0.334 C 
BRANCH   9  10
HETATM   10  O2  UNL     1      15.639   2.338  10.864  1.00  0.00    -0.374 OA
ATOM     11  H2  UNL     1      15.085   2.999  11.262  1.00  0.00     0.211 HD
ENDBRANCH   9  10
BRANCH   9  12
HETATM   12  S1  UNL     1      17.794   0.650  11.463  1.00  0.00     0.286 S 
HETATM   13  O3  UNL     1      17.880   0.477  10.068  1.00  0.00    -0.203 OA
HETATM   14  F5  UNL     1      17.172  -0.018  13.272  1.00  0.00    -0.111 F 
HETATM   15  F6  UNL     1      16.460  -1.074  11.233  1.00  0.00    -0.111 F 
ENDBRANCH   9  12
ENDBRANCH   6   9
ENDBRANCH   4   6
ENDBRANCH   1   4
BRANCH   1  16
HETATM   16  C4  UNL     1      17.523   3.680  15.100  1.00  0.00     0.292 C 
HETATM   17  O1  UNL     1      18.569   3.318  15.688  1.00  0.00    -0.267 OA
HETATM   18  N1  UNL     1      16.294   3.166  15.519  1.00  0.00    -0.334 N 
ATOM     19  H1  UNL     1      15.470   3.489  15.011  1.00  0.00     0.164 HD
BRANCH  18  20
HETATM   20  C5  UNL     1      16.064   2.243  16.575  1.00  0.00     0.236 C 
HETATM   21 CL1  UNL     1      16.160   0.542  16.017  1.00  0.00    -0.098 Cl
BRANCH  20  22
HETATM   22  C6  UNL     1      14.740   2.407  17.269  1.00  0.00     0.221 C 
HETATM   23 CL2  UNL     1      13.549   1.202  16.788  1.00  0.00    -0.080 Cl
HETATM   24 CL3  UNL     1      14.941   2.460  19.047  1.00  0.00    -0.080 Cl
HETATM   25 CL4  UNL     1      14.087   4.008  16.809  1.00  0.00    -0.080 Cl
ENDBRANCH  20  22
ENDBRANCH  18  20
ENDBRANCH   1  16
TORSDOF 8
ENDMDL
MODEL 2
REMARK VINA RESULT: -7.464007666      0.116      1.054
REMARK  8 active torsions:
REMARK  status: ('A' for Active; 'I' for Inactive)
REMARK    1  A    between atoms: C2_2  and  C3_3 
REMARK    2  A    between atoms: C2_2  and  C7_16 
REMARK    3  A    between atoms: C3_3  and  C4_6 
REMARK       I    between atoms: C4_6  and  N1_8 
REMARK    4  A    between atoms: N1_8  and  C5_10 
REMARK    5  A    between atoms: C5_10  and  C6_12 
REMARK    6  A    between atoms: C7_16  and  C8_19 
REMARK    7  A    between atoms: C8_19  and  O2_20 
REMARK    8  A    between atoms: C8_19  and  S1_22 
ROOT
HETATM    1  C3  UNL     1      17.672   4.704  13.876  1.00  0.00     0.331 C 
HETATM    2  F1  UNL     1      17.479   6.010  14.265  1.00  0.00    -0.195 F 
HETATM    3  F2  UNL     1      18.984   4.521  13.475  1.00  0.00    -0.195 F 
ENDROOT
BRANCH   1   4
HETATM    4  C2  UNL     1      16.801   4.384  12.703  1.00  0.00     0.140 C 
HETATM    5  C1  UNL     1      16.334   5.609  11.967  1.00  0.00     0.023 C 
BRANCH   4   6
HETATM    6  C7  UNL     1      17.509   3.407  11.805  1.00  0.00     0.293 C 
HETATM    7  F3  UNL     1      18.752   3.022  12.291  1.00  0.00    -0.202 F 
HETATM    8  F4  UNL     1      17.681   3.930  10.542  1.00  0.00    -0.202 F 
BRANCH   6   9
HETATM    9  C8  UNL     1      16.718   2.086  11.715  1.00  0.00     0.334 C 
BRANCH   9  10
HETATM   10  O2  UNL     1      15.692   2.314  10.807  1.00  0.00    -0.374 OA
ATOM     11  H2  UNL     1      16.000   1.982   9.973  1.00  0.00     0.211 HD
ENDBRANCH   9  10
BRANCH   9  12
HETATM   12  S1  UNL     1      17.840   0.627  11.427  1.00  0.00     0.286 S 
HETATM   13  O3  UNL     1      17.936   0.444  10.034  1.00  0.00    -0.203 OA
HETATM   14  F5  UNL     1      17.203  -0.028  13.234  1.00  0.00    -0.111 F 
HETATM   15  F6  UNL     1      16.501  -1.093  11.196  1.00  0.00    -0.111 F 
ENDBRANCH   9  12
ENDBRANCH   6   9
ENDBRANCH   4   6
ENDBRANCH   1   4
BRANCH   1  16
HETATM   16  C4  UNL     1      17.492   3.743  15.005  1.00  0.00     0.292 C 
HETATM   17  O1  UNL     1      18.534   3.375  15.598  1.00  0.00    -0.267 OA
HETATM   18  N1  UNL     1      16.257   3.246  15.425  1.00  0.00    -0.334 N 
ATOM     19  H1  UNL     1      15.438   3.574  14.913  1.00  0.00     0.164 HD
BRANCH  18  20
HETATM   20  C5  UNL     1      16.015   2.334  16.488  1.00  0.00     0.236 C 
HETATM   21 CL1  UNL     1      16.086   0.628  15.943  1.00  0.00    -0.098 Cl
BRANCH  20  22
HETATM   22  C6  UNL     1      14.693   2.522  17.181  1.00  0.00     0.221 C 
HETATM   23 CL2  UNL     1      13.977   4.105  16.897  1.00  0.00    -0.080 Cl
HETATM   24 CL3  UNL     1      13.554   1.201  16.773  1.00  0.00    -0.080 Cl
HETATM   25 CL4  UNL     1      14.985   2.381  18.941  1.00  0.00    -0.080 Cl
ENDBRANCH  20  22
ENDBRANCH  18  20
ENDBRANCH   1  16
TORSDOF 8
ENDMDL
MODEL 3
REMARK VINA RESULT: -7.008414202      1.190      1.778
REMARK  8 active torsions:
REMARK  status: ('A' for Active; 'I' for Inactive)
REMARK    1  A    between atoms: C2_2  and  C3_3 
REMARK    2  A    between atoms: C2_2  and  C7_16 
REMARK    3  A    between atoms: C3_3  and  C4_6 
REMARK       I    between atoms: C4_6  and  N1_8 
REMARK    4  A    between atoms: N1_8  and  C5_10 
REMARK    5  A    between atoms: C5_10  and  C6_12 
REMARK    6  A    between atoms: C7_16  and  C8_19 
REMARK    7  A    between atoms: C8_19  and  O2_20 
REMARK    8  A    between atoms: C8_19  and  S1_22 
ROOT
HETATM    1  C3  UNL     1      17.084   4.754  13.508  1.00  0.00     0.331 C 
HETATM    2  F1  UNL     1      17.616   5.956  13.918  1.00  0.00    -0.195 F 
HETATM    3  F2  UNL     1      17.973   3.729  13.778  1.00  0.00    -0.195 F 
ENDROOT
BRANCH   1   4
HETATM    4  C2  UNL     1      16.859   4.770  12.029  1.00  0.00     0.140 C 
HETATM    5  C1  UNL     1      17.237   6.079  11.393  1.00  0.00     0.023 C 
BRANCH   4   6
HETATM    6  C7  UNL     1      17.566   3.600  11.403  1.00  0.00     0.293 C 
HETATM    7  F3  UNL     1      18.811   3.349  11.966  1.00  0.00    -0.202 F 
HETATM    8  F4  UNL     1      17.735   3.789  10.048  1.00  0.00    -0.202 F 
BRANCH   6   9
HETATM    9  C8  UNL     1      16.777   2.298  11.648  1.00  0.00     0.334 C 
BRANCH   9  10
HETATM   10  O2  UNL     1      15.664   2.362  10.820  1.00  0.00    -0.374 OA
ATOM     11  H2  UNL     1      15.611   1.519  10.385  1.00  0.00     0.211 HD
ENDBRANCH   9  10
BRANCH   9  12
HETATM   12  S1  UNL     1      17.871   0.794  11.539  1.00  0.00     0.286 S 
HETATM   13  O3  UNL     1      18.088   0.537  10.171  1.00  0.00    -0.203 OA
HETATM   14  F5  UNL     1      17.049   0.253  13.309  1.00  0.00    -0.111 F 
HETATM   15  F6  UNL     1      16.502  -0.896  11.269  1.00  0.00    -0.111 F 
ENDBRANCH   9  12
ENDBRANCH   6   9
ENDBRANCH   4   6
ENDBRANCH   1   4
BRANCH   1  16
HETATM   16  C4  UNL     1      15.854   4.389  14.272  1.00  0.00     0.292 C 
HETATM   17  O1  UNL     1      14.795   4.971  13.940  1.00  0.00    -0.267 OA
HETATM   18  N1  UNL     1      15.821   3.455  15.311  1.00  0.00    -0.334 N 
ATOM     19  H1  UNL     1      16.707   3.007  15.546  1.00  0.00     0.164 HD
BRANCH  18  20
HETATM   20  C5  UNL     1      14.689   3.062  16.076  1.00  0.00     0.236 C 
HETATM   21 CL1  UNL     1      14.045   4.407  17.068  1.00  0.00    -0.098 Cl
BRANCH  20  22
HETATM   22  C6  UNL     1      14.938   1.906  17.006  1.00  0.00     0.221 C 
HETATM   23 CL2  UNL     1      16.353   0.954  16.569  1.00  0.00    -0.080 Cl
HETATM   24 CL3  UNL     1      15.010   2.449  18.710  1.00  0.00    -0.080 Cl
HETATM   25 CL4  UNL     1      13.519   0.821  16.905  1.00  0.00    -0.080 Cl
ENDBRANCH  20  22
ENDBRANCH  18  20
ENDBRANCH   1  16
TORSDOF 8
ENDMDL
MODEL 4
REMARK VINA RESULT: -6.946389212      4.323      6.127
REMARK  8 active torsions:
REMARK  status: ('A' for Active; 'I' for Inactive)
REMARK    1  A    between atoms: C2_2  and  C3_3 
REMARK    2  A    between atoms: C2_2  and  C7_16 
REMARK    3  A    between atoms: C3_3  and  C4_6 
REMARK       I    between atoms: C4_6  and  N1_8 
REMARK    4  A    between atoms: N1_8  and  C5_10 
REMARK    5  A    between atoms: C5_10  and  C6_12 
REMARK    6  A    between atoms: C7_16  and  C8_19 
REMARK    7  A    between atoms: C8_19  and  O2_20 
REMARK    8  A    between atoms: C8_19  and  S1_22 
ROOT
HETATM    1  C3  UNL     1      17.320   4.075  12.882  1.00  0.00     0.331 C 
HETATM    2  F1  UNL     1      18.550   3.518  12.611  1.00  0.00    -0.195 F 
HETATM    3  F2  UNL     1      17.477   5.213  13.653  1.00  0.00    -0.195 F 
ENDROOT
BRANCH   1   4
HETATM    4  C2  UNL     1      16.485   3.116  13.671  1.00  0.00     0.140 C 
HETATM    5  C1  UNL     1      16.627   1.694  13.205  1.00  0.00     0.023 C 
BRANCH   4   6
HETATM    6  C7  UNL     1      16.789   3.275  15.135  1.00  0.00     0.293 C 
HETATM    7  F3  UNL     1      16.022   4.258  15.747  1.00  0.00    -0.202 F 
HETATM    8  F4  UNL     1      18.118   3.576  15.337  1.00  0.00    -0.202 F 
BRANCH   6   9
HETATM    9  C8  UNL     1      16.427   1.988  15.904  1.00  0.00     0.334 C 
BRANCH   9  10
HETATM   10  O2  UNL     1      17.634   1.427  16.302  1.00  0.00    -0.374 OA
ATOM     11  H2  UNL     1      17.520   1.176  17.211  1.00  0.00     0.211 HD
ENDBRANCH   9  10
BRANCH   9  12
HETATM   12  S1  UNL     1      15.129   2.300  17.204  1.00  0.00     0.286 S 
HETATM   13  O3  UNL     1      15.502   1.568  18.348  1.00  0.00    -0.203 OA
HETATM   14  F5  UNL     1      13.861   2.590  15.652  1.00  0.00    -0.111 F 
HETATM   15  F6  UNL     1      13.727   0.625  17.031  1.00  0.00    -0.111 F 
ENDBRANCH   9  12
ENDBRANCH   6   9
ENDBRANCH   4   6
ENDBRANCH   1   4
BRANCH   1  16
HETATM   16  C4  UNL     1      16.631   4.555  11.648  1.00  0.00     0.292 C 
HETATM   17  O1  UNL     1      16.343   3.685  10.792  1.00  0.00    -0.267 OA
HETATM   18  N1  UNL     1      16.298   5.889  11.401  1.00  0.00    -0.334 N 
ATOM     19  H1  UNL     1      16.552   6.561  12.126  1.00  0.00     0.164 HD
BRANCH  18  20
HETATM   20  C5  UNL     1      15.644   6.413  10.253  1.00  0.00     0.236 C 
HETATM   21 CL1  UNL     1      16.808   6.946   8.999  1.00  0.00    -0.098 Cl
BRANCH  20  22
HETATM   22  C6  UNL     1      14.731   7.576  10.532  1.00  0.00     0.221 C 
HETATM   23 CL2  UNL     1      13.806   7.392  12.019  1.00  0.00    -0.080 Cl
HETATM   24 CL3  UNL     1      15.628   9.125  10.501  1.00  0.00    -0.080 Cl
HETATM   25 CL4  UNL     1      13.556   7.671   9.186  1.00  0.00    -0.080 Cl
ENDBRANCH  20  22
ENDBRANCH  18  20
ENDBRANCH   1  16
TORSDOF 8
ENDMDL
MODEL 5
REMARK VINA RESULT: -6.938867540      4.387      5.840
REMARK  8 active torsions:
REMARK  status: ('A' for Active; 'I' for Inactive)
REMARK    1  A    between atoms: C2_2  and  C3_3 
REMARK    2  A    between atoms: C2_2  and  C7_16 
REMARK    3  A    between atoms: C3_3  and  C4_6 
REMARK       I    between atoms: C4_6  and  N1_8 
REMARK    4  A    between atoms: N1_8  and  C5_10 
REMARK    5  A    between atoms: C5_10  and  C6_12 
REMARK    6  A    between atoms: C7_16  and  C8_19 
REMARK    7  A    between atoms: C8_19  and  O2_20 
REMARK    8  A    between atoms: C8_19  and  S1_22 
ROOT
HETATM    1  C3  UNL     1      17.332   5.408  14.551  1.00  0.00     0.331 C 
HETATM    2  F1  UNL     1      18.577   4.917  14.873  1.00  0.00    -0.195 F 
HETATM    3  F2  UNL     1      17.117   6.610  15.200  1.00  0.00    -0.195 F 
ENDROOT
BRANCH   1   4
HETATM    4  C2  UNL     1      16.272   4.459  15.010  1.00  0.00     0.140 C 
HETATM    5  C1  UNL     1      15.012   4.547  14.195  1.00  0.00     0.023 C 
BRANCH   4   6
HETATM    6  C7  UNL     1      16.833   3.064  15.054  1.00  0.00     0.293 C 
HETATM    7  F3  UNL     1      17.755   2.879  16.076  1.00  0.00    -0.202 F 
HETATM    8  F4  UNL     1      17.439   2.736  13.861  1.00  0.00    -0.202 F 
BRANCH   6   9
HETATM    9  C8  UNL     1      15.720   2.044  15.366  1.00  0.00     0.334 C 
BRANCH   9  10
HETATM   10  O2  UNL     1      16.050   0.889  14.669  1.00  0.00    -0.374 OA
ATOM     11  H2  UNL     1      15.374   0.255  14.875  1.00  0.00     0.211 HD
ENDBRANCH   9  10
BRANCH   9  12
HETATM   12  S1  UNL     1      15.402   1.906  17.197  1.00  0.00     0.286 S 
HETATM   13  O3  UNL     1      15.875   0.644  17.607  1.00  0.00    -0.203 OA
HETATM   14  F5  UNL     1      13.853   3.169  16.870  1.00  0.00    -0.111 F 
HETATM   15  F6  UNL     1      13.492   0.845  17.371  1.00  0.00    -0.111 F 
ENDBRANCH   9  12
ENDBRANCH   6   9
ENDBRANCH   4   6
ENDBRANCH   1   4
BRANCH   1  16
HETATM   16  C4  UNL     1      17.213   5.743  13.100  1.00  0.00     0.292 C 
HETATM   17  O1  UNL     1      17.837   5.005  12.302  1.00  0.00    -0.267 OA
HETATM   18  N1  UNL     1      16.462   6.809  12.598  1.00  0.00    -0.334 N 
ATOM     19  H1  UNL     1      15.972   7.381  13.285  1.00  0.00     0.164 HD
BRANCH  18  20
HETATM   20  C5  UNL     1      16.306   7.182  11.235  1.00  0.00     0.236 C 
HETATM   21 CL1  UNL     1      17.486   8.437  10.740  1.00  0.00    -0.098 Cl
BRANCH  20  22
HETATM   22  C6  UNL     1      14.938   7.698  10.884  1.00  0.00     0.221 C 
HETATM   23 CL2  UNL     1      13.738   7.396  12.137  1.00  0.00    -0.080 Cl
HETATM   24 CL3  UNL     1      14.995   9.430  10.431  1.00  0.00    -0.080 Cl
HETATM   25 CL4  UNL     1      14.398   6.832   9.414  1.00  0.00    -0.080 Cl
ENDBRANCH  20  22
ENDBRANCH  18  20
ENDBRANCH   1  16
TORSDOF 8
ENDMDL
