MODEL 1
REMARK VINA RESULT: -5.960882188      0.000      0.000
REMARK  8 active torsions:
REMARK  status: ('A' for Active; 'I' for Inactive)
REMARK    1  A    between atoms: C2_2  and  C3_3 
REMARK    2  A    between atoms: C2_2  and  N1_6 
REMARK    3  A    between atoms: C3_3  and  O1_4 
REMARK       I    between atoms: N1_6  and  C4_8 
REMARK       I    between atoms: C4_8  and  N2_10 
REMARK    4  A    between atoms: N2_10  and  C6_12 
REMARK    5  A    between atoms: C8_14  and  C9_15 
REMARK    6  A    between atoms: C9_15  and  O3_16 
REMARK    7  A    between atoms: C9_15  and  C13_20 
REMARK    8  A    between atoms: O3_16  and  C10_17 
ROOT
HETATM    1  C6  UNL     1      16.876   6.017  14.068  1.00  0.00     0.095 A 
HETATM    2  C7  UNL     1      17.609   7.241  13.419  1.00  0.00     0.035 A 
HETATM    3  C8  UNL     1      16.482   6.523  12.788  1.00  0.00     0.040 A 
ENDROOT
BRANCH   1   4
HETATM    4  N2  UNL     1      17.848   5.063  14.462  1.00  0.00    -0.333 N 
HETATM    5  C4  UNL     1      17.430   3.937  15.215  1.00  0.00     0.318 C 
HETATM    6  N1  UNL     1      16.145   3.599  15.624  1.00  0.00    -0.337 N 
HETATM    7  O2  UNL     1      18.355   3.116  15.568  1.00  0.00    -0.247 OA
ATOM      8  H1  UNL     1      15.365   4.208  15.375  1.00  0.00     0.164 HD
HETATM    9  C5  UNL     1      19.271   5.143  14.181  1.00  0.00     0.155 C 
BRANCH   6  10
HETATM   10  C2  UNL     1      15.888   2.387  16.405  1.00  0.00     0.105 C 
HETATM   11  C1  UNL     1      14.453   2.341  16.878  1.00  0.00     0.034 C 
BRANCH  10  12
HETATM   12  C3  UNL     1      16.124   1.168  15.539  1.00  0.00     0.189 C 
BRANCH  12  13
HETATM   13  O1  UNL     1      17.220   0.438  15.992  1.00  0.00    -0.399 OA
ATOM     14  H1  UNL     1      16.977  -0.126  16.717  1.00  0.00     0.209 HD
ENDBRANCH  12  13
ENDBRANCH  10  12
ENDBRANCH   6  10
ENDBRANCH   1   4
BRANCH   3  15
HETATM   15  C9  UNL     1      16.508   5.852  11.454  1.00  0.00     0.131 C 
BRANCH  15  16
HETATM   16  O3  UNL     1      16.142   4.551  11.469  1.00  0.00    -0.381 OA
BRANCH  16  17
HETATM   17  C10 UNL     1      16.926   3.571  10.986  1.00  0.00     0.114 C 
HETATM   18  C11 UNL     1      17.062   2.450  11.985  1.00  0.00     0.039 C 
HETATM   19  C12 UNL     1      18.381   4.066  10.770  1.00  0.00     0.039 C 
ENDBRANCH  16  17
ENDBRANCH  15  16
BRANCH  15  20
HETATM   20  C13 UNL     1      15.605   6.604  10.467  1.00  0.00     0.007 C 
HETATM   21  C14 UNL     1      14.559   7.404  11.251  1.00  0.00     0.012 C 
HETATM   22  C15 UNL     1      16.380   7.578   9.608  1.00  0.00     0.012 C 
ENDBRANCH  15  20
ENDBRANCH   3  15
TORSDOF 8
ENDMDL
MODEL 2
REMARK VINA RESULT: -5.921267165      1.845      4.212
REMARK  8 active torsions:
REMARK  status: ('A' for Active; 'I' for Inactive)
REMARK    1  A    between atoms: C2_2  and  C3_3 
REMARK    2  A    between atoms: C2_2  and  N1_6 
REMARK    3  A    between atoms: C3_3  and  O1_4 
REMARK       I    between atoms: N1_6  and  C4_8 
REMARK       I    between atoms: C4_8  and  N2_10 
REMARK    4  A    between atoms: N2_10  and  C6_12 
REMARK    5  A    between atoms: C8_14  and  C9_15 
REMARK    6  A    between atoms: C9_15  and  O3_16 
REMARK    7  A    between atoms: C9_15  and  C13_20 
REMARK    8  A    between atoms: O3_16  and  C10_17 
ROOT
HETATM    1  C6  UNL     1      14.710   3.686  15.073  1.00  0.00     0.095 A 
HETATM    2  C7  UNL     1      14.938   4.929  15.999  1.00  0.00     0.035 A 
HETATM    3  C8  UNL     1      14.986   4.978  14.523  1.00  0.00     0.040 A 
ENDROOT
BRANCH   1   4
HETATM    4  N2  UNL     1      15.552   2.633  15.513  1.00  0.00    -0.333 N 
HETATM    5  C4  UNL     1      16.187   1.818  14.541  1.00  0.00     0.318 C 
HETATM    6  N1  UNL     1      16.123   1.917  13.155  1.00  0.00    -0.337 N 
HETATM    7  O2  UNL     1      16.919   0.863  14.994  1.00  0.00    -0.247 OA
ATOM      8  H1  UNL     1      15.560   2.655  12.732  1.00  0.00     0.164 HD
HETATM    9  C5  UNL     1      15.815   2.285  16.898  1.00  0.00     0.155 C 
BRANCH   6  10
HETATM   10  C2  UNL     1      16.848   0.982  12.292  1.00  0.00     0.105 C 
HETATM   11  C1  UNL     1      16.852  -0.410  12.884  1.00  0.00     0.034 C 
BRANCH  10  12
HETATM   12  C3  UNL     1      16.165   0.904  10.944  1.00  0.00     0.189 C 
BRANCH  12  13
HETATM   13  O1  UNL     1      15.139   1.840  10.849  1.00  0.00    -0.399 OA
ATOM     14  H1  UNL     1      15.485   2.725  10.830  1.00  0.00     0.209 HD
ENDBRANCH  12  13
ENDBRANCH  10  12
ENDBRANCH   6  10
ENDBRANCH   1   4
BRANCH   3  15
HETATM   15  C9  UNL     1      16.148   5.430  13.700  1.00  0.00     0.131 C 
BRANCH  15  16
HETATM   16  O3  UNL     1      15.932   6.558  12.988  1.00  0.00    -0.381 OA
BRANCH  16  17
HETATM   17  C10 UNL     1      15.686   6.546  11.665  1.00  0.00     0.114 C 
HETATM   18  C11 UNL     1      16.867   7.080  10.895  1.00  0.00     0.039 C 
HETATM   19  C12 UNL     1      14.525   7.507  11.298  1.00  0.00     0.039 C 
ENDBRANCH  16  17
ENDBRANCH  15  16
BRANCH  15  20
HETATM   20  C13 UNL     1      17.376   5.643  14.594  1.00  0.00     0.007 C 
HETATM   21  C14 UNL     1      18.505   4.715  14.131  1.00  0.00     0.012 C 
HETATM   22  C15 UNL     1      17.893   7.062  14.530  1.00  0.00     0.012 C 
ENDBRANCH  15  20
ENDBRANCH   3  15
TORSDOF 8
ENDMDL
MODEL 3
REMARK VINA RESULT: -5.859068243      1.336      1.796
REMARK  8 active torsions:
REMARK  status: ('A' for Active; 'I' for Inactive)
REMARK    1  A    between atoms: C2_2  and  C3_3 
REMARK    2  A    between atoms: C2_2  and  N1_6 
REMARK    3  A    between atoms: C3_3  and  O1_4 
REMARK       I    between atoms: N1_6  and  C4_8 
REMARK       I    between atoms: C4_8  and  N2_10 
REMARK    4  A    between atoms: N2_10  and  C6_12 
REMARK    5  A    between atoms: C8_14  and  C9_15 
REMARK    6  A    between atoms: C9_15  and  O3_16 
REMARK    7  A    between atoms: C9_15  and  C13_20 
REMARK    8  A    between atoms: O3_16  and  C10_17 
ROOT
HETATM    1  C6  UNL     1      15.955   4.843  14.678  1.00  0.00     0.095 A 
HETATM    2  C7  UNL     1      16.522   6.274  14.975  1.00  0.00     0.035 A 
HETATM    3  C8  UNL     1      15.875   5.889  13.704  1.00  0.00     0.040 A 
ENDROOT
BRANCH   1   4
HETATM    4  N2  UNL     1      16.959   3.888  14.976  1.00  0.00    -0.333 N 
HETATM    5  C4  UNL     1      16.692   2.904  15.963  1.00  0.00     0.318 C 
HETATM    6  N1  UNL     1      15.528   2.713  16.700  1.00  0.00    -0.337 N 
HETATM    7  O2  UNL     1      17.645   2.078  16.212  1.00  0.00    -0.247 OA
ATOM      8  H1  UNL     1      14.733   3.335  16.549  1.00  0.00     0.164 HD
HETATM    9  C5  UNL     1      18.277   3.832  14.369  1.00  0.00     0.155 C 
BRANCH   6  10
HETATM   10  C2  UNL     1      15.422   1.639  17.689  1.00  0.00     0.105 C 
HETATM   11  C1  UNL     1      14.678   2.107  18.920  1.00  0.00     0.034 C 
BRANCH  10  12
HETATM   12  C3  UNL     1      14.645   0.482  17.098  1.00  0.00     0.189 C 
BRANCH  12  13
HETATM   13  O1  UNL     1      15.476  -0.347  16.349  1.00  0.00    -0.399 OA
ATOM     14  H1  UNL     1      15.305  -0.251  15.419  1.00  0.00     0.209 HD
ENDBRANCH  12  13
ENDBRANCH  10  12
ENDBRANCH   6  10
ENDBRANCH   1   4
BRANCH   3  15
HETATM   15  C9  UNL     1      16.494   5.970  12.347  1.00  0.00     0.131 C 
BRANCH  15  16
HETATM   16  O3  UNL     1      16.205   4.933  11.531  1.00  0.00    -0.381 OA
BRANCH  16  17
HETATM   17  C10 UNL     1      17.126   4.027  11.154  1.00  0.00     0.114 C 
HETATM   18  C11 UNL     1      17.635   4.325   9.766  1.00  0.00     0.039 C 
HETATM   19  C12 UNL     1      16.508   2.609  11.036  1.00  0.00     0.039 C 
ENDBRANCH  16  17
ENDBRANCH  15  16
BRANCH  15  20
HETATM   20  C13 UNL     1      16.073   7.272  11.652  1.00  0.00     0.007 C 
HETATM   21  C14 UNL     1      17.310   7.940  11.041  1.00  0.00     0.012 C 
HETATM   22  C15 UNL     1      15.082   7.031  10.536  1.00  0.00     0.012 C 
ENDBRANCH  15  20
ENDBRANCH   3  15
TORSDOF 8
ENDMDL
MODEL 4
REMARK VINA RESULT: -5.688404393      2.997      5.848
REMARK  8 active torsions:
REMARK  status: ('A' for Active; 'I' for Inactive)
REMARK    1  A    between atoms: C2_2  and  C3_3 
REMARK    2  A    between atoms: C2_2  and  N1_6 
REMARK    3  A    between atoms: C3_3  and  O1_4 
REMARK       I    between atoms: N1_6  and  C4_8 
REMARK       I    between atoms: C4_8  and  N2_10 
REMARK    4  A    between atoms: N2_10  and  C6_12 
REMARK    5  A    between atoms: C8_14  and  C9_15 
REMARK    6  A    between atoms: C9_15  and  O3_16 
REMARK    7  A    between atoms: C9_15  and  C13_20 
REMARK    8  A    between atoms: O3_16  and  C10_17 
ROOT
HETATM    1  C6  UNL     1      18.516   4.812  13.616  1.00  0.00     0.095 A 
HETATM    2  C7  UNL     1      17.378   5.549  14.401  1.00  0.00     0.035 A 
HETATM    3  C8  UNL     1      17.565   4.083  14.400  1.00  0.00     0.040 A 
ENDROOT
BRANCH   1   4
HETATM    4  N2  UNL     1      18.503   5.262  12.271  1.00  0.00    -0.333 N 
HETATM    5  C4  UNL     1      19.740   5.547  11.637  1.00  0.00     0.318 C 
HETATM    6  N1  UNL     1      21.025   5.422  12.153  1.00  0.00    -0.337 N 
HETATM    7  O2  UNL     1      19.670   5.977  10.427  1.00  0.00    -0.247 OA
ATOM      8  H1  UNL     1      21.149   5.085  13.108  1.00  0.00     0.164 HD
HETATM    9  C5  UNL     1      17.314   5.488  11.469  1.00  0.00     0.155 C 
BRANCH   6  10
HETATM   10  C2  UNL     1      22.202   5.765  11.353  1.00  0.00     0.105 C 
HETATM   11  C1  UNL     1      23.155   6.639  12.138  1.00  0.00     0.034 C 
BRANCH  10  12
HETATM   12  C3  UNL     1      22.945   4.501  10.978  1.00  0.00     0.189 C 
BRANCH  12  13
HETATM   13  O1  UNL     1      24.055   4.312  11.798  1.00  0.00    -0.399 OA
ATOM     14  H1  UNL     1      24.859   4.511  11.333  1.00  0.00     0.209 HD
ENDBRANCH  12  13
ENDBRANCH  10  12
ENDBRANCH   6  10
ENDBRANCH   1   4
BRANCH   3  15
HETATM   15  C9  UNL     1      16.554   3.072  13.966  1.00  0.00     0.131 C 
BRANCH  15  16
HETATM   16  O3  UNL     1      17.063   2.024  13.282  1.00  0.00    -0.381 OA
BRANCH  16  17
HETATM   17  C10 UNL     1      16.301   1.217  12.520  1.00  0.00     0.114 C 
HETATM   18  C11 UNL     1      16.943  -0.139  12.366  1.00  0.00     0.039 C 
HETATM   19  C12 UNL     1      16.188   1.753  11.068  1.00  0.00     0.039 C 
ENDBRANCH  16  17
ENDBRANCH  15  16
BRANCH  15  20
HETATM   20  C13 UNL     1      15.788   2.538  15.183  1.00  0.00     0.007 C 
HETATM   21  C14 UNL     1      16.778   2.256  16.318  1.00  0.00     0.012 C 
HETATM   22  C15 UNL     1      14.768   3.527  15.698  1.00  0.00     0.012 C 
ENDBRANCH  15  20
ENDBRANCH   3  15
TORSDOF 8
ENDMDL
MODEL 5
REMARK VINA RESULT: -5.673099872      1.625      3.039
REMARK  8 active torsions:
REMARK  status: ('A' for Active; 'I' for Inactive)
REMARK    1  A    between atoms: C2_2  and  C3_3 
REMARK    2  A    between atoms: C2_2  and  N1_6 
REMARK    3  A    between atoms: C3_3  and  O1_4 
REMARK       I    between atoms: N1_6  and  C4_8 
REMARK       I    between atoms: C4_8  and  N2_10 
REMARK    4  A    between atoms: N2_10  and  C6_12 
REMARK    5  A    between atoms: C8_14  and  C9_15 
REMARK    6  A    between atoms: C9_15  and  O3_16 
REMARK    7  A    between atoms: C9_15  and  C13_20 
REMARK    8  A    between atoms: O3_16  and  C10_17 
ROOT
HETATM    1  C6  UNL     1      15.751   4.772  14.109  1.00  0.00     0.095 A 
HETATM    2  C7  UNL     1      16.634   5.816  14.876  1.00  0.00     0.035 A 
HETATM    3  C8  UNL     1      16.103   6.026  13.513  1.00  0.00     0.040 A 
ENDROOT
BRANCH   1   4
HETATM    4  N2  UNL     1      16.404   3.514  14.146  1.00  0.00    -0.333 N 
HETATM    5  C4  UNL     1      16.204   2.677  15.273  1.00  0.00     0.318 C 
HETATM    6  N1  UNL     1      15.407   2.905  16.390  1.00  0.00    -0.337 N 
HETATM    7  O2  UNL     1      16.838   1.558  15.268  1.00  0.00    -0.247 OA
ATOM      8  H1  UNL     1      14.876   3.774  16.455  1.00  0.00     0.164 HD
HETATM    9  C5  UNL     1      17.298   2.997  13.125  1.00  0.00     0.155 C 
BRANCH   6  10
HETATM   10  C2  UNL     1      15.316   1.925  17.473  1.00  0.00     0.105 C 
HETATM   11  C1  UNL     1      14.692   2.537  18.707  1.00  0.00     0.034 C 
BRANCH  10  12
HETATM   12  C3  UNL     1      14.436   0.772  17.040  1.00  0.00     0.189 C 
BRANCH  12  13
HETATM   13  O1  UNL     1      15.153  -0.422  17.016  1.00  0.00    -0.399 OA
ATOM     14  H1  UNL     1      14.856  -1.011  17.699  1.00  0.00     0.209 HD
ENDBRANCH  12  13
ENDBRANCH  10  12
ENDBRANCH   6  10
ENDBRANCH   1   4
BRANCH   3  15
HETATM   15  C9  UNL     1      16.916   6.299  12.290  1.00  0.00     0.131 C 
BRANCH  15  16
HETATM   16  O3  UNL     1      16.339   7.143  11.406  1.00  0.00    -0.381 OA
BRANCH  16  17
HETATM   17  C10 UNL     1      15.157   6.881  10.819  1.00  0.00     0.114 C 
HETATM   18  C11 UNL     1      15.280   6.931   9.317  1.00  0.00     0.039 C 
HETATM   19  C12 UNL     1      14.107   7.975  11.151  1.00  0.00     0.039 C 
ENDBRANCH  16  17
ENDBRANCH  15  16
BRANCH  15  20
HETATM   20  C13 UNL     1      18.286   6.865  12.684  1.00  0.00     0.007 C 
HETATM   21  C14 UNL     1      19.385   6.058  11.985  1.00  0.00     0.012 C 
HETATM   22  C15 UNL     1      18.448   8.312  12.275  1.00  0.00     0.012 C 
ENDBRANCH  15  20
ENDBRANCH   3  15
TORSDOF 8
ENDMDL
