MODEL 1
REMARK VINA RESULT: -8.708645380      0.000      0.000
REMARK  14 active torsions:
REMARK  status: ('A' for Active; 'I' for Inactive)
REMARK    1  A    between atoms: C2_4  and  C3_5 
REMARK    2  A    between atoms: C2_4  and  O2_17 
REMARK    3  A    between atoms: C3_5  and  C4_6 
REMARK    4  A    between atoms: C4_6  and  C5_7 
REMARK    5  A    between atoms: C5_7  and  C6_8 
REMARK    6  A    between atoms: C6_8  and  C7_9 
REMARK    7  A    between atoms: C7_9  and  C8_10 
REMARK       I    between atoms: C8_10  and  N2_12 
REMARK    8  A    between atoms: N2_12  and  C9_14 
REMARK    9  A    between atoms: O2_17  and  C12_18 
REMARK   10  A    between atoms: C12_18  and  C13_19 
REMARK   11  A    between atoms: C13_19  and  O3_20 
REMARK   12  A    between atoms: C13_19  and  N3_22 
REMARK   13  A    between atoms: N3_22  and  C14_24 
REMARK   14  A    between atoms: C20_33  and  C21_34 
ROOT
HETATM    1  C12 UNL     1      17.839  23.357  18.327  1.00  0.00     0.129 C 
HETATM    2  C22 UNL     1      18.398  23.236  19.481  1.00  0.00    -0.049 C 
HETATM    3  C23 UNL     1      19.054  21.878  19.765  1.00  0.00     0.046 C 
HETATM    4  C24 UNL     1      18.507  24.206  20.589  1.00  0.00     0.046 C 
ENDROOT
BRANCH   1   5
HETATM    5  O2  UNL     1      17.870  22.239  17.421  1.00  0.00    -0.294 OA
BRANCH   5   6
HETATM    6  C2  UNL     1      16.702  21.745  16.892  1.00  0.00     0.119 C 
HETATM    7  N1  UNL     1      16.307  22.094  15.733  1.00  0.00    -0.378 N 
HETATM    8  C1  UNL     1      15.103  21.643  15.078  1.00  0.00     0.148 C 
ATOM      9  H1  UNL     1      16.894  22.753  15.222  1.00  0.00     0.160 HD
BRANCH   6  10
HETATM   10  C3  UNL     1      15.891  20.784  17.702  1.00  0.00     0.084 C 
BRANCH  10  11
HETATM   11  C4  UNL     1      15.106  21.471  18.767  1.00  0.00     0.008 C 
BRANCH  11  12
HETATM   12  C5  UNL     1      15.094  20.775  20.098  1.00  0.00     0.001 C 
BRANCH  12  13
HETATM   13  C6  UNL     1      15.290  19.303  20.053  1.00  0.00     0.009 C 
BRANCH  13  14
HETATM   14  C7  UNL     1      14.442  18.506  20.992  1.00  0.00     0.103 C 
BRANCH  14  15
HETATM   15  C8  UNL     1      13.046  18.508  20.436  1.00  0.00     0.217 C 
HETATM   16  O1  UNL     1      12.055  18.792  21.188  1.00  0.00    -0.274 OA
HETATM   17  N2  UNL     1      12.851  18.195  19.080  1.00  0.00    -0.357 N 
ATOM     18  H2  UNL     1      13.644  17.969  18.481  1.00  0.00     0.162 HD
BRANCH  17  19
HETATM   19  C9  UNL     1      11.501  18.197  18.548  1.00  0.00     0.076 C 
HETATM   20  C10 UNL     1      11.392  19.273  17.479  1.00  0.00     0.032 C 
HETATM   21  C11 UNL     1      11.179  16.871  17.929  1.00  0.00     0.032 C 
ENDBRANCH  17  19
ENDBRANCH  14  15
ENDBRANCH  13  14
ENDBRANCH  12  13
ENDBRANCH  11  12
ENDBRANCH  10  11
ENDBRANCH   6  10
ENDBRANCH   5   6
ENDBRANCH   1   5
BRANCH   1  22
HETATM   22  C13 UNL     1      17.165  24.518  17.802  1.00  0.00     0.171 C 
BRANCH  22  23
HETATM   23  O3  UNL     1      16.120  24.949  18.463  1.00  0.00    -0.344 OA
ATOM     24  H3  UNL     1      15.471  25.441  17.973  1.00  0.00     0.219 HD
ENDBRANCH  22  23
BRANCH  22  25
HETATM   25  N3  UNL     1      17.437  25.289  16.671  1.00  0.00    -0.353 N 
ATOM     26  H3  UNL     1      16.673  25.714  16.145  1.00  0.00     0.162 HD
BRANCH  25  27
HETATM   27  C14 UNL     1      18.811  25.485  16.246  1.00  0.00     0.209 C 
HETATM   28  C15 UNL     1      18.928  26.405  15.112  1.00  0.00     0.247 C 
HETATM   29  O4  UNL     1      18.343  26.576  13.994  1.00  0.00    -0.271 OA
HETATM   30  N4  UNL     1      20.008  27.117  15.716  1.00  0.00    -0.318 N 
HETATM   31  C16 UNL     1      19.533  26.580  17.010  1.00  0.00     0.183 C 
HETATM   32  C20 UNL     1      21.165  27.933  15.959  1.00  0.00     0.207 C 
HETATM   33  S1  UNL     1      21.128  26.055  17.696  1.00  0.00    -0.129 SA
HETATM   34  C17 UNL     1      22.213  27.005  16.550  1.00  0.00     0.033 C 
HETATM   35  C18 UNL     1      23.270  27.742  17.326  1.00  0.00     0.029 C 
HETATM   36  C19 UNL     1      22.771  26.033  15.561  1.00  0.00     0.029 C 
BRANCH  32  37
HETATM   37  C21 UNL     1      21.620  28.587  14.732  1.00  0.00     0.198 C 
HETATM   38  O5  UNL     1      22.242  29.676  14.756  1.00  0.00    -0.646 OA
HETATM   39  O6  UNL     1      21.374  28.016  13.500  1.00  0.00    -0.646 OA
ENDBRANCH  32  37
ENDBRANCH  25  27
ENDBRANCH  22  25
ENDBRANCH   1  22
TORSDOF 14
ENDMDL
MODEL 2
REMARK VINA RESULT: -8.651059742      1.804      3.254
REMARK  14 active torsions:
REMARK  status: ('A' for Active; 'I' for Inactive)
REMARK    1  A    between atoms: C2_4  and  C3_5 
REMARK    2  A    between atoms: C2_4  and  O2_17 
REMARK    3  A    between atoms: C3_5  and  C4_6 
REMARK    4  A    between atoms: C4_6  and  C5_7 
REMARK    5  A    between atoms: C5_7  and  C6_8 
REMARK    6  A    between atoms: C6_8  and  C7_9 
REMARK    7  A    between atoms: C7_9  and  C8_10 
REMARK       I    between atoms: C8_10  and  N2_12 
REMARK    8  A    between atoms: N2_12  and  C9_14 
REMARK    9  A    between atoms: O2_17  and  C12_18 
REMARK   10  A    between atoms: C12_18  and  C13_19 
REMARK   11  A    between atoms: C13_19  and  O3_20 
REMARK   12  A    between atoms: C13_19  and  N3_22 
REMARK   13  A    between atoms: N3_22  and  C14_24 
REMARK   14  A    between atoms: C20_33  and  C21_34 
ROOT
HETATM    1  C12 UNL     1      16.883  22.713  16.773  1.00  0.00     0.129 C 
HETATM    2  C22 UNL     1      15.918  22.516  15.943  1.00  0.00    -0.049 C 
HETATM    3  C23 UNL     1      14.557  23.093  16.354  1.00  0.00     0.046 C 
HETATM    4  C24 UNL     1      15.912  21.814  14.644  1.00  0.00     0.046 C 
ENDROOT
BRANCH   1   5
HETATM    5  O2  UNL     1      16.615  23.435  17.989  1.00  0.00    -0.294 OA
BRANCH   5   6
HETATM    6  C2  UNL     1      17.254  23.088  19.155  1.00  0.00     0.119 C 
HETATM    7  N1  UNL     1      18.023  23.910  19.751  1.00  0.00    -0.378 N 
HETATM    8  C1  UNL     1      18.744  23.657  20.976  1.00  0.00     0.148 C 
ATOM      9  H1  UNL     1      18.139  24.829  19.325  1.00  0.00     0.160 HD
BRANCH   6  10
HETATM   10  C3  UNL     1      17.036  21.721  19.719  1.00  0.00     0.084 C 
BRANCH  10  11
HETATM   11  C4  UNL     1      15.588  21.398  19.863  1.00  0.00     0.008 C 
BRANCH  11  12
HETATM   12  C5  UNL     1      15.086  20.307  18.961  1.00  0.00     0.001 C 
BRANCH  12  13
HETATM   13  C6  UNL     1      15.197  18.928  19.501  1.00  0.00     0.009 C 
BRANCH  13  14
HETATM   14  C7  UNL     1      14.355  18.629  20.699  1.00  0.00     0.103 C 
BRANCH  14  15
HETATM   15  C8  UNL     1      12.941  18.468  20.216  1.00  0.00     0.217 C 
HETATM   16  O1  UNL     1      11.963  18.747  20.986  1.00  0.00    -0.274 OA
HETATM   17  N2  UNL     1      12.715  18.007  18.908  1.00  0.00    -0.357 N 
ATOM     18  H2  UNL     1      13.499  17.785  18.294  1.00  0.00     0.162 HD
BRANCH  17  19
HETATM   19  C9  UNL     1      11.349  17.852  18.446  1.00  0.00     0.076 C 
HETATM   20  C10 UNL     1      11.088  18.847  17.327  1.00  0.00     0.032 C 
HETATM   21  C11 UNL     1      11.128  16.466  17.919  1.00  0.00     0.032 C 
ENDBRANCH  17  19
ENDBRANCH  14  15
ENDBRANCH  13  14
ENDBRANCH  12  13
ENDBRANCH  11  12
ENDBRANCH  10  11
ENDBRANCH   6  10
ENDBRANCH   5   6
ENDBRANCH   1   5
BRANCH   1  22
HETATM   22  C13 UNL     1      18.254  22.292  16.632  1.00  0.00     0.171 C 
BRANCH  22  23
HETATM   23  O3  UNL     1      18.499  21.011  16.755  1.00  0.00    -0.344 OA
ATOM     24  H3  UNL     1      17.830  20.482  17.175  1.00  0.00     0.219 HD
ENDBRANCH  22  23
BRANCH  22  25
HETATM   25  N3  UNL     1      19.409  23.034  16.384  1.00  0.00    -0.353 N 
ATOM     26  H3  UNL     1      20.328  22.619  16.537  1.00  0.00     0.162 HD
BRANCH  25  27
HETATM   27  C14 UNL     1      19.298  24.401  15.906  1.00  0.00     0.209 C 
HETATM   28  C15 UNL     1      19.915  25.370  16.814  1.00  0.00     0.247 C 
HETATM   29  O4  UNL     1      19.918  25.593  18.068  1.00  0.00    -0.271 OA
HETATM   30  N4  UNL     1      20.574  26.052  15.746  1.00  0.00    -0.318 N 
HETATM   31  C16 UNL     1      20.415  24.807  14.962  1.00  0.00     0.183 C 
HETATM   32  C20 UNL     1      21.242  27.023  14.926  1.00  0.00     0.207 C 
HETATM   33  S1  UNL     1      19.824  25.531  13.407  1.00  0.00    -0.129 SA
HETATM   34  C17 UNL     1      20.322  27.272  13.742  1.00  0.00     0.033 C 
HETATM   35  C18 UNL     1      21.047  27.843  12.554  1.00  0.00     0.029 C 
HETATM   36  C19 UNL     1      19.083  28.027  14.101  1.00  0.00     0.029 C 
BRANCH  32  37
HETATM   37  C21 UNL     1      21.531  28.243  15.680  1.00  0.00     0.198 C 
HETATM   38  O5  UNL     1      21.369  28.306  16.923  1.00  0.00    -0.646 OA
HETATM   39  O6  UNL     1      21.996  29.373  15.037  1.00  0.00    -0.646 OA
ENDBRANCH  32  37
ENDBRANCH  25  27
ENDBRANCH  22  25
ENDBRANCH   1  22
TORSDOF 14
ENDMDL
MODEL 3
REMARK VINA RESULT: -8.520344710      1.856      3.111
REMARK  14 active torsions:
REMARK  status: ('A' for Active; 'I' for Inactive)
REMARK    1  A    between atoms: C2_4  and  C3_5 
REMARK    2  A    between atoms: C2_4  and  O2_17 
REMARK    3  A    between atoms: C3_5  and  C4_6 
REMARK    4  A    between atoms: C4_6  and  C5_7 
REMARK    5  A    between atoms: C5_7  and  C6_8 
REMARK    6  A    between atoms: C6_8  and  C7_9 
REMARK    7  A    between atoms: C7_9  and  C8_10 
REMARK       I    between atoms: C8_10  and  N2_12 
REMARK    8  A    between atoms: N2_12  and  C9_14 
REMARK    9  A    between atoms: O2_17  and  C12_18 
REMARK   10  A    between atoms: C12_18  and  C13_19 
REMARK   11  A    between atoms: C13_19  and  O3_20 
REMARK   12  A    between atoms: C13_19  and  N3_22 
REMARK   13  A    between atoms: N3_22  and  C14_24 
REMARK   14  A    between atoms: C20_33  and  C21_34 
ROOT
HETATM    1  C12 UNL     1      15.864  22.863  15.907  1.00  0.00     0.129 C 
HETATM    2  C22 UNL     1      15.356  22.032  15.065  1.00  0.00    -0.049 C 
HETATM    3  C23 UNL     1      14.389  20.996  15.651  1.00  0.00     0.046 C 
HETATM    4  C24 UNL     1      15.559  21.915  13.607  1.00  0.00     0.046 C 
ENDROOT
BRANCH   1   5
HETATM    5  O2  UNL     1      15.499  22.755  17.295  1.00  0.00    -0.294 OA
BRANCH   5   6
HETATM    6  C2  UNL     1      16.449  22.444  18.238  1.00  0.00     0.119 C 
HETATM    7  N1  UNL     1      16.926  23.339  19.008  1.00  0.00    -0.378 N 
HETATM    8  C1  UNL     1      17.923  23.130  20.031  1.00  0.00     0.148 C 
ATOM      9  H1  UNL     1      16.572  24.288  18.890  1.00  0.00     0.160 HD
BRANCH   6  10
HETATM   10  C3  UNL     1      16.920  21.029  18.350  1.00  0.00     0.084 C 
BRANCH  10  11
HETATM   11  C4  UNL     1      15.846  20.118  18.837  1.00  0.00     0.008 C 
BRANCH  11  12
HETATM   12  C5  UNL     1      15.029  20.649  19.980  1.00  0.00     0.001 C 
BRANCH  12  13
HETATM   13  C6  UNL     1      14.846  19.721  21.124  1.00  0.00     0.009 C 
BRANCH  13  14
HETATM   14  C7  UNL     1      14.441  18.326  20.770  1.00  0.00     0.103 C 
BRANCH  14  15
HETATM   15  C8  UNL     1      13.025  18.391  20.270  1.00  0.00     0.217 C 
HETATM   16  O1  UNL     1      12.081  18.734  21.056  1.00  0.00    -0.274 OA
HETATM   17  N2  UNL     1      12.760  18.069  18.928  1.00  0.00    -0.357 N 
ATOM     18  H2  UNL     1      13.517  17.796  18.302  1.00  0.00     0.162 HD
BRANCH  17  19
HETATM   19  C9  UNL     1      11.392  18.132  18.449  1.00  0.00     0.076 C 
HETATM   20  C10 UNL     1      11.281  19.236  17.410  1.00  0.00     0.032 C 
HETATM   21  C11 UNL     1      10.998  16.833  17.815  1.00  0.00     0.032 C 
ENDBRANCH  17  19
ENDBRANCH  14  15
ENDBRANCH  13  14
ENDBRANCH  12  13
ENDBRANCH  11  12
ENDBRANCH  10  11
ENDBRANCH   6  10
ENDBRANCH   5   6
ENDBRANCH   1   5
BRANCH   1  22
HETATM   22  C13 UNL     1      16.785  23.937  15.626  1.00  0.00     0.171 C 
BRANCH  22  23
HETATM   23  O3  UNL     1      16.297  25.152  15.614  1.00  0.00    -0.344 OA
ATOM     24  H3  UNL     1      15.568  25.330  16.197  1.00  0.00     0.219 HD
ENDBRANCH  22  23
BRANCH  22  25
HETATM   25  N3  UNL     1      18.153  23.908  15.352  1.00  0.00    -0.353 N 
ATOM     26  H3  UNL     1      18.598  23.038  15.059  1.00  0.00     0.162 HD
BRANCH  25  27
HETATM   27  C14 UNL     1      18.940  25.120  15.483  1.00  0.00     0.209 C 
HETATM   28  C15 UNL     1      19.024  25.594  16.867  1.00  0.00     0.247 C 
HETATM   29  O4  UNL     1      18.217  25.769  17.836  1.00  0.00    -0.271 OA
HETATM   30  N4  UNL     1      20.431  25.818  16.775  1.00  0.00    -0.318 N 
HETATM   31  C16 UNL     1      20.427  24.865  15.643  1.00  0.00     0.183 C 
HETATM   32  C20 UNL     1      21.776  26.280  16.975  1.00  0.00     0.207 C 
HETATM   33  S1  UNL     1      21.455  25.806  14.482  1.00  0.00    -0.129 SA
HETATM   34  C17 UNL     1      22.166  26.997  15.693  1.00  0.00     0.033 C 
HETATM   35  C18 UNL     1      23.657  27.094  15.513  1.00  0.00     0.029 C 
HETATM   36  C19 UNL     1      21.459  28.300  15.503  1.00  0.00     0.029 C 
BRANCH  32  37
HETATM   37  C21 UNL     1      21.869  27.143  18.153  1.00  0.00     0.198 C 
HETATM   38  O5  UNL     1      22.910  27.194  18.853  1.00  0.00    -0.646 OA
HETATM   39  O6  UNL     1      20.803  27.934  18.531  1.00  0.00    -0.646 OA
ENDBRANCH  32  37
ENDBRANCH  25  27
ENDBRANCH  22  25
ENDBRANCH   1  22
TORSDOF 14
ENDMDL
MODEL 4
REMARK VINA RESULT: -8.508987980      1.876      3.148
REMARK  14 active torsions:
REMARK  status: ('A' for Active; 'I' for Inactive)
REMARK    1  A    between atoms: C2_4  and  C3_5 
REMARK    2  A    between atoms: C2_4  and  O2_17 
REMARK    3  A    between atoms: C3_5  and  C4_6 
REMARK    4  A    between atoms: C4_6  and  C5_7 
REMARK    5  A    between atoms: C5_7  and  C6_8 
REMARK    6  A    between atoms: C6_8  and  C7_9 
REMARK    7  A    between atoms: C7_9  and  C8_10 
REMARK       I    between atoms: C8_10  and  N2_12 
REMARK    8  A    between atoms: N2_12  and  C9_14 
REMARK    9  A    between atoms: O2_17  and  C12_18 
REMARK   10  A    between atoms: C12_18  and  C13_19 
REMARK   11  A    between atoms: C13_19  and  O3_20 
REMARK   12  A    between atoms: C13_19  and  N3_22 
REMARK   13  A    between atoms: N3_22  and  C14_24 
REMARK   14  A    between atoms: C20_33  and  C21_34 
ROOT
HETATM    1  C12 UNL     1      16.001  22.265  15.794  1.00  0.00     0.129 C 
HETATM    2  C22 UNL     1      14.853  21.905  15.332  1.00  0.00    -0.049 C 
HETATM    3  C23 UNL     1      14.397  20.490  15.710  1.00  0.00     0.046 C 
HETATM    4  C24 UNL     1      13.896  22.645  14.486  1.00  0.00     0.046 C 
ENDROOT
BRANCH   1   5
HETATM    5  O2  UNL     1      16.746  21.336  16.601  1.00  0.00    -0.294 OA
BRANCH   5   6
HETATM    6  C2  UNL     1      17.165  21.695  17.859  1.00  0.00     0.119 C 
HETATM    7  N1  UNL     1      18.376  21.531  18.219  1.00  0.00    -0.378 N 
HETATM    8  C1  UNL     1      18.928  21.870  19.509  1.00  0.00     0.148 C 
ATOM      9  H1  UNL     1      19.012  21.123  17.534  1.00  0.00     0.160 HD
BRANCH   6  10
HETATM   10  C3  UNL     1      16.174  22.286  18.810  1.00  0.00     0.084 C 
BRANCH  10  11
HETATM   11  C4  UNL     1      15.132  21.301  19.217  1.00  0.00     0.008 C 
BRANCH  11  12
HETATM   12  C5  UNL     1      15.570  20.300  20.247  1.00  0.00     0.001 C 
BRANCH  12  13
HETATM   13  C6  UNL     1      15.149  18.898  19.997  1.00  0.00     0.009 C 
BRANCH  13  14
HETATM   14  C7  UNL     1      14.176  18.327  20.977  1.00  0.00     0.103 C 
BRANCH  14  15
HETATM   15  C8  UNL     1      12.817  18.388  20.337  1.00  0.00     0.217 C 
HETATM   16  O1  UNL     1      11.784  18.636  21.044  1.00  0.00    -0.274 OA
HETATM   17  N2  UNL     1      12.704  18.169  18.954  1.00  0.00    -0.357 N 
ATOM     18  H2  UNL     1      13.532  17.971  18.391  1.00  0.00     0.162 HD
BRANCH  17  19
HETATM   19  C9  UNL     1      11.391  18.228  18.340  1.00  0.00     0.076 C 
HETATM   20  C10 UNL     1      11.398  19.297  17.258  1.00  0.00     0.032 C 
HETATM   21  C11 UNL     1      11.046  16.912  17.713  1.00  0.00     0.032 C 
ENDBRANCH  17  19
ENDBRANCH  14  15
ENDBRANCH  13  14
ENDBRANCH  12  13
ENDBRANCH  11  12
ENDBRANCH  10  11
ENDBRANCH   6  10
ENDBRANCH   5   6
ENDBRANCH   1   5
BRANCH   1  22
HETATM   22  C13 UNL     1      16.659  23.534  15.602  1.00  0.00     0.171 C 
BRANCH  22  23
HETATM   23  O3  UNL     1      16.149  24.568  16.222  1.00  0.00    -0.344 OA
ATOM     24  H3  UNL     1      16.258  25.417  15.808  1.00  0.00     0.219 HD
ENDBRANCH  22  23
BRANCH  22  25
HETATM   25  N3  UNL     1      17.781  23.866  14.842  1.00  0.00    -0.353 N 
ATOM     26  H3  UNL     1      18.041  23.297  14.036  1.00  0.00     0.162 HD
BRANCH  25  27
HETATM   27  C14 UNL     1      18.577  25.026  15.201  1.00  0.00     0.209 C 
HETATM   28  C15 UNL     1      19.726  24.686  16.042  1.00  0.00     0.247 C 
HETATM   29  O4  UNL     1      19.941  23.965  17.070  1.00  0.00    -0.271 OA
HETATM   30  N4  UNL     1      20.615  25.494  15.270  1.00  0.00    -0.318 N 
HETATM   31  C16 UNL     1      19.632  25.382  14.170  1.00  0.00     0.183 C 
HETATM   32  C20 UNL     1      21.715  26.299  14.817  1.00  0.00     0.207 C 
HETATM   33  S1  UNL     1      19.588  27.121  13.657  1.00  0.00    -0.129 SA
HETATM   34  C17 UNL     1      21.130  27.666  14.504  1.00  0.00     0.033 C 
HETATM   35  C18 UNL     1      21.989  28.462  13.559  1.00  0.00     0.029 C 
HETATM   36  C19 UNL     1      20.720  28.430  15.721  1.00  0.00     0.029 C 
BRANCH  32  37
HETATM   37  C21 UNL     1      22.777  26.358  15.821  1.00  0.00     0.198 C 
HETATM   38  O5  UNL     1      23.988  26.417  15.498  1.00  0.00    -0.646 OA
HETATM   39  O6  UNL     1      22.473  26.351  17.167  1.00  0.00    -0.646 OA
ENDBRANCH  32  37
ENDBRANCH  25  27
ENDBRANCH  22  25
ENDBRANCH   1  22
TORSDOF 14
ENDMDL
MODEL 5
REMARK VINA RESULT: -8.432600693      2.240      3.663
REMARK  14 active torsions:
REMARK  status: ('A' for Active; 'I' for Inactive)
REMARK    1  A    between atoms: C2_4  and  C3_5 
REMARK    2  A    between atoms: C2_4  and  O2_17 
REMARK    3  A    between atoms: C3_5  and  C4_6 
REMARK    4  A    between atoms: C4_6  and  C5_7 
REMARK    5  A    between atoms: C5_7  and  C6_8 
REMARK    6  A    between atoms: C6_8  and  C7_9 
REMARK    7  A    between atoms: C7_9  and  C8_10 
REMARK       I    between atoms: C8_10  and  N2_12 
REMARK    8  A    between atoms: N2_12  and  C9_14 
REMARK    9  A    between atoms: O2_17  and  C12_18 
REMARK   10  A    between atoms: C12_18  and  C13_19 
REMARK   11  A    between atoms: C13_19  and  O3_20 
REMARK   12  A    between atoms: C13_19  and  N3_22 
REMARK   13  A    between atoms: N3_22  and  C14_24 
REMARK   14  A    between atoms: C20_33  and  C21_34 
ROOT
HETATM    1  C12 UNL     1      16.941  22.713  16.859  1.00  0.00     0.129 C 
HETATM    2  C22 UNL     1      15.901  22.461  16.142  1.00  0.00    -0.049 C 
HETATM    3  C23 UNL     1      14.587  23.080  16.634  1.00  0.00     0.046 C 
HETATM    4  C24 UNL     1      15.771  21.661  14.907  1.00  0.00     0.046 C 
ENDROOT
BRANCH   1   5
HETATM    5  O2  UNL     1      16.792  23.527  18.036  1.00  0.00    -0.294 OA
BRANCH   5   6
HETATM    6  C2  UNL     1      17.391  23.156  19.215  1.00  0.00     0.119 C 
HETATM    7  N1  UNL     1      18.113  23.975  19.870  1.00  0.00    -0.378 N 
HETATM    8  C1  UNL     1      18.789  23.698  21.116  1.00  0.00     0.148 C 
ATOM      9  H1  UNL     1      18.224  24.910  19.480  1.00  0.00     0.160 HD
BRANCH   6  10
HETATM   10  C3  UNL     1      17.184  21.765  19.724  1.00  0.00     0.084 C 
BRANCH  10  11
HETATM   11  C4  UNL     1      15.743  21.461  19.953  1.00  0.00     0.008 C 
BRANCH  11  12
HETATM   12  C5  UNL     1      15.325  20.061  19.605  1.00  0.00     0.001 C 
BRANCH  12  13
HETATM   13  C6  UNL     1      14.385  19.938  18.462  1.00  0.00     0.009 C 
BRANCH  13  14
HETATM   14  C7  UNL     1      12.985  19.546  18.812  1.00  0.00     0.103 C 
BRANCH  14  15
HETATM   15  C8  UNL     1      12.159  19.698  17.565  1.00  0.00     0.217 C 
HETATM   16  O1  UNL     1      10.888  19.614  17.622  1.00  0.00    -0.274 OA
HETATM   17  N2  UNL     1      12.808  19.934  16.341  1.00  0.00    -0.357 N 
ATOM     18  H2  UNL     1      13.825  20.002  16.299  1.00  0.00     0.162 HD
BRANCH  17  19
HETATM   19  C9  UNL     1      12.008  20.080  15.140  1.00  0.00     0.076 C 
HETATM   20  C10 UNL     1      11.856  21.559  14.823  1.00  0.00     0.032 C 
HETATM   21  C11 UNL     1      12.676  19.405  13.980  1.00  0.00     0.032 C 
ENDBRANCH  17  19
ENDBRANCH  14  15
ENDBRANCH  13  14
ENDBRANCH  12  13
ENDBRANCH  11  12
ENDBRANCH  10  11
ENDBRANCH   6  10
ENDBRANCH   5   6
ENDBRANCH   1   5
BRANCH   1  22
HETATM   22  C13 UNL     1      18.293  22.269  16.622  1.00  0.00     0.171 C 
BRANCH  22  23
HETATM   23  O3  UNL     1      18.521  20.982  16.711  1.00  0.00    -0.344 OA
ATOM     24  H3  UNL     1      19.261  20.640  16.223  1.00  0.00     0.219 HD
ENDBRANCH  22  23
BRANCH  22  25
HETATM   25  N3  UNL     1      19.442  22.994  16.306  1.00  0.00    -0.353 N 
ATOM     26  H3  UNL     1      20.362  22.566  16.407  1.00  0.00     0.162 HD
BRANCH  25  27
HETATM   27  C14 UNL     1      19.324  24.362  15.834  1.00  0.00     0.209 C 
HETATM   28  C15 UNL     1      19.916  25.333  16.757  1.00  0.00     0.247 C 
HETATM   29  O4  UNL     1      19.898  25.549  18.012  1.00  0.00    -0.271 OA
HETATM   30  N4  UNL     1      20.584  26.027  15.703  1.00  0.00    -0.318 N 
HETATM   31  C16 UNL     1      20.450  24.786  14.910  1.00  0.00     0.183 C 
HETATM   32  C20 UNL     1      21.254  27.011  14.899  1.00  0.00     0.207 C 
HETATM   33  S1  UNL     1      19.875  25.512  13.350  1.00  0.00    -0.129 SA
HETATM   34  C17 UNL     1      20.349  27.256  13.702  1.00  0.00     0.033 C 
HETATM   35  C18 UNL     1      21.086  27.841  12.528  1.00  0.00     0.029 C 
HETATM   36  C19 UNL     1      19.097  27.996  14.046  1.00  0.00     0.029 C 
BRANCH  32  37
HETATM   37  C21 UNL     1      21.518  28.229  15.663  1.00  0.00     0.198 C 
HETATM   38  O5  UNL     1      21.302  28.294  16.898  1.00  0.00    -0.646 OA
HETATM   39  O6  UNL     1      22.020  29.354  15.041  1.00  0.00    -0.646 OA
ENDBRANCH  32  37
ENDBRANCH  25  27
ENDBRANCH  22  25
ENDBRANCH   1  22
TORSDOF 14
ENDMDL
