MODEL 1
REMARK VINA RESULT: -6.532757839      0.000      0.000
REMARK  3 active torsions:
REMARK  status: ('A' for Active; 'I' for Inactive)
REMARK    1  A    between atoms: N1_1  and  N2_4 
REMARK    2  A    between atoms: N2_4  and  N3_6 
REMARK       I    between atoms: N3_6  and  C1_8 
REMARK       I    between atoms: C1_8  and  N5_10 
REMARK    3  A    between atoms: N5_10  and  C2_12 
ROOT
HETATM    1  N3  UNL     1      39.779  16.493  31.150  1.00  0.00    -0.259 N 
ATOM      2  H3  UNL     1      39.063  16.344  31.861  1.00  0.00     0.191 HD
HETATM    3  C1  UNL     1      39.405  16.518  29.935  1.00  0.00     0.222 C 
HETATM    4  N4  UNL     1      40.356  16.720  28.919  1.00  0.00    -0.061 NA
HETATM    5  N5  UNL     1      38.052  16.347  29.602  1.00  0.00    -0.161 N 
ATOM      6  H5  UNL     1      37.637  17.020  28.958  1.00  0.00     0.187 HD
ENDROOT
BRANCH   5   7
HETATM    7  C2  UNL     1      37.299  15.407  30.046  1.00  0.00     0.703 A 
HETATM    8  N6  UNL     1      37.417  14.119  29.684  1.00  0.00    -0.128 N 
HETATM    9  N7  UNL     1      36.478  13.412  30.330  1.00  0.00    -0.237 N 
ATOM     10  H6  UNL     1      38.103  13.743  29.030  1.00  0.00     0.205 HD
HETATM   11  C3  UNL     1      35.751  14.234  31.108  1.00  0.00     0.353 A 
ATOM     12  H7  UNL     1      36.338  12.405  30.245  1.00  0.00     0.192 HD
HETATM   13  O1  UNL     1      34.772  13.933  31.869  1.00  0.00    -0.245 OA
HETATM   14  N8  UNL     1      36.281  15.465  30.912  1.00  0.00    -0.139 N 
ATOM     15  H8  UNL     1      35.949  16.318  31.362  1.00  0.00     0.189 HD
ENDBRANCH   5   7
BRANCH   1  16
HETATM   16  N2  UNL     1      41.093  16.654  31.581  1.00  0.00    -0.247 N 
ATOM     17  H2  UNL     1      41.836  16.063  31.207  1.00  0.00     0.207 HD
BRANCH  16  18
HETATM   18  N1  UNL     1      41.377  17.630  32.529  1.00  0.00    -0.331 N 
ATOM     19  H12 UNL     1      41.075  18.591  32.366  1.00  0.00     0.178 HD
ATOM     20  H11 UNL     1      41.884  17.367  33.373  1.00  0.00     0.178 HD
ENDBRANCH  16  18
ENDBRANCH   1  16
TORSDOF 3
ENDMDL
MODEL 2
REMARK VINA RESULT: -6.389471388      2.663      3.931
REMARK  3 active torsions:
REMARK  status: ('A' for Active; 'I' for Inactive)
REMARK    1  A    between atoms: N1_1  and  N2_4 
REMARK    2  A    between atoms: N2_4  and  N3_6 
REMARK       I    between atoms: N3_6  and  C1_8 
REMARK       I    between atoms: C1_8  and  N5_10 
REMARK    3  A    between atoms: N5_10  and  C2_12 
ROOT
HETATM    1  N3  UNL     1      40.908  17.937  33.452  1.00  0.00    -0.259 N 
ATOM      2  H3  UNL     1      41.456  17.317  32.854  1.00  0.00     0.191 HD
HETATM    3  C1  UNL     1      39.662  17.706  33.553  1.00  0.00     0.222 C 
HETATM    4  N4  UNL     1      38.866  18.534  34.364  1.00  0.00    -0.061 NA
HETATM    5  N5  UNL     1      39.078  16.633  32.863  1.00  0.00    -0.161 N 
ATOM      6  H5  UNL     1      38.471  16.007  33.393  1.00  0.00     0.187 HD
ENDROOT
BRANCH   5   7
HETATM    7  C2  UNL     1      39.248  16.379  31.616  1.00  0.00     0.703 A 
HETATM    8  N6  UNL     1      40.391  15.901  31.099  1.00  0.00    -0.128 N 
HETATM    9  N7  UNL     1      40.225  15.752  29.776  1.00  0.00    -0.237 N 
ATOM     10  H6  UNL     1      41.240  15.688  31.622  1.00  0.00     0.205 HD
HETATM   11  C3  UNL     1      38.982  16.132  29.433  1.00  0.00     0.353 A 
ATOM     12  H7  UNL     1      40.934  15.404  29.131  1.00  0.00     0.192 HD
HETATM   13  O1  UNL     1      38.454  16.135  28.271  1.00  0.00    -0.245 OA
HETATM   14  N8  UNL     1      38.397  16.517  30.593  1.00  0.00    -0.139 N 
ATOM     15  H8  UNL     1      37.442  16.864  30.674  1.00  0.00     0.189 HD
ENDBRANCH   5   7
BRANCH   1  16
HETATM   16  N2  UNL     1      41.580  18.973  34.095  1.00  0.00    -0.247 N 
ATOM     17  H2  UNL     1      42.256  18.772  34.832  1.00  0.00     0.207 HD
BRANCH  16  18
HETATM   18  N1  UNL     1      41.316  20.284  33.718  1.00  0.00    -0.331 N 
ATOM     19  H12 UNL     1      40.453  20.731  34.026  1.00  0.00     0.178 HD
ATOM     20  H11 UNL     1      41.993  20.778  33.137  1.00  0.00     0.178 HD
ENDBRANCH  16  18
ENDBRANCH   1  16
TORSDOF 3
ENDMDL
MODEL 3
REMARK VINA RESULT: -6.220786949      2.349      4.608
REMARK  3 active torsions:
REMARK  status: ('A' for Active; 'I' for Inactive)
REMARK    1  A    between atoms: N1_1  and  N2_4 
REMARK    2  A    between atoms: N2_4  and  N3_6 
REMARK       I    between atoms: N3_6  and  C1_8 
REMARK       I    between atoms: C1_8  and  N5_10 
REMARK    3  A    between atoms: N5_10  and  C2_12 
ROOT
HETATM    1  N3  UNL     1      38.033  14.815  30.063  1.00  0.00    -0.259 N 
ATOM      2  H3  UNL     1      38.311  14.532  31.003  1.00  0.00     0.191 HD
HETATM    3  C1  UNL     1      38.820  15.582  29.423  1.00  0.00     0.222 C 
HETATM    4  N4  UNL     1      38.479  16.000  28.124  1.00  0.00    -0.061 NA
HETATM    5  N5  UNL     1      40.023  16.012  30.002  1.00  0.00    -0.161 N 
ATOM      6  H5  UNL     1      40.873  15.920  29.445  1.00  0.00     0.187 HD
ENDROOT
BRANCH   5   7
HETATM    7  C2  UNL     1      40.137  16.513  31.178  1.00  0.00     0.703 A 
HETATM    8  N6  UNL     1      41.244  17.126  31.628  1.00  0.00    -0.128 N 
HETATM    9  N7  UNL     1      41.022  17.527  32.888  1.00  0.00    -0.237 N 
ATOM     10  H6  UNL     1      42.107  17.262  31.101  1.00  0.00     0.205 HD
HETATM   11  C3  UNL     1      39.777  17.177  33.259  1.00  0.00     0.353 A 
ATOM     12  H7  UNL     1      41.694  18.021  33.475  1.00  0.00     0.192 HD
HETATM   13  O1  UNL     1      39.205  17.384  34.380  1.00  0.00    -0.245 OA
HETATM   14  N8  UNL     1      39.251  16.550  32.180  1.00  0.00    -0.139 N 
ATOM     15  H8  UNL     1      38.310  16.159  32.138  1.00  0.00     0.189 HD
ENDBRANCH   5   7
BRANCH   1  16
HETATM   16  N2  UNL     1      36.821  14.334  29.577  1.00  0.00    -0.247 N 
ATOM     17  H2  UNL     1      36.629  14.332  28.575  1.00  0.00     0.207 HD
BRANCH  16  18
HETATM   18  N1  UNL     1      35.874  13.859  30.477  1.00  0.00    -0.331 N 
ATOM     19  H12 UNL     1      35.972  14.074  31.469  1.00  0.00     0.178 HD
ATOM     20  H11 UNL     1      35.096  13.301  30.127  1.00  0.00     0.178 HD
ENDBRANCH  16  18
ENDBRANCH   1  16
TORSDOF 3
ENDMDL
MODEL 4
REMARK VINA RESULT: -6.153671071      2.382      4.433
REMARK  3 active torsions:
REMARK  status: ('A' for Active; 'I' for Inactive)
REMARK    1  A    between atoms: N1_1  and  N2_4 
REMARK    2  A    between atoms: N2_4  and  N3_6 
REMARK       I    between atoms: N3_6  and  C1_8 
REMARK       I    between atoms: C1_8  and  N5_10 
REMARK    3  A    between atoms: N5_10  and  C2_12 
ROOT
HETATM    1  N3  UNL     1      38.707  15.363  29.854  1.00  0.00    -0.259 N 
ATOM      2  H3  UNL     1      38.515  14.985  30.782  1.00  0.00     0.191 HD
HETATM    3  C1  UNL     1      39.728  16.108  29.721  1.00  0.00     0.222 C 
HETATM    4  N4  UNL     1      40.033  16.652  28.461  1.00  0.00    -0.061 NA
HETATM    5  N5  UNL     1      40.553  16.389  30.821  1.00  0.00    -0.161 N 
ATOM      6  H5  UNL     1      41.559  16.269  30.698  1.00  0.00     0.187 HD
ENDROOT
BRANCH   5   7
HETATM    7  C2  UNL     1      40.139  16.786  31.969  1.00  0.00     0.703 A 
HETATM    8  N6  UNL     1      40.871  17.532  32.812  1.00  0.00    -0.128 N 
HETATM    9  N7  UNL     1      40.140  17.766  33.912  1.00  0.00    -0.237 N 
ATOM     10  H6  UNL     1      41.821  17.864  32.645  1.00  0.00     0.205 HD
HETATM   11  C3  UNL     1      38.938  17.175  33.788  1.00  0.00     0.353 A 
ATOM     12  H7  UNL     1      40.448  18.309  34.718  1.00  0.00     0.192 HD
HETATM   13  O1  UNL     1      37.974  17.172  34.623  1.00  0.00    -0.245 OA
HETATM   14  N8  UNL     1      38.964  16.574  32.574  1.00  0.00    -0.139 N 
ATOM     15  H8  UNL     1      38.195  16.035  32.177  1.00  0.00     0.189 HD
ENDBRANCH   5   7
BRANCH   1  16
HETATM   16  N2  UNL     1      37.830  15.025  28.826  1.00  0.00    -0.247 N 
ATOM     17  H2  UNL     1      38.010  15.332  27.870  1.00  0.00     0.207 HD
BRANCH  16  18
HETATM   18  N1  UNL     1      36.705  14.265  29.123  1.00  0.00    -0.331 N 
ATOM     19  H12 UNL     1      36.815  13.287  29.388  1.00  0.00     0.178 HD
ATOM     20  H11 UNL     1      35.785  14.702  29.071  1.00  0.00     0.178 HD
ENDBRANCH  16  18
ENDBRANCH   1  16
TORSDOF 3
ENDMDL
MODEL 5
REMARK VINA RESULT: -6.017159179      2.845      4.898
REMARK  3 active torsions:
REMARK  status: ('A' for Active; 'I' for Inactive)
REMARK    1  A    between atoms: N1_1  and  N2_4 
REMARK    2  A    between atoms: N2_4  and  N3_6 
REMARK       I    between atoms: N3_6  and  C1_8 
REMARK       I    between atoms: C1_8  and  N5_10 
REMARK    3  A    between atoms: N5_10  and  C2_12 
ROOT
HETATM    1  N3  UNL     1      38.015  14.809  30.085  1.00  0.00    -0.259 N 
ATOM      2  H3  UNL     1      38.281  14.571  31.041  1.00  0.00     0.191 HD
HETATM    3  C1  UNL     1      38.812  15.540  29.418  1.00  0.00     0.222 C 
HETATM    4  N4  UNL     1      38.488  15.896  28.096  1.00  0.00    -0.061 NA
HETATM    5  N5  UNL     1      40.010  15.995  29.989  1.00  0.00    -0.161 N 
ATOM      6  H5  UNL     1      40.866  15.873  29.447  1.00  0.00     0.187 HD
ENDROOT
BRANCH   5   7
HETATM    7  C2  UNL     1      40.112  16.552  31.141  1.00  0.00     0.703 A 
HETATM    8  N6  UNL     1      39.073  16.758  31.966  1.00  0.00    -0.128 N 
HETATM    9  N7  UNL     1      39.529  17.358  33.076  1.00  0.00    -0.237 N 
ATOM     10  H6  UNL     1      38.103  16.503  31.782  1.00  0.00     0.205 HD
HETATM   11  C3  UNL     1      40.858  17.543  32.974  1.00  0.00     0.353 A 
ATOM     12  H7  UNL     1      38.957  17.631  33.874  1.00  0.00     0.192 HD
HETATM   13  O1  UNL     1      41.643  18.080  33.824  1.00  0.00    -0.245 OA
HETATM   14  N8  UNL     1      41.193  17.035  31.764  1.00  0.00    -0.139 N 
ATOM     15  H8  UNL     1      42.138  17.023  31.381  1.00  0.00     0.189 HD
ENDBRANCH   5   7
BRANCH   1  16
HETATM   16  N2  UNL     1      36.806  14.309  29.608  1.00  0.00    -0.247 N 
ATOM     17  H2  UNL     1      36.625  14.260  28.605  1.00  0.00     0.207 HD
BRANCH  16  18
HETATM   18  N1  UNL     1      35.849  13.878  30.519  1.00  0.00    -0.331 N 
ATOM     19  H12 UNL     1      35.252  14.563  30.982  1.00  0.00     0.178 HD
ATOM     20  H11 UNL     1      35.760  12.880  30.708  1.00  0.00     0.178 HD
ENDBRANCH  16  18
ENDBRANCH   1  16
TORSDOF 3
ENDMDL
