MODEL 1
REMARK VINA RESULT: -5.771760240      0.000      0.000
REMARK  1 active torsions:
REMARK  status: ('A' for Active; 'I' for Inactive)
REMARK    1  A    between atoms: C3_4  and  N2_5 
ROOT
HETATM    1  N1  UNL     1      15.083  -0.063  17.487  1.00  0.00    -0.192 NA
HETATM    2  C1  UNL     1      15.361   0.856  16.839  1.00  0.00     0.089 C 
HETATM    3  C2  UNL     1      15.717   1.999  16.057  1.00  0.00     0.110 C 
HETATM    4  C3  UNL     1      16.255   1.886  14.842  1.00  0.00     0.096 C 
ENDROOT
BRANCH   4   5
HETATM    5  N2  UNL     1      16.606   3.009  14.070  1.00  0.00    -0.386 N 
HETATM    6  C4  UNL     1      16.954   4.249  14.706  1.00  0.00     0.142 C 
HETATM    7  C5  UNL     1      18.422   4.501  14.377  1.00  0.00     0.144 C 
HETATM    8  N3  UNL     1      18.669   4.312  12.970  1.00  0.00    -0.363 N 
HETATM    9  C6  UNL     1      19.649   4.945  12.150  1.00  0.00     0.073 C 
HETATM   10  C9  UNL     1      17.941   3.420  12.123  1.00  0.00     0.104 C 
HETATM   11  N4  UNL     1      20.788   5.454  12.536  1.00  0.00    -0.389 N 
HETATM   12  C7  UNL     1      19.147   4.927  10.748  1.00  0.00     0.078 C 
ATOM     13  H42 UNL     1      21.131   5.466  13.496  1.00  0.00     0.157 HD
ATOM     14  H41 UNL     1      21.489   5.907  11.949  1.00  0.00     0.157 HD
HETATM   15  C8  UNL     1      17.839   4.191  10.825  1.00  0.00     0.034 C 
HETATM   16  C10 UNL     1      16.629   2.955  12.637  1.00  0.00     0.147 C 
ENDBRANCH   4   5
TORSDOF 1
ENDMDL
MODEL 2
REMARK VINA RESULT: -5.649833101      2.309      5.757
REMARK  1 active torsions:
REMARK  status: ('A' for Active; 'I' for Inactive)
REMARK    1  A    between atoms: C3_4  and  N2_5 
ROOT
HETATM    1  N1  UNL     1      19.388   8.466  14.333  1.00  0.00    -0.192 NA
HETATM    2  C1  UNL     1      18.772   7.492  14.448  1.00  0.00     0.089 C 
HETATM    3  C2  UNL     1      18.006   6.296  14.612  1.00  0.00     0.110 C 
HETATM    4  C3  UNL     1      17.014   5.971  13.783  1.00  0.00     0.096 C 
ENDROOT
BRANCH   4   5
HETATM    5  N2  UNL     1      16.259   4.794  13.942  1.00  0.00    -0.386 N 
HETATM    6  C4  UNL     1      16.341   3.739  12.971  1.00  0.00     0.142 C 
HETATM    7  C5  UNL     1      16.961   2.545  13.689  1.00  0.00     0.144 C 
HETATM    8  N3  UNL     1      16.310   2.317  14.954  1.00  0.00    -0.363 N 
HETATM    9  C6  UNL     1      16.141   1.086  15.654  1.00  0.00     0.073 C 
HETATM   10  C9  UNL     1      15.699   3.330  15.755  1.00  0.00     0.104 C 
HETATM   11  N4  UNL     1      16.890   0.020  15.565  1.00  0.00    -0.389 N 
HETATM   12  C7  UNL     1      14.940   1.222  16.525  1.00  0.00     0.078 C 
ATOM     13  H42 UNL     1      17.712  -0.072  14.969  1.00  0.00     0.157 HD
ATOM     14  H41 UNL     1      16.769  -0.860  16.066  1.00  0.00     0.157 HD
HETATM   15  C8  UNL     1      14.475   2.634  16.308  1.00  0.00     0.034 C 
HETATM   16  C10 UNL     1      15.389   4.609  15.068  1.00  0.00     0.147 C 
ENDBRANCH   4   5
TORSDOF 1
ENDMDL
MODEL 3
REMARK VINA RESULT: -5.622033704      1.276      6.069
REMARK  1 active torsions:
REMARK  status: ('A' for Active; 'I' for Inactive)
REMARK    1  A    between atoms: C3_4  and  N2_5 
ROOT
HETATM    1  N1  UNL     1      20.553   4.814  11.141  1.00  0.00    -0.192 NA
HETATM    2  C1  UNL     1      19.593   4.315  11.555  1.00  0.00     0.089 C 
HETATM    3  C2  UNL     1      18.418   3.679  12.062  1.00  0.00     0.110 C 
HETATM    4  C3  UNL     1      17.901   3.989  13.251  1.00  0.00     0.096 C 
ENDROOT
BRANCH   4   5
HETATM    5  N2  UNL     1      16.744   3.364  13.753  1.00  0.00    -0.386 N 
HETATM    6  C4  UNL     1      16.418   2.020  13.367  1.00  0.00     0.142 C 
HETATM    7  C5  UNL     1      16.513   1.177  14.635  1.00  0.00     0.144 C 
HETATM    8  N3  UNL     1      15.811   1.811  15.722  1.00  0.00    -0.363 N 
HETATM    9  C6  UNL     1      15.166   1.198  16.837  1.00  0.00     0.073 C 
HETATM   10  C9  UNL     1      15.637   3.220  15.873  1.00  0.00     0.104 C 
HETATM   11  N4  UNL     1      15.440   0.034  17.363  1.00  0.00    -0.389 N 
HETATM   12  C7  UNL     1      14.105   2.128  17.314  1.00  0.00     0.078 C 
ATOM     13  H42 UNL     1      16.167  -0.602  17.036  1.00  0.00     0.157 HD
ATOM     14  H41 UNL     1      14.978  -0.404  18.160  1.00  0.00     0.157 HD
HETATM   15  C8  UNL     1      14.232   3.333  16.424  1.00  0.00     0.034 C 
HETATM   16  C10 UNL     1      15.859   4.041  14.656  1.00  0.00     0.147 C 
ENDBRANCH   4   5
TORSDOF 1
ENDMDL
MODEL 4
REMARK VINA RESULT: -5.547599107      1.444      6.045
REMARK  1 active torsions:
REMARK  status: ('A' for Active; 'I' for Inactive)
REMARK    1  A    between atoms: C3_4  and  N2_5 
ROOT
HETATM    1  N1  UNL     1      20.438   6.395  12.727  1.00  0.00    -0.192 NA
HETATM    2  C1  UNL     1      19.487   5.887  13.150  1.00  0.00     0.089 C 
HETATM    3  C2  UNL     1      18.300   5.278  13.664  1.00  0.00     0.110 C 
HETATM    4  C3  UNL     1      17.935   4.041  13.325  1.00  0.00     0.096 C 
ENDROOT
BRANCH   4   5
HETATM    5  N2  UNL     1      16.767   3.439  13.830  1.00  0.00    -0.386 N 
HETATM    6  C4  UNL     1      16.386   2.121  13.406  1.00  0.00     0.142 C 
HETATM    7  C5  UNL     1      16.478   1.231  14.643  1.00  0.00     0.144 C 
HETATM    8  N3  UNL     1      15.821   1.851  15.766  1.00  0.00    -0.363 N 
HETATM    9  C6  UNL     1      15.179   1.222  16.872  1.00  0.00     0.073 C 
HETATM   10  C9  UNL     1      15.700   3.259  15.968  1.00  0.00     0.104 C 
HETATM   11  N4  UNL     1      15.422   0.032  17.352  1.00  0.00    -0.389 N 
HETATM   12  C7  UNL     1      14.161   2.171  17.404  1.00  0.00     0.078 C 
ATOM     13  H42 UNL     1      16.119  -0.617  16.988  1.00  0.00     0.157 HD
ATOM     14  H41 UNL     1      14.962  -0.418  18.144  1.00  0.00     0.157 HD
HETATM   15  C8  UNL     1      14.311   3.400  16.553  1.00  0.00     0.034 C 
HETATM   16  C10 UNL     1      15.926   4.114  14.776  1.00  0.00     0.147 C 
ENDBRANCH   4   5
TORSDOF 1
ENDMDL
MODEL 5
REMARK VINA RESULT: -5.511707201      1.868      2.658
REMARK  1 active torsions:
REMARK  status: ('A' for Active; 'I' for Inactive)
REMARK    1  A    between atoms: C3_4  and  N2_5 
ROOT
HETATM    1  N1  UNL     1      14.893   0.100  17.259  1.00  0.00    -0.192 NA
HETATM    2  C1  UNL     1      15.603   0.839  16.719  1.00  0.00     0.089 C 
HETATM    3  C2  UNL     1      16.497   1.735  16.054  1.00  0.00     0.110 C 
HETATM    4  C3  UNL     1      16.166   2.351  14.918  1.00  0.00     0.096 C 
ENDROOT
BRANCH   4   5
HETATM    5  N2  UNL     1      17.044   3.233  14.261  1.00  0.00    -0.386 N 
HETATM    6  C4  UNL     1      17.209   3.169  12.836  1.00  0.00     0.142 C 
HETATM    7  C5  UNL     1      16.671   4.486  12.284  1.00  0.00     0.144 C 
HETATM    8  N3  UNL     1      17.198   5.602  13.026  1.00  0.00    -0.363 N 
HETATM    9  C6  UNL     1      17.444   6.931  12.571  1.00  0.00     0.073 C 
HETATM   10  C9  UNL     1      17.579   5.565  14.402  1.00  0.00     0.104 C 
HETATM   11  N4  UNL     1      16.854   7.547  11.582  1.00  0.00    -0.389 N 
HETATM   12  C7  UNL     1      18.511   7.515  13.431  1.00  0.00     0.078 C 
ATOM     13  H42 UNL     1      16.123   7.147  10.993  1.00  0.00     0.157 HD
ATOM     14  H41 UNL     1      17.030   8.497  11.256  1.00  0.00     0.157 HD
HETATM   15  C8  UNL     1      18.812   6.441  14.439  1.00  0.00     0.034 C 
HETATM   16  C10 UNL     1      17.797   4.217  14.984  1.00  0.00     0.147 C 
ENDBRANCH   4   5
TORSDOF 1
ENDMDL
