MODEL 1
REMARK VINA RESULT: -5.767016035      0.000      0.000
REMARK  5 active torsions:
REMARK  status: ('A' for Active; 'I' for Inactive)
REMARK    1  A    between atoms: O1_1  and  C1_3 
REMARK    2  A    between atoms: C1_3  and  C2_4 
REMARK    3  A    between atoms: C2_4  and  C3_5 
REMARK    4  A    between atoms: C4_6  and  C5_7 
REMARK    5  A    between atoms: C5_7  and  O2_8 
ROOT
HETATM    1  C5  UNL     1      17.100   3.864  14.714  1.00  0.00     0.151 C 
HETATM    2  C6  UNL     1      17.204   3.440  13.280  1.00  0.00     0.323 C 
HETATM    3  N1  UNL     1      17.748   4.525  12.517  1.00  0.00     0.092 N 
HETATM    4  C7  UNL     1      18.762   5.273  13.225  1.00  0.00     0.273 C 
HETATM    5  C8  UNL     1      18.145   6.029  14.385  1.00  0.00     0.039 C 
HETATM    6  C9  UNL     1      16.808   5.353  14.718  1.00  0.00     0.037 C 
HETATM    7  C10 UNL     1      15.891   5.674  13.542  1.00  0.00     0.039 C 
HETATM    8  C11 UNL     1      16.658   5.477  12.253  1.00  0.00     0.273 C 
ENDROOT
BRANCH   1   9
HETATM    9  C4  UNL     1      16.057   3.120  15.428  1.00  0.00    -0.066 C 
HETATM   10  C3  UNL     1      15.210   2.497  16.033  1.00  0.00    -0.101 C 
BRANCH  10  11
HETATM   11  C2  UNL     1      14.197   1.752  16.785  1.00  0.00     0.120 C 
BRANCH  11  12
HETATM   12  C1  UNL     1      14.828   0.852  17.827  1.00  0.00     0.176 C 
BRANCH  12  13
HETATM   13  O1  UNL     1      15.082  -0.375  17.184  1.00  0.00    -0.400 OA
ATOM     14  H1  UNL     1      16.026  -0.483  17.184  1.00  0.00     0.209 HD
ENDBRANCH  12  13
ENDBRANCH  11  12
ENDBRANCH  10  11
ENDBRANCH   1   9
BRANCH   1  15
HETATM   15  O2  UNL     1      18.346   3.714  15.365  1.00  0.00    -0.375 OA
ATOM     16  H2  UNL     1      18.547   4.489  15.878  1.00  0.00     0.211 HD
ENDBRANCH   1  15
TORSDOF 5
ENDMDL
MODEL 2
REMARK VINA RESULT: -5.457646077      1.347      1.940
REMARK  5 active torsions:
REMARK  status: ('A' for Active; 'I' for Inactive)
REMARK    1  A    between atoms: O1_1  and  C1_3 
REMARK    2  A    between atoms: C1_3  and  C2_4 
REMARK    3  A    between atoms: C2_4  and  C3_5 
REMARK    4  A    between atoms: C4_6  and  C5_7 
REMARK    5  A    between atoms: C5_7  and  O2_8 
ROOT
HETATM    1  C5  UNL     1      15.938   3.764  14.089  1.00  0.00     0.151 C 
HETATM    2  C6  UNL     1      15.513   5.197  13.979  1.00  0.00     0.323 C 
HETATM    3  N1  UNL     1      16.535   5.929  13.290  1.00  0.00     0.092 N 
HETATM    4  C7  UNL     1      17.163   5.177  12.227  1.00  0.00     0.273 C 
HETATM    5  C8  UNL     1      17.976   4.034  12.800  1.00  0.00     0.039 C 
HETATM    6  C9  UNL     1      17.450   3.756  14.215  1.00  0.00     0.037 C 
HETATM    7  C10 UNL     1      17.878   4.962  15.046  1.00  0.00     0.039 C 
HETATM    8  C11 UNL     1      17.604   6.224  14.258  1.00  0.00     0.273 C 
ENDROOT
BRANCH   1   9
HETATM    9  C4  UNL     1      15.310   3.095  15.234  1.00  0.00    -0.066 C 
HETATM   10  C3  UNL     1      14.777   2.532  16.166  1.00  0.00    -0.101 C 
BRANCH  10  11
HETATM   11  C2  UNL     1      14.132   1.832  17.280  1.00  0.00     0.120 C 
BRANCH  11  12
HETATM   12  C1  UNL     1      15.080   0.855  17.945  1.00  0.00     0.176 C 
BRANCH  12  13
HETATM   13  O1  UNL     1      15.027  -0.325  17.179  1.00  0.00    -0.400 OA
ATOM     14  H1  UNL     1      14.261  -0.801  17.478  1.00  0.00     0.209 HD
ENDBRANCH  12  13
ENDBRANCH  11  12
ENDBRANCH  10  11
ENDBRANCH   1   9
BRANCH   1  15
HETATM   15  O2  UNL     1      15.648   3.069  12.893  1.00  0.00    -0.375 OA
ATOM     16  H2  UNL     1      15.987   2.182  12.933  1.00  0.00     0.211 HD
ENDBRANCH   1  15
TORSDOF 5
ENDMDL
MODEL 3
REMARK VINA RESULT: -5.303368143      1.261      1.400
REMARK  5 active torsions:
REMARK  status: ('A' for Active; 'I' for Inactive)
REMARK    1  A    between atoms: O1_1  and  C1_3 
REMARK    2  A    between atoms: C1_3  and  C2_4 
REMARK    3  A    between atoms: C2_4  and  C3_5 
REMARK    4  A    between atoms: C4_6  and  C5_7 
REMARK    5  A    between atoms: C5_7  and  O2_8 
ROOT
HETATM    1  C5  UNL     1      18.054   4.523  14.293  1.00  0.00     0.151 C 
HETATM    2  C6  UNL     1      18.171   4.191  12.836  1.00  0.00     0.323 C 
HETATM    3  N1  UNL     1      18.606   5.361  12.130  1.00  0.00     0.092 N 
HETATM    4  C7  UNL     1      19.562   6.155  12.869  1.00  0.00     0.273 C 
HETATM    5  C8  UNL     1      18.900   6.787  14.077  1.00  0.00     0.039 C 
HETATM    6  C9  UNL     1      17.634   5.978  14.387  1.00  0.00     0.037 C 
HETATM    7  C10 UNL     1      16.673   6.283  13.241  1.00  0.00     0.039 C 
HETATM    8  C11 UNL     1      17.432   6.227  11.934  1.00  0.00     0.273 C 
ENDROOT
BRANCH   1   9
HETATM    9  C4  UNL     1      17.092   3.651  14.975  1.00  0.00    -0.066 C 
HETATM   10  C3  UNL     1      16.307   2.934  15.559  1.00  0.00    -0.101 C 
BRANCH  10  11
HETATM   11  C2  UNL     1      15.358   2.084  16.281  1.00  0.00     0.120 C 
BRANCH  11  12
HETATM   12  C1  UNL     1      15.809   0.637  16.298  1.00  0.00     0.176 C 
BRANCH  12  13
HETATM   13  O1  UNL     1      17.217   0.666  16.295  1.00  0.00    -0.400 OA
ATOM     14  H1  UNL     1      17.496  -0.142  15.881  1.00  0.00     0.209 HD
ENDBRANCH  12  13
ENDBRANCH  11  12
ENDBRANCH  10  11
ENDBRANCH   1   9
BRANCH   1  15
HETATM   15  O2  UNL     1      19.319   4.448  14.920  1.00  0.00    -0.375 OA
ATOM     16  H2  UNL     1      19.979   4.157  14.301  1.00  0.00     0.211 HD
ENDBRANCH   1  15
TORSDOF 5
ENDMDL
MODEL 4
REMARK VINA RESULT: -5.237929245      1.549      2.231
REMARK  5 active torsions:
REMARK  status: ('A' for Active; 'I' for Inactive)
REMARK    1  A    between atoms: O1_1  and  C1_3 
REMARK    2  A    between atoms: C1_3  and  C2_4 
REMARK    3  A    between atoms: C2_4  and  C3_5 
REMARK    4  A    between atoms: C4_6  and  C5_7 
REMARK    5  A    between atoms: C5_7  and  O2_8 
ROOT
HETATM    1  C5  UNL     1      15.782   4.862  14.253  1.00  0.00     0.151 C 
HETATM    2  C6  UNL     1      16.713   5.773  14.996  1.00  0.00     0.323 C 
HETATM    3  N1  UNL     1      17.641   6.343  14.064  1.00  0.00     0.092 N 
HETATM    4  C7  UNL     1      17.052   6.646  12.779  1.00  0.00     0.273 C 
HETATM    5  C8  UNL     1      16.680   5.367  12.056  1.00  0.00     0.039 C 
HETATM    6  C9  UNL     1      16.572   4.255  13.108  1.00  0.00     0.037 C 
HETATM    7  C10 UNL     1      18.003   4.008  13.579  1.00  0.00     0.039 C 
HETATM    8  C11 UNL     1      18.685   5.340  13.800  1.00  0.00     0.273 C 
ENDROOT
BRANCH   1   9
HETATM    9  C4  UNL     1      15.230   3.819  15.123  1.00  0.00    -0.066 C 
HETATM   10  C3  UNL     1      14.764   2.973  15.857  1.00  0.00    -0.101 C 
BRANCH  10  11
HETATM   11  C2  UNL     1      14.183   1.963  16.745  1.00  0.00     0.120 C 
BRANCH  11  12
HETATM   12  C1  UNL     1      15.256   1.166  17.458  1.00  0.00     0.176 C 
BRANCH  12  13
HETATM   13  O1  UNL     1      14.958  -0.190  17.225  1.00  0.00    -0.400 OA
ATOM     14  H1  UNL     1      15.040  -0.627  18.065  1.00  0.00     0.209 HD
ENDBRANCH  12  13
ENDBRANCH  11  12
ENDBRANCH  10  11
ENDBRANCH   1   9
BRANCH   1  15
HETATM   15  O2  UNL     1      14.741   5.605  13.650  1.00  0.00    -0.375 OA
ATOM     16  H2  UNL     1      14.371   5.124  12.919  1.00  0.00     0.211 HD
ENDBRANCH   1  15
TORSDOF 5
ENDMDL
MODEL 5
REMARK VINA RESULT: -5.232227857      4.135      5.315
REMARK  5 active torsions:
REMARK  status: ('A' for Active; 'I' for Inactive)
REMARK    1  A    between atoms: O1_1  and  C1_3 
REMARK    2  A    between atoms: C1_3  and  C2_4 
REMARK    3  A    between atoms: C2_4  and  C3_5 
REMARK    4  A    between atoms: C4_6  and  C5_7 
REMARK    5  A    between atoms: C5_7  and  O2_8 
ROOT
HETATM    1  C5  UNL     1      17.600   2.107  11.029  1.00  0.00     0.151 C 
HETATM    2  C6  UNL     1      17.217   2.533  12.414  1.00  0.00     0.323 C 
HETATM    3  N1  UNL     1      17.358   3.956  12.514  1.00  0.00     0.092 N 
HETATM    4  C7  UNL     1      16.980   4.657  11.307  1.00  0.00     0.273 C 
HETATM    5  C8  UNL     1      17.963   4.356  10.194  1.00  0.00     0.039 C 
HETATM    6  C9  UNL     1      18.688   3.054  10.557  1.00  0.00     0.037 C 
HETATM    7  C10 UNL     1      19.578   3.408  11.745  1.00  0.00     0.039 C 
HETATM    8  C11 UNL     1      18.785   4.251  12.719  1.00  0.00     0.273 C 
ENDROOT
BRANCH   1   9
HETATM    9  C4  UNL     1      18.061   0.715  10.995  1.00  0.00    -0.066 C 
HETATM   10  C3  UNL     1      18.425  -0.442  10.978  1.00  0.00    -0.101 C 
BRANCH  10  11
HETATM   11  C2  UNL     1      18.841  -1.847  10.954  1.00  0.00     0.120 C 
BRANCH  11  12
HETATM   12  C1  UNL     1      17.796  -2.746  11.582  1.00  0.00     0.176 C 
BRANCH  12  13
HETATM   13  O1  UNL     1      18.141  -4.062  11.216  1.00  0.00    -0.400 OA
ATOM     14  H1  UNL     1      17.355  -4.448  10.847  1.00  0.00     0.209 HD
ENDBRANCH  12  13
ENDBRANCH  11  12
ENDBRANCH  10  11
ENDBRANCH   1   9
BRANCH   1  15
HETATM   15  O2  UNL     1      16.518   2.290  10.138  1.00  0.00    -0.375 OA
ATOM     16  H2  UNL     1      15.844   1.639  10.297  1.00  0.00     0.211 HD
ENDBRANCH   1  15
TORSDOF 5
ENDMDL
