MODEL 1
REMARK VINA RESULT: -6.750652793      0.000      0.000
REMARK  1 active torsions:
REMARK  status: ('A' for Active; 'I' for Inactive)
REMARK    1  A    between atoms: N1_1  and  C1_5 
ROOT
HETATM    1  C1  UNL     1      15.286   2.810  16.228  1.00  0.00     0.223 C 
HETATM    2  C2  UNL     1      16.149   2.067  17.264  1.00  0.00     0.096 C 
HETATM    3  C3  UNL     1      16.276   0.611  16.946  1.00  0.00     0.268 C 
HETATM    4  O1  UNL     1      15.761   0.241  15.727  1.00  0.00    -0.329 OA
HETATM    5  C4  UNL     1      17.061   0.371  15.201  1.00  0.00     0.289 C 
HETATM    6  C5  UNL     1      17.112   1.649  14.444  1.00  0.00     0.229 C 
HETATM    7  O2  UNL     1      17.388   2.770  15.227  1.00  0.00    -0.372 OA
HETATM    8  C6  UNL     1      16.212   3.515  15.332  1.00  0.00     0.096 C 
HETATM    9  C7  UNL     1      16.392   4.978  15.656  1.00  0.00     0.023 C 
HETATM   10  C8  UNL     1      17.596   5.297  14.771  1.00  0.00     0.008 C 
HETATM   11  C9  UNL     1      17.110   4.610  13.478  1.00  0.00     0.008 C 
HETATM   12  C10 UNL     1      15.793   4.025  14.010  1.00  0.00     0.023 C 
HETATM   13  C11 UNL     1      15.275   5.271  14.694  1.00  0.00     0.015 C 
HETATM   14  O3  UNL     1      17.592   0.412  16.466  1.00  0.00    -0.329 OA
ENDROOT
BRANCH   1  15
HETATM   15  N1  UNL     1      14.391   3.637  17.000  1.00  0.00    -0.072 N 
ATOM     16  H13 UNL     1      14.208   3.280  17.938  1.00  0.00     0.274 HD
ATOM     17  H12 UNL     1      14.798   4.527  17.288  1.00  0.00     0.274 HD
ATOM     18  H11 UNL     1      13.553   3.736  16.427  1.00  0.00     0.274 HD
ENDBRANCH   1  15
TORSDOF 1
ENDMDL
MODEL 2
REMARK VINA RESULT: -6.633381474      2.391      3.288
REMARK  1 active torsions:
REMARK  status: ('A' for Active; 'I' for Inactive)
REMARK    1  A    between atoms: N1_1  and  C1_5 
ROOT
HETATM    1  C1  UNL     1      16.795   3.079  13.913  1.00  0.00     0.223 C 
HETATM    2  C2  UNL     1      17.731   3.051  15.136  1.00  0.00     0.096 C 
HETATM    3  C3  UNL     1      17.173   2.223  16.249  1.00  0.00     0.268 C 
HETATM    4  O1  UNL     1      16.041   1.515  15.929  1.00  0.00    -0.329 OA
HETATM    5  C4  UNL     1      16.876   0.413  15.658  1.00  0.00     0.289 C 
HETATM    6  C5  UNL     1      16.994   0.294  14.181  1.00  0.00     0.229 C 
HETATM    7  O2  UNL     1      17.985   1.099  13.617  1.00  0.00    -0.372 OA
HETATM    8  C6  UNL     1      17.350   2.137  12.933  1.00  0.00     0.096 C 
HETATM    9  C7  UNL     1      18.160   2.789  11.839  1.00  0.00     0.023 C 
HETATM   10  C8  UNL     1      18.809   1.553  11.220  1.00  0.00     0.008 C 
HETATM   11  C9  UNL     1      17.554   0.659  11.139  1.00  0.00     0.008 C 
HETATM   12  C10 UNL     1      16.551   1.612  11.806  1.00  0.00     0.023 C 
HETATM   13  C11 UNL     1      16.899   2.859  11.023  1.00  0.00     0.015 C 
HETATM   14  O3  UNL     1      17.929   1.028  16.287  1.00  0.00    -0.329 OA
ENDROOT
BRANCH   1  15
HETATM   15  N1  UNL     1      16.737   4.462  13.509  1.00  0.00    -0.072 N 
ATOM     16  H13 UNL     1      16.173   4.623  12.674  1.00  0.00     0.274 HD
ATOM     17  H12 UNL     1      16.191   5.052  14.137  1.00  0.00     0.274 HD
ATOM     18  H11 UNL     1      17.709   4.756  13.411  1.00  0.00     0.274 HD
ENDBRANCH   1  15
TORSDOF 1
ENDMDL
MODEL 3
REMARK VINA RESULT: -6.360760560      1.679      2.681
REMARK  1 active torsions:
REMARK  status: ('A' for Active; 'I' for Inactive)
REMARK    1  A    between atoms: N1_1  and  C1_5 
ROOT
HETATM    1  C1  UNL     1      17.748   2.503  14.191  1.00  0.00     0.223 C 
HETATM    2  C2  UNL     1      16.958   1.203  13.953  1.00  0.00     0.096 C 
HETATM    3  C3  UNL     1      17.142   0.224  15.068  1.00  0.00     0.268 C 
HETATM    4  O1  UNL     1      17.822   0.713  16.157  1.00  0.00    -0.329 OA
HETATM    5  C4  UNL     1      16.572   0.996  16.740  1.00  0.00     0.289 C 
HETATM    6  C5  UNL     1      16.341   2.459  16.616  1.00  0.00     0.229 C 
HETATM    7  O2  UNL     1      15.788   2.852  15.398  1.00  0.00    -0.372 OA
HETATM    8  C6  UNL     1      16.785   3.503  14.669  1.00  0.00     0.096 C 
HETATM    9  C7  UNL     1      16.299   4.453  13.601  1.00  0.00     0.023 C 
HETATM   10  C8  UNL     1      15.138   5.111  14.343  1.00  0.00     0.008 C 
HETATM   11  C9  UNL     1      15.856   5.390  15.680  1.00  0.00     0.008 C 
HETATM   12  C10 UNL     1      17.210   4.743  15.350  1.00  0.00     0.023 C 
HETATM   13  C11 UNL     1      17.418   5.378  13.993  1.00  0.00     0.015 C 
HETATM   14  O3  UNL     1      15.936   0.217  15.807  1.00  0.00    -0.329 OA
ENDROOT
BRANCH   1  15
HETATM   15  N1  UNL     1      18.397   2.791  12.935  1.00  0.00    -0.072 N 
ATOM     16  H13 UNL     1      18.449   1.989  12.306  1.00  0.00     0.274 HD
ATOM     17  H12 UNL     1      17.851   3.392  12.318  1.00  0.00     0.274 HD
ATOM     18  H11 UNL     1      19.308   3.177  13.184  1.00  0.00     0.274 HD
ENDBRANCH   1  15
TORSDOF 1
ENDMDL
MODEL 4
REMARK VINA RESULT: -6.306609598      2.688      3.885
REMARK  1 active torsions:
REMARK  status: ('A' for Active; 'I' for Inactive)
REMARK    1  A    between atoms: N1_1  and  C1_5 
ROOT
HETATM    1  C1  UNL     1      18.084   3.918  12.613  1.00  0.00     0.223 C 
HETATM    2  C2  UNL     1      17.409   3.329  11.361  1.00  0.00     0.096 C 
HETATM    3  C3  UNL     1      17.699   1.870  11.202  1.00  0.00     0.268 C 
HETATM    4  O1  UNL     1      18.352   1.295  12.264  1.00  0.00    -0.329 OA
HETATM    5  C4  UNL     1      17.092   0.892  12.748  1.00  0.00     0.289 C 
HETATM    6  C5  UNL     1      16.730   1.804  13.864  1.00  0.00     0.229 C 
HETATM    7  O2  UNL     1      16.122   2.993  13.461  1.00  0.00    -0.372 OA
HETATM    8  C6  UNL     1      17.043   4.026  13.645  1.00  0.00     0.096 C 
HETATM    9  C7  UNL     1      16.456   5.408  13.788  1.00  0.00     0.023 C 
HETATM   10  C8  UNL     1      15.254   5.092  14.675  1.00  0.00     0.008 C 
HETATM   11  C9  UNL     1      15.969   4.196  15.708  1.00  0.00     0.008 C 
HETATM   12  C10 UNL     1      17.369   4.191  15.076  1.00  0.00     0.023 C 
HETATM   13  C11 UNL     1      17.494   5.680  14.840  1.00  0.00     0.015 C 
HETATM   14  O3  UNL     1      16.512   1.180  11.538  1.00  0.00    -0.329 OA
ENDROOT
BRANCH   1  15
HETATM   15  N1  UNL     1      18.682   5.156  12.178  1.00  0.00    -0.072 N 
ATOM     16  H13 UNL     1      18.078   5.715  11.574  1.00  0.00     0.274 HD
ATOM     17  H12 UNL     1      18.781   5.848  12.921  1.00  0.00     0.274 HD
ATOM     18  H11 UNL     1      19.566   4.891  11.743  1.00  0.00     0.274 HD
ENDBRANCH   1  15
TORSDOF 1
ENDMDL
MODEL 5
REMARK VINA RESULT: -6.249478944      1.629      3.687
REMARK  1 active torsions:
REMARK  status: ('A' for Active; 'I' for Inactive)
REMARK    1  A    between atoms: N1_1  and  C1_5 
ROOT
HETATM    1  C1  UNL     1      16.189   3.152  15.284  1.00  0.00     0.223 C 
HETATM    2  C2  UNL     1      15.729   2.924  13.832  1.00  0.00     0.096 C 
HETATM    3  C3  UNL     1      16.833   2.395  12.972  1.00  0.00     0.268 C 
HETATM    4  O1  UNL     1      17.978   2.054  13.650  1.00  0.00    -0.329 OA
HETATM    5  C4  UNL     1      17.498   0.730  13.679  1.00  0.00     0.289 C 
HETATM    6  C5  UNL     1      16.980   0.472  15.048  1.00  0.00     0.229 C 
HETATM    7  O2  UNL     1      15.663   0.884  15.252  1.00  0.00    -0.372 OA
HETATM    8  C6  UNL     1      15.693   2.015  16.070  1.00  0.00     0.096 C 
HETATM    9  C7  UNL     1      14.425   2.301  16.837  1.00  0.00     0.023 C 
HETATM   10  C8  UNL     1      14.049   0.882  17.259  1.00  0.00     0.008 C 
HETATM   11  C9  UNL     1      15.436   0.421  17.753  1.00  0.00     0.008 C 
HETATM   12  C10 UNL     1      16.235   1.685  17.404  1.00  0.00     0.023 C 
HETATM   13  C11 UNL     1      15.287   2.701  18.003  1.00  0.00     0.015 C 
HETATM   14  O3  UNL     1      16.548   1.031  12.736  1.00  0.00    -0.329 OA
ENDROOT
BRANCH   1  15
HETATM   15  N1  UNL     1      15.677   4.451  15.646  1.00  0.00    -0.072 N 
ATOM     16  H13 UNL     1      15.039   4.435  16.442  1.00  0.00     0.274 HD
ATOM     17  H12 UNL     1      16.375   5.066  16.064  1.00  0.00     0.274 HD
ATOM     18  H11 UNL     1      15.259   4.824  14.793  1.00  0.00     0.274 HD
ENDBRANCH   1  15
TORSDOF 1
ENDMDL
