MODEL 1
REMARK VINA RESULT: -5.432158682      0.000      0.000
REMARK  2 active torsions:
REMARK  status: ('A' for Active; 'I' for Inactive)
REMARK    1  A    between atoms: N1_2  and  C1_3 
REMARK    2  A    between atoms: C8_10  and  O2_11 
ROOT
HETATM    1  O1  UNL     1      17.823   2.889  15.741  1.00  0.00    -0.061 OA
HETATM    2  N1  UNL     1      16.701   3.022  15.006  1.00  0.00     0.052 N 
HETATM    3  C7  UNL     1      16.323   4.360  14.630  1.00  0.00     0.386 A 
HETATM    4  C8  UNL     1      16.933   3.381  13.633  1.00  0.00     0.424 A 
ENDROOT
BRANCH   2   5
HETATM    5  C1  UNL     1      15.562   2.151  15.319  1.00  0.00     0.258 C 
HETATM    6  C2  UNL     1      15.942   0.952  16.100  1.00  0.00     0.042 C 
HETATM    7  C3  UNL     1      15.160   0.712  17.340  1.00  0.00     0.003 C 
HETATM    8  C4  UNL     1      14.807   1.908  18.136  1.00  0.00     0.000 C 
HETATM    9  C5  UNL     1      14.821   3.201  17.421  1.00  0.00     0.003 C 
HETATM   10  C6  UNL     1      14.516   3.016  15.964  1.00  0.00     0.042 C 
ENDBRANCH   2   5
BRANCH   4  11
HETATM   11  O2  UNL     1      16.066   2.898  12.639  1.00  0.00    -0.362 OA
ATOM     12  H2  UNL     1      16.370   2.222  12.046  1.00  0.00     0.212 HD
ENDBRANCH   4  11
TORSDOF 2
ENDMDL
MODEL 2
REMARK VINA RESULT: -5.392646161      1.749      3.691
REMARK  2 active torsions:
REMARK  status: ('A' for Active; 'I' for Inactive)
REMARK    1  A    between atoms: N1_2  and  C1_3 
REMARK    2  A    between atoms: C8_10  and  O2_11 
ROOT
HETATM    1  O1  UNL     1      17.738   2.138  16.223  1.00  0.00    -0.061 OA
HETATM    2  N1  UNL     1      16.627   1.636  15.649  1.00  0.00     0.052 N 
HETATM    3  C7  UNL     1      16.710   0.293  15.136  1.00  0.00     0.386 A 
HETATM    4  C8  UNL     1      15.967   0.622  16.426  1.00  0.00     0.424 A 
ENDROOT
BRANCH   2   5
HETATM    5  C1  UNL     1      15.807   2.534  14.827  1.00  0.00     0.258 C 
HETATM    6  C2  UNL     1      15.242   3.670  15.591  1.00  0.00     0.042 C 
HETATM    7  C3  UNL     1      15.480   5.019  15.015  1.00  0.00     0.003 C 
HETATM    8  C4  UNL     1      16.812   5.250  14.414  1.00  0.00     0.000 C 
HETATM    9  C5  UNL     1      17.569   4.049  14.007  1.00  0.00     0.003 C 
HETATM   10  C6  UNL     1      16.643   2.926  13.642  1.00  0.00     0.042 C 
ENDBRANCH   2   5
BRANCH   4  11
HETATM   11  O2  UNL     1      14.567   0.517  16.372  1.00  0.00    -0.362 OA
ATOM     12  H2  UNL     1      14.128  -0.120  16.923  1.00  0.00     0.212 HD
ENDBRANCH   4  11
TORSDOF 2
ENDMDL
MODEL 3
REMARK VINA RESULT: -5.197997119      2.417      2.823
REMARK  2 active torsions:
REMARK  status: ('A' for Active; 'I' for Inactive)
REMARK    1  A    between atoms: N1_2  and  C1_3 
REMARK    2  A    between atoms: C8_10  and  O2_11 
ROOT
HETATM    1  O1  UNL     1      18.430   2.015  12.337  1.00  0.00    -0.061 OA
HETATM    2  N1  UNL     1      17.131   2.367  12.257  1.00  0.00     0.052 N 
HETATM    3  C7  UNL     1      16.836   3.626  11.621  1.00  0.00     0.386 A 
HETATM    4  C8  UNL     1      16.577   2.290  10.933  1.00  0.00     0.424 A 
ENDROOT
BRANCH   2   5
HETATM    5  C1  UNL     1      16.262   2.063  13.399  1.00  0.00     0.258 C 
HETATM    6  C2  UNL     1      16.706   0.880  14.172  1.00  0.00     0.042 C 
HETATM    7  C3  UNL     1      16.848   1.080  15.637  1.00  0.00     0.003 C 
HETATM    8  C4  UNL     1      17.413   2.377  16.071  1.00  0.00     0.000 C 
HETATM    9  C5  UNL     1      17.323   3.490  15.104  1.00  0.00     0.003 C 
HETATM   10  C6  UNL     1      16.136   3.328  14.201  1.00  0.00     0.042 C 
ENDBRANCH   2   5
BRANCH   4  11
HETATM   11  O2  UNL     1      15.228   1.933  10.771  1.00  0.00    -0.362 OA
ATOM     12  H2  UNL     1      14.841   1.961   9.904  1.00  0.00     0.212 HD
ENDBRANCH   4  11
TORSDOF 2
ENDMDL
MODEL 4
REMARK VINA RESULT: -5.154794185      2.016      3.842
REMARK  2 active torsions:
REMARK  status: ('A' for Active; 'I' for Inactive)
REMARK    1  A    between atoms: N1_2  and  C1_3 
REMARK    2  A    between atoms: C8_10  and  O2_11 
ROOT
HETATM    1  O1  UNL     1      15.810   0.607  15.135  1.00  0.00    -0.061 OA
HETATM    2  N1  UNL     1      15.479   1.294  16.247  1.00  0.00     0.052 N 
HETATM    3  C7  UNL     1      14.108   1.208  16.681  1.00  0.00     0.386 A 
HETATM    4  C8  UNL     1      15.233   0.470  17.399  1.00  0.00     0.424 A 
ENDROOT
BRANCH   2   5
HETATM    5  C1  UNL     1      16.081   2.617  16.447  1.00  0.00     0.258 C 
HETATM    6  C2  UNL     1      17.303   2.829  15.638  1.00  0.00     0.042 C 
HETATM    7  C3  UNL     1      17.329   4.068  14.817  1.00  0.00     0.003 C 
HETATM    8  C4  UNL     1      16.056   4.450  14.167  1.00  0.00     0.000 C 
HETATM    9  C5  UNL     1      14.822   3.891  14.756  1.00  0.00     0.003 C 
HETATM   10  C6  UNL     1      14.994   3.629  16.223  1.00  0.00     0.042 C 
ENDBRANCH   2   5
BRANCH   4  11
HETATM   11  O2  UNL     1      15.568   0.953  18.675  1.00  0.00    -0.362 OA
ATOM     12  H2  UNL     1      15.371   0.425  19.439  1.00  0.00     0.212 HD
ENDBRANCH   4  11
TORSDOF 2
ENDMDL
MODEL 5
REMARK VINA RESULT: -5.073821349      1.659      2.048
REMARK  2 active torsions:
REMARK  status: ('A' for Active; 'I' for Inactive)
REMARK    1  A    between atoms: N1_2  and  C1_3 
REMARK    2  A    between atoms: C8_10  and  O2_11 
ROOT
HETATM    1  O1  UNL     1      17.734   2.091  16.249  1.00  0.00    -0.061 OA
HETATM    2  N1  UNL     1      16.728   1.533  15.547  1.00  0.00     0.052 N 
HETATM    3  C7  UNL     1      16.599   1.929  14.167  1.00  0.00     0.386 A 
HETATM    4  C8  UNL     1      17.153   0.567  14.570  1.00  0.00     0.424 A 
ENDROOT
BRANCH   2   5
HETATM    5  C1  UNL     1      15.444   1.325  16.225  1.00  0.00     0.258 C 
HETATM    6  C2  UNL     1      15.558   1.324  17.701  1.00  0.00     0.042 C 
HETATM    7  C3  UNL     1      14.631   2.236  18.422  1.00  0.00     0.003 C 
HETATM    8  C4  UNL     1      14.391   3.556  17.798  1.00  0.00     0.000 C 
HETATM    9  C5  UNL     1      14.673   3.661  16.352  1.00  0.00     0.003 C 
HETATM   10  C6  UNL     1      14.486   2.339  15.667  1.00  0.00     0.042 C 
ENDBRANCH   2   5
BRANCH   4  11
HETATM   11  O2  UNL     1      16.331  -0.537  14.291  1.00  0.00    -0.362 OA
ATOM     12  H2  UNL     1      16.021  -0.673  13.404  1.00  0.00     0.212 HD
ENDBRANCH   4  11
TORSDOF 2
ENDMDL
