MODEL 1
REMARK VINA RESULT: -6.883751302      0.000      0.000
REMARK  4 active torsions:
REMARK  status: ('A' for Active; 'I' for Inactive)
REMARK    1  A    between atoms: O1_2  and  C2_3 
REMARK    2  A    between atoms: C4_5  and  C5_6 
REMARK    3  A    between atoms: N1_15  and  C11_16 
REMARK    4  A    between atoms: C14_19  and  O2_20 
ROOT
HETATM    1  C11 UNL     1      25.924  -0.201  -0.316  1.00  0.00     0.059 A 
HETATM    2  C12 UNL     1      24.710  -0.665   0.165  1.00  0.00     0.034 A 
HETATM    3  C13 UNL     1      24.544  -1.046   1.474  1.00  0.00     0.042 A 
HETATM    4  C14 UNL     1      25.592  -0.974   2.342  1.00  0.00     0.101 A 
HETATM    5  C16 UNL     1      26.865  -0.510   1.925  1.00  0.00     0.103 A 
HETATM    6  O3  UNL     1      27.854  -0.440   2.725  1.00  0.00    -0.353 OA
HETATM    7  C17 UNL     1      28.917  -0.327   3.437  1.00  0.00     0.210 C 
HETATM    8  C18 UNL     1      26.956  -0.140   0.580  1.00  0.00     0.071 A 
ENDROOT
BRANCH   4   9
HETATM    9  O2  UNL     1      25.519  -1.337   3.687  1.00  0.00    -0.353 OA
HETATM   10  C15 UNL     1      25.593  -2.737   3.959  1.00  0.00     0.210 C 
ENDBRANCH   4   9
BRANCH   1  11
HETATM   11  N1  UNL     1      26.121   0.245  -1.658  1.00  0.00    -0.254 N 
HETATM   12  C4  UNL     1      26.538  -0.413  -2.723  1.00  0.00     0.074 A 
HETATM   13  C3  UNL     1      26.499   0.484  -3.806  1.00  0.00     0.089 A 
HETATM   14  C2  UNL     1      26.034   1.703  -3.307  1.00  0.00     0.159 A 
HETATM   15  N2  UNL     1      25.819   1.525  -2.020  1.00  0.00    -0.273 N 
ATOM     16  H2  UNL     1      25.475   2.243  -1.383  1.00  0.00     0.189 HD
BRANCH  12  17
HETATM   17  C5  UNL     1      26.908  -1.835  -2.865  1.00  0.00     0.037 A 
HETATM   18  C6  UNL     1      26.035  -2.874  -2.621  1.00  0.00     0.059 A 
HETATM   19  C7  UNL     1      26.366  -4.218  -2.837  1.00  0.00     0.120 A 
HETATM   20  F1  UNL     1      25.478  -5.190  -2.586  1.00  0.00    -0.206 F 
HETATM   21  C8  UNL     1      27.611  -4.537  -3.309  1.00  0.00     0.087 A 
HETATM   22  C9  UNL     1      28.517  -3.552  -3.567  1.00  0.00     0.158 A 
HETATM   23  F2  UNL     1      29.753  -3.866  -4.037  1.00  0.00    -0.203 F 
HETATM   24  C10 UNL     1      28.154  -2.231  -3.344  1.00  0.00     0.167 A 
HETATM   25  F3  UNL     1      29.065  -1.288  -3.640  1.00  0.00    -0.202 F 
ENDBRANCH  12  17
BRANCH  14  26
HETATM   26  O1  UNL     1      25.870   2.819  -4.114  1.00  0.00    -0.340 OA
HETATM   27  C1  UNL     1      24.802   3.725  -3.961  1.00  0.00     0.211 C 
ENDBRANCH  14  26
ENDBRANCH   1  11
TORSDOF 4
ENDMDL
MODEL 2
REMARK VINA RESULT: -6.838694956      3.533      6.383
REMARK  4 active torsions:
REMARK  status: ('A' for Active; 'I' for Inactive)
REMARK    1  A    between atoms: O1_2  and  C2_3 
REMARK    2  A    between atoms: C4_5  and  C5_6 
REMARK    3  A    between atoms: N1_15  and  C11_16 
REMARK    4  A    between atoms: C14_19  and  O2_20 
ROOT
HETATM    1  C11 UNL     1      27.735   0.739  -2.411  1.00  0.00     0.059 A 
HETATM    2  C12 UNL     1      27.283   1.270  -3.609  1.00  0.00     0.034 A 
HETATM    3  C13 UNL     1      27.293   0.545  -4.775  1.00  0.00     0.042 A 
HETATM    4  C14 UNL     1      27.757  -0.736  -4.777  1.00  0.00     0.101 A 
HETATM    5  C16 UNL     1      28.237  -1.349  -3.592  1.00  0.00     0.103 A 
HETATM    6  O3  UNL     1      28.675  -2.544  -3.579  1.00  0.00    -0.353 OA
HETATM    7  C17 UNL     1      29.140  -3.735  -3.445  1.00  0.00     0.210 C 
HETATM    8  C18 UNL     1      28.195  -0.549  -2.445  1.00  0.00     0.071 A 
ENDROOT
BRANCH   4   9
HETATM    9  O2  UNL     1      27.806  -1.548  -5.910  1.00  0.00    -0.353 OA
HETATM   10  C15 UNL     1      27.783  -0.869  -7.166  1.00  0.00     0.210 C 
ENDBRANCH   4   9
BRANCH   1  11
HETATM   11  N1  UNL     1      27.698   1.448  -1.172  1.00  0.00    -0.254 N 
HETATM   12  C4  UNL     1      26.748   1.520  -0.259  1.00  0.00     0.074 A 
HETATM   13  C3  UNL     1      27.245   2.309   0.794  1.00  0.00     0.089 A 
HETATM   14  C2  UNL     1      28.541   2.693   0.438  1.00  0.00     0.159 A 
HETATM   15  N2  UNL     1      28.779   2.161  -0.743  1.00  0.00    -0.273 N 
ATOM     16  H2  UNL     1      29.649   2.267  -1.264  1.00  0.00     0.189 HD
BRANCH  12  17
HETATM   17  C5  UNL     1      25.428   0.862  -0.221  1.00  0.00     0.037 A 
HETATM   18  C6  UNL     1      25.116  -0.164   0.644  1.00  0.00     0.059 A 
HETATM   19  C7  UNL     1      23.836  -0.729   0.733  1.00  0.00     0.120 A 
HETATM   20  F1  UNL     1      23.587  -1.725   1.594  1.00  0.00    -0.206 F 
HETATM   21  C8  UNL     1      22.835  -0.255  -0.071  1.00  0.00     0.087 A 
HETATM   22  C9  UNL     1      23.084   0.758  -0.948  1.00  0.00     0.158 A 
HETATM   23  F2  UNL     1      22.091   1.232  -1.746  1.00  0.00    -0.203 F 
HETATM   24  C10 UNL     1      24.363   1.295  -1.007  1.00  0.00     0.167 A 
HETATM   25  F3  UNL     1      24.559   2.314  -1.862  1.00  0.00    -0.202 F 
ENDBRANCH  12  17
BRANCH  14  26
HETATM   26  O1  UNL     1      29.330   3.483   1.260  1.00  0.00    -0.340 OA
HETATM   27  C1  UNL     1      29.742   3.080   2.546  1.00  0.00     0.211 C 
ENDBRANCH  14  26
ENDBRANCH   1  11
TORSDOF 4
ENDMDL
MODEL 3
REMARK VINA RESULT: -6.787997482      3.506      6.315
REMARK  4 active torsions:
REMARK  status: ('A' for Active; 'I' for Inactive)
REMARK    1  A    between atoms: O1_2  and  C2_3 
REMARK    2  A    between atoms: C4_5  and  C5_6 
REMARK    3  A    between atoms: N1_15  and  C11_16 
REMARK    4  A    between atoms: C14_19  and  O2_20 
ROOT
HETATM    1  C11 UNL     1      27.742   0.088  -1.985  1.00  0.00     0.059 A 
HETATM    2  C12 UNL     1      27.933  -1.227  -1.587  1.00  0.00     0.034 A 
HETATM    3  C13 UNL     1      28.080  -2.247  -2.493  1.00  0.00     0.042 A 
HETATM    4  C14 UNL     1      28.041  -1.982  -3.830  1.00  0.00     0.101 A 
HETATM    5  C16 UNL     1      27.849  -0.664  -4.315  1.00  0.00     0.103 A 
HETATM    6  O3  UNL     1      27.809  -0.402  -5.561  1.00  0.00    -0.353 OA
HETATM    7  C17 UNL     1      27.749  -0.020  -6.786  1.00  0.00     0.210 C 
HETATM    8  C18 UNL     1      27.707   0.321  -3.333  1.00  0.00     0.071 A 
ENDROOT
BRANCH   4   9
HETATM    9  O2  UNL     1      28.182  -2.951  -4.823  1.00  0.00    -0.353 OA
HETATM   10  C15 UNL     1      27.071  -3.831  -4.998  1.00  0.00     0.210 C 
ENDBRANCH   4   9
BRANCH   1  11
HETATM   11  N1  UNL     1      27.629   1.179  -1.072  1.00  0.00    -0.254 N 
HETATM   12  C4  UNL     1      26.590   1.608  -0.380  1.00  0.00     0.074 A 
HETATM   13  C3  UNL     1      27.034   2.684   0.409  1.00  0.00     0.089 A 
HETATM   14  C2  UNL     1      28.393   2.856   0.134  1.00  0.00     0.159 A 
HETATM   15  N2  UNL     1      28.715   1.940  -0.756  1.00  0.00    -0.273 N 
ATOM     16  H2  UNL     1      29.647   1.817  -1.153  1.00  0.00     0.189 HD
BRANCH  12  17
HETATM   17  C5  UNL     1      25.217   1.071  -0.314  1.00  0.00     0.037 A 
HETATM   18  C6  UNL     1      24.185   1.529  -1.105  1.00  0.00     0.059 A 
HETATM   19  C7  UNL     1      22.904   0.959  -1.097  1.00  0.00     0.120 A 
HETATM   20  F1  UNL     1      21.936   1.443  -1.889  1.00  0.00    -0.206 F 
HETATM   21  C8  UNL     1      22.644  -0.101  -0.271  1.00  0.00     0.087 A 
HETATM   22  C9  UNL     1      23.626  -0.596   0.534  1.00  0.00     0.158 A 
HETATM   23  F2  UNL     1      23.371  -1.650   1.354  1.00  0.00    -0.203 F 
HETATM   24  C10 UNL     1      24.883  -0.009   0.499  1.00  0.00     0.167 A 
HETATM   25  F3  UNL     1      25.832  -0.547   1.285  1.00  0.00    -0.202 F 
ENDBRANCH  12  17
BRANCH  14  26
HETATM   26  O1  UNL     1      29.154   3.839   0.749  1.00  0.00    -0.340 OA
HETATM   27  C1  UNL     1      30.315   3.555   1.496  1.00  0.00     0.211 C 
ENDBRANCH  14  26
ENDBRANCH   1  11
TORSDOF 4
ENDMDL
MODEL 4
REMARK VINA RESULT: -6.780076877      0.614      1.838
REMARK  4 active torsions:
REMARK  status: ('A' for Active; 'I' for Inactive)
REMARK    1  A    between atoms: O1_2  and  C2_3 
REMARK    2  A    between atoms: C4_5  and  C5_6 
REMARK    3  A    between atoms: N1_15  and  C11_16 
REMARK    4  A    between atoms: C14_19  and  O2_20 
ROOT
HETATM    1  C11 UNL     1      26.170  -0.200  -0.400  1.00  0.00     0.059 A 
HETATM    2  C12 UNL     1      24.989  -0.731   0.097  1.00  0.00     0.034 A 
HETATM    3  C13 UNL     1      24.863  -1.124   1.406  1.00  0.00     0.042 A 
HETATM    4  C14 UNL     1      25.918  -0.997   2.260  1.00  0.00     0.101 A 
HETATM    5  C16 UNL     1      27.158  -0.464   1.827  1.00  0.00     0.103 A 
HETATM    6  O3  UNL     1      28.153  -0.341   2.613  1.00  0.00    -0.353 OA
HETATM    7  C17 UNL     1      29.219  -0.173   3.310  1.00  0.00     0.210 C 
HETATM    8  C18 UNL     1      27.210  -0.085   0.481  1.00  0.00     0.071 A 
ENDROOT
BRANCH   4   9
HETATM    9  O2  UNL     1      25.884  -1.367   3.604  1.00  0.00    -0.353 OA
HETATM   10  C15 UNL     1      25.837  -2.771   3.864  1.00  0.00     0.210 C 
ENDBRANCH   4   9
BRANCH   1  11
HETATM   11  N1  UNL     1      26.323   0.260  -1.743  1.00  0.00    -0.254 N 
HETATM   12  C4  UNL     1      26.737  -0.379  -2.821  1.00  0.00     0.074 A 
HETATM   13  C3  UNL     1      26.646   0.522  -3.897  1.00  0.00     0.089 A 
HETATM   14  C2  UNL     1      26.153   1.723  -3.380  1.00  0.00     0.159 A 
HETATM   15  N2  UNL     1      25.972   1.531  -2.090  1.00  0.00    -0.273 N 
ATOM     16  H2  UNL     1      25.619   2.234  -1.441  1.00  0.00     0.189 HD
BRANCH  12  17
HETATM   17  C5  UNL     1      27.150  -1.787  -2.979  1.00  0.00     0.037 A 
HETATM   18  C6  UNL     1      28.444  -2.172  -3.259  1.00  0.00     0.059 A 
HETATM   19  C7  UNL     1      28.846  -3.513  -3.326  1.00  0.00     0.120 A 
HETATM   20  F1  UNL     1      30.119  -3.831  -3.599  1.00  0.00    -0.206 F 
HETATM   21  C8  UNL     1      27.926  -4.504  -3.110  1.00  0.00     0.087 A 
HETATM   22  C9  UNL     1      26.631  -4.183  -2.830  1.00  0.00     0.158 A 
HETATM   23  F2  UNL     1      25.715  -5.164  -2.614  1.00  0.00    -0.203 F 
HETATM   24  C10 UNL     1      26.268  -2.845  -2.770  1.00  0.00     0.167 A 
HETATM   25  F3  UNL     1      24.989  -2.571  -2.461  1.00  0.00    -0.202 F 
ENDBRANCH  12  17
BRANCH  14  26
HETATM   26  O1  UNL     1      25.936   2.837  -4.177  1.00  0.00    -0.340 OA
HETATM   27  C1  UNL     1      24.866   3.731  -3.969  1.00  0.00     0.211 C 
ENDBRANCH  14  26
ENDBRANCH   1  11
TORSDOF 4
ENDMDL
MODEL 5
REMARK VINA RESULT: -6.731710903      3.614      6.363
REMARK  4 active torsions:
REMARK  status: ('A' for Active; 'I' for Inactive)
REMARK    1  A    between atoms: O1_2  and  C2_3 
REMARK    2  A    between atoms: C4_5  and  C5_6 
REMARK    3  A    between atoms: N1_15  and  C11_16 
REMARK    4  A    between atoms: C14_19  and  O2_20 
ROOT
HETATM    1  C11 UNL     1      27.732  -0.016  -2.125  1.00  0.00     0.059 A 
HETATM    2  C12 UNL     1      27.959  -1.330  -1.745  1.00  0.00     0.034 A 
HETATM    3  C13 UNL     1      28.115  -2.336  -2.666  1.00  0.00     0.042 A 
HETATM    4  C14 UNL     1      28.049  -2.057  -3.998  1.00  0.00     0.101 A 
HETATM    5  C16 UNL     1      27.819  -0.738  -4.465  1.00  0.00     0.103 A 
HETATM    6  O3  UNL     1      27.753  -0.463  -5.707  1.00  0.00    -0.353 OA
HETATM    7  C17 UNL     1      27.665  -0.069  -6.926  1.00  0.00     0.210 C 
HETATM    8  C18 UNL     1      27.671   0.232  -3.469  1.00  0.00     0.071 A 
ENDROOT
BRANCH   4   9
HETATM    9  O2  UNL     1      28.195  -3.011  -5.005  1.00  0.00    -0.353 OA
HETATM   10  C15 UNL     1      27.127  -3.951  -5.134  1.00  0.00     0.210 C 
ENDBRANCH   4   9
BRANCH   1  11
HETATM   11  N1  UNL     1      27.609   1.063  -1.197  1.00  0.00    -0.254 N 
HETATM   12  C4  UNL     1      26.564   1.478  -0.507  1.00  0.00     0.074 A 
HETATM   13  C3  UNL     1      27.000   2.544   0.301  1.00  0.00     0.089 A 
HETATM   14  C2  UNL     1      28.360   2.724   0.038  1.00  0.00     0.159 A 
HETATM   15  N2  UNL     1      28.691   1.822  -0.863  1.00  0.00    -0.273 N 
ATOM     16  H2  UNL     1      29.626   1.708  -1.255  1.00  0.00     0.189 HD
BRANCH  12  17
HETATM   17  C5  UNL     1      25.193   0.936  -0.458  1.00  0.00     0.037 A 
HETATM   18  C6  UNL     1      24.815  -0.096   0.374  1.00  0.00     0.059 A 
HETATM   19  C7  UNL     1      23.493  -0.552   0.477  1.00  0.00     0.120 A 
HETATM   20  F1  UNL     1      23.179  -1.558   1.305  1.00  0.00    -0.206 F 
HETATM   21  C8  UNL     1      22.517   0.040  -0.279  1.00  0.00     0.087 A 
HETATM   22  C9  UNL     1      22.832   1.065  -1.121  1.00  0.00     0.158 A 
HETATM   23  F2  UNL     1      21.864   1.656  -1.871  1.00  0.00    -0.203 F 
HETATM   24  C10 UNL     1      24.150   1.491  -1.195  1.00  0.00     0.167 A 
HETATM   25  F3  UNL     1      24.414   2.525  -2.014  1.00  0.00    -0.202 F 
ENDBRANCH  12  17
BRANCH  14  26
HETATM   26  O1  UNL     1      29.113   3.701   0.671  1.00  0.00    -0.340 OA
HETATM   27  C1  UNL     1      30.000   3.419   1.730  1.00  0.00     0.211 C 
ENDBRANCH  14  26
ENDBRANCH   1  11
TORSDOF 4
ENDMDL
