MODEL 1
REMARK VINA RESULT: -8.320532181      0.000      0.000
REMARK  8 active torsions:
REMARK  status: ('A' for Active; 'I' for Inactive)
REMARK    1  A    between atoms: C1_2  and  C2_3 
REMARK       I    between atoms: C1_2  and  N2_19 
REMARK    2  A    between atoms: C2_3  and  O2_4 
REMARK    3  A    between atoms: O2_4  and  C3_5 
REMARK    4  A    between atoms: C3_5  and  C4_7 
REMARK    5  A    between atoms: C4_7  and  S1_8 
REMARK    6  A    between atoms: S1_8  and  C5_9 
REMARK    7  A    between atoms: C9_14  and  N1_15 
REMARK    8  A    between atoms: N2_19  and  C11_21 
ROOT
HETATM    1  O2  UNL     1      43.841 -11.963  33.914  1.00  0.00    -0.311 OA
ENDROOT
BRANCH   1   2
HETATM    2  C2  UNL     1      43.534 -13.316  34.095  1.00  0.00     0.281 C 
BRANCH   2   3
HETATM    3  C1  UNL     1      44.023 -13.864  35.410  1.00  0.00     0.246 C 
HETATM    4  O1  UNL     1      44.768 -13.127  36.075  1.00  0.00    -0.271 OA
HETATM    5  N2  UNL     1      43.660 -15.134  35.858  1.00  0.00    -0.322 N 
ATOM      6  H2  UNL     1      43.050 -15.650  35.225  1.00  0.00     0.169 HD
BRANCH   5   7
HETATM    7  C11 UNL     1      43.991 -15.815  37.027  1.00  0.00     0.085 C 
HETATM    8  C12 UNL     1      43.730 -15.188  38.223  1.00  0.00     0.034 C 
HETATM    9  C13 UNL     1      44.519 -15.244  39.355  1.00  0.00     0.002 C 
HETATM   10  C14 UNL     1      45.525 -16.142  39.681  1.00  0.00     0.000 C 
HETATM   11  C15 UNL     1      45.786 -17.338  39.017  1.00  0.00     0.004 C 
HETATM   12  C16 UNL     1      45.298 -17.772  37.799  1.00  0.00     0.057 C 
HETATM   13  C17 UNL     1      44.548 -17.091  36.866  1.00  0.00     0.198 C 
HETATM   14  O6  UNL     1      44.339 -17.646  35.785  1.00  0.00    -0.286 OA
ENDBRANCH   5   7
ENDBRANCH   2   3
ENDBRANCH   1   2
BRANCH   1  15
HETATM   15  C3  UNL     1      43.129 -10.877  34.296  1.00  0.00     0.268 C 
HETATM   16  O3  UNL     1      43.349  -9.798  33.630  1.00  0.00    -0.264 OA
BRANCH  15  17
HETATM   17  C4  UNL     1      42.125 -10.769  35.381  1.00  0.00     0.190 C 
BRANCH  17  18
HETATM   18  S1  UNL     1      42.779 -10.228  36.942  1.00  0.00    -0.120 SA
BRANCH  18  19
HETATM   19  C5  UNL     1      42.596  -8.487  37.146  1.00  0.00     0.003 A 
HETATM   20  C6  UNL     1      41.620  -7.951  37.939  1.00  0.00     0.020 A 
HETATM   21  C7  UNL     1      41.570  -6.562  38.065  1.00  0.00     0.023 A 
HETATM   22  C8  UNL     1      42.472  -5.748  37.413  1.00  0.00     0.044 A 
HETATM   23 BR1  UNL     1      42.429  -3.858  37.564  1.00  0.00    -0.048 Br
HETATM   24  C9  UNL     1      43.463  -6.301  36.605  1.00  0.00     0.121 A 
HETATM   25  C10 UNL     1      43.514  -7.668  36.479  1.00  0.00     0.056 A 
BRANCH  24  26
HETATM   26  N1  UNL     1      44.403  -5.472  35.926  1.00  0.00    -0.114 N 
HETATM   27  O4  UNL     1      45.425  -5.032  36.486  1.00  0.00    -0.532 OA
HETATM   28  O5  UNL     1      44.192  -5.143  34.617  1.00  0.00    -0.532 OA
ENDBRANCH  24  26
ENDBRANCH  18  19
ENDBRANCH  17  18
ENDBRANCH  15  17
ENDBRANCH   1  15
TORSDOF 8
ENDMDL
MODEL 2
REMARK VINA RESULT: -8.299977847      3.439      8.541
REMARK  8 active torsions:
REMARK  status: ('A' for Active; 'I' for Inactive)
REMARK    1  A    between atoms: C1_2  and  C2_3 
REMARK       I    between atoms: C1_2  and  N2_19 
REMARK    2  A    between atoms: C2_3  and  O2_4 
REMARK    3  A    between atoms: O2_4  and  C3_5 
REMARK    4  A    between atoms: C3_5  and  C4_7 
REMARK    5  A    between atoms: C4_7  and  S1_8 
REMARK    6  A    between atoms: S1_8  and  C5_9 
REMARK    7  A    between atoms: C9_14  and  N1_15 
REMARK    8  A    between atoms: N2_19  and  C11_21 
ROOT
HETATM    1  O2  UNL     1      43.484 -11.014  33.848  1.00  0.00    -0.311 OA
ENDROOT
BRANCH   1   2
HETATM    2  C2  UNL     1      42.649  -9.934  34.155  1.00  0.00     0.281 C 
BRANCH   2   3
HETATM    3  C1  UNL     1      43.019  -9.246  35.442  1.00  0.00     0.246 C 
HETATM    4  O1  UNL     1      44.174  -8.796  35.519  1.00  0.00    -0.271 OA
HETATM    5  N2  UNL     1      42.115  -9.120  36.496  1.00  0.00    -0.322 N 
ATOM      6  H2  UNL     1      41.199  -9.533  36.322  1.00  0.00     0.169 HD
BRANCH   5   7
HETATM    7  C11 UNL     1      42.253  -8.524  37.747  1.00  0.00     0.085 C 
HETATM    8  C12 UNL     1      43.159  -9.080  38.619  1.00  0.00     0.034 C 
HETATM    9  C13 UNL     1      43.002  -9.192  39.986  1.00  0.00     0.002 C 
HETATM   10  C14 UNL     1      42.120  -8.528  40.827  1.00  0.00     0.000 C 
HETATM   11  C15 UNL     1      41.358  -7.414  40.480  1.00  0.00     0.004 C 
HETATM   12  C16 UNL     1      41.123  -6.889  39.224  1.00  0.00     0.057 C 
HETATM   13  C17 UNL     1      41.458  -7.395  37.988  1.00  0.00     0.198 C 
HETATM   14  O6  UNL     1      41.024  -6.810  36.994  1.00  0.00    -0.286 OA
ENDBRANCH   5   7
ENDBRANCH   2   3
ENDBRANCH   1   2
BRANCH   1  15
HETATM   15  C3  UNL     1      43.442 -12.278  34.330  1.00  0.00     0.268 C 
HETATM   16  O3  UNL     1      44.299 -13.099  33.832  1.00  0.00    -0.264 OA
BRANCH  15  17
HETATM   17  C4  UNL     1      42.538 -12.840  35.363  1.00  0.00     0.190 C 
BRANCH  17  18
HETATM   18  S1  UNL     1      43.092 -12.609  37.035  1.00  0.00    -0.120 SA
BRANCH  18  19
HETATM   19  C5  UNL     1      43.860 -14.065  37.664  1.00  0.00     0.003 A 
HETATM   20  C6  UNL     1      44.407 -14.111  38.915  1.00  0.00     0.020 A 
HETATM   21  C7  UNL     1      44.967 -15.317  39.341  1.00  0.00     0.023 A 
HETATM   22  C8  UNL     1      44.973 -16.432  38.530  1.00  0.00     0.044 A 
HETATM   23 BR1  UNL     1      45.727 -18.083  39.078  1.00  0.00    -0.048 Br
HETATM   24  C9  UNL     1      44.415 -16.378  37.254  1.00  0.00     0.121 A 
HETATM   25  C10 UNL     1      43.864 -15.191  36.833  1.00  0.00     0.056 A 
BRANCH  24  26
HETATM   26  N1  UNL     1      44.413 -17.522  36.405  1.00  0.00    -0.114 N 
HETATM   27  O4  UNL     1      45.380 -17.806  35.672  1.00  0.00    -0.532 OA
HETATM   28  O5  UNL     1      43.324 -18.345  36.383  1.00  0.00    -0.532 OA
ENDBRANCH  24  26
ENDBRANCH  18  19
ENDBRANCH  17  18
ENDBRANCH  15  17
ENDBRANCH   1  15
TORSDOF 8
ENDMDL
MODEL 3
REMARK VINA RESULT: -8.265277869      1.704      2.331
REMARK  8 active torsions:
REMARK  status: ('A' for Active; 'I' for Inactive)
REMARK    1  A    between atoms: C1_2  and  C2_3 
REMARK       I    between atoms: C1_2  and  N2_19 
REMARK    2  A    between atoms: C2_3  and  O2_4 
REMARK    3  A    between atoms: O2_4  and  C3_5 
REMARK    4  A    between atoms: C3_5  and  C4_7 
REMARK    5  A    between atoms: C4_7  and  S1_8 
REMARK    6  A    between atoms: S1_8  and  C5_9 
REMARK    7  A    between atoms: C9_14  and  N1_15 
REMARK    8  A    between atoms: N2_19  and  C11_21 
ROOT
HETATM    1  O2  UNL     1      44.421 -12.718  35.434  1.00  0.00    -0.311 OA
ENDROOT
BRANCH   1   2
HETATM    2  C2  UNL     1      44.859 -12.902  36.750  1.00  0.00     0.281 C 
BRANCH   2   3
HETATM    3  C1  UNL     1      44.441 -14.225  37.334  1.00  0.00     0.246 C 
HETATM    4  O1  UNL     1      43.595 -14.188  38.243  1.00  0.00    -0.271 OA
HETATM    5  N2  UNL     1      44.975 -15.431  36.882  1.00  0.00    -0.322 N 
ATOM      6  H2  UNL     1      45.665 -15.338  36.136  1.00  0.00     0.169 HD
BRANCH   5   7
HETATM    7  C11 UNL     1      44.723 -16.743  37.277  1.00  0.00     0.085 C 
HETATM    8  C12 UNL     1      45.399 -17.216  38.376  1.00  0.00     0.034 C 
HETATM    9  C13 UNL     1      45.885 -18.498  38.536  1.00  0.00     0.002 C 
HETATM   10  C14 UNL     1      45.559 -19.655  37.843  1.00  0.00     0.000 C 
HETATM   11  C15 UNL     1      44.474 -19.801  36.982  1.00  0.00     0.004 C 
HETATM   12  C16 UNL     1      43.658 -18.820  36.451  1.00  0.00     0.057 C 
HETATM   13  C17 UNL     1      43.782 -17.451  36.516  1.00  0.00     0.198 C 
HETATM   14  O6  UNL     1      42.998 -16.773  35.847  1.00  0.00    -0.286 OA
ENDBRANCH   5   7
ENDBRANCH   2   3
ENDBRANCH   1   2
BRANCH   1  15
HETATM   15  C3  UNL     1      43.345 -12.027  34.990  1.00  0.00     0.268 C 
HETATM   16  O3  UNL     1      43.447 -11.523  33.811  1.00  0.00    -0.264 OA
BRANCH  15  17
HETATM   17  C4  UNL     1      42.060 -11.777  35.687  1.00  0.00     0.190 C 
BRANCH  17  18
HETATM   18  S1  UNL     1      41.539 -10.078  35.691  1.00  0.00    -0.120 SA
BRANCH  18  19
HETATM   19  C5  UNL     1      42.631  -9.074  36.641  1.00  0.00     0.003 A 
HETATM   20  C6  UNL     1      43.360  -9.581  37.679  1.00  0.00     0.020 A 
HETATM   21  C7  UNL     1      44.224  -8.718  38.356  1.00  0.00     0.023 A 
HETATM   22  C8  UNL     1      44.343  -7.393  37.995  1.00  0.00     0.044 A 
HETATM   23 BR1  UNL     1      45.507  -6.195  38.895  1.00  0.00    -0.048 Br
HETATM   24  C9  UNL     1      43.596  -6.881  36.936  1.00  0.00     0.121 A 
HETATM   25  C10 UNL     1      42.745  -7.729  36.269  1.00  0.00     0.056 A 
BRANCH  24  26
HETATM   26  N1  UNL     1      43.710  -5.513  36.550  1.00  0.00    -0.114 N 
HETATM   27  O4  UNL     1      44.526  -5.133  35.688  1.00  0.00    -0.532 OA
HETATM   28  O5  UNL     1      42.905  -4.578  37.134  1.00  0.00    -0.532 OA
ENDBRANCH  24  26
ENDBRANCH  18  19
ENDBRANCH  17  18
ENDBRANCH  15  17
ENDBRANCH   1  15
TORSDOF 8
ENDMDL
MODEL 4
REMARK VINA RESULT: -8.231859595      1.542      2.318
REMARK  8 active torsions:
REMARK  status: ('A' for Active; 'I' for Inactive)
REMARK    1  A    between atoms: C1_2  and  C2_3 
REMARK       I    between atoms: C1_2  and  N2_19 
REMARK    2  A    between atoms: C2_3  and  O2_4 
REMARK    3  A    between atoms: O2_4  and  C3_5 
REMARK    4  A    between atoms: C3_5  and  C4_7 
REMARK    5  A    between atoms: C4_7  and  S1_8 
REMARK    6  A    between atoms: S1_8  and  C5_9 
REMARK    7  A    between atoms: C9_14  and  N1_15 
REMARK    8  A    between atoms: N2_19  and  C11_21 
ROOT
HETATM    1  O2  UNL     1      44.650 -12.704  35.698  1.00  0.00    -0.311 OA
ENDROOT
BRANCH   1   2
HETATM    2  C2  UNL     1      44.962 -12.851  37.053  1.00  0.00     0.281 C 
BRANCH   2   3
HETATM    3  C1  UNL     1      44.573 -14.196  37.609  1.00  0.00     0.246 C 
HETATM    4  O1  UNL     1      43.868 -14.191  38.630  1.00  0.00    -0.271 OA
HETATM    5  N2  UNL     1      44.984 -15.387  37.009  1.00  0.00    -0.322 N 
ATOM      6  H2  UNL     1      45.564 -15.266  36.179  1.00  0.00     0.169 HD
BRANCH   5   7
HETATM    7  C11 UNL     1      44.732 -16.712  37.354  1.00  0.00     0.085 C 
HETATM    8  C12 UNL     1      45.415 -17.230  38.429  1.00  0.00     0.034 C 
HETATM    9  C13 UNL     1      45.901 -18.518  38.535  1.00  0.00     0.002 C 
HETATM   10  C14 UNL     1      45.567 -19.646  37.798  1.00  0.00     0.000 C 
HETATM   11  C15 UNL     1      44.476 -19.756  36.940  1.00  0.00     0.004 C 
HETATM   12  C16 UNL     1      43.658 -18.754  36.454  1.00  0.00     0.057 C 
HETATM   13  C17 UNL     1      43.785 -17.388  36.572  1.00  0.00     0.198 C 
HETATM   14  O6  UNL     1      42.998 -16.684  35.936  1.00  0.00    -0.286 OA
ENDBRANCH   5   7
ENDBRANCH   2   3
ENDBRANCH   1   2
BRANCH   1  15
HETATM   15  C3  UNL     1      43.433 -12.726  35.104  1.00  0.00     0.268 C 
HETATM   16  O3  UNL     1      43.194 -13.739  34.349  1.00  0.00    -0.264 OA
BRANCH  15  17
HETATM   17  C4  UNL     1      42.337 -11.733  35.215  1.00  0.00     0.190 C 
BRANCH  17  18
HETATM   18  S1  UNL     1      42.705 -10.144  34.509  1.00  0.00    -0.120 SA
BRANCH  18  19
HETATM   19  C5  UNL     1      42.682  -8.877  35.734  1.00  0.00     0.003 A 
HETATM   20  C6  UNL     1      41.704  -8.810  36.685  1.00  0.00     0.020 A 
HETATM   21  C7  UNL     1      41.784  -7.790  37.635  1.00  0.00     0.023 A 
HETATM   22  C8  UNL     1      42.815  -6.874  37.620  1.00  0.00     0.044 A 
HETATM   23 BR1  UNL     1      42.951  -5.477  38.895  1.00  0.00    -0.048 Br
HETATM   24  C9  UNL     1      43.808  -6.947  36.647  1.00  0.00     0.121 A 
HETATM   25  C10 UNL     1      43.731  -7.951  35.711  1.00  0.00     0.056 A 
BRANCH  24  26
HETATM   26  N1  UNL     1      44.880  -6.009  36.619  1.00  0.00    -0.114 N 
HETATM   27  O4  UNL     1      44.820  -4.952  35.962  1.00  0.00    -0.532 OA
HETATM   28  O5  UNL     1      46.017  -6.260  37.334  1.00  0.00    -0.532 OA
ENDBRANCH  24  26
ENDBRANCH  18  19
ENDBRANCH  17  18
ENDBRANCH  15  17
ENDBRANCH   1  15
TORSDOF 8
ENDMDL
MODEL 5
REMARK VINA RESULT: -8.212540511      3.924      9.389
REMARK  8 active torsions:
REMARK  status: ('A' for Active; 'I' for Inactive)
REMARK    1  A    between atoms: C1_2  and  C2_3 
REMARK       I    between atoms: C1_2  and  N2_19 
REMARK    2  A    between atoms: C2_3  and  O2_4 
REMARK    3  A    between atoms: O2_4  and  C3_5 
REMARK    4  A    between atoms: C3_5  and  C4_7 
REMARK    5  A    between atoms: C4_7  and  S1_8 
REMARK    6  A    between atoms: S1_8  and  C5_9 
REMARK    7  A    between atoms: C9_14  and  N1_15 
REMARK    8  A    between atoms: N2_19  and  C11_21 
ROOT
HETATM    1  O2  UNL     1      43.090 -10.947  33.999  1.00  0.00    -0.311 OA
ENDROOT
BRANCH   1   2
HETATM    2  C2  UNL     1      42.417  -9.894  34.626  1.00  0.00     0.281 C 
BRANCH   2   3
HETATM    3  C1  UNL     1      43.342  -8.831  35.157  1.00  0.00     0.246 C 
HETATM    4  O1  UNL     1      44.382  -8.627  34.509  1.00  0.00    -0.271 OA
HETATM    5  N2  UNL     1      43.049  -8.111  36.315  1.00  0.00    -0.322 N 
ATOM      6  H2  UNL     1      42.171  -8.369  36.765  1.00  0.00     0.169 HD
BRANCH   5   7
HETATM    7  C11 UNL     1      43.755  -7.099  36.960  1.00  0.00     0.085 C 
HETATM    8  C12 UNL     1      43.812  -5.871  36.343  1.00  0.00     0.034 C 
HETATM    9  C13 UNL     1      44.899  -5.021  36.332  1.00  0.00     0.002 C 
HETATM   10  C14 UNL     1      46.018  -5.015  37.154  1.00  0.00     0.000 C 
HETATM   11  C15 UNL     1      46.156  -5.740  38.335  1.00  0.00     0.004 C 
HETATM   12  C16 UNL     1      45.364  -6.767  38.812  1.00  0.00     0.057 C 
HETATM   13  C17 UNL     1      44.328  -7.431  38.195  1.00  0.00     0.198 C 
HETATM   14  O6  UNL     1      43.852  -8.411  38.773  1.00  0.00    -0.286 OA
ENDBRANCH   5   7
ENDBRANCH   2   3
ENDBRANCH   1   2
BRANCH   1  15
HETATM   15  C3  UNL     1      43.432 -12.154  34.507  1.00  0.00     0.268 C 
HETATM   16  O3  UNL     1      44.177 -12.890  33.760  1.00  0.00    -0.264 OA
BRANCH  15  17
HETATM   17  C4  UNL     1      43.059 -12.739  35.818  1.00  0.00     0.190 C 
BRANCH  17  18
HETATM   18  S1  UNL     1      44.427 -13.374  36.759  1.00  0.00    -0.120 SA
BRANCH  18  19
HETATM   19  C5  UNL     1      44.380 -15.133  36.853  1.00  0.00     0.003 A 
HETATM   20  C6  UNL     1      43.772 -15.892  35.894  1.00  0.00     0.020 A 
HETATM   21  C7  UNL     1      43.811 -17.280  36.035  1.00  0.00     0.023 A 
HETATM   22  C8  UNL     1      44.441 -17.876  37.106  1.00  0.00     0.044 A 
HETATM   23 BR1  UNL     1      44.511 -19.758  37.327  1.00  0.00    -0.048 Br
HETATM   24  C9  UNL     1      45.059 -17.096  38.082  1.00  0.00     0.121 A 
HETATM   25  C10 UNL     1      45.021 -15.729  37.945  1.00  0.00     0.056 A 
BRANCH  24  26
HETATM   26  N1  UNL     1      45.715 -17.697  39.195  1.00  0.00    -0.114 N 
HETATM   27  O4  UNL     1      45.384 -17.454  40.371  1.00  0.00    -0.532 OA
HETATM   28  O5  UNL     1      46.742 -18.572  38.982  1.00  0.00    -0.532 OA
ENDBRANCH  24  26
ENDBRANCH  18  19
ENDBRANCH  17  18
ENDBRANCH  15  17
ENDBRANCH   1  15
TORSDOF 8
ENDMDL
