MODEL 1
REMARK VINA RESULT: -7.674627021      0.000      0.000
REMARK  7 active torsions:
REMARK  status: ('A' for Active; 'I' for Inactive)
REMARK    1  A    between atoms: C2_3  and  C3_4 
REMARK    2  A    between atoms: C3_4  and  N2_5 
REMARK    3  A    between atoms: N2_5  and  C5_8 
REMARK    4  A    between atoms: C5_8  and  C6_9 
REMARK    5  A    between atoms: C6_9  and  C7_10 
REMARK    6  A    between atoms: C12_15  and  C13_16 
REMARK    7  A    between atoms: C13_16  and  C14_17 
ROOT
HETATM    1  N1  UNL     1       9.755 -28.288  -2.256  1.00  0.00    -0.197 NA
HETATM    2  C1  UNL     1      10.590 -27.571  -2.597  1.00  0.00     0.064 C 
HETATM    3  C2  UNL     1      11.643 -26.654  -2.995  1.00  0.00     0.169 C 
ENDROOT
BRANCH   3   4
HETATM    4  C3  UNL     1      13.018 -27.127  -2.865  1.00  0.00     0.089 C 
BRANCH   4   5
HETATM    5  N2  UNL     1      13.566 -28.023  -3.790  1.00  0.00    -0.299 N 
HETATM    6  C4  UNL     1      13.492 -29.427  -3.300  1.00  0.00     0.183 C 
HETATM    7  N3  UNL     1      13.452 -30.521  -2.935  1.00  0.00    -0.172 NA
BRANCH   5   8
HETATM    8  C5  UNL     1      14.181 -27.882  -5.069  1.00  0.00     0.140 C 
BRANCH   8   9
HETATM    9  C6  UNL     1      13.319 -27.770  -6.254  1.00  0.00     0.026 C 
BRANCH   9  10
HETATM   10  C7  UNL     1      14.040 -28.055  -7.561  1.00  0.00    -0.009 C 
HETATM   11  C8  UNL     1      14.647 -29.403  -7.668  1.00  0.00     0.005 C 
HETATM   12  C9  UNL     1      15.629 -29.352  -8.837  1.00  0.00     0.000 C 
HETATM   13  C10 UNL     1      14.917 -29.026 -10.122  1.00  0.00     0.000 C 
HETATM   14  C11 UNL     1      13.479 -28.660  -9.917  1.00  0.00     0.005 C 
HETATM   15  C12 UNL     1      13.258 -27.710  -8.779  1.00  0.00    -0.004 C 
BRANCH  15  16
HETATM   16  C13 UNL     1      13.504 -26.264  -9.111  1.00  0.00     0.071 C 
BRANCH  16  17
HETATM   17  C14 UNL     1      12.248 -25.479  -9.145  1.00  0.00     0.071 A 
HETATM   18  N4  UNL     1      11.150 -25.690  -8.426  1.00  0.00    -0.295 N 
HETATM   19  N5  UNL     1      10.144 -24.936  -8.556  1.00  0.00    -0.260 N 
ATOM     20  H4  UNL     1      11.120 -26.465  -7.764  1.00  0.00     0.187 HD
HETATM   21  C15 UNL     1      10.195 -23.925  -9.428  1.00  0.00     0.304 A 
ATOM     22  H5  UNL     1       9.303 -25.097  -8.002  1.00  0.00     0.191 HD
HETATM   23  O1  UNL     1       9.278 -23.070  -9.689  1.00  0.00    -0.258 OA
HETATM   24  S1  UNL     1      11.773 -24.103 -10.061  1.00  0.00    -0.013 SA
ENDBRANCH  16  17
ENDBRANCH  15  16
ENDBRANCH   9  10
ENDBRANCH   8   9
ENDBRANCH   5   8
ENDBRANCH   4   5
ENDBRANCH   3   4
TORSDOF 7
ENDMDL
MODEL 2
REMARK VINA RESULT: -7.486902025      1.095      1.932
REMARK  7 active torsions:
REMARK  status: ('A' for Active; 'I' for Inactive)
REMARK    1  A    between atoms: C2_3  and  C3_4 
REMARK    2  A    between atoms: C3_4  and  N2_5 
REMARK    3  A    between atoms: N2_5  and  C5_8 
REMARK    4  A    between atoms: C5_8  and  C6_9 
REMARK    5  A    between atoms: C6_9  and  C7_10 
REMARK    6  A    between atoms: C12_15  and  C13_16 
REMARK    7  A    between atoms: C13_16  and  C14_17 
ROOT
HETATM    1  N1  UNL     1      12.758 -30.212  -2.514  1.00  0.00    -0.197 NA
HETATM    2  C1  UNL     1      12.719 -29.103  -2.202  1.00  0.00     0.064 C 
HETATM    3  C2  UNL     1      12.702 -27.703  -1.820  1.00  0.00     0.169 C 
ENDROOT
BRANCH   3   4
HETATM    4  C3  UNL     1      12.198 -26.753  -2.805  1.00  0.00     0.089 C 
BRANCH   4   5
HETATM    5  N2  UNL     1      11.971 -27.138  -4.132  1.00  0.00    -0.299 N 
HETATM    6  C4  UNL     1      10.521 -27.125  -4.465  1.00  0.00     0.183 C 
HETATM    7  N3  UNL     1       9.400 -27.128  -4.740  1.00  0.00    -0.172 NA
BRANCH   5   8
HETATM    8  C5  UNL     1      12.814 -27.547  -5.209  1.00  0.00     0.140 C 
BRANCH   8   9
HETATM    9  C6  UNL     1      12.432 -27.178  -6.578  1.00  0.00     0.026 C 
BRANCH   9  10
HETATM   10  C7  UNL     1      13.455 -27.580  -7.627  1.00  0.00    -0.009 C 
HETATM   11  C8  UNL     1      14.137 -28.872  -7.383  1.00  0.00     0.005 C 
HETATM   12  C9  UNL     1      15.365 -28.902  -8.290  1.00  0.00     0.000 C 
HETATM   13  C10 UNL     1      14.964 -28.818  -9.738  1.00  0.00     0.000 C 
HETATM   14  C11 UNL     1      13.502 -28.551  -9.925  1.00  0.00     0.005 C 
HETATM   15  C12 UNL     1      12.970 -27.474  -9.028  1.00  0.00    -0.004 C 
BRANCH  15  16
HETATM   16  C13 UNL     1      13.216 -26.072  -9.516  1.00  0.00     0.071 C 
BRANCH  16  17
HETATM   17  C14 UNL     1      11.970 -25.272  -9.559  1.00  0.00     0.071 A 
HETATM   18  N4  UNL     1      10.786 -25.602  -9.054  1.00  0.00    -0.295 N 
HETATM   19  N5  UNL     1       9.801 -24.817  -9.163  1.00  0.00    -0.260 N 
ATOM     20  H4  UNL     1      10.671 -26.495  -8.575  1.00  0.00     0.187 HD
HETATM   21  C15 UNL     1       9.964 -23.651  -9.794  1.00  0.00     0.304 A 
ATOM     22  H5  UNL     1       8.893 -25.070  -8.773  1.00  0.00     0.191 HD
HETATM   23  O1  UNL     1       9.084 -22.742  -9.997  1.00  0.00    -0.258 OA
HETATM   24  S1  UNL     1      11.615 -23.729 -10.230  1.00  0.00    -0.013 SA
ENDBRANCH  16  17
ENDBRANCH  15  16
ENDBRANCH   9  10
ENDBRANCH   8   9
ENDBRANCH   5   8
ENDBRANCH   4   5
ENDBRANCH   3   4
TORSDOF 7
ENDMDL
MODEL 3
REMARK VINA RESULT: -7.056208270      1.002      2.468
REMARK  7 active torsions:
REMARK  status: ('A' for Active; 'I' for Inactive)
REMARK    1  A    between atoms: C2_3  and  C3_4 
REMARK    2  A    between atoms: C3_4  and  N2_5 
REMARK    3  A    between atoms: N2_5  and  C5_8 
REMARK    4  A    between atoms: C5_8  and  C6_9 
REMARK    5  A    between atoms: C6_9  and  C7_10 
REMARK    6  A    between atoms: C12_15  and  C13_16 
REMARK    7  A    between atoms: C13_16  and  C14_17 
ROOT
HETATM    1  N1  UNL     1      15.998 -31.004  -4.249  1.00  0.00    -0.197 NA
HETATM    2  C1  UNL     1      14.906 -30.783  -3.954  1.00  0.00     0.064 C 
HETATM    3  C2  UNL     1      13.536 -30.520  -3.552  1.00  0.00     0.169 C 
ENDROOT
BRANCH   3   4
HETATM    4  C3  UNL     1      13.250 -29.201  -2.997  1.00  0.00     0.089 C 
BRANCH   4   5
HETATM    5  N2  UNL     1      13.155 -28.074  -3.822  1.00  0.00    -0.299 N 
HETATM    6  C4  UNL     1      12.111 -27.130  -3.338  1.00  0.00     0.183 C 
HETATM    7  N3  UNL     1      11.300 -26.389  -2.984  1.00  0.00    -0.172 NA
BRANCH   5   8
HETATM    8  C5  UNL     1      13.820 -27.651  -5.012  1.00  0.00     0.140 C 
BRANCH   8   9
HETATM    9  C6  UNL     1      13.050 -27.586  -6.261  1.00  0.00     0.026 C 
BRANCH   9  10
HETATM   10  C7  UNL     1      13.859 -27.947  -7.496  1.00  0.00    -0.009 C 
HETATM   11  C8  UNL     1      14.469 -29.297  -7.480  1.00  0.00     0.005 C 
HETATM   12  C9  UNL     1      15.530 -29.315  -8.578  1.00  0.00     0.000 C 
HETATM   13  C10 UNL     1      14.911 -29.066  -9.927  1.00  0.00     0.000 C 
HETATM   14  C11 UNL     1      13.463 -28.691  -9.845  1.00  0.00     0.005 C 
HETATM   15  C12 UNL     1      13.165 -27.676  -8.783  1.00  0.00    -0.004 C 
BRANCH  15  16
HETATM   16  C13 UNL     1      13.438 -26.251  -9.182  1.00  0.00     0.071 C 
BRANCH  16  17
HETATM   17  C14 UNL     1      12.199 -25.440  -9.227  1.00  0.00     0.071 A 
HETATM   18  N4  UNL     1      11.080 -25.644  -8.540  1.00  0.00    -0.295 N 
HETATM   19  N5  UNL     1      10.093 -24.866  -8.676  1.00  0.00    -0.260 N 
ATOM     20  H4  UNL     1      11.017 -26.434  -7.898  1.00  0.00     0.187 HD
HETATM   21  C15 UNL     1      10.187 -23.836  -9.521  1.00  0.00     0.304 A 
ATOM     22  H5  UNL     1       9.236 -25.022  -8.146  1.00  0.00     0.191 HD
HETATM   23  O1  UNL     1       9.294 -22.955  -9.783  1.00  0.00    -0.258 OA
HETATM   24  S1  UNL     1      11.776 -24.032 -10.120  1.00  0.00    -0.013 SA
ENDBRANCH  16  17
ENDBRANCH  15  16
ENDBRANCH   9  10
ENDBRANCH   8   9
ENDBRANCH   5   8
ENDBRANCH   4   5
ENDBRANCH   3   4
TORSDOF 7
ENDMDL
MODEL 4
REMARK VINA RESULT: -6.781217029      3.391      5.067
REMARK  7 active torsions:
REMARK  status: ('A' for Active; 'I' for Inactive)
REMARK    1  A    between atoms: C2_3  and  C3_4 
REMARK    2  A    between atoms: C3_4  and  N2_5 
REMARK    3  A    between atoms: N2_5  and  C5_8 
REMARK    4  A    between atoms: C5_8  and  C6_9 
REMARK    5  A    between atoms: C6_9  and  C7_10 
REMARK    6  A    between atoms: C12_15  and  C13_16 
REMARK    7  A    between atoms: C13_16  and  C14_17 
ROOT
HETATM    1  N1  UNL     1      14.475 -30.089  -5.284  1.00  0.00    -0.197 NA
HETATM    2  C1  UNL     1      14.218 -29.404  -4.393  1.00  0.00     0.064 C 
HETATM    3  C2  UNL     1      13.925 -28.527  -3.274  1.00  0.00     0.169 C 
ENDROOT
BRANCH   3   4
HETATM    4  C3  UNL     1      13.218 -27.286  -3.572  1.00  0.00     0.089 C 
BRANCH   4   5
HETATM    5  N2  UNL     1      11.977 -27.298  -4.221  1.00  0.00    -0.299 N 
HETATM    6  C4  UNL     1      10.884 -27.719  -3.303  1.00  0.00     0.183 C 
HETATM    7  N3  UNL     1      10.024 -28.052  -2.609  1.00  0.00    -0.172 NA
BRANCH   5   8
HETATM    8  C5  UNL     1      11.546 -27.012  -5.551  1.00  0.00     0.140 C 
BRANCH   8   9
HETATM    9  C6  UNL     1      12.492 -27.220  -6.655  1.00  0.00     0.026 C 
BRANCH   9  10
HETATM   10  C7  UNL     1      11.983 -26.721  -7.997  1.00  0.00    -0.009 C 
HETATM   11  C8  UNL     1      11.224 -25.449  -7.953  1.00  0.00     0.005 C 
HETATM   12  C9  UNL     1      10.482 -25.332  -9.282  1.00  0.00     0.000 C 
HETATM   13  C10 UNL     1      11.448 -25.293 -10.435  1.00  0.00     0.000 C 
HETATM   14  C11 UNL     1      12.864 -25.554 -10.020  1.00  0.00     0.005 C 
HETATM   15  C12 UNL     1      13.008 -26.708  -9.074  1.00  0.00    -0.004 C 
BRANCH  15  16
HETATM   16  C13 UNL     1      13.027 -28.061  -9.733  1.00  0.00     0.071 C 
BRANCH  16  17
HETATM   17  C14 UNL     1      14.265 -28.813  -9.425  1.00  0.00     0.071 A 
HETATM   18  N4  UNL     1      14.541 -29.483  -8.311  1.00  0.00    -0.295 N 
HETATM   19  N5  UNL     1      15.646 -30.085  -8.181  1.00  0.00    -0.260 N 
ATOM     20  H4  UNL     1      13.857 -29.512  -7.554  1.00  0.00     0.187 HD
HETATM   21  C15 UNL     1      16.534 -30.037  -9.178  1.00  0.00     0.304 A 
ATOM     22  H5  UNL     1      15.855 -30.600  -7.327  1.00  0.00     0.191 HD
HETATM   23  O1  UNL     1      17.693 -30.581  -9.218  1.00  0.00    -0.258 OA
HETATM   24  S1  UNL     1      15.705 -29.080 -10.326  1.00  0.00    -0.013 SA
ENDBRANCH  16  17
ENDBRANCH  15  16
ENDBRANCH   9  10
ENDBRANCH   8   9
ENDBRANCH   5   8
ENDBRANCH   4   5
ENDBRANCH   3   4
TORSDOF 7
ENDMDL
MODEL 5
REMARK VINA RESULT: -6.743861323      1.623      2.774
REMARK  7 active torsions:
REMARK  status: ('A' for Active; 'I' for Inactive)
REMARK    1  A    between atoms: C2_3  and  C3_4 
REMARK    2  A    between atoms: C3_4  and  N2_5 
REMARK    3  A    between atoms: N2_5  and  C5_8 
REMARK    4  A    between atoms: C5_8  and  C6_9 
REMARK    5  A    between atoms: C6_9  and  C7_10 
REMARK    6  A    between atoms: C12_15  and  C13_16 
REMARK    7  A    between atoms: C13_16  and  C14_17 
ROOT
HETATM    1  N1  UNL     1      17.487 -25.668  -2.823  1.00  0.00    -0.197 NA
HETATM    2  C1  UNL     1      16.639 -26.159  -3.430  1.00  0.00     0.064 C 
HETATM    3  C2  UNL     1      15.589 -26.806  -4.196  1.00  0.00     0.169 C 
ENDROOT
BRANCH   3   4
HETATM    4  C3  UNL     1      14.505 -27.426  -3.442  1.00  0.00     0.089 C 
BRANCH   4   5
HETATM    5  N2  UNL     1      13.185 -27.384  -3.905  1.00  0.00    -0.299 N 
HETATM    6  C4  UNL     1      12.314 -26.584  -3.001  1.00  0.00     0.183 C 
HETATM    7  N3  UNL     1      11.621 -25.974  -2.308  1.00  0.00    -0.172 NA
BRANCH   5   8
HETATM    8  C5  UNL     1      12.504 -27.944  -5.027  1.00  0.00     0.140 C 
BRANCH   8   9
HETATM    9  C6  UNL     1      12.426 -27.156  -6.265  1.00  0.00     0.026 C 
BRANCH   9  10
HETATM   10  C7  UNL     1      13.437 -27.574  -7.319  1.00  0.00    -0.009 C 
HETATM   11  C8  UNL     1      14.084 -28.888  -7.090  1.00  0.00     0.005 C 
HETATM   12  C9  UNL     1      15.309 -28.941  -8.000  1.00  0.00     0.000 C 
HETATM   13  C10 UNL     1      14.908 -28.831  -9.446  1.00  0.00     0.000 C 
HETATM   14  C11 UNL     1      13.454 -28.522  -9.628  1.00  0.00     0.005 C 
HETATM   15  C12 UNL     1      12.952 -27.441  -8.719  1.00  0.00    -0.004 C 
BRANCH  15  16
HETATM   16  C13 UNL     1      13.236 -26.041  -9.192  1.00  0.00     0.071 C 
BRANCH  16  17
HETATM   17  C14 UNL     1      11.998 -25.239  -9.329  1.00  0.00     0.071 A 
HETATM   18  N4  UNL     1      10.809 -25.500  -8.795  1.00  0.00    -0.295 N 
HETATM   19  N5  UNL     1       9.832 -24.723  -8.995  1.00  0.00    -0.260 N 
ATOM     20  H4  UNL     1      10.684 -26.333  -8.220  1.00  0.00     0.187 HD
HETATM   21  C15 UNL     1      10.008 -23.636  -9.753  1.00  0.00     0.304 A 
ATOM     22  H5  UNL     1       8.921 -24.923  -8.583  1.00  0.00     0.191 HD
HETATM   23  O1  UNL     1       9.138 -22.748 -10.059  1.00  0.00    -0.258 OA
HETATM   24  S1  UNL     1      11.659 -23.778 -10.170  1.00  0.00    -0.013 SA
ENDBRANCH  16  17
ENDBRANCH  15  16
ENDBRANCH   9  10
ENDBRANCH   8   9
ENDBRANCH   5   8
ENDBRANCH   4   5
ENDBRANCH   3   4
TORSDOF 7
ENDMDL
