MODEL 1
REMARK VINA RESULT: -6.805066398      0.000      0.000
REMARK  7 active torsions:
REMARK  status: ('A' for Active; 'I' for Inactive)
REMARK    1  A    between atoms: C6_8  and  C8_10 
REMARK    2  A    between atoms: C9_14  and  C10_15 
REMARK    3  A    between atoms: C10_15  and  C11_16 
REMARK    4  A    between atoms: C11_16  and  C12_17 
REMARK    5  A    between atoms: C12_17  and  C13_18 
REMARK    6  A    between atoms: C13_18  and  C14_19 
REMARK    7  A    between atoms: C14_19  and  C15_20 
ROOT
HETATM    1  C1  UNL     1      16.386 -25.949  -6.512  1.00  0.00     0.019 C 
HETATM    2  C2  UNL     1      16.105 -26.637  -7.800  1.00  0.00     0.066 C 
HETATM    3  C3  UNL     1      17.378 -27.261  -8.258  1.00  0.00     0.151 C 
HETATM    4  O1  UNL     1      18.338 -27.271  -7.543  1.00  0.00    -0.296 OA
HETATM    5  C4  UNL     1      17.450 -27.866  -9.599  1.00  0.00     0.191 C 
HETATM    6  C5  UNL     1      18.836 -28.036 -10.054  1.00  0.00     0.073 C 
HETATM    7  N1  UNL     1      19.935 -28.150 -10.412  1.00  0.00    -0.196 NA
HETATM    8  C6  UNL     1      16.780 -29.236  -9.486  1.00  0.00     0.116 C 
HETATM    9  C7  UNL     1      17.814 -30.341  -9.486  1.00  0.00     0.040 C 
HETATM   10  S1  UNL     1      15.780 -29.276  -7.969  1.00  0.00    -0.141 SA
HETATM   11  C9  UNL     1      15.004 -27.598  -7.881  1.00  0.00     0.059 C 
ENDROOT
BRANCH   8  12
HETATM   12  C8  UNL     1      15.917 -29.436 -10.670  1.00  0.00     0.194 C 
HETATM   13  O2  UNL     1      14.773 -28.950 -10.737  1.00  0.00    -0.647 OA
HETATM   14  O3  UNL     1      16.406 -30.184 -11.722  1.00  0.00    -0.647 OA
ENDBRANCH   8  12
BRANCH  11  15
HETATM   15  C10 UNL     1      13.856 -27.578  -6.981  1.00  0.00     0.016 C 
BRANCH  15  16
HETATM   16  C11 UNL     1      12.547 -27.075  -7.415  1.00  0.00     0.001 C 
BRANCH  16  17
HETATM   17  C12 UNL     1      12.363 -27.108  -8.944  1.00  0.00     0.001 C 
BRANCH  17  18
HETATM   18  C13 UNL     1      12.143 -25.708  -9.431  1.00  0.00     0.010 C 
BRANCH  18  19
HETATM   19  C14 UNL     1      10.835 -25.129  -8.908  1.00  0.00     0.113 C 
BRANCH  19  20
HETATM   20  C15 UNL     1      10.605 -23.769  -9.409  1.00  0.00     0.172 C 
HETATM   21  O4  UNL     1       9.454 -23.272  -9.517  1.00  0.00    -0.648 OA
HETATM   22  O5  UNL     1      11.703 -23.002  -9.778  1.00  0.00    -0.648 OA
ENDBRANCH  19  20
ENDBRANCH  18  19
ENDBRANCH  17  18
ENDBRANCH  16  17
ENDBRANCH  15  16
ENDBRANCH  11  15
TORSDOF 7
ENDMDL
MODEL 2
REMARK VINA RESULT: -6.531422442      2.108      2.742
REMARK  7 active torsions:
REMARK  status: ('A' for Active; 'I' for Inactive)
REMARK    1  A    between atoms: C6_8  and  C8_10 
REMARK    2  A    between atoms: C9_14  and  C10_15 
REMARK    3  A    between atoms: C10_15  and  C11_16 
REMARK    4  A    between atoms: C11_16  and  C12_17 
REMARK    5  A    between atoms: C12_17  and  C13_18 
REMARK    6  A    between atoms: C13_18  and  C14_19 
REMARK    7  A    between atoms: C14_19  and  C15_20 
ROOT
HETATM    1  C1  UNL     1      13.265 -27.460  -6.026  1.00  0.00     0.019 C 
HETATM    2  C2  UNL     1      14.303 -27.555  -7.088  1.00  0.00     0.066 C 
HETATM    3  C3  UNL     1      14.821 -28.952  -7.079  1.00  0.00     0.151 C 
HETATM    4  O1  UNL     1      14.297 -29.787  -6.403  1.00  0.00    -0.296 OA
HETATM    5  C4  UNL     1      15.988 -29.298  -7.909  1.00  0.00     0.191 C 
HETATM    6  C5  UNL     1      16.623 -30.548  -7.472  1.00  0.00     0.073 C 
HETATM    7  N1  UNL     1      17.130 -31.528  -7.108  1.00  0.00    -0.196 NA
HETATM    8  C6  UNL     1      15.462 -29.467  -9.336  1.00  0.00     0.116 C 
HETATM    9  C7  UNL     1      15.394 -30.931  -9.714  1.00  0.00     0.040 C 
HETATM   10  S1  UNL     1      13.825 -28.685  -9.454  1.00  0.00    -0.141 SA
HETATM   11  C9  UNL     1      13.980 -27.135  -8.453  1.00  0.00     0.059 C 
ENDROOT
BRANCH   8  12
HETATM   12  C8  UNL     1      16.407 -28.812 -10.266  1.00  0.00     0.194 C 
HETATM   13  O2  UNL     1      17.039 -27.790  -9.945  1.00  0.00    -0.647 OA
HETATM   14  O3  UNL     1      16.585 -29.362 -11.519  1.00  0.00    -0.647 OA
ENDBRANCH   8  12
BRANCH  11  15
HETATM   15  C10 UNL     1      12.924 -26.179  -8.767  1.00  0.00     0.016 C 
BRANCH  15  16
HETATM   16  C11 UNL     1      11.781 -26.546  -9.611  1.00  0.00     0.001 C 
BRANCH  16  17
HETATM   17  C12 UNL     1      11.538 -25.555 -10.765  1.00  0.00     0.001 C 
BRANCH  17  18
HETATM   18  C13 UNL     1      12.273 -24.283 -10.467  1.00  0.00     0.010 C 
BRANCH  18  19
HETATM   19  C14 UNL     1      11.370 -23.064 -10.607  1.00  0.00     0.113 C 
BRANCH  19  20
HETATM   20  C15 UNL     1      10.188 -23.164  -9.742  1.00  0.00     0.172 C 
HETATM   21  O4  UNL     1       9.026 -22.908 -10.151  1.00  0.00    -0.648 OA
HETATM   22  O5  UNL     1      10.362 -23.556  -8.421  1.00  0.00    -0.648 OA
ENDBRANCH  19  20
ENDBRANCH  18  19
ENDBRANCH  17  18
ENDBRANCH  16  17
ENDBRANCH  15  16
ENDBRANCH  11  15
TORSDOF 7
ENDMDL
MODEL 3
REMARK VINA RESULT: -6.453264114      3.970      5.172
REMARK  7 active torsions:
REMARK  status: ('A' for Active; 'I' for Inactive)
REMARK    1  A    between atoms: C6_8  and  C8_10 
REMARK    2  A    between atoms: C9_14  and  C10_15 
REMARK    3  A    between atoms: C10_15  and  C11_16 
REMARK    4  A    between atoms: C11_16  and  C12_17 
REMARK    5  A    between atoms: C12_17  and  C13_18 
REMARK    6  A    between atoms: C13_18  and  C14_19 
REMARK    7  A    between atoms: C14_19  and  C15_20 
ROOT
HETATM    1  C1  UNL     1      15.737 -26.389  -6.776  1.00  0.00     0.019 C 
HETATM    2  C2  UNL     1      15.289 -27.605  -6.045  1.00  0.00     0.066 C 
HETATM    3  C3  UNL     1      15.730 -27.460  -4.629  1.00  0.00     0.151 C 
HETATM    4  O1  UNL     1      16.203 -26.431  -4.245  1.00  0.00    -0.296 OA
HETATM    5  C4  UNL     1      15.580 -28.596  -3.702  1.00  0.00     0.191 C 
HETATM    6  C5  UNL     1      16.430 -28.452  -2.513  1.00  0.00     0.073 C 
HETATM    7  N1  UNL     1      17.119 -28.338  -1.585  1.00  0.00    -0.196 NA
HETATM    8  C6  UNL     1      14.111 -28.611  -3.279  1.00  0.00     0.116 C 
HETATM    9  C7  UNL     1      13.953 -28.091  -1.866  1.00  0.00     0.040 C 
HETATM   10  S1  UNL     1      13.151 -27.610  -4.455  1.00  0.00    -0.141 SA
HETATM   11  C9  UNL     1      13.884 -28.009  -6.108  1.00  0.00     0.059 C 
ENDROOT
BRANCH   8  12
HETATM   12  C8  UNL     1      13.632 -30.010  -3.292  1.00  0.00     0.194 C 
HETATM   13  O2  UNL     1      12.636 -30.367  -2.637  1.00  0.00    -0.647 OA
HETATM   14  O3  UNL     1      14.315 -30.933  -4.057  1.00  0.00    -0.647 OA
ENDBRANCH   8  12
BRANCH  11  15
HETATM   15  C10 UNL     1      12.992 -27.637  -7.199  1.00  0.00     0.016 C 
BRANCH  15  16
HETATM   16  C11 UNL     1      13.269 -28.026  -8.587  1.00  0.00     0.001 C 
BRANCH  16  17
HETATM   17  C12 UNL     1      12.782 -26.988  -9.615  1.00  0.00     0.001 C 
BRANCH  17  18
HETATM   18  C13 UNL     1      11.745 -26.122  -8.968  1.00  0.00     0.010 C 
BRANCH  18  19
HETATM   19  C14 UNL     1      11.025 -25.248  -9.987  1.00  0.00     0.113 C 
BRANCH  19  20
HETATM   20  C15 UNL     1      11.148 -23.823  -9.663  1.00  0.00     0.172 C 
HETATM   21  O4  UNL     1      12.151 -23.137  -9.989  1.00  0.00    -0.648 OA
HETATM   22  O5  UNL     1      10.114 -23.207  -8.967  1.00  0.00    -0.648 OA
ENDBRANCH  19  20
ENDBRANCH  18  19
ENDBRANCH  17  18
ENDBRANCH  16  17
ENDBRANCH  15  16
ENDBRANCH  11  15
TORSDOF 7
ENDMDL
MODEL 4
REMARK VINA RESULT: -6.442964727      4.114      5.314
REMARK  7 active torsions:
REMARK  status: ('A' for Active; 'I' for Inactive)
REMARK    1  A    between atoms: C6_8  and  C8_10 
REMARK    2  A    between atoms: C9_14  and  C10_15 
REMARK    3  A    between atoms: C10_15  and  C11_16 
REMARK    4  A    between atoms: C11_16  and  C12_17 
REMARK    5  A    between atoms: C12_17  and  C13_18 
REMARK    6  A    between atoms: C13_18  and  C14_19 
REMARK    7  A    between atoms: C14_19  and  C15_20 
ROOT
HETATM    1  C1  UNL     1      15.276 -29.581  -7.953  1.00  0.00     0.019 C 
HETATM    2  C2  UNL     1      14.433 -29.611  -6.727  1.00  0.00     0.066 C 
HETATM    3  C3  UNL     1      15.219 -30.299  -5.665  1.00  0.00     0.151 C 
HETATM    4  O1  UNL     1      16.367 -30.580  -5.848  1.00  0.00    -0.296 OA
HETATM    5  C4  UNL     1      14.571 -30.635  -4.384  1.00  0.00     0.191 C 
HETATM    6  C5  UNL     1      15.315 -31.661  -3.643  1.00  0.00     0.073 C 
HETATM    7  N1  UNL     1      15.900 -32.486  -3.072  1.00  0.00    -0.196 NA
HETATM    8  C6  UNL     1      14.540 -29.341  -3.570  1.00  0.00     0.116 C 
HETATM    9  C7  UNL     1      15.581 -29.372  -2.472  1.00  0.00     0.040 C 
HETATM   10  S1  UNL     1      14.814 -27.936  -4.690  1.00  0.00    -0.141 SA
HETATM   11  C9  UNL     1      13.857 -28.366  -6.215  1.00  0.00     0.059 C 
ENDROOT
BRANCH   8  12
HETATM   12  C8  UNL     1      13.216 -29.224  -2.922  1.00  0.00     0.194 C 
HETATM   13  O2  UNL     1      12.591 -30.225  -2.526  1.00  0.00    -0.647 OA
HETATM   14  O3  UNL     1      12.672 -27.967  -2.757  1.00  0.00    -0.647 OA
ENDBRANCH   8  12
BRANCH  11  15
HETATM   15  C10 UNL     1      13.612 -27.196  -7.049  1.00  0.00     0.016 C 
BRANCH  15  16
HETATM   16  C11 UNL     1      12.329 -26.993  -7.734  1.00  0.00     0.001 C 
BRANCH  16  17
HETATM   17  C12 UNL     1      12.436 -27.117  -9.266  1.00  0.00     0.001 C 
BRANCH  17  18
HETATM   18  C13 UNL     1      11.614 -26.032  -9.893  1.00  0.00     0.010 C 
BRANCH  18  19
HETATM   19  C14 UNL     1      10.912 -25.180  -8.844  1.00  0.00     0.113 C 
BRANCH  19  20
HETATM   20  C15 UNL     1      10.644 -23.824  -9.339  1.00  0.00     0.172 C 
HETATM   21  O4  UNL     1       9.482 -23.347  -9.413  1.00  0.00    -0.648 OA
HETATM   22  O5  UNL     1      11.718 -23.038  -9.739  1.00  0.00    -0.648 OA
ENDBRANCH  19  20
ENDBRANCH  18  19
ENDBRANCH  17  18
ENDBRANCH  16  17
ENDBRANCH  15  16
ENDBRANCH  11  15
TORSDOF 7
ENDMDL
MODEL 5
REMARK VINA RESULT: -6.378095893      1.806      2.100
REMARK  7 active torsions:
REMARK  status: ('A' for Active; 'I' for Inactive)
REMARK    1  A    between atoms: C6_8  and  C8_10 
REMARK    2  A    between atoms: C9_14  and  C10_15 
REMARK    3  A    between atoms: C10_15  and  C11_16 
REMARK    4  A    between atoms: C11_16  and  C12_17 
REMARK    5  A    between atoms: C12_17  and  C13_18 
REMARK    6  A    between atoms: C13_18  and  C14_19 
REMARK    7  A    between atoms: C14_19  and  C15_20 
ROOT
HETATM    1  C1  UNL     1      15.341 -27.130  -6.710  1.00  0.00     0.019 C 
HETATM    2  C2  UNL     1      15.910 -27.616  -7.997  1.00  0.00     0.066 C 
HETATM    3  C3  UNL     1      16.371 -29.016  -7.778  1.00  0.00     0.151 C 
HETATM    4  O1  UNL     1      16.119 -29.583  -6.755  1.00  0.00    -0.296 OA
HETATM    5  C4  UNL     1      17.142 -29.700  -8.831  1.00  0.00     0.191 C 
HETATM    6  C5  UNL     1      17.872 -30.864  -8.312  1.00  0.00     0.073 C 
HETATM    7  N1  UNL     1      18.460 -31.771  -7.888  1.00  0.00    -0.196 NA
HETATM    8  C6  UNL     1      16.123 -30.162  -9.874  1.00  0.00     0.116 C 
HETATM    9  C7  UNL     1      15.895 -31.655  -9.776  1.00  0.00     0.040 C 
HETATM   10  S1  UNL     1      14.572 -29.247  -9.625  1.00  0.00    -0.141 SA
HETATM   11  C9  UNL     1      15.113 -27.522  -9.221  1.00  0.00     0.059 C 
ENDROOT
BRANCH   8  12
HETATM   12  C8  UNL     1      16.668 -29.884 -11.220  1.00  0.00     0.194 C 
HETATM   13  O2  UNL     1      16.397 -30.604 -12.197  1.00  0.00    -0.647 OA
HETATM   14  O3  UNL     1      17.497 -28.793 -11.382  1.00  0.00    -0.647 OA
ENDBRANCH   8  12
BRANCH  11  15
HETATM   15  C10 UNL     1      14.032 -26.560  -9.401  1.00  0.00     0.016 C 
BRANCH  15  16
HETATM   16  C11 UNL     1      12.623 -26.961  -9.316  1.00  0.00     0.001 C 
BRANCH  16  17
HETATM   17  C12 UNL     1      11.984 -26.640  -7.951  1.00  0.00     0.001 C 
BRANCH  17  18
HETATM   18  C13 UNL     1      10.887 -25.641  -8.158  1.00  0.00     0.010 C 
BRANCH  18  19
HETATM   19  C14 UNL     1      10.815 -25.175  -9.606  1.00  0.00     0.113 C 
BRANCH  19  20
HETATM   20  C15 UNL     1      10.735 -23.712  -9.702  1.00  0.00     0.172 C 
HETATM   21  O4  UNL     1       9.647 -23.086  -9.618  1.00  0.00    -0.648 OA
HETATM   22  O5  UNL     1      11.908 -22.994  -9.892  1.00  0.00    -0.648 OA
ENDBRANCH  19  20
ENDBRANCH  18  19
ENDBRANCH  17  18
ENDBRANCH  16  17
ENDBRANCH  15  16
ENDBRANCH  11  15
TORSDOF 7
ENDMDL
