MODEL 1
REMARK VINA RESULT: -8.389368954      0.000      0.000
REMARK  14 active torsions:
REMARK  status: ('A' for Active; 'I' for Inactive)
REMARK    1  A    between atoms: C3_5  and  O2_6 
REMARK    2  A    between atoms: O2_6  and  C4_7 
REMARK    3  A    between atoms: C4_7  and  N2_8 
REMARK    4  A    between atoms: C4_7  and  C24_40 
REMARK       I    between atoms: N2_8  and  C5_10 
REMARK    5  A    between atoms: C5_10  and  C6_12 
REMARK       I    between atoms: C6_12  and  N3_14 
REMARK    6  A    between atoms: N3_14  and  C7_16 
REMARK    7  A    between atoms: C7_16  and  C8_17 
REMARK    8  A    between atoms: C7_16  and  C20_36 
REMARK       I    between atoms: C8_17  and  N4_19 
REMARK    9  A    between atoms: N4_19  and  C9_21 
REMARK   10  A    between atoms: C9_21  and  C10_22 
REMARK   11  A    between atoms: C9_21  and  C16_32 
REMARK   12  A    between atoms: C10_22  and  C11_24 
REMARK   13  A    between atoms: C11_24  and  S1_25 
REMARK   14  A    between atoms: S1_25  and  C12_28 
ROOT
HETATM    1  C6  UNL     1     -39.099  -5.815 -19.903  1.00  0.00     0.310 C 
HETATM    2  O4  UNL     1     -39.458  -6.185 -21.045  1.00  0.00    -0.262 OA
HETATM    3  N3  UNL     1     -39.066  -6.672 -18.778  1.00  0.00    -0.339 N 
ATOM      4  H3  UNL     1     -38.735  -6.280 -17.895  1.00  0.00     0.163 HD
ENDROOT
BRANCH   3   5
HETATM    5  C7  UNL     1     -39.472  -8.078 -18.787  1.00  0.00     0.184 C 
BRANCH   5   6
HETATM    6  C8  UNL     1     -38.735  -8.836 -19.826  1.00  0.00     0.241 C 
HETATM    7  O5  UNL     1     -37.487  -8.857 -19.728  1.00  0.00    -0.271 OA
HETATM    8  N4  UNL     1     -39.311  -9.518 -20.916  1.00  0.00    -0.347 N 
ATOM      9  H4  UNL     1     -40.329  -9.517 -20.979  1.00  0.00     0.163 HD
BRANCH   8  10
HETATM   10  C9  UNL     1     -38.579 -10.230 -21.966  1.00  0.00     0.162 C 
BRANCH  10  11
HETATM   11  C10 UNL     1     -39.088 -11.612 -21.988  1.00  0.00     0.164 C 
HETATM   12  O6  UNL     1     -38.363 -12.525 -21.487  1.00  0.00    -0.295 OA
BRANCH  11  13
HETATM   13  C11 UNL     1     -40.362 -12.129 -22.521  1.00  0.00     0.221 C 
BRANCH  13  14
HETATM   14  S1  UNL     1     -41.567 -12.371 -21.215  1.00  0.00     0.158 S 
HETATM   15  O7  UNL     1     -41.276 -13.648 -20.481  1.00  0.00    -0.227 OA
HETATM   16  O8  UNL     1     -41.416 -11.267 -20.201  1.00  0.00    -0.227 OA
BRANCH  14  17
HETATM   17  C12 UNL     1     -43.192 -12.447 -21.870  1.00  0.00     0.053 C 
HETATM   18  C13 UNL     1     -43.530 -11.223 -22.703  1.00  0.00     0.031 C 
HETATM   19  C14 UNL     1     -44.254 -12.576 -20.828  1.00  0.00     0.031 C 
HETATM   20  C15 UNL     1     -43.313 -13.632 -22.804  1.00  0.00     0.031 C 
ENDBRANCH  14  17
ENDBRANCH  13  14
ENDBRANCH  11  13
ENDBRANCH  10  11
BRANCH  10  21
HETATM   21  C16 UNL     1     -38.866  -9.590 -23.302  1.00  0.00    -0.024 C 
HETATM   22  C17 UNL     1     -38.686 -10.479 -24.492  1.00  0.00     0.017 C 
HETATM   23  C18 UNL     1     -37.928  -8.410 -23.441  1.00  0.00     0.017 C 
HETATM   24  C19 UNL     1     -40.272  -9.040 -23.387  1.00  0.00     0.017 C 
ENDBRANCH  10  21
ENDBRANCH   8  10
ENDBRANCH   5   6
BRANCH   5  25
HETATM   25  C20 UNL     1     -39.473  -8.618 -17.415  1.00  0.00    -0.022 C 
HETATM   26  C21 UNL     1     -40.638  -7.905 -16.691  1.00  0.00     0.017 C 
HETATM   27  C22 UNL     1     -38.193  -8.333 -16.653  1.00  0.00     0.017 C 
HETATM   28  C23 UNL     1     -39.748 -10.083 -17.251  1.00  0.00     0.017 C 
ENDBRANCH   5  25
ENDBRANCH   3   5
BRANCH   1  29
HETATM   29  C5  UNL     1     -38.702  -4.419 -19.782  1.00  0.00     0.311 C 
HETATM   30  N2  UNL     1     -38.117  -3.837 -18.636  1.00  0.00    -0.326 N 
ATOM     31  H2  UNL     1     -37.959  -4.420 -17.814  1.00  0.00     0.165 HD
HETATM   32  O3  UNL     1     -38.904  -3.661 -20.794  1.00  0.00    -0.262 OA
BRANCH  30  33
HETATM   33  C4  UNL     1     -37.723  -2.400 -18.583  1.00  0.00     0.233 C 
BRANCH  33  34
HETATM   34  O2  UNL     1     -36.415  -2.288 -18.227  1.00  0.00    -0.336 OA
BRANCH  34  35
HETATM   35  C3  UNL     1     -35.485  -3.170 -18.658  1.00  0.00     0.308 C 
HETATM   36  C2  UNL     1     -34.153  -2.541 -18.931  1.00  0.00     0.278 C 
HETATM   37  N1  UNL     1     -33.171  -3.565 -19.034  1.00  0.00    -0.234 N 
HETATM   38  O1  UNL     1     -33.849  -1.324 -19.064  1.00  0.00    -0.268 OA
HETATM   39  C1  UNL     1     -31.966  -3.608 -19.799  1.00  0.00     0.174 C 
HETATM   40  S2  UNL     1     -33.755  -4.812 -17.994  1.00  0.00     0.309 S 
HETATM   41  N5  UNL     1     -35.203  -3.997 -17.436  1.00  0.00    -0.160 NA
HETATM   42  O9  UNL     1     -34.095  -6.070 -18.697  1.00  0.00    -0.188 OA
HETATM   43  O10 UNL     1     -32.858  -5.022 -16.805  1.00  0.00    -0.188 OA
HETATM   44  C28 UNL     1     -34.701  -2.966 -16.491  1.00  0.00     0.134 C 
ENDBRANCH  34  35
ENDBRANCH  33  34
BRANCH  33  45
HETATM   45  C24 UNL     1     -38.663  -1.579 -17.779  1.00  0.00    -0.007 C 
HETATM   46  C25 UNL     1     -39.498  -2.379 -16.808  1.00  0.00     0.019 C 
HETATM   47  C26 UNL     1     -37.951  -0.471 -17.088  1.00  0.00     0.019 C 
HETATM   48  C27 UNL     1     -39.679  -0.914 -18.717  1.00  0.00     0.019 C 
ENDBRANCH  33  45
ENDBRANCH  30  33
ENDBRANCH   1  29
TORSDOF 14
ENDMDL
MODEL 2
REMARK VINA RESULT: -8.160165620      2.382     10.096
REMARK  14 active torsions:
REMARK  status: ('A' for Active; 'I' for Inactive)
REMARK    1  A    between atoms: C3_5  and  O2_6 
REMARK    2  A    between atoms: O2_6  and  C4_7 
REMARK    3  A    between atoms: C4_7  and  N2_8 
REMARK    4  A    between atoms: C4_7  and  C24_40 
REMARK       I    between atoms: N2_8  and  C5_10 
REMARK    5  A    between atoms: C5_10  and  C6_12 
REMARK       I    between atoms: C6_12  and  N3_14 
REMARK    6  A    between atoms: N3_14  and  C7_16 
REMARK    7  A    between atoms: C7_16  and  C8_17 
REMARK    8  A    between atoms: C7_16  and  C20_36 
REMARK       I    between atoms: C8_17  and  N4_19 
REMARK    9  A    between atoms: N4_19  and  C9_21 
REMARK   10  A    between atoms: C9_21  and  C10_22 
REMARK   11  A    between atoms: C9_21  and  C16_32 
REMARK   12  A    between atoms: C10_22  and  C11_24 
REMARK   13  A    between atoms: C11_24  and  S1_25 
REMARK   14  A    between atoms: S1_25  and  C12_28 
ROOT
HETATM    1  C6  UNL     1     -38.579  -5.689 -18.961  1.00  0.00     0.310 C 
HETATM    2  O4  UNL     1     -39.828  -5.783 -18.943  1.00  0.00    -0.262 OA
HETATM    3  N3  UNL     1     -37.888  -4.454 -18.956  1.00  0.00    -0.339 N 
ATOM      4  H3  UNL     1     -36.868  -4.483 -18.948  1.00  0.00     0.163 HD
ENDROOT
BRANCH   3   5
HETATM    5  C7  UNL     1     -38.530  -3.139 -18.963  1.00  0.00     0.184 C 
BRANCH   5   6
HETATM    6  C8  UNL     1     -38.095  -2.329 -17.800  1.00  0.00     0.241 C 
HETATM    7  O5  UNL     1     -38.852  -2.326 -16.803  1.00  0.00    -0.271 OA
HETATM    8  N4  UNL     1     -36.920  -1.556 -17.724  1.00  0.00    -0.347 N 
ATOM      9  H4  UNL     1     -36.296  -1.580 -18.530  1.00  0.00     0.163 HD
BRANCH   8  10
HETATM   10  C9  UNL     1     -36.514  -0.723 -16.591  1.00  0.00     0.162 C 
BRANCH  10  11
HETATM   11  C10 UNL     1     -35.177  -1.181 -16.173  1.00  0.00     0.164 C 
HETATM   12  O6  UNL     1     -34.949  -1.306 -14.932  1.00  0.00    -0.295 OA
BRANCH  11  13
HETATM   13  C11 UNL     1     -34.011  -1.533 -17.003  1.00  0.00     0.221 C 
BRANCH  13  14
HETATM   14  S1  UNL     1     -33.826  -3.312 -17.148  1.00  0.00     0.158 S 
HETATM   15  O7  UNL     1     -33.405  -3.892 -15.829  1.00  0.00    -0.227 OA
HETATM   16  O8  UNL     1     -35.170  -3.919 -17.458  1.00  0.00    -0.227 OA
BRANCH  14  17
HETATM   17  C12 UNL     1     -32.624  -3.718 -18.360  1.00  0.00     0.053 C 
HETATM   18  C13 UNL     1     -32.701  -2.805 -19.570  1.00  0.00     0.031 C 
HETATM   19  C14 UNL     1     -32.728  -5.121 -18.861  1.00  0.00     0.031 C 
HETATM   20  C15 UNL     1     -31.235  -3.532 -17.786  1.00  0.00     0.031 C 
ENDBRANCH  14  17
ENDBRANCH  13  14
ENDBRANCH  11  13
ENDBRANCH  10  11
BRANCH  10  21
HETATM   21  C16 UNL     1     -36.413   0.716 -17.035  1.00  0.00    -0.024 C 
HETATM   22  C17 UNL     1     -35.659   1.621 -16.112  1.00  0.00     0.017 C 
HETATM   23  C18 UNL     1     -37.826   1.240 -17.169  1.00  0.00     0.017 C 
HETATM   24  C19 UNL     1     -35.766   0.855 -18.394  1.00  0.00     0.017 C 
ENDBRANCH  10  21
ENDBRANCH   8  10
ENDBRANCH   5   6
BRANCH   5  25
HETATM   25  C20 UNL     1     -38.427  -2.527 -20.301  1.00  0.00    -0.022 C 
HETATM   26  C21 UNL     1     -39.267  -1.231 -20.229  1.00  0.00     0.017 C 
HETATM   27  C22 UNL     1     -38.991  -3.398 -21.408  1.00  0.00     0.017 C 
HETATM   28  C23 UNL     1     -37.068  -2.088 -20.757  1.00  0.00     0.017 C 
ENDBRANCH   5  25
ENDBRANCH   3   5
BRANCH   1  29
HETATM   29  C5  UNL     1     -37.846  -6.946 -18.985  1.00  0.00     0.311 C 
HETATM   30  N2  UNL     1     -38.416  -8.224 -18.787  1.00  0.00    -0.326 N 
ATOM     31  H2  UNL     1     -39.417  -8.292 -18.603  1.00  0.00     0.165 HD
HETATM   32  O3  UNL     1     -36.585  -6.887 -19.198  1.00  0.00    -0.262 OA
BRANCH  30  33
HETATM   33  C4  UNL     1     -37.607  -9.475 -18.836  1.00  0.00     0.233 C 
BRANCH  33  34
HETATM   34  O2  UNL     1     -38.219 -10.396 -19.629  1.00  0.00    -0.336 OA
BRANCH  34  35
HETATM   35  C3  UNL     1     -38.435 -10.167 -20.944  1.00  0.00     0.308 C 
HETATM   36  C2  UNL     1     -38.537 -11.423 -21.755  1.00  0.00     0.278 C 
HETATM   37  N1  UNL     1     -39.100 -11.109 -23.023  1.00  0.00    -0.234 N 
HETATM   38  O1  UNL     1     -38.207 -12.603 -21.456  1.00  0.00    -0.268 OA
HETATM   39  C1  UNL     1     -38.900 -11.728 -24.295  1.00  0.00     0.174 C 
HETATM   40  S2  UNL     1     -40.131  -9.763 -22.703  1.00  0.00     0.309 S 
HETATM   41  N5  UNL     1     -39.846  -9.651 -20.977  1.00  0.00    -0.160 NA
HETATM   42  O9  UNL     1     -39.720  -8.516 -23.387  1.00  0.00    -0.188 OA
HETATM   43  O10 UNL     1     -41.582 -10.101 -22.908  1.00  0.00    -0.188 OA
HETATM   44  C28 UNL     1     -40.595 -10.802 -20.408  1.00  0.00     0.134 C 
ENDBRANCH  34  35
ENDBRANCH  33  34
BRANCH  33  45
HETATM   45  C24 UNL     1     -37.228  -9.964 -17.487  1.00  0.00    -0.007 C 
HETATM   46  C25 UNL     1     -35.879  -9.477 -17.015  1.00  0.00     0.019 C 
HETATM   47  C26 UNL     1     -38.288  -9.660 -16.488  1.00  0.00     0.019 C 
HETATM   48  C27 UNL     1     -37.103 -11.494 -17.523  1.00  0.00     0.019 C 
ENDBRANCH  33  45
ENDBRANCH  30  33
ENDBRANCH   1  29
TORSDOF 14
ENDMDL
MODEL 3
REMARK VINA RESULT: -7.952822470      2.398     10.081
REMARK  14 active torsions:
REMARK  status: ('A' for Active; 'I' for Inactive)
REMARK    1  A    between atoms: C3_5  and  O2_6 
REMARK    2  A    between atoms: O2_6  and  C4_7 
REMARK    3  A    between atoms: C4_7  and  N2_8 
REMARK    4  A    between atoms: C4_7  and  C24_40 
REMARK       I    between atoms: N2_8  and  C5_10 
REMARK    5  A    between atoms: C5_10  and  C6_12 
REMARK       I    between atoms: C6_12  and  N3_14 
REMARK    6  A    between atoms: N3_14  and  C7_16 
REMARK    7  A    between atoms: C7_16  and  C8_17 
REMARK    8  A    between atoms: C7_16  and  C20_36 
REMARK       I    between atoms: C8_17  and  N4_19 
REMARK    9  A    between atoms: N4_19  and  C9_21 
REMARK   10  A    between atoms: C9_21  and  C10_22 
REMARK   11  A    between atoms: C9_21  and  C16_32 
REMARK   12  A    between atoms: C10_22  and  C11_24 
REMARK   13  A    between atoms: C11_24  and  S1_25 
REMARK   14  A    between atoms: S1_25  and  C12_28 
ROOT
HETATM    1  C6  UNL     1     -38.437  -5.703 -18.796  1.00  0.00     0.310 C 
HETATM    2  O4  UNL     1     -39.677  -5.862 -18.712  1.00  0.00    -0.262 OA
HETATM    3  N3  UNL     1     -37.815  -4.436 -18.886  1.00  0.00    -0.339 N 
ATOM      4  H3  UNL     1     -36.796  -4.411 -18.927  1.00  0.00     0.163 HD
ENDROOT
BRANCH   3   5
HETATM    5  C7  UNL     1     -38.527  -3.157 -18.924  1.00  0.00     0.184 C 
BRANCH   5   6
HETATM    6  C8  UNL     1     -38.146  -2.303 -17.774  1.00  0.00     0.241 C 
HETATM    7  O5  UNL     1     -38.926  -2.296 -16.796  1.00  0.00    -0.271 OA
HETATM    8  N4  UNL     1     -36.998  -1.490 -17.693  1.00  0.00    -0.347 N 
ATOM      9  H4  UNL     1     -36.354  -1.516 -18.484  1.00  0.00     0.163 HD
BRANCH   8  10
HETATM   10  C9  UNL     1     -36.646  -0.613 -16.575  1.00  0.00     0.162 C 
BRANCH  10  11
HETATM   11  C10 UNL     1     -35.311  -1.025 -16.105  1.00  0.00     0.164 C 
HETATM   12  O6  UNL     1     -35.122  -1.125 -14.855  1.00  0.00    -0.295 OA
BRANCH  11  13
HETATM   13  C11 UNL     1     -34.107  -1.355 -16.889  1.00  0.00     0.221 C 
BRANCH  13  14
HETATM   14  S1  UNL     1     -33.887  -3.129 -17.032  1.00  0.00     0.158 S 
HETATM   15  O7  UNL     1     -33.401  -3.692 -15.728  1.00  0.00    -0.227 OA
HETATM   16  O8  UNL     1     -35.228  -3.769 -17.286  1.00  0.00    -0.227 OA
BRANCH  14  17
HETATM   17  C12 UNL     1     -32.725  -3.516 -18.289  1.00  0.00     0.053 C 
HETATM   18  C13 UNL     1     -32.894  -2.635 -19.514  1.00  0.00     0.031 C 
HETATM   19  C14 UNL     1     -32.793  -4.933 -18.754  1.00  0.00     0.031 C 
HETATM   20  C15 UNL     1     -31.321  -3.261 -17.783  1.00  0.00     0.031 C 
ENDBRANCH  14  17
ENDBRANCH  13  14
ENDBRANCH  11  13
ENDBRANCH  10  11
BRANCH  10  21
HETATM   21  C16 UNL     1     -36.566   0.814 -17.061  1.00  0.00    -0.024 C 
HETATM   22  C17 UNL     1     -35.804   1.751 -16.177  1.00  0.00     0.017 C 
HETATM   23  C18 UNL     1     -37.987   1.322 -17.184  1.00  0.00     0.017 C 
HETATM   24  C19 UNL     1     -35.945   0.920 -18.434  1.00  0.00     0.017 C 
ENDBRANCH  10  21
ENDBRANCH   8  10
ENDBRANCH   5   6
BRANCH   5  25
HETATM   25  C20 UNL     1     -38.447  -2.568 -20.273  1.00  0.00    -0.022 C 
HETATM   26  C21 UNL     1     -39.287  -1.272 -20.209  1.00  0.00     0.017 C 
HETATM   27  C22 UNL     1     -39.027  -3.458 -21.356  1.00  0.00     0.017 C 
HETATM   28  C23 UNL     1     -37.096  -2.135 -20.758  1.00  0.00     0.017 C 
ENDBRANCH   5  25
ENDBRANCH   3   5
BRANCH   1  29
HETATM   29  C5  UNL     1     -37.638  -6.921 -18.796  1.00  0.00     0.311 C 
HETATM   30  N2  UNL     1     -38.137  -8.221 -18.557  1.00  0.00    -0.326 N 
ATOM     31  H2  UNL     1     -39.131  -8.337 -18.358  1.00  0.00     0.165 HD
HETATM   32  O3  UNL     1     -36.385  -6.801 -19.027  1.00  0.00    -0.262 OA
BRANCH  30  33
HETATM   33  C4  UNL     1     -37.264  -9.428 -18.583  1.00  0.00     0.233 C 
BRANCH  33  34
HETATM   34  O2  UNL     1     -37.663 -10.271 -19.574  1.00  0.00    -0.336 OA
BRANCH  34  35
HETATM   35  C3  UNL     1     -38.885 -10.167 -20.143  1.00  0.00     0.308 C 
HETATM   36  C2  UNL     1     -38.843  -9.648 -21.548  1.00  0.00     0.278 C 
HETATM   37  N1  UNL     1     -40.097  -9.900 -22.171  1.00  0.00    -0.234 N 
HETATM   38  O1  UNL     1     -37.906  -9.072 -22.165  1.00  0.00    -0.268 OA
HETATM   39  C1  UNL     1     -40.775  -9.171 -23.195  1.00  0.00     0.174 C 
HETATM   40  S2  UNL     1     -40.664 -11.339 -21.406  1.00  0.00     0.309 S 
HETATM   41  N5  UNL     1     -39.293 -11.599 -20.344  1.00  0.00    -0.160 NA
HETATM   42  O9  UNL     1     -41.908 -11.154 -20.626  1.00  0.00    -0.188 OA
HETATM   43  O10 UNL     1     -40.731 -12.498 -22.362  1.00  0.00    -0.188 OA
HETATM   44  C28 UNL     1     -38.219 -12.089 -21.247  1.00  0.00     0.134 C 
ENDBRANCH  34  35
ENDBRANCH  33  34
BRANCH  33  45
HETATM   45  C24 UNL     1     -37.119 -10.058 -17.247  1.00  0.00    -0.007 C 
HETATM   46  C25 UNL     1     -36.930 -11.556 -17.293  1.00  0.00     0.019 C 
HETATM   47  C26 UNL     1     -36.039  -9.405 -16.460  1.00  0.00     0.019 C 
HETATM   48  C27 UNL     1     -38.413  -9.850 -16.449  1.00  0.00     0.019 C 
ENDBRANCH  33  45
ENDBRANCH  30  33
ENDBRANCH   1  29
TORSDOF 14
ENDMDL
MODEL 4
REMARK VINA RESULT: -7.899902569      1.130      1.448
REMARK  14 active torsions:
REMARK  status: ('A' for Active; 'I' for Inactive)
REMARK    1  A    between atoms: C3_5  and  O2_6 
REMARK    2  A    between atoms: O2_6  and  C4_7 
REMARK    3  A    between atoms: C4_7  and  N2_8 
REMARK    4  A    between atoms: C4_7  and  C24_40 
REMARK       I    between atoms: N2_8  and  C5_10 
REMARK    5  A    between atoms: C5_10  and  C6_12 
REMARK       I    between atoms: C6_12  and  N3_14 
REMARK    6  A    between atoms: N3_14  and  C7_16 
REMARK    7  A    between atoms: C7_16  and  C8_17 
REMARK    8  A    between atoms: C7_16  and  C20_36 
REMARK       I    between atoms: C8_17  and  N4_19 
REMARK    9  A    between atoms: N4_19  and  C9_21 
REMARK   10  A    between atoms: C9_21  and  C10_22 
REMARK   11  A    between atoms: C9_21  and  C16_32 
REMARK   12  A    between atoms: C10_22  and  C11_24 
REMARK   13  A    between atoms: C11_24  and  S1_25 
REMARK   14  A    between atoms: S1_25  and  C12_28 
ROOT
HETATM    1  C6  UNL     1     -39.107  -5.967 -19.894  1.00  0.00     0.310 C 
HETATM    2  O4  UNL     1     -39.462  -6.340 -21.036  1.00  0.00    -0.262 OA
HETATM    3  N3  UNL     1     -39.074  -6.822 -18.767  1.00  0.00    -0.339 N 
ATOM      4  H3  UNL     1     -38.746  -6.428 -17.884  1.00  0.00     0.163 HD
ENDROOT
BRANCH   3   5
HETATM    5  C7  UNL     1     -39.475  -8.229 -18.775  1.00  0.00     0.184 C 
BRANCH   5   6
HETATM    6  C8  UNL     1     -38.737  -8.986 -19.815  1.00  0.00     0.241 C 
HETATM    7  O5  UNL     1     -37.491  -9.026 -19.703  1.00  0.00    -0.271 OA
HETATM    8  N4  UNL     1     -39.309  -9.646 -20.920  1.00  0.00    -0.347 N 
ATOM      9  H4  UNL     1     -40.326  -9.629 -20.994  1.00  0.00     0.163 HD
BRANCH   8  10
HETATM   10  C9  UNL     1     -38.576 -10.355 -21.969  1.00  0.00     0.162 C 
BRANCH  10  11
HETATM   11  C10 UNL     1     -39.118 -11.724 -22.027  1.00  0.00     0.164 C 
HETATM   12  O6  UNL     1     -38.407 -12.669 -21.567  1.00  0.00    -0.295 OA
BRANCH  11  13
HETATM   13  C11 UNL     1     -40.411 -12.194 -22.556  1.00  0.00     0.221 C 
BRANCH  13  14
HETATM   14  S1  UNL     1     -41.593 -12.478 -21.237  1.00  0.00     0.158 S 
HETATM   15  O7  UNL     1     -41.294 -13.781 -20.554  1.00  0.00    -0.227 OA
HETATM   16  O8  UNL     1     -41.418 -11.410 -20.188  1.00  0.00    -0.227 OA
BRANCH  14  17
HETATM   17  C12 UNL     1     -43.230 -12.523 -21.864  1.00  0.00     0.053 C 
HETATM   18  C13 UNL     1     -43.540 -11.324 -22.742  1.00  0.00     0.031 C 
HETATM   19  C14 UNL     1     -44.278 -12.573 -20.802  1.00  0.00     0.031 C 
HETATM   20  C15 UNL     1     -43.407 -13.741 -22.747  1.00  0.00     0.031 C 
ENDBRANCH  14  17
ENDBRANCH  13  14
ENDBRANCH  11  13
ENDBRANCH  10  11
BRANCH  10  21
HETATM   21  C16 UNL     1     -38.823  -9.683 -23.298  1.00  0.00    -0.024 C 
HETATM   22  C17 UNL     1     -38.668 -10.561 -24.500  1.00  0.00     0.017 C 
HETATM   23  C18 UNL     1     -37.835  -8.541 -23.409  1.00  0.00     0.017 C 
HETATM   24  C19 UNL     1     -40.204  -9.075 -23.387  1.00  0.00     0.017 C 
ENDBRANCH  10  21
ENDBRANCH   8  10
ENDBRANCH   5   6
BRANCH   5  25
HETATM   25  C20 UNL     1     -39.472  -8.769 -17.403  1.00  0.00    -0.022 C 
HETATM   26  C21 UNL     1     -40.662  -8.088 -16.688  1.00  0.00     0.017 C 
HETATM   27  C22 UNL     1     -38.206  -8.449 -16.630  1.00  0.00     0.017 C 
HETATM   28  C23 UNL     1     -39.708 -10.241 -17.240  1.00  0.00     0.017 C 
ENDBRANCH   5  25
ENDBRANCH   3   5
BRANCH   1  29
HETATM   29  C5  UNL     1     -38.716  -4.570 -19.774  1.00  0.00     0.311 C 
HETATM   30  N2  UNL     1     -38.308  -3.939 -18.577  1.00  0.00    -0.326 N 
ATOM     31  H2  UNL     1     -38.288  -4.486 -17.716  1.00  0.00     0.165 HD
HETATM   32  O3  UNL     1     -38.748  -3.857 -20.837  1.00  0.00    -0.262 OA
BRANCH  30  33
HETATM   33  C4  UNL     1     -37.908  -2.504 -18.527  1.00  0.00     0.233 C 
BRANCH  33  34
HETATM   34  O2  UNL     1     -36.756  -2.365 -17.818  1.00  0.00    -0.336 OA
BRANCH  34  35
HETATM   35  C3  UNL     1     -35.620  -1.910 -18.394  1.00  0.00     0.308 C 
HETATM   36  C2  UNL     1     -34.862  -0.948 -17.530  1.00  0.00     0.278 C 
HETATM   37  N1  UNL     1     -33.545  -0.801 -18.049  1.00  0.00    -0.234 N 
HETATM   38  O1  UNL     1     -35.235  -0.325 -16.500  1.00  0.00    -0.268 OA
HETATM   39  C1  UNL     1     -32.661   0.320 -18.003  1.00  0.00     0.174 C 
HETATM   40  S2  UNL     1     -33.210  -2.327 -18.783  1.00  0.00     0.309 S 
HETATM   41  N5  UNL     1     -34.725  -3.117 -18.390  1.00  0.00    -0.160 NA
HETATM   42  O9  UNL     1     -33.015  -2.258 -20.249  1.00  0.00    -0.188 OA
HETATM   43  O10 UNL     1     -32.109  -3.065 -18.073  1.00  0.00    -0.188 OA
HETATM   44  C28 UNL     1     -34.621  -3.403 -16.935  1.00  0.00     0.134 C 
ENDBRANCH  34  35
ENDBRANCH  33  34
BRANCH  33  45
HETATM   45  C24 UNL     1     -39.018  -1.616 -18.097  1.00  0.00    -0.007 C 
HETATM   46  C25 UNL     1     -38.637  -0.644 -17.006  1.00  0.00     0.019 C 
HETATM   47  C26 UNL     1     -39.620  -0.909 -19.259  1.00  0.00     0.019 C 
HETATM   48  C27 UNL     1     -40.139  -2.470 -17.490  1.00  0.00     0.019 C 
ENDBRANCH  33  45
ENDBRANCH  30  33
ENDBRANCH   1  29
TORSDOF 14
ENDMDL
MODEL 5
REMARK VINA RESULT: -7.854784865      3.025      9.420
REMARK  14 active torsions:
REMARK  status: ('A' for Active; 'I' for Inactive)
REMARK    1  A    between atoms: C3_5  and  O2_6 
REMARK    2  A    between atoms: O2_6  and  C4_7 
REMARK    3  A    between atoms: C4_7  and  N2_8 
REMARK    4  A    between atoms: C4_7  and  C24_40 
REMARK       I    between atoms: N2_8  and  C5_10 
REMARK    5  A    between atoms: C5_10  and  C6_12 
REMARK       I    between atoms: C6_12  and  N3_14 
REMARK    6  A    between atoms: N3_14  and  C7_16 
REMARK    7  A    between atoms: C7_16  and  C8_17 
REMARK    8  A    between atoms: C7_16  and  C20_36 
REMARK       I    between atoms: C8_17  and  N4_19 
REMARK    9  A    between atoms: N4_19  and  C9_21 
REMARK   10  A    between atoms: C9_21  and  C10_22 
REMARK   11  A    between atoms: C9_21  and  C16_32 
REMARK   12  A    between atoms: C10_22  and  C11_24 
REMARK   13  A    between atoms: C11_24  and  S1_25 
REMARK   14  A    between atoms: S1_25  and  C12_28 
ROOT
HETATM    1  C6  UNL     1     -34.732  -5.587 -18.374  1.00  0.00     0.310 C 
HETATM    2  O4  UNL     1     -33.746  -6.071 -18.976  1.00  0.00    -0.262 OA
HETATM    3  N3  UNL     1     -34.743  -4.290 -17.807  1.00  0.00    -0.339 N 
ATOM      4  H3  UNL     1     -35.605  -3.978 -17.358  1.00  0.00     0.163 HD
ENDROOT
BRANCH   3   5
HETATM    5  C7  UNL     1     -33.610  -3.365 -17.819  1.00  0.00     0.184 C 
BRANCH   5   6
HETATM    6  C8  UNL     1     -33.841  -2.254 -18.773  1.00  0.00     0.241 C 
HETATM    7  O5  UNL     1     -33.183  -2.281 -19.838  1.00  0.00    -0.271 OA
HETATM    8  N4  UNL     1     -34.719  -1.169 -18.582  1.00  0.00    -0.347 N 
ATOM      9  H4  UNL     1     -35.269  -1.163 -17.723  1.00  0.00     0.163 HD
BRANCH   8  10
HETATM   10  C9  UNL     1     -34.914  -0.050 -19.505  1.00  0.00     0.162 C 
BRANCH  10  11
HETATM   11  C10 UNL     1     -36.268  -0.185 -20.069  1.00  0.00     0.164 C 
HETATM   12  O6  UNL     1     -36.378  -0.443 -21.306  1.00  0.00    -0.295 OA
BRANCH  11  13
HETATM   13  C11 UNL     1     -37.575  -0.062 -19.398  1.00  0.00     0.221 C 
BRANCH  13  14
HETATM   14  S1  UNL     1     -38.332  -1.669 -19.145  1.00  0.00     0.158 S 
HETATM   15  O7  UNL     1     -39.274  -1.974 -20.274  1.00  0.00    -0.227 OA
HETATM   16  O8  UNL     1     -37.261  -2.728 -19.201  1.00  0.00    -0.227 OA
BRANCH  14  17
HETATM   17  C12 UNL     1     -39.221  -1.710 -17.633  1.00  0.00     0.053 C 
HETATM   18  C13 UNL     1     -40.184  -0.543 -17.504  1.00  0.00     0.031 C 
HETATM   19  C14 UNL     1     -38.347  -1.694 -16.423  1.00  0.00     0.031 C 
HETATM   20  C15 UNL     1     -40.072  -2.960 -17.574  1.00  0.00     0.031 C 
ENDBRANCH  14  17
ENDBRANCH  13  14
ENDBRANCH  11  13
ENDBRANCH  10  11
BRANCH  10  21
HETATM   21  C16 UNL     1     -34.837   1.251 -18.743  1.00  0.00    -0.024 C 
HETATM   22  C17 UNL     1     -35.314   2.458 -19.486  1.00  0.00     0.017 C 
HETATM   23  C18 UNL     1     -33.385   1.462 -18.370  1.00  0.00     0.017 C 
HETATM   24  C19 UNL     1     -35.616   1.207 -17.449  1.00  0.00     0.017 C 
ENDBRANCH  10  21
ENDBRANCH   8  10
ENDBRANCH   5   6
BRANCH   5  25
HETATM   25  C20 UNL     1     -33.222  -3.015 -16.440  1.00  0.00    -0.022 C 
HETATM   26  C21 UNL     1     -32.747  -4.338 -15.796  1.00  0.00     0.017 C 
HETATM   27  C22 UNL     1     -34.368  -2.466 -15.611  1.00  0.00     0.017 C 
HETATM   28  C23 UNL     1     -32.077  -2.062 -16.266  1.00  0.00     0.017 C 
ENDBRANCH   5  25
ENDBRANCH   3   5
BRANCH   1  29
HETATM   29  C5  UNL     1     -35.905  -6.444 -18.282  1.00  0.00     0.311 C 
HETATM   30  N2  UNL     1     -37.035  -6.371 -19.128  1.00  0.00    -0.326 N 
ATOM     31  H2  UNL     1     -37.053  -5.663 -19.861  1.00  0.00     0.165 HD
HETATM   32  O3  UNL     1     -35.913  -7.332 -17.359  1.00  0.00    -0.262 OA
BRANCH  30  33
HETATM   33  C4  UNL     1     -38.199  -7.290 -18.986  1.00  0.00     0.233 C 
BRANCH  33  34
HETATM   34  O2  UNL     1     -37.851  -8.548 -19.369  1.00  0.00    -0.336 OA
BRANCH  34  35
HETATM   35  C3  UNL     1     -37.714  -9.549 -18.470  1.00  0.00     0.308 C 
HETATM   36  C2  UNL     1     -38.980 -10.318 -18.243  1.00  0.00     0.278 C 
HETATM   37  N1  UNL     1     -38.668 -11.535 -17.575  1.00  0.00    -0.234 N 
HETATM   38  O1  UNL     1     -40.167 -10.024 -18.551  1.00  0.00    -0.268 OA
HETATM   39  C1  UNL     1     -39.447 -12.306 -16.660  1.00  0.00     0.174 C 
HETATM   40  S2  UNL     1     -37.076 -11.917 -18.122  1.00  0.00     0.309 S 
HETATM   41  N5  UNL     1     -36.860 -10.549 -19.198  1.00  0.00    -0.160 NA
HETATM   42  O9  UNL     1     -36.055 -11.911 -17.050  1.00  0.00    -0.188 OA
HETATM   43  O10 UNL     1     -37.050 -13.167 -18.957  1.00  0.00    -0.188 OA
HETATM   44  C28 UNL     1     -37.715 -10.870 -20.371  1.00  0.00     0.134 C 
ENDBRANCH  34  35
ENDBRANCH  33  34
BRANCH  33  45
HETATM   45  C24 UNL     1     -39.428  -6.758 -19.627  1.00  0.00    -0.007 C 
HETATM   46  C25 UNL     1     -39.913  -7.580 -20.798  1.00  0.00     0.019 C 
HETATM   47  C26 UNL     1     -40.511  -6.557 -18.628  1.00  0.00     0.019 C 
HETATM   48  C27 UNL     1     -39.129  -5.373 -20.217  1.00  0.00     0.019 C 
ENDBRANCH  33  45
ENDBRANCH  30  33
ENDBRANCH   1  29
TORSDOF 14
ENDMDL
