MODEL 1
REMARK VINA RESULT: -9.564173167      0.000      0.000
REMARK  11 active torsions:
REMARK  status: ('A' for Active; 'I' for Inactive)
REMARK    1  A    between atoms: N1_2  and  C2_4 
REMARK    2  A    between atoms: C2_4  and  C4_6 
REMARK       I    between atoms: C4_6  and  N2_8 
REMARK    3  A    between atoms: N2_8  and  C5_10 
REMARK    4  A    between atoms: C5_10  and  C6_11 
REMARK    5  A    between atoms: C5_10  and  C13_18 
REMARK       I    between atoms: C13_18  and  N3_20 
REMARK    6  A    between atoms: C19_27  and  C20_28 
REMARK    7  A    between atoms: C20_28  and  N4_29 
REMARK    8  A    between atoms: C20_28  and  C30_42 
REMARK    9  A    between atoms: N4_29  and  C21_32 
REMARK   10  A    between atoms: C21_32  and  C23_35 
REMARK   11  A    between atoms: C23_35  and  C24_36 
ROOT
HETATM    1  C21 UNL     1      19.913  46.070  44.954  1.00  0.00     0.296 C 
HETATM    2  C22 UNL     1      19.711  47.528  45.046  1.00  0.00     0.092 C 
HETATM    3  N5  UNL     1      19.580  48.654  45.142  1.00  0.00    -0.195 NA
ENDROOT
BRANCH   1   4
HETATM    4  N4  UNL     1      21.224  45.724  45.514  1.00  0.00    -0.045 N 
ATOM      5  H42 UNL     1      21.174  45.591  46.524  1.00  0.00     0.279 HD
ATOM      6  H41 UNL     1      21.861  46.521  45.491  1.00  0.00     0.279 HD
BRANCH   4   7
HETATM    7  C20 UNL     1      21.806  44.546  44.841  1.00  0.00     0.285 C 
BRANCH   7   8
HETATM    8  C19 UNL     1      23.094  44.814  44.283  1.00  0.00     0.071 C 
HETATM    9  C14 UNL     1      23.884  45.993  44.651  1.00  0.00    -0.004 C 
HETATM   10  N3  UNL     1      23.687  47.118  45.382  1.00  0.00    -0.332 N 
HETATM   11  C15 UNL     1      24.919  46.308  43.495  1.00  0.00     0.053 C 
HETATM   12  C13 UNL     1      23.025  47.619  46.490  1.00  0.00     0.248 C 
ATOM     13  H3  UNL     1      24.225  47.874  44.960  1.00  0.00     0.168 HD
HETATM   14  O2  UNL     1      22.212  47.102  47.239  1.00  0.00    -0.271 OA
HETATM   15  C16 UNL     1      24.157  47.130  42.520  1.00  0.00     0.006 C 
HETATM   16  C17 UNL     1      22.870  46.355  42.216  1.00  0.00     0.001 C 
HETATM   17  C18 UNL     1      22.937  44.937  42.684  1.00  0.00     0.013 C 
BRANCH  12  18
HETATM   18  C5  UNL     1      23.392  49.069  46.871  1.00  0.00     0.200 C 
BRANCH  18  19
HETATM   19  N2  UNL     1      22.509  50.026  46.431  1.00  0.00    -0.339 N 
HETATM   20  C4  UNL     1      22.717  51.382  46.063  1.00  0.00     0.264 C 
HETATM   21  O1  UNL     1      23.929  51.813  46.191  1.00  0.00    -0.266 OA
ATOM     22  H2  UNL     1      21.542  49.709  46.357  1.00  0.00     0.164 HD
BRANCH  20  23
HETATM   23  C2  UNL     1      21.717  52.309  45.562  1.00  0.00     0.069 C 
HETATM   24  C3  UNL     1      20.527  51.762  44.903  1.00  0.00     0.074 C 
BRANCH  23  25
HETATM   25  N1  UNL     1      21.613  53.623  46.128  1.00  0.00    -0.393 N 
HETATM   26  C1  UNL     1      20.259  53.951  46.539  1.00  0.00     0.146 C 
ATOM     27  H1  UNL     1      22.404  54.259  46.231  1.00  0.00     0.159 HD
ENDBRANCH  23  25
ENDBRANCH  20  23
ENDBRANCH  18  19
BRANCH  18  28
HETATM   28  C6  UNL     1      23.842  48.878  48.250  1.00  0.00     0.010 C 
HETATM   29  C7  UNL     1      23.454  49.449  49.487  1.00  0.00    -0.081 C 
HETATM   30  C8  UNL     1      23.598  50.956  49.611  1.00  0.00     0.034 C 
HETATM   31  C12 UNL     1      22.392  48.971  50.395  1.00  0.00     0.034 C 
HETATM   32  C9  UNL     1      23.469  51.320  51.069  1.00  0.00     0.004 C 
HETATM   33  C10 UNL     1      23.826  50.187  51.988  1.00  0.00     0.001 C 
HETATM   34  C11 UNL     1      22.914  49.006  51.842  1.00  0.00     0.004 C 
ENDBRANCH  18  28
ENDBRANCH  12  18
ENDBRANCH   7   8
BRANCH   7  35
HETATM   35  C30 UNL     1      21.384  43.490  45.739  1.00  0.00     0.262 C 
HETATM   36  N6  UNL     1      20.549  43.620  46.882  1.00  0.00    -0.060 NA
HETATM   37  O3  UNL     1      21.740  42.270  45.551  1.00  0.00    -0.275 OA
ENDBRANCH   7  35
ENDBRANCH   4   7
ENDBRANCH   1   4
BRANCH   1  38
HETATM   38  C23 UNL     1      19.887  45.754  43.487  1.00  0.00     0.086 C 
BRANCH  38  39
HETATM   39  C24 UNL     1      18.603  45.321  42.904  1.00  0.00    -0.055 A 
HETATM   40  C25 UNL     1      17.915  44.199  43.205  1.00  0.00     0.007 A 
HETATM   41  C26 UNL     1      16.750  43.870  42.489  1.00  0.00     0.001 A 
HETATM   42  C27 UNL     1      16.244  44.640  41.475  1.00  0.00     0.000 A 
HETATM   43  C28 UNL     1      16.946  45.778  41.172  1.00  0.00     0.001 A 
HETATM   44  C29 UNL     1      18.084  46.117  41.857  1.00  0.00     0.007 A 
ENDBRANCH  38  39
ENDBRANCH   1  38
TORSDOF 11
ENDMDL
MODEL 2
REMARK VINA RESULT: -9.167561354      1.165      1.599
REMARK  11 active torsions:
REMARK  status: ('A' for Active; 'I' for Inactive)
REMARK    1  A    between atoms: N1_2  and  C2_4 
REMARK    2  A    between atoms: C2_4  and  C4_6 
REMARK       I    between atoms: C4_6  and  N2_8 
REMARK    3  A    between atoms: N2_8  and  C5_10 
REMARK    4  A    between atoms: C5_10  and  C6_11 
REMARK    5  A    between atoms: C5_10  and  C13_18 
REMARK       I    between atoms: C13_18  and  N3_20 
REMARK    6  A    between atoms: C19_27  and  C20_28 
REMARK    7  A    between atoms: C20_28  and  N4_29 
REMARK    8  A    between atoms: C20_28  and  C30_42 
REMARK    9  A    between atoms: N4_29  and  C21_32 
REMARK   10  A    between atoms: C21_32  and  C23_35 
REMARK   11  A    between atoms: C23_35  and  C24_36 
ROOT
HETATM    1  C21 UNL     1      19.360  45.147  43.110  1.00  0.00     0.296 C 
HETATM    2  C22 UNL     1      18.496  44.297  43.950  1.00  0.00     0.092 C 
HETATM    3  N5  UNL     1      17.855  43.642  44.623  1.00  0.00    -0.195 NA
ENDROOT
BRANCH   1   4
HETATM    4  N4  UNL     1      20.351  45.821  43.956  1.00  0.00    -0.045 N 
ATOM      5  H42 UNL     1      19.905  46.453  44.621  1.00  0.00     0.279 HD
ATOM      6  H41 UNL     1      20.891  46.505  43.426  1.00  0.00     0.279 HD
BRANCH   4   7
HETATM    7  C20 UNL     1      21.229  44.850  44.639  1.00  0.00     0.285 C 
BRANCH   7   8
HETATM    8  C19 UNL     1      22.582  44.920  44.184  1.00  0.00     0.071 C 
HETATM    9  C14 UNL     1      23.510  45.965  44.627  1.00  0.00    -0.004 C 
HETATM   10  N3  UNL     1      23.429  47.106  45.355  1.00  0.00    -0.332 N 
HETATM   11  C15 UNL     1      24.667  46.121  43.558  1.00  0.00     0.053 C 
HETATM   12  C13 UNL     1      22.766  47.700  46.415  1.00  0.00     0.248 C 
ATOM     13  H3  UNL     1      24.106  47.773  44.985  1.00  0.00     0.168 HD
HETATM   14  O2  UNL     1      21.829  47.313  47.093  1.00  0.00    -0.271 OA
HETATM   15  C16 UNL     1      24.116  47.050  42.538  1.00  0.00     0.006 C 
HETATM   16  C17 UNL     1      22.754  46.479  42.126  1.00  0.00     0.001 C 
HETATM   17  C18 UNL     1      22.569  45.067  42.580  1.00  0.00     0.013 C 
BRANCH  12  18
HETATM   18  C5  UNL     1      23.318  49.078  46.842  1.00  0.00     0.200 C 
BRANCH  18  19
HETATM   19  N2  UNL     1      22.572  50.156  46.426  1.00  0.00    -0.339 N 
HETATM   20  C4  UNL     1      22.934  51.516  46.233  1.00  0.00     0.264 C 
HETATM   21  O1  UNL     1      24.158  51.812  46.526  1.00  0.00    -0.266 OA
ATOM     22  H2  UNL     1      21.596  49.942  46.223  1.00  0.00     0.164 HD
BRANCH  20  23
HETATM   23  C2  UNL     1      22.077  52.581  45.742  1.00  0.00     0.069 C 
HETATM   24  C3  UNL     1      20.625  52.384  45.787  1.00  0.00     0.074 C 
BRANCH  23  25
HETATM   25  N1  UNL     1      22.560  53.931  45.715  1.00  0.00    -0.393 N 
HETATM   26  C1  UNL     1      21.487  54.910  45.728  1.00  0.00     0.146 C 
ATOM     27  H1  UNL     1      23.550  54.178  45.689  1.00  0.00     0.159 HD
ENDBRANCH  23  25
ENDBRANCH  20  23
ENDBRANCH  18  19
BRANCH  18  28
HETATM   28  C6  UNL     1      23.726  48.789  48.217  1.00  0.00     0.010 C 
HETATM   29  C7  UNL     1      23.401  49.367  49.468  1.00  0.00    -0.081 C 
HETATM   30  C8  UNL     1      23.735  50.839  49.641  1.00  0.00     0.034 C 
HETATM   31  C12 UNL     1      22.278  49.001  50.355  1.00  0.00     0.034 C 
HETATM   32  C9  UNL     1      23.639  51.172  51.109  1.00  0.00     0.004 C 
HETATM   33  C10 UNL     1      23.839  49.975  51.994  1.00  0.00     0.001 C 
HETATM   34  C11 UNL     1      22.786  48.925  51.805  1.00  0.00     0.004 C 
ENDBRANCH  18  28
ENDBRANCH  12  18
ENDBRANCH   7   8
BRANCH   7  35
HETATM   35  C30 UNL     1      20.697  44.909  45.985  1.00  0.00     0.262 C 
HETATM   36  N6  UNL     1      19.878  45.931  46.539  1.00  0.00    -0.060 NA
HETATM   37  O3  UNL     1      20.923  43.974  46.837  1.00  0.00    -0.275 OA
ENDBRANCH   7  35
ENDBRANCH   4   7
ENDBRANCH   1   4
BRANCH   1  38
HETATM   38  C23 UNL     1      18.444  46.163  42.493  1.00  0.00     0.086 C 
BRANCH  38  39
HETATM   39  C24 UNL     1      17.435  45.678  41.531  1.00  0.00    -0.055 A 
HETATM   40  C25 UNL     1      17.326  44.427  41.034  1.00  0.00     0.007 A 
HETATM   41  C26 UNL     1      16.369  44.141  40.045  1.00  0.00     0.001 A 
HETATM   42  C27 UNL     1      15.506  45.075  39.534  1.00  0.00     0.000 A 
HETATM   43  C28 UNL     1      15.622  46.345  40.041  1.00  0.00     0.001 A 
HETATM   44  C29 UNL     1      16.547  46.645  41.006  1.00  0.00     0.007 A 
ENDBRANCH  38  39
ENDBRANCH   1  38
TORSDOF 11
ENDMDL
MODEL 3
REMARK VINA RESULT: -8.915732167      1.391      2.182
REMARK  11 active torsions:
REMARK  status: ('A' for Active; 'I' for Inactive)
REMARK    1  A    between atoms: N1_2  and  C2_4 
REMARK    2  A    between atoms: C2_4  and  C4_6 
REMARK       I    between atoms: C4_6  and  N2_8 
REMARK    3  A    between atoms: N2_8  and  C5_10 
REMARK    4  A    between atoms: C5_10  and  C6_11 
REMARK    5  A    between atoms: C5_10  and  C13_18 
REMARK       I    between atoms: C13_18  and  N3_20 
REMARK    6  A    between atoms: C19_27  and  C20_28 
REMARK    7  A    between atoms: C20_28  and  N4_29 
REMARK    8  A    between atoms: C20_28  and  C30_42 
REMARK    9  A    between atoms: N4_29  and  C21_32 
REMARK   10  A    between atoms: C21_32  and  C23_35 
REMARK   11  A    between atoms: C23_35  and  C24_36 
ROOT
HETATM    1  C21 UNL     1      19.321  43.933  43.811  1.00  0.00     0.296 C 
HETATM    2  C22 UNL     1      19.653  43.694  45.228  1.00  0.00     0.092 C 
HETATM    3  N5  UNL     1      19.940  43.525  46.315  1.00  0.00    -0.195 NA
ENDROOT
BRANCH   1   4
HETATM    4  N4  UNL     1      20.169  45.010  43.288  1.00  0.00    -0.045 N 
ATOM      5  H42 UNL     1      19.621  45.703  42.780  1.00  0.00     0.279 HD
ATOM      6  H41 UNL     1      20.758  44.682  42.522  1.00  0.00     0.279 HD
BRANCH   4   7
HETATM    7  C20 UNL     1      20.972  45.635  44.358  1.00  0.00     0.285 C 
BRANCH   7   8
HETATM    8  C19 UNL     1      22.374  45.414  44.192  1.00  0.00     0.071 C 
HETATM    9  C14 UNL     1      23.387  46.279  44.803  1.00  0.00    -0.004 C 
HETATM   10  N3  UNL     1      23.396  47.453  45.482  1.00  0.00    -0.332 N 
HETATM   11  C15 UNL     1      24.741  46.147  43.993  1.00  0.00     0.053 C 
HETATM   12  C13 UNL     1      22.669  48.223  46.374  1.00  0.00     0.248 C 
ATOM     13  H3  UNL     1      24.254  47.953  45.250  1.00  0.00     0.168 HD
HETATM   14  O2  UNL     1      21.556  48.064  46.849  1.00  0.00    -0.271 OA
HETATM   15  C16 UNL     1      24.605  47.107  42.868  1.00  0.00     0.006 C 
HETATM   16  C17 UNL     1      23.267  46.793  42.192  1.00  0.00     0.001 C 
HETATM   17  C18 UNL     1      22.712  45.471  42.618  1.00  0.00     0.013 C 
BRANCH  12  18
HETATM   18  C5  UNL     1      23.392  49.487  46.886  1.00  0.00     0.200 C 
BRANCH  18  19
HETATM   19  N2  UNL     1      22.783  50.676  46.560  1.00  0.00    -0.339 N 
HETATM   20  C4  UNL     1      23.297  52.000  46.510  1.00  0.00     0.264 C 
HETATM   21  O1  UNL     1      24.535  52.129  46.861  1.00  0.00    -0.266 OA
ATOM     22  H2  UNL     1      21.797  50.594  46.314  1.00  0.00     0.164 HD
BRANCH  20  23
HETATM   23  C2  UNL     1      22.579  53.195  46.106  1.00  0.00     0.069 C 
HETATM   24  C3  UNL     1      23.344  54.312  45.544  1.00  0.00     0.074 C 
BRANCH  23  25
HETATM   25  N1  UNL     1      21.187  53.114  45.769  1.00  0.00    -0.393 N 
HETATM   26  C1  UNL     1      20.338  53.804  46.723  1.00  0.00     0.146 C 
ATOM     27  H1  UNL     1      20.831  52.623  44.948  1.00  0.00     0.159 HD
ENDBRANCH  23  25
ENDBRANCH  20  23
ENDBRANCH  18  19
BRANCH  18  28
HETATM   28  C6  UNL     1      23.773  49.052  48.229  1.00  0.00     0.010 C 
HETATM   29  C7  UNL     1      23.432  49.500  49.529  1.00  0.00    -0.081 C 
HETATM   30  C8  UNL     1      23.777  50.942  49.860  1.00  0.00     0.034 C 
HETATM   31  C12 UNL     1      22.290  49.056  50.354  1.00  0.00     0.034 C 
HETATM   32  C9  UNL     1      23.658  51.121  51.353  1.00  0.00     0.004 C 
HETATM   33  C10 UNL     1      23.832  49.837  52.111  1.00  0.00     0.001 C 
HETATM   34  C11 UNL     1      22.772  48.824  51.797  1.00  0.00     0.004 C 
ENDBRANCH  18  28
ENDBRANCH  12  18
ENDBRANCH   7   8
BRANCH   7  35
HETATM   35  C30 UNL     1      20.243  46.872  44.551  1.00  0.00     0.262 C 
HETATM   36  N6  UNL     1      19.220  47.124  45.505  1.00  0.00    -0.060 NA
HETATM   37  O3  UNL     1      20.491  47.913  43.839  1.00  0.00    -0.275 OA
ENDBRANCH   7  35
ENDBRANCH   4   7
ENDBRANCH   1   4
BRANCH   1  38
HETATM   38  C23 UNL     1      17.886  44.368  43.804  1.00  0.00     0.086 C 
BRANCH  38  39
HETATM   39  C24 UNL     1      17.299  44.767  42.510  1.00  0.00    -0.055 A 
HETATM   40  C25 UNL     1      17.618  45.856  41.778  1.00  0.00     0.007 A 
HETATM   41  C26 UNL     1      16.898  46.157  40.609  1.00  0.00     0.001 A 
HETATM   42  C27 UNL     1      15.862  45.393  40.141  1.00  0.00     0.000 A 
HETATM   43  C28 UNL     1      15.541  44.289  40.888  1.00  0.00     0.001 A 
HETATM   44  C29 UNL     1      16.230  43.976  42.031  1.00  0.00     0.007 A 
ENDBRANCH  38  39
ENDBRANCH   1  38
TORSDOF 11
ENDMDL
MODEL 4
REMARK VINA RESULT: -8.700414577      2.676      8.045
REMARK  11 active torsions:
REMARK  status: ('A' for Active; 'I' for Inactive)
REMARK    1  A    between atoms: N1_2  and  C2_4 
REMARK    2  A    between atoms: C2_4  and  C4_6 
REMARK       I    between atoms: C4_6  and  N2_8 
REMARK    3  A    between atoms: N2_8  and  C5_10 
REMARK    4  A    between atoms: C5_10  and  C6_11 
REMARK    5  A    between atoms: C5_10  and  C13_18 
REMARK       I    between atoms: C13_18  and  N3_20 
REMARK    6  A    between atoms: C19_27  and  C20_28 
REMARK    7  A    between atoms: C20_28  and  N4_29 
REMARK    8  A    between atoms: C20_28  and  C30_42 
REMARK    9  A    between atoms: N4_29  and  C21_32 
REMARK   10  A    between atoms: C21_32  and  C23_35 
REMARK   11  A    between atoms: C23_35  and  C24_36 
ROOT
HETATM    1  C21 UNL     1      22.854  51.349  45.019  1.00  0.00     0.296 C 
HETATM    2  C22 UNL     1      21.435  50.999  44.819  1.00  0.00     0.092 C 
HETATM    3  N5  UNL     1      20.350  50.695  44.664  1.00  0.00    -0.195 NA
ENDROOT
BRANCH   1   4
HETATM    4  N4  UNL     1      23.583  50.169  45.496  1.00  0.00    -0.045 N 
ATOM      5  H42 UNL     1      23.779  50.230  46.495  1.00  0.00     0.279 HD
ATOM      6  H41 UNL     1      24.542  50.157  45.148  1.00  0.00     0.279 HD
BRANCH   4   7
HETATM    7  C20 UNL     1      22.871  48.920  45.160  1.00  0.00     0.285 C 
BRANCH   7   8
HETATM    8  C19 UNL     1      23.106  48.499  43.815  1.00  0.00     0.071 C 
HETATM    9  C14 UNL     1      22.214  47.574  43.110  1.00  0.00    -0.004 C 
HETATM   10  N3  UNL     1      21.144  46.805  43.431  1.00  0.00    -0.332 N 
HETATM   11  C15 UNL     1      23.013  46.874  41.936  1.00  0.00     0.053 C 
HETATM   12  C13 UNL     1      20.029  46.744  44.249  1.00  0.00     0.248 C 
ATOM     13  H3  UNL     1      21.170  45.962  42.859  1.00  0.00     0.168 HD
HETATM   14  O2  UNL     1      19.650  47.481  45.144  1.00  0.00    -0.271 OA
HETATM   15  C16 UNL     1      23.695  45.720  42.577  1.00  0.00     0.006 C 
HETATM   16  C17 UNL     1      24.441  46.282  43.792  1.00  0.00     0.001 C 
HETATM   17  C18 UNL     1      24.544  47.773  43.757  1.00  0.00     0.013 C 
BRANCH  12  18
HETATM   18  C5  UNL     1      19.079  45.559  43.971  1.00  0.00     0.200 C 
BRANCH  18  19
HETATM   19  N2  UNL     1      18.127  45.792  43.007  1.00  0.00    -0.339 N 
HETATM   20  C4  UNL     1      17.169  44.924  42.419  1.00  0.00     0.264 C 
HETATM   21  O1  UNL     1      17.210  43.696  42.822  1.00  0.00    -0.266 OA
ATOM     22  H2  UNL     1      18.106  46.750  42.655  1.00  0.00     0.164 HD
BRANCH  20  23
HETATM   23  C2  UNL     1      16.166  45.280  41.430  1.00  0.00     0.069 C 
HETATM   24  C3  UNL     1      16.571  45.365  40.024  1.00  0.00     0.074 C 
BRANCH  23  25
HETATM   25  N1  UNL     1      14.777  45.044  41.704  1.00  0.00    -0.393 N 
HETATM   26  C1  UNL     1      13.932  46.158  41.314  1.00  0.00     0.146 C 
ATOM     27  H1  UNL     1      14.423  44.185  42.126  1.00  0.00     0.159 HD
ENDBRANCH  23  25
ENDBRANCH  20  23
ENDBRANCH  18  19
BRANCH  18  28
HETATM   28  C6  UNL     1      20.026  44.444  43.998  1.00  0.00     0.010 C 
HETATM   29  C7  UNL     1      20.957  43.983  44.960  1.00  0.00    -0.081 C 
HETATM   30  C8  UNL     1      22.044  44.962  45.374  1.00  0.00     0.034 C 
HETATM   31  C12 UNL     1      20.708  43.021  46.052  1.00  0.00     0.034 C 
HETATM   32  C9  UNL     1      23.107  44.195  46.118  1.00  0.00     0.004 C 
HETATM   33  C10 UNL     1      23.139  42.738  45.755  1.00  0.00     0.001 C 
HETATM   34  C11 UNL     1      21.873  42.017  46.113  1.00  0.00     0.004 C 
ENDBRANCH  18  28
ENDBRANCH  12  18
ENDBRANCH   7   8
BRANCH   7  35
HETATM   35  C30 UNL     1      23.017  48.187  46.402  1.00  0.00     0.262 C 
HETATM   36  N6  UNL     1      24.205  48.020  47.164  1.00  0.00    -0.060 NA
HETATM   37  O3  UNL     1      22.014  47.606  46.958  1.00  0.00    -0.275 OA
ENDBRANCH   7  35
ENDBRANCH   4   7
ENDBRANCH   1   4
BRANCH   1  38
HETATM   38  C23 UNL     1      22.858  52.411  46.079  1.00  0.00     0.086 C 
BRANCH  38  39
HETATM   39  C24 UNL     1      23.764  53.561  45.889  1.00  0.00    -0.055 A 
HETATM   40  C25 UNL     1      25.067  53.632  46.236  1.00  0.00     0.007 A 
HETATM   41  C26 UNL     1      25.775  54.836  46.081  1.00  0.00     0.001 A 
HETATM   42  C27 UNL     1      25.217  55.983  45.579  1.00  0.00     0.000 A 
HETATM   43  C28 UNL     1      23.894  55.906  45.228  1.00  0.00     0.001 A 
HETATM   44  C29 UNL     1      23.184  54.742  45.371  1.00  0.00     0.007 A 
ENDBRANCH  38  39
ENDBRANCH   1  38
TORSDOF 11
ENDMDL
MODEL 5
REMARK VINA RESULT: -7.771860397      2.591      8.197
REMARK  11 active torsions:
REMARK  status: ('A' for Active; 'I' for Inactive)
REMARK    1  A    between atoms: N1_2  and  C2_4 
REMARK    2  A    between atoms: C2_4  and  C4_6 
REMARK       I    between atoms: C4_6  and  N2_8 
REMARK    3  A    between atoms: N2_8  and  C5_10 
REMARK    4  A    between atoms: C5_10  and  C6_11 
REMARK    5  A    between atoms: C5_10  and  C13_18 
REMARK       I    between atoms: C13_18  and  N3_20 
REMARK    6  A    between atoms: C19_27  and  C20_28 
REMARK    7  A    between atoms: C20_28  and  N4_29 
REMARK    8  A    between atoms: C20_28  and  C30_42 
REMARK    9  A    between atoms: N4_29  and  C21_32 
REMARK   10  A    between atoms: C21_32  and  C23_35 
REMARK   11  A    between atoms: C23_35  and  C24_36 
ROOT
HETATM    1  C21 UNL     1      23.064  51.491  46.892  1.00  0.00     0.296 C 
HETATM    2  C22 UNL     1      23.411  51.013  48.243  1.00  0.00     0.092 C 
HETATM    3  N5  UNL     1      23.659  50.614  49.279  1.00  0.00    -0.195 NA
ENDROOT
BRANCH   1   4
HETATM    4  N4  UNL     1      22.663  50.350  46.061  1.00  0.00    -0.045 N 
ATOM      5  H42 UNL     1      21.891  49.834  46.482  1.00  0.00     0.279 HD
ATOM      6  H41 UNL     1      23.370  49.615  46.071  1.00  0.00     0.279 HD
BRANCH   4   7
HETATM    7  C20 UNL     1      22.342  50.772  44.683  1.00  0.00     0.285 C 
BRANCH   7   8
HETATM    8  C19 UNL     1      22.803  49.840  43.702  1.00  0.00     0.071 C 
HETATM    9  C14 UNL     1      22.218  48.504  43.548  1.00  0.00    -0.004 C 
HETATM   10  N3  UNL     1      21.321  47.741  44.220  1.00  0.00    -0.332 N 
HETATM   11  C15 UNL     1      23.270  47.555  42.841  1.00  0.00     0.053 C 
HETATM   12  C13 UNL     1      20.171  47.800  44.987  1.00  0.00     0.248 C 
ATOM     13  H3  UNL     1      21.595  46.763  44.124  1.00  0.00     0.168 HD
HETATM   14  O2  UNL     1      19.546  48.752  45.423  1.00  0.00    -0.271 OA
HETATM   15  C16 UNL     1      24.124  47.048  43.945  1.00  0.00     0.006 C 
HETATM   16  C17 UNL     1      24.597  48.280  44.725  1.00  0.00     0.001 C 
HETATM   17  C18 UNL     1      24.365  49.551  43.974  1.00  0.00     0.013 C 
BRANCH  12  18
HETATM   18  C5  UNL     1      19.545  46.431  45.332  1.00  0.00     0.200 C 
BRANCH  18  19
HETATM   19  N2  UNL     1      18.715  45.912  44.367  1.00  0.00    -0.339 N 
HETATM   20  C4  UNL     1      18.986  45.491  43.037  1.00  0.00     0.264 C 
HETATM   21  O1  UNL     1      20.207  45.649  42.643  1.00  0.00    -0.266 OA
ATOM     22  H2  UNL     1      17.741  45.813  44.654  1.00  0.00     0.164 HD
BRANCH  20  23
HETATM   23  C2  UNL     1      18.041  44.908  42.101  1.00  0.00     0.069 C 
HETATM   24  C3  UNL     1      16.906  44.150  42.637  1.00  0.00     0.074 C 
BRANCH  23  25
HETATM   25  N1  UNL     1      17.900  45.465  40.787  1.00  0.00    -0.393 N 
HETATM   26  C1  UNL     1      16.648  46.179  40.612  1.00  0.00     0.146 C 
ATOM     27  H1  UNL     1      18.604  45.371  40.054  1.00  0.00     0.159 HD
ENDBRANCH  23  25
ENDBRANCH  20  23
ENDBRANCH  18  19
BRANCH  18  28
HETATM   28  C6  UNL     1      20.694  45.756  45.937  1.00  0.00     0.010 C 
HETATM   29  C7  UNL     1      21.371  44.545  45.650  1.00  0.00    -0.081 C 
HETATM   30  C8  UNL     1      20.542  43.274  45.720  1.00  0.00     0.034 C 
HETATM   31  C12 UNL     1      22.502  44.356  44.720  1.00  0.00     0.034 C 
HETATM   32  C9  UNL     1      21.487  42.099  45.726  1.00  0.00     0.004 C 
HETATM   33  C10 UNL     1      22.853  42.450  46.243  1.00  0.00     0.001 C 
HETATM   34  C11 UNL     1      23.560  43.461  45.391  1.00  0.00     0.004 C 
ENDBRANCH  18  28
ENDBRANCH  12  18
ENDBRANCH   7   8
BRANCH   7  35
HETATM   35  C30 UNL     1      21.023  51.340  44.878  1.00  0.00     0.262 C 
HETATM   36  N6  UNL     1      20.662  52.379  45.778  1.00  0.00    -0.060 NA
HETATM   37  O3  UNL     1      20.012  50.934  44.196  1.00  0.00    -0.275 OA
ENDBRANCH   7  35
ENDBRANCH   4   7
ENDBRANCH   1   4
BRANCH   1  38
HETATM   38  C23 UNL     1      24.323  52.099  46.348  1.00  0.00     0.086 C 
BRANCH  38  39
HETATM   39  C24 UNL     1      24.317  53.549  46.073  1.00  0.00    -0.055 A 
HETATM   40  C25 UNL     1      23.285  54.279  45.598  1.00  0.00     0.007 A 
HETATM   41  C26 UNL     1      23.464  55.639  45.291  1.00  0.00     0.001 A 
HETATM   42  C27 UNL     1      24.653  56.301  45.451  1.00  0.00     0.000 A 
HETATM   43  C28 UNL     1      25.698  55.556  45.933  1.00  0.00     0.001 A 
HETATM   44  C29 UNL     1      25.546  54.228  46.239  1.00  0.00     0.007 A 
ENDBRANCH  38  39
ENDBRANCH   1  38
TORSDOF 11
ENDMDL
