MODEL 1
REMARK VINA RESULT: -7.118900592      0.000      0.000
REMARK  4 active torsions:
REMARK  status: ('A' for Active; 'I' for Inactive)
REMARK    1  A    between atoms: C2_2  and  C3_3 
REMARK    2  A    between atoms: C3_3  and  O1_4 
REMARK    3  A    between atoms: O1_4  and  C4_5 
REMARK       I    between atoms: C4_5  and  N1_7 
REMARK       I    between atoms: N1_7  and  C5_9 
REMARK       I    between atoms: C5_9  and  N2_11 
REMARK    4  A    between atoms: N2_11  and  C6_13 
ROOT
HETATM    1  C4  UNL     1      -0.002  84.122  25.782  1.00  0.00     0.368 C 
HETATM    2  O2  UNL     1      -0.503  83.046  26.292  1.00  0.00    -0.238 OA
HETATM    3  N1  UNL     1      -0.850  85.200  25.447  1.00  0.00    -0.255 N 
ATOM      4  H1  UNL     1      -1.844  85.069  25.631  1.00  0.00     0.175 HD
HETATM    5  C5  UNL     1      -0.480  86.422  24.893  1.00  0.00     0.326 C 
HETATM    6  O3  UNL     1      -1.425  87.271  24.666  1.00  0.00    -0.247 OA
HETATM    7  N2  UNL     1       0.836  86.809  24.557  1.00  0.00    -0.310 N 
ATOM      8  H2  UNL     1       1.603  86.157  24.724  1.00  0.00     0.167 HD
ENDROOT
BRANCH   7   9
HETATM    9  C6  UNL     1       1.122  88.096  23.988  1.00  0.00     0.139 C 
HETATM   10  C7  UNL     1       2.384  88.191  23.196  1.00  0.00     0.062 C 
HETATM   11  C8  UNL     1       2.131  89.351  22.217  1.00  0.00     0.017 C 
HETATM   12  C9  UNL     1       0.778  89.852  22.648  1.00  0.00    -0.009 C 
HETATM   13  C10 UNL     1       0.061  90.714  21.718  1.00  0.00     0.018 C 
HETATM   14  C11 UNL     1       0.095  88.490  22.909  1.00  0.00     0.073 C 
HETATM   15  C12 UNL     1       0.842  90.310  24.088  1.00  0.00     0.064 C 
HETATM   16  C13 UNL     1      -0.529  90.845  24.502  1.00  0.00     0.046 C 
HETATM   17  C14 UNL     1       1.837  91.383  24.343  1.00  0.00     0.046 C 
HETATM   18  O4  UNL     1       1.043  89.157  24.851  1.00  0.00    -0.350 OA
ENDBRANCH   7   9
BRANCH   1  19
HETATM   19  O1  UNL     1       1.361  84.074  25.620  1.00  0.00    -0.304 OA
BRANCH  19  20
HETATM   20  C3  UNL     1       2.233  83.089  26.100  1.00  0.00     0.180 C 
BRANCH  20  21
HETATM   21  C2  UNL     1       3.579  83.057  25.439  1.00  0.00     0.022 C 
HETATM   22  C1  UNL     1       4.559  82.181  26.191  1.00  0.00     0.007 C 
ENDBRANCH  20  21
ENDBRANCH  19  20
ENDBRANCH   1  19
TORSDOF 4
ENDMDL
MODEL 2
REMARK VINA RESULT: -6.946804851      1.017      1.977
REMARK  4 active torsions:
REMARK  status: ('A' for Active; 'I' for Inactive)
REMARK    1  A    between atoms: C2_2  and  C3_3 
REMARK    2  A    between atoms: C3_3  and  O1_4 
REMARK    3  A    between atoms: O1_4  and  C4_5 
REMARK       I    between atoms: C4_5  and  N1_7 
REMARK       I    between atoms: N1_7  and  C5_9 
REMARK       I    between atoms: C5_9  and  N2_11 
REMARK    4  A    between atoms: N2_11  and  C6_13 
ROOT
HETATM    1  C4  UNL     1       0.067  83.773  26.160  1.00  0.00     0.368 C 
HETATM    2  O2  UNL     1      -0.342  82.752  26.839  1.00  0.00    -0.238 OA
HETATM    3  N1  UNL     1      -0.854  84.770  25.769  1.00  0.00    -0.255 N 
ATOM      4  H1  UNL     1      -1.823  84.628  26.053  1.00  0.00     0.175 HD
HETATM    5  C5  UNL     1      -0.586  85.925  25.041  1.00  0.00     0.326 C 
HETATM    6  O3  UNL     1      -1.584  86.705  24.794  1.00  0.00    -0.247 OA
HETATM    7  N2  UNL     1       0.680  86.313  24.550  1.00  0.00    -0.310 N 
ATOM      8  H2  UNL     1       1.487  85.715  24.728  1.00  0.00     0.167 HD
ENDROOT
BRANCH   7   9
HETATM    9  C6  UNL     1       0.859  87.528  23.805  1.00  0.00     0.139 C 
HETATM   10  C7  UNL     1      -0.349  88.036  23.090  1.00  0.00     0.062 C 
HETATM   11  C8  UNL     1      -0.105  89.550  22.961  1.00  0.00     0.017 C 
HETATM   12  C9  UNL     1       1.280  89.706  23.533  1.00  0.00    -0.009 C 
HETATM   13  C10 UNL     1       1.699  91.051  23.902  1.00  0.00     0.018 C 
HETATM   14  C11 UNL     1       1.155  88.728  24.724  1.00  0.00     0.073 C 
HETATM   15  C12 UNL     1       2.259  88.888  22.719  1.00  0.00     0.064 C 
HETATM   16  C13 UNL     1       3.664  89.082  23.290  1.00  0.00     0.046 C 
HETATM   17  C14 UNL     1       2.307  89.250  21.280  1.00  0.00     0.046 C 
HETATM   18  O4  UNL     1       1.936  87.550  22.957  1.00  0.00    -0.350 OA
ENDBRANCH   7   9
BRANCH   1  19
HETATM   19  O1  UNL     1       1.412  83.754  25.890  1.00  0.00    -0.304 OA
BRANCH  19  20
HETATM   20  C3  UNL     1       2.333  82.766  26.261  1.00  0.00     0.180 C 
BRANCH  20  21
HETATM   21  C2  UNL     1       3.652  82.827  25.549  1.00  0.00     0.022 C 
HETATM   22  C1  UNL     1       4.745  82.114  26.317  1.00  0.00     0.007 C 
ENDBRANCH  20  21
ENDBRANCH  19  20
ENDBRANCH   1  19
TORSDOF 4
ENDMDL
MODEL 3
REMARK VINA RESULT: -6.634800685      1.014      1.139
REMARK  4 active torsions:
REMARK  status: ('A' for Active; 'I' for Inactive)
REMARK    1  A    between atoms: C2_2  and  C3_3 
REMARK    2  A    between atoms: C3_3  and  O1_4 
REMARK    3  A    between atoms: O1_4  and  C4_5 
REMARK       I    between atoms: C4_5  and  N1_7 
REMARK       I    between atoms: N1_7  and  C5_9 
REMARK       I    between atoms: C5_9  and  N2_11 
REMARK    4  A    between atoms: N2_11  and  C6_13 
ROOT
HETATM    1  C4  UNL     1      -1.413  84.850  25.776  1.00  0.00     0.368 C 
HETATM    2  O2  UNL     1      -2.184  83.942  26.275  1.00  0.00    -0.238 OA
HETATM    3  N1  UNL     1      -1.941  86.121  25.457  1.00  0.00    -0.255 N 
ATOM      4  H1  UNL     1      -2.934  86.258  25.644  1.00  0.00     0.175 HD
HETATM    5  C5  UNL     1      -1.258  87.206  24.918  1.00  0.00     0.326 C 
HETATM    6  O3  UNL     1      -1.941  88.280  24.705  1.00  0.00    -0.247 OA
HETATM    7  N2  UNL     1       0.114  87.231  24.583  1.00  0.00    -0.310 N 
ATOM      8  H2  UNL     1       0.679  86.396  24.738  1.00  0.00     0.167 HD
ENDROOT
BRANCH   7   9
HETATM    9  C6  UNL     1       0.733  88.402  24.028  1.00  0.00     0.139 C 
HETATM   10  C7  UNL     1       2.148  88.239  23.580  1.00  0.00     0.062 C 
HETATM   11  C8  UNL     1       2.332  89.320  22.501  1.00  0.00     0.017 C 
HETATM   12  C9  UNL     1       1.014  90.047  22.542  1.00  0.00    -0.009 C 
HETATM   13  C10 UNL     1       0.693  90.905  21.409  1.00  0.00     0.018 C 
HETATM   14  C11 UNL     1       0.077  88.828  22.701  1.00  0.00     0.073 C 
HETATM   15  C12 UNL     1       0.800  90.632  23.920  1.00  0.00     0.064 C 
HETATM   16  C13 UNL     1      -0.526  91.394  23.936  1.00  0.00     0.046 C 
HETATM   17  C14 UNL     1       1.862  91.574  24.355  1.00  0.00     0.046 C 
HETATM   18  O4  UNL     1       0.620  89.544  24.777  1.00  0.00    -0.350 OA
ENDBRANCH   7   9
BRANCH   1  19
HETATM   19  O1  UNL     1      -0.113  84.442  25.610  1.00  0.00    -0.304 OA
BRANCH  19  20
HETATM   20  C3  UNL     1       0.574  83.484  26.366  1.00  0.00     0.180 C 
BRANCH  20  21
HETATM   21  C2  UNL     1       2.009  83.281  25.981  1.00  0.00     0.022 C 
HETATM   22  C1  UNL     1       2.657  82.168  26.778  1.00  0.00     0.007 C 
ENDBRANCH  20  21
ENDBRANCH  19  20
ENDBRANCH   1  19
TORSDOF 4
ENDMDL
MODEL 4
REMARK VINA RESULT: -6.626555017      2.860      6.299
REMARK  4 active torsions:
REMARK  status: ('A' for Active; 'I' for Inactive)
REMARK    1  A    between atoms: C2_2  and  C3_3 
REMARK    2  A    between atoms: C3_3  and  O1_4 
REMARK    3  A    between atoms: O1_4  and  C4_5 
REMARK       I    between atoms: C4_5  and  N1_7 
REMARK       I    between atoms: N1_7  and  C5_9 
REMARK       I    between atoms: C5_9  and  N2_11 
REMARK    4  A    between atoms: N2_11  and  C6_13 
ROOT
HETATM    1  C4  UNL     1       2.855  83.854  25.360  1.00  0.00     0.368 C 
HETATM    2  O2  UNL     1       4.125  83.636  25.271  1.00  0.00    -0.238 OA
HETATM    3  N1  UNL     1       2.057  83.026  26.180  1.00  0.00    -0.255 N 
ATOM      4  H1  UNL     1       2.541  82.276  26.673  1.00  0.00     0.175 HD
HETATM    5  C5  UNL     1       0.685  83.120  26.390  1.00  0.00     0.326 C 
HETATM    6  O3  UNL     1       0.155  82.253  27.186  1.00  0.00    -0.247 OA
HETATM    7  N2  UNL     1      -0.174  84.078  25.807  1.00  0.00    -0.310 N 
ATOM      8  H2  UNL     1       0.217  84.774  25.173  1.00  0.00     0.167 HD
ENDROOT
BRANCH   7   9
HETATM    9  C6  UNL     1      -1.583  84.096  26.085  1.00  0.00     0.139 C 
HETATM   10  C7  UNL     1      -1.965  84.467  27.479  1.00  0.00     0.062 C 
HETATM   11  C8  UNL     1      -3.389  85.034  27.344  1.00  0.00     0.017 C 
HETATM   12  C9  UNL     1      -3.689  84.817  25.884  1.00  0.00    -0.009 C 
HETATM   13  C10 UNL     1      -4.809  85.556  25.318  1.00  0.00     0.018 C 
HETATM   14  C11 UNL     1      -2.310  85.204  25.300  1.00  0.00     0.073 C 
HETATM   15  C12 UNL     1      -3.619  83.339  25.568  1.00  0.00     0.064 C 
HETATM   16  C13 UNL     1      -3.958  83.131  24.091  1.00  0.00     0.046 C 
HETATM   17  C14 UNL     1      -4.552  82.501  26.362  1.00  0.00     0.046 C 
HETATM   18  O4  UNL     1      -2.277  82.978  25.702  1.00  0.00    -0.350 OA
ENDBRANCH   7   9
BRANCH   1  19
HETATM   19  O1  UNL     1       2.422  84.917  24.607  1.00  0.00    -0.304 OA
BRANCH  19  20
HETATM   20  C3  UNL     1       3.137  86.083  24.304  1.00  0.00     0.180 C 
BRANCH  20  21
HETATM   21  C2  UNL     1       2.294  87.300  24.066  1.00  0.00     0.022 C 
HETATM   22  C1  UNL     1       0.814  86.989  24.150  1.00  0.00     0.007 C 
ENDBRANCH  20  21
ENDBRANCH  19  20
ENDBRANCH   1  19
TORSDOF 4
ENDMDL
MODEL 5
REMARK VINA RESULT: -6.494100095      2.958      3.956
REMARK  4 active torsions:
REMARK  status: ('A' for Active; 'I' for Inactive)
REMARK    1  A    between atoms: C2_2  and  C3_3 
REMARK    2  A    between atoms: C3_3  and  O1_4 
REMARK    3  A    between atoms: O1_4  and  C4_5 
REMARK       I    between atoms: C4_5  and  N1_7 
REMARK       I    between atoms: N1_7  and  C5_9 
REMARK       I    between atoms: C5_9  and  N2_11 
REMARK    4  A    between atoms: N2_11  and  C6_13 
ROOT
HETATM    1  C4  UNL     1      -1.737  82.787  26.950  1.00  0.00     0.368 C 
HETATM    2  O2  UNL     1      -1.762  81.541  27.291  1.00  0.00    -0.238 OA
HETATM    3  N1  UNL     1      -2.709  83.674  27.463  1.00  0.00    -0.255 N 
ATOM      4  H1  UNL     1      -3.401  83.272  28.095  1.00  0.00     0.175 HD
HETATM    5  C5  UNL     1      -2.827  85.036  27.201  1.00  0.00     0.326 C 
HETATM    6  O3  UNL     1      -3.796  85.660  27.781  1.00  0.00    -0.247 OA
HETATM    7  N2  UNL     1      -1.981  85.789  26.358  1.00  0.00    -0.310 N 
ATOM      8  H2  UNL     1      -1.207  85.321  25.885  1.00  0.00     0.167 HD
ENDROOT
BRANCH   7   9
HETATM    9  C6  UNL     1      -2.183  87.195  26.149  1.00  0.00     0.139 C 
HETATM   10  C7  UNL     1      -1.290  87.836  25.138  1.00  0.00     0.062 C 
HETATM   11  C8  UNL     1      -2.090  89.055  24.645  1.00  0.00     0.017 C 
HETATM   12  C9  UNL     1      -3.312  89.020  25.523  1.00  0.00    -0.009 C 
HETATM   13  C10 UNL     1      -4.459  89.812  25.099  1.00  0.00     0.018 C 
HETATM   14  C11 UNL     1      -3.558  87.493  25.523  1.00  0.00     0.073 C 
HETATM   15  C12 UNL     1      -2.898  89.144  26.973  1.00  0.00     0.064 C 
HETATM   16  C13 UNL     1      -4.151  89.139  27.850  1.00  0.00     0.046 C 
HETATM   17  C14 UNL     1      -2.138  90.380  27.287  1.00  0.00     0.046 C 
HETATM   18  O4  UNL     1      -2.217  87.964  27.282  1.00  0.00    -0.350 OA
ENDBRANCH   7   9
BRANCH   1  19
HETATM   19  O1  UNL     1      -0.717  83.103  26.087  1.00  0.00    -0.304 OA
BRANCH  19  20
HETATM   20  C3  UNL     1       0.579  83.511  26.427  1.00  0.00     0.180 C 
BRANCH  20  21
HETATM   21  C2  UNL     1       1.543  82.395  26.703  1.00  0.00     0.022 C 
HETATM   22  C1  UNL     1       2.881  82.623  26.030  1.00  0.00     0.007 C 
ENDBRANCH  20  21
ENDBRANCH  19  20
ENDBRANCH   1  19
TORSDOF 4
ENDMDL
