MODEL 1
REMARK VINA RESULT: -8.620507516      0.000      0.000
REMARK  16 active torsions:
REMARK  status: ('A' for Active; 'I' for Inactive)
REMARK    1  A    between atoms: C2_2  and  C3_3 
REMARK    2  A    between atoms: C3_3  and  C4_4 
REMARK    3  A    between atoms: C4_4  and  C5_5 
REMARK    4  A    between atoms: C5_5  and  O1_6 
REMARK    5  A    between atoms: O1_6  and  C6_7 
REMARK       I    between atoms: C6_7  and  N1_9 
REMARK    6  A    between atoms: N2_12  and  C9_13 
REMARK    7  A    between atoms: C9_13  and  O3_14 
REMARK    8  A    between atoms: C9_13  and  C10_16 
REMARK    9  A    between atoms: C10_16  and  C11_17 
REMARK   10  A    between atoms: C10_16  and  N4_27 
REMARK   11  A    between atoms: C11_17  and  C12_18 
REMARK   12  A    between atoms: C12_18  and  C13_19 
REMARK   13  A    between atoms: C13_19  and  N3_20 
REMARK       I    between atoms: N3_20  and  C14_22 
REMARK   14  A    between atoms: C14_22  and  C15_24 
REMARK       I    between atoms: N4_27  and  C16_29 
REMARK   15  A    between atoms: C16_29  and  C17_31 
REMARK   16  A    between atoms: C22_39  and  C23_40 
ROOT
HETATM    1  C10 UNL     1      15.886  22.421  15.663  1.00  0.00     0.063 C 
ENDROOT
BRANCH   1   2
HETATM    2  C9  UNL     1      14.536  22.648  15.179  1.00  0.00     0.161 C 
BRANCH   2   3
HETATM    3  N2  UNL     1      13.724  21.843  14.369  1.00  0.00    -0.357 N 
HETATM    4  C8  UNL     1      13.854  20.466  14.016  1.00  0.00     0.145 C 
HETATM    5  C7  UNL     1      12.477  19.834  13.757  1.00  0.00     0.148 C 
HETATM    6  N1  UNL     1      11.413  20.515  14.450  1.00  0.00    -0.325 N 
HETATM    7  C6  UNL     1      10.270  19.831  15.007  1.00  0.00     0.362 C 
HETATM    8  C27 UNL     1      11.390  21.975  14.633  1.00  0.00     0.148 C 
HETATM    9  O2  UNL     1       9.375  20.487  15.626  1.00  0.00    -0.238 OA
HETATM   10  C26 UNL     1      12.528  22.481  13.756  1.00  0.00     0.145 C 
BRANCH   7  11
HETATM   11  O1  UNL     1      10.100  18.484  14.896  1.00  0.00    -0.304 OA
BRANCH  11  12
HETATM   12  C5  UNL     1      10.291  17.506  15.883  1.00  0.00     0.180 C 
BRANCH  12  13
HETATM   13  C4  UNL     1      11.182  18.064  16.963  1.00  0.00     0.027 C 
BRANCH  13  14
HETATM   14  C3  UNL     1      11.861  16.955  17.754  1.00  0.00     0.002 C 
BRANCH  14  15
HETATM   15  C2  UNL     1      12.735  17.518  18.841  1.00  0.00    -0.004 C 
HETATM   16  C1  UNL     1      14.181  17.577  18.407  1.00  0.00     0.005 C 
ENDBRANCH  14  15
ENDBRANCH  13  14
ENDBRANCH  12  13
ENDBRANCH  11  12
ENDBRANCH   7  11
ENDBRANCH   2   3
BRANCH   2  17
HETATM   17  O3  UNL     1      13.987  23.769  15.557  1.00  0.00    -0.345 OA
ATOM     18  H3  UNL     1      13.107  23.682  15.905  1.00  0.00     0.219 HD
ENDBRANCH   2  17
ENDBRANCH   1   2
BRANCH   1  19
HETATM   19  C11 UNL     1      16.184  21.332  16.613  1.00  0.00     0.063 C 
BRANCH  19  20
HETATM   20  C12 UNL     1      15.367  21.266  17.868  1.00  0.00     0.026 C 
BRANCH  20  21
HETATM   21  C13 UNL     1      16.059  21.212  19.167  1.00  0.00     0.123 C 
BRANCH  21  22
HETATM   22  N3  UNL     1      16.660  22.506  19.494  1.00  0.00    -0.352 N 
HETATM   23  C14 UNL     1      18.068  22.637  19.519  1.00  0.00     0.318 C 
HETATM   24  O4  UNL     1      18.781  21.658  19.266  1.00  0.00    -0.261 OA
ATOM     25  H3  UNL     1      16.067  23.309  19.702  1.00  0.00     0.162 HD
BRANCH  23  26
HETATM   26  C15 UNL     1      18.694  23.913  19.841  1.00  0.00     0.269 C 
HETATM   27  O5  UNL     1      18.259  24.576  20.838  1.00  0.00    -0.640 OA
HETATM   28  O6  UNL     1      19.732  24.444  19.121  1.00  0.00    -0.640 OA
ENDBRANCH  23  26
ENDBRANCH  21  22
ENDBRANCH  20  21
ENDBRANCH  19  20
ENDBRANCH   1  19
BRANCH   1  29
HETATM   29  N4  UNL     1      16.900  23.415  15.428  1.00  0.00    -0.321 N 
HETATM   30  C16 UNL     1      17.116  24.522  16.241  1.00  0.00     0.279 C 
HETATM   31  O7  UNL     1      16.463  24.736  17.274  1.00  0.00    -0.265 OA
ATOM     32  H4  UNL     1      17.499  23.298  14.611  1.00  0.00     0.169 HD
BRANCH  30  33
HETATM   33  C17 UNL     1      18.159  25.534  15.921  1.00  0.00     0.143 A 
HETATM   34  N5  UNL     1      19.187  25.924  16.621  1.00  0.00    -0.349 N 
HETATM   35  C18 UNL     1      20.021  26.826  16.134  1.00  0.00     0.023 A 
ATOM     36  H5  UNL     1      19.349  25.532  17.549  1.00  0.00     0.166 HD
HETATM   37  C19 UNL     1      19.734  27.305  14.882  1.00  0.00     0.007 A 
HETATM   38  C25 UNL     1      21.255  27.294  16.904  1.00  0.00     0.062 C 
HETATM   39  S1  UNL     1      18.309  26.444  14.487  1.00  0.00    -0.069 SA
HETATM   40  C20 UNL     1      20.580  28.341  14.175  1.00  0.00     0.048 C 
HETATM   41  C21 UNL     1      22.007  27.944  14.588  1.00  0.00     0.010 C 
HETATM   42  C22 UNL     1      22.026  28.217  16.077  1.00  0.00    -0.009 C 
BRANCH  42  43
HETATM   43  C23 UNL     1      23.501  28.130  16.500  1.00  0.00     0.000 C 
HETATM   44  C24 UNL     1      24.142  26.846  16.022  1.00  0.00     0.005 C 
ENDBRANCH  42  43
ENDBRANCH  30  33
ENDBRANCH   1  29
TORSDOF 16
ENDMDL
MODEL 2
REMARK VINA RESULT: -8.459012151      1.365      1.834
REMARK  16 active torsions:
REMARK  status: ('A' for Active; 'I' for Inactive)
REMARK    1  A    between atoms: C2_2  and  C3_3 
REMARK    2  A    between atoms: C3_3  and  C4_4 
REMARK    3  A    between atoms: C4_4  and  C5_5 
REMARK    4  A    between atoms: C5_5  and  O1_6 
REMARK    5  A    between atoms: O1_6  and  C6_7 
REMARK       I    between atoms: C6_7  and  N1_9 
REMARK    6  A    between atoms: N2_12  and  C9_13 
REMARK    7  A    between atoms: C9_13  and  O3_14 
REMARK    8  A    between atoms: C9_13  and  C10_16 
REMARK    9  A    between atoms: C10_16  and  C11_17 
REMARK   10  A    between atoms: C10_16  and  N4_27 
REMARK   11  A    between atoms: C11_17  and  C12_18 
REMARK   12  A    between atoms: C12_18  and  C13_19 
REMARK   13  A    between atoms: C13_19  and  N3_20 
REMARK       I    between atoms: N3_20  and  C14_22 
REMARK   14  A    between atoms: C14_22  and  C15_24 
REMARK       I    between atoms: N4_27  and  C16_29 
REMARK   15  A    between atoms: C16_29  and  C17_31 
REMARK   16  A    between atoms: C22_39  and  C23_40 
ROOT
HETATM    1  C10 UNL     1      14.688  23.166  16.864  1.00  0.00     0.063 C 
ENDROOT
BRANCH   1   2
HETATM    2  C9  UNL     1      13.898  23.184  15.646  1.00  0.00     0.161 C 
BRANCH   2   3
HETATM    3  N2  UNL     1      13.487  22.125  14.826  1.00  0.00    -0.357 N 
HETATM    4  C8  UNL     1      13.966  20.783  14.745  1.00  0.00     0.145 C 
HETATM    5  C7  UNL     1      12.848  19.827  14.301  1.00  0.00     0.148 C 
HETATM    6  N1  UNL     1      11.533  20.322  14.620  1.00  0.00    -0.325 N 
HETATM    7  C6  UNL     1      10.443  19.464  15.020  1.00  0.00     0.362 C 
HETATM    8  C27 UNL     1      11.182  21.749  14.546  1.00  0.00     0.148 C 
HETATM    9  O2  UNL     1       9.312  19.965  15.309  1.00  0.00    -0.238 OA
HETATM   10  C26 UNL     1      12.382  22.396  13.868  1.00  0.00     0.145 C 
BRANCH   7  11
HETATM   11  O1  UNL     1      10.572  18.110  15.102  1.00  0.00    -0.304 OA
BRANCH  11  12
HETATM   12  C5  UNL     1      10.535  17.308  16.252  1.00  0.00     0.180 C 
BRANCH  12  13
HETATM   13  C4  UNL     1      11.273  18.008  17.364  1.00  0.00     0.027 C 
BRANCH  13  14
HETATM   14  C3  UNL     1      11.994  17.015  18.266  1.00  0.00     0.002 C 
BRANCH  14  15
HETATM   15  C2  UNL     1      13.106  17.681  19.029  1.00  0.00    -0.004 C 
HETATM   16  C1  UNL     1      14.447  17.419  18.386  1.00  0.00     0.005 C 
ENDBRANCH  14  15
ENDBRANCH  13  14
ENDBRANCH  12  13
ENDBRANCH  11  12
ENDBRANCH   7  11
ENDBRANCH   2   3
BRANCH   2  17
HETATM   17  O3  UNL     1      13.500  24.363  15.255  1.00  0.00    -0.345 OA
ATOM     18  H3  UNL     1      13.598  25.050  15.903  1.00  0.00     0.219 HD
ENDBRANCH   2  17
ENDBRANCH   1   2
BRANCH   1  19
HETATM   19  C11 UNL     1      14.165  22.565  18.106  1.00  0.00     0.063 C 
BRANCH  19  20
HETATM   20  C12 UNL     1      14.514  21.134  18.382  1.00  0.00     0.026 C 
BRANCH  20  21
HETATM   21  C13 UNL     1      15.930  20.728  18.355  1.00  0.00     0.123 C 
BRANCH  21  22
HETATM   22  N3  UNL     1      16.620  21.158  19.571  1.00  0.00    -0.352 N 
HETATM   23  C14 UNL     1      17.987  21.517  19.510  1.00  0.00     0.318 C 
HETATM   24  O4  UNL     1      18.588  21.464  18.429  1.00  0.00    -0.261 OA
ATOM     25  H3  UNL     1      16.120  21.198  20.459  1.00  0.00     0.162 HD
BRANCH  23  26
HETATM   26  C15 UNL     1      18.701  21.949  20.705  1.00  0.00     0.269 C 
HETATM   27  O5  UNL     1      19.154  23.138  20.752  1.00  0.00    -0.640 OA
HETATM   28  O6  UNL     1      18.913  21.138  21.788  1.00  0.00    -0.640 OA
ENDBRANCH  23  26
ENDBRANCH  21  22
ENDBRANCH  20  21
ENDBRANCH  19  20
ENDBRANCH   1  19
BRANCH   1  29
HETATM   29  N4  UNL     1      15.883  23.964  16.946  1.00  0.00    -0.321 N 
HETATM   30  C16 UNL     1      17.069  23.671  16.281  1.00  0.00     0.279 C 
HETATM   31  O7  UNL     1      17.191  22.697  15.521  1.00  0.00    -0.265 OA
ATOM     32  H4  UNL     1      15.858  24.799  17.530  1.00  0.00     0.169 HD
BRANCH  30  33
HETATM   33  C17 UNL     1      18.282  24.518  16.437  1.00  0.00     0.143 A 
HETATM   34  N5  UNL     1      19.107  24.970  15.535  1.00  0.00    -0.349 N 
HETATM   35  C18 UNL     1      20.119  25.743  15.886  1.00  0.00     0.023 A 
ATOM     36  H5  UNL     1      18.971  24.725  14.554  1.00  0.00     0.166 HD
HETATM   37  C19 UNL     1      20.234  26.024  17.223  1.00  0.00     0.007 A 
HETATM   38  C25 UNL     1      21.096  26.320  14.863  1.00  0.00     0.062 C 
HETATM   39  S1  UNL     1      18.902  25.175  17.883  1.00  0.00    -0.069 SA
HETATM   40  C20 UNL     1      21.332  26.890  17.799  1.00  0.00     0.048 C 
HETATM   41  C21 UNL     1      21.501  27.974  16.722  1.00  0.00     0.010 C 
HETATM   42  C22 UNL     1      22.043  27.204  15.536  1.00  0.00    -0.009 C 
BRANCH  42  43
HETATM   43  C23 UNL     1      22.517  28.264  14.529  1.00  0.00     0.000 C 
HETATM   44  C24 UNL     1      21.453  28.566  13.498  1.00  0.00     0.005 C 
ENDBRANCH  42  43
ENDBRANCH  30  33
ENDBRANCH   1  29
TORSDOF 16
ENDMDL
MODEL 3
REMARK VINA RESULT: -8.421389515      2.681     10.778
REMARK  16 active torsions:
REMARK  status: ('A' for Active; 'I' for Inactive)
REMARK    1  A    between atoms: C2_2  and  C3_3 
REMARK    2  A    between atoms: C3_3  and  C4_4 
REMARK    3  A    between atoms: C4_4  and  C5_5 
REMARK    4  A    between atoms: C5_5  and  O1_6 
REMARK    5  A    between atoms: O1_6  and  C6_7 
REMARK       I    between atoms: C6_7  and  N1_9 
REMARK    6  A    between atoms: N2_12  and  C9_13 
REMARK    7  A    between atoms: C9_13  and  O3_14 
REMARK    8  A    between atoms: C9_13  and  C10_16 
REMARK    9  A    between atoms: C10_16  and  C11_17 
REMARK   10  A    between atoms: C10_16  and  N4_27 
REMARK   11  A    between atoms: C11_17  and  C12_18 
REMARK   12  A    between atoms: C12_18  and  C13_19 
REMARK   13  A    between atoms: C13_19  and  N3_20 
REMARK       I    between atoms: N3_20  and  C14_22 
REMARK   14  A    between atoms: C14_22  and  C15_24 
REMARK       I    between atoms: N4_27  and  C16_29 
REMARK   15  A    between atoms: C16_29  and  C17_31 
REMARK   16  A    between atoms: C22_39  and  C23_40 
ROOT
HETATM    1  C10 UNL     1      17.042  24.138  18.635  1.00  0.00     0.063 C 
ENDROOT
BRANCH   1   2
HETATM    2  C9  UNL     1      17.920  24.462  19.745  1.00  0.00     0.161 C 
BRANCH   2   3
HETATM    3  N2  UNL     1      19.298  24.253  19.892  1.00  0.00    -0.357 N 
HETATM    4  C8  UNL     1      20.266  23.797  18.948  1.00  0.00     0.145 C 
HETATM    5  C7  UNL     1      21.654  24.379  19.261  1.00  0.00     0.148 C 
HETATM    6  N1  UNL     1      21.586  25.620  19.989  1.00  0.00    -0.325 N 
HETATM    7  C6  UNL     1      22.518  26.704  19.789  1.00  0.00     0.362 C 
HETATM    8  C27 UNL     1      20.568  25.882  21.019  1.00  0.00     0.148 C 
HETATM    9  O2  UNL     1      22.391  27.783  20.449  1.00  0.00    -0.238 OA
HETATM   10  C26 UNL     1      19.890  24.535  21.228  1.00  0.00     0.145 C 
BRANCH   7  11
HETATM   11  O1  UNL     1      23.553  26.623  18.907  1.00  0.00    -0.304 OA
BRANCH  11  12
HETATM   12  C5  UNL     1      23.696  27.288  17.681  1.00  0.00     0.180 C 
BRANCH  12  13
HETATM   13  C4  UNL     1      22.425  27.130  16.885  1.00  0.00     0.027 C 
BRANCH  13  14
HETATM   14  C3  UNL     1      22.707  26.607  15.483  1.00  0.00     0.002 C 
BRANCH  14  15
HETATM   15  C2  UNL     1      21.532  25.840  14.942  1.00  0.00    -0.004 C 
HETATM   16  C1  UNL     1      20.537  26.759  14.274  1.00  0.00     0.005 C 
ENDBRANCH  14  15
ENDBRANCH  13  14
ENDBRANCH  12  13
ENDBRANCH  11  12
ENDBRANCH   7  11
ENDBRANCH   2   3
BRANCH   2  17
HETATM   17  O3  UNL     1      17.346  25.044  20.761  1.00  0.00    -0.345 OA
ATOM     18  H3  UNL     1      16.640  24.546  21.157  1.00  0.00     0.219 HD
ENDBRANCH   2  17
ENDBRANCH   1   2
BRANCH   1  19
HETATM   19  C11 UNL     1      16.730  25.134  17.591  1.00  0.00     0.063 C 
BRANCH  19  20
HETATM   20  C12 UNL     1      17.705  25.280  16.461  1.00  0.00     0.026 C 
BRANCH  20  21
HETATM   21  C13 UNL     1      17.997  24.108  15.618  1.00  0.00     0.123 C 
BRANCH  21  22
HETATM   22  N3  UNL     1      16.787  23.628  14.952  1.00  0.00    -0.352 N 
HETATM   23  C14 UNL     1      16.351  22.299  15.166  1.00  0.00     0.318 C 
HETATM   24  O4  UNL     1      16.996  21.554  15.914  1.00  0.00    -0.261 OA
ATOM     25  H3  UNL     1      16.260  24.246  14.336  1.00  0.00     0.162 HD
BRANCH  23  26
HETATM   26  C15 UNL     1      15.148  21.793  14.517  1.00  0.00     0.269 C 
HETATM   27  O5  UNL     1      15.265  21.156  13.420  1.00  0.00    -0.640 OA
HETATM   28  O6  UNL     1      13.888  21.971  15.025  1.00  0.00    -0.640 OA
ENDBRANCH  23  26
ENDBRANCH  21  22
ENDBRANCH  20  21
ENDBRANCH  19  20
ENDBRANCH   1  19
BRANCH   1  29
HETATM   29  N4  UNL     1      16.261  22.931  18.678  1.00  0.00    -0.321 N 
HETATM   30  C16 UNL     1      14.900  22.867  18.395  1.00  0.00     0.279 C 
HETATM   31  O7  UNL     1      14.239  23.857  18.043  1.00  0.00    -0.265 OA
ATOM     32  H4  UNL     1      16.735  22.066  18.934  1.00  0.00     0.169 HD
BRANCH  30  33
HETATM   33  C17 UNL     1      14.141  21.592  18.494  1.00  0.00     0.143 A 
HETATM   34  N5  UNL     1      13.080  21.199  17.847  1.00  0.00    -0.349 N 
HETATM   35  C18 UNL     1      12.574  19.998  18.066  1.00  0.00     0.023 A 
ATOM     36  H5  UNL     1      12.638  21.820  17.170  1.00  0.00     0.166 HD
HETATM   37  C19 UNL     1      13.223  19.224  18.993  1.00  0.00     0.007 A 
HETATM   38  C25 UNL     1      11.349  19.481  17.312  1.00  0.00     0.062 C 
HETATM   39  S1  UNL     1      14.501  20.251  19.484  1.00  0.00    -0.069 SA
HETATM   40  C20 UNL     1      12.779  17.828  19.367  1.00  0.00     0.048 C 
HETATM   41  C21 UNL     1      12.302  17.257  18.021  1.00  0.00     0.010 C 
HETATM   42  C22 UNL     1      11.085  18.098  17.700  1.00  0.00    -0.009 C 
BRANCH  42  43
HETATM   43  C23 UNL     1      10.385  17.392  16.528  1.00  0.00     0.000 C 
HETATM   44  C24 UNL     1      10.705  15.914  16.499  1.00  0.00     0.005 C 
ENDBRANCH  42  43
ENDBRANCH  30  33
ENDBRANCH   1  29
TORSDOF 16
ENDMDL
MODEL 4
REMARK VINA RESULT: -8.394509114      2.636      7.486
REMARK  16 active torsions:
REMARK  status: ('A' for Active; 'I' for Inactive)
REMARK    1  A    between atoms: C2_2  and  C3_3 
REMARK    2  A    between atoms: C3_3  and  C4_4 
REMARK    3  A    between atoms: C4_4  and  C5_5 
REMARK    4  A    between atoms: C5_5  and  O1_6 
REMARK    5  A    between atoms: O1_6  and  C6_7 
REMARK       I    between atoms: C6_7  and  N1_9 
REMARK    6  A    between atoms: N2_12  and  C9_13 
REMARK    7  A    between atoms: C9_13  and  O3_14 
REMARK    8  A    between atoms: C9_13  and  C10_16 
REMARK    9  A    between atoms: C10_16  and  C11_17 
REMARK   10  A    between atoms: C10_16  and  N4_27 
REMARK   11  A    between atoms: C11_17  and  C12_18 
REMARK   12  A    between atoms: C12_18  and  C13_19 
REMARK   13  A    between atoms: C13_19  and  N3_20 
REMARK       I    between atoms: N3_20  and  C14_22 
REMARK   14  A    between atoms: C14_22  and  C15_24 
REMARK       I    between atoms: N4_27  and  C16_29 
REMARK   15  A    between atoms: C16_29  and  C17_31 
REMARK   16  A    between atoms: C22_39  and  C23_40 
ROOT
HETATM    1  C10 UNL     1      14.749  19.752  18.358  1.00  0.00     0.063 C 
ENDROOT
BRANCH   1   2
HETATM    2  C9  UNL     1      13.962  20.047  17.174  1.00  0.00     0.161 C 
BRANCH   2   3
HETATM    3  N2  UNL     1      13.983  21.170  16.337  1.00  0.00    -0.357 N 
HETATM    4  C8  UNL     1      13.546  22.507  16.578  1.00  0.00     0.145 C 
HETATM    5  C7  UNL     1      14.367  23.510  15.752  1.00  0.00     0.148 C 
HETATM    6  N1  UNL     1      15.675  23.013  15.412  1.00  0.00    -0.325 N 
HETATM    7  C6  UNL     1      16.846  23.854  15.344  1.00  0.00     0.362 C 
HETATM    8  C27 UNL     1      15.927  21.600  15.084  1.00  0.00     0.148 C 
HETATM    9  O2  UNL     1      17.977  23.349  15.058  1.00  0.00    -0.238 OA
HETATM   10  C26 UNL     1      14.537  20.988  14.969  1.00  0.00     0.145 C 
BRANCH   7  11
HETATM   11  O1  UNL     1      16.795  25.196  15.573  1.00  0.00    -0.304 OA
BRANCH  11  12
HETATM   12  C5  UNL     1      17.859  26.061  15.868  1.00  0.00     0.180 C 
BRANCH  12  13
HETATM   13  C4  UNL     1      18.473  26.543  14.578  1.00  0.00     0.027 C 
BRANCH  13  14
HETATM   14  C3  UNL     1      19.981  26.707  14.705  1.00  0.00     0.002 C 
BRANCH  14  15
HETATM   15  C2  UNL     1      20.376  28.158  14.660  1.00  0.00    -0.004 C 
HETATM   16  C1  UNL     1      21.735  28.336  14.026  1.00  0.00     0.005 C 
ENDBRANCH  14  15
ENDBRANCH  13  14
ENDBRANCH  12  13
ENDBRANCH  11  12
ENDBRANCH   7  11
ENDBRANCH   2   3
BRANCH   2  17
HETATM   17  O3  UNL     1      13.106  19.126  16.828  1.00  0.00    -0.345 OA
ATOM     18  H3  UNL     1      12.524  18.844  17.523  1.00  0.00     0.219 HD
ENDBRANCH   2  17
ENDBRANCH   1   2
BRANCH   1  19
HETATM   19  C11 UNL     1      14.371  18.661  19.276  1.00  0.00     0.063 C 
BRANCH  19  20
HETATM   20  C12 UNL     1      13.608  19.031  20.513  1.00  0.00     0.026 C 
BRANCH  20  21
HETATM   21  C13 UNL     1      12.199  18.617  20.630  1.00  0.00     0.123 C 
BRANCH  21  22
HETATM   22  N3  UNL     1      11.914  17.478  19.757  1.00  0.00    -0.352 N 
HETATM   23  C14 UNL     1      11.054  17.647  18.646  1.00  0.00     0.318 C 
HETATM   24  O4  UNL     1      10.551  18.754  18.422  1.00  0.00    -0.261 OA
ATOM     25  H3  UNL     1      12.332  16.568  19.947  1.00  0.00     0.162 HD
BRANCH  23  26
HETATM   26  C15 UNL     1      10.753  16.530  17.759  1.00  0.00     0.269 C 
HETATM   27  O5  UNL     1      11.659  16.114  16.967  1.00  0.00    -0.640 OA
HETATM   28  O6  UNL     1       9.536  15.902  17.728  1.00  0.00    -0.640 OA
ENDBRANCH  23  26
ENDBRANCH  21  22
ENDBRANCH  20  21
ENDBRANCH  19  20
ENDBRANCH   1  19
BRANCH   1  29
HETATM   29  N4  UNL     1      15.756  20.685  18.790  1.00  0.00    -0.321 N 
HETATM   30  C16 UNL     1      17.019  20.797  18.218  1.00  0.00     0.279 C 
HETATM   31  O7  UNL     1      17.381  20.113  17.248  1.00  0.00    -0.265 OA
ATOM     32  H4  UNL     1      15.528  21.305  19.567  1.00  0.00     0.169 HD
BRANCH  30  33
HETATM   33  C17 UNL     1      18.029  21.759  18.736  1.00  0.00     0.143 A 
HETATM   34  N5  UNL     1      18.643  22.734  18.127  1.00  0.00    -0.349 N 
HETATM   35  C18 UNL     1      19.493  23.501  18.788  1.00  0.00     0.023 A 
ATOM     36  H5  UNL     1      18.468  22.906  17.137  1.00  0.00     0.166 HD
HETATM   37  C19 UNL     1      19.676  23.203  20.114  1.00  0.00     0.007 A 
HETATM   38  C25 UNL     1      20.216  24.673  18.126  1.00  0.00     0.062 C 
HETATM   39  S1  UNL     1      18.632  21.864  20.327  1.00  0.00    -0.069 SA
HETATM   40  C20 UNL     1      20.612  23.975  21.016  1.00  0.00     0.048 C 
HETATM   41  C21 UNL     1      20.435  25.421  20.523  1.00  0.00     0.010 C 
HETATM   42  C22 UNL     1      21.011  25.383  19.124  1.00  0.00    -0.009 C 
BRANCH  42  43
HETATM   43  C23 UNL     1      21.142  26.850  18.684  1.00  0.00     0.000 C 
HETATM   44  C24 UNL     1      22.312  27.046  17.746  1.00  0.00     0.005 C 
ENDBRANCH  42  43
ENDBRANCH  30  33
ENDBRANCH   1  29
TORSDOF 16
ENDMDL
MODEL 5
REMARK VINA RESULT: -8.289779311      1.768      2.430
REMARK  16 active torsions:
REMARK  status: ('A' for Active; 'I' for Inactive)
REMARK    1  A    between atoms: C2_2  and  C3_3 
REMARK    2  A    between atoms: C3_3  and  C4_4 
REMARK    3  A    between atoms: C4_4  and  C5_5 
REMARK    4  A    between atoms: C5_5  and  O1_6 
REMARK    5  A    between atoms: O1_6  and  C6_7 
REMARK       I    between atoms: C6_7  and  N1_9 
REMARK    6  A    between atoms: N2_12  and  C9_13 
REMARK    7  A    between atoms: C9_13  and  O3_14 
REMARK    8  A    between atoms: C9_13  and  C10_16 
REMARK    9  A    between atoms: C10_16  and  C11_17 
REMARK   10  A    between atoms: C10_16  and  N4_27 
REMARK   11  A    between atoms: C11_17  and  C12_18 
REMARK   12  A    between atoms: C12_18  and  C13_19 
REMARK   13  A    between atoms: C13_19  and  N3_20 
REMARK       I    between atoms: N3_20  and  C14_22 
REMARK   14  A    between atoms: C14_22  and  C15_24 
REMARK       I    between atoms: N4_27  and  C16_29 
REMARK   15  A    between atoms: C16_29  and  C17_31 
REMARK   16  A    between atoms: C22_39  and  C23_40 
ROOT
HETATM    1  C10 UNL     1      16.547  23.798  18.452  1.00  0.00     0.063 C 
ENDROOT
BRANCH   1   2
HETATM    2  C9  UNL     1      15.298  23.379  17.840  1.00  0.00     0.161 C 
BRANCH   2   3
HETATM    3  N2  UNL     1      15.060  22.405  16.861  1.00  0.00    -0.357 N 
HETATM    4  C8  UNL     1      14.913  20.991  16.985  1.00  0.00     0.145 C 
HETATM    5  C7  UNL     1      13.994  20.437  15.884  1.00  0.00     0.148 C 
HETATM    6  N1  UNL     1      13.071  21.422  15.381  1.00  0.00    -0.325 N 
HETATM    7  C6  UNL     1      11.723  21.105  14.975  1.00  0.00     0.362 C 
HETATM    8  C27 UNL     1      13.433  22.839  15.218  1.00  0.00     0.148 C 
HETATM    9  O2  UNL     1      10.950  22.024  14.559  1.00  0.00    -0.238 OA
HETATM   10  C26 UNL     1      14.937  22.872  15.454  1.00  0.00     0.145 C 
BRANCH   7  11
HETATM   11  O1  UNL     1      11.228  19.836  15.015  1.00  0.00    -0.304 OA
BRANCH  11  12
HETATM   12  C5  UNL     1      10.343  19.285  15.953  1.00  0.00     0.180 C 
BRANCH  12  13
HETATM   13  C4  UNL     1      10.706  19.786  17.327  1.00  0.00     0.027 C 
BRANCH  13  14
HETATM   14  C3  UNL     1      11.146  18.649  18.238  1.00  0.00     0.002 C 
BRANCH  14  15
HETATM   15  C2  UNL     1      12.220  19.098  19.191  1.00  0.00    -0.004 C 
HETATM   16  C1  UNL     1      12.012  18.513  20.567  1.00  0.00     0.005 C 
ENDBRANCH  14  15
ENDBRANCH  13  14
ENDBRANCH  12  13
ENDBRANCH  11  12
ENDBRANCH   7  11
ENDBRANCH   2   3
BRANCH   2  17
HETATM   17  O3  UNL     1      14.231  23.993  18.269  1.00  0.00    -0.345 OA
ATOM     18  H3  UNL     1      14.237  24.935  18.143  1.00  0.00     0.219 HD
ENDBRANCH   2  17
ENDBRANCH   1   2
BRANCH   1  19
HETATM   19  C11 UNL     1      16.900  23.390  19.826  1.00  0.00     0.063 C 
BRANCH  19  20
HETATM   20  C12 UNL     1      17.779  22.186  19.985  1.00  0.00     0.026 C 
BRANCH  20  21
HETATM   21  C13 UNL     1      19.239  22.372  20.033  1.00  0.00     0.123 C 
BRANCH  21  22
HETATM   22  N3  UNL     1      19.582  23.678  20.597  1.00  0.00    -0.352 N 
HETATM   23  C14 UNL     1      20.497  24.515  19.917  1.00  0.00     0.318 C 
HETATM   24  O4  UNL     1      21.001  24.138  18.852  1.00  0.00    -0.261 OA
ATOM     25  H3  UNL     1      19.164  23.983  21.476  1.00  0.00     0.162 HD
BRANCH  23  26
HETATM   26  C15 UNL     1      20.857  25.822  20.455  1.00  0.00     0.269 C 
HETATM   27  O5  UNL     1      20.955  26.808  19.655  1.00  0.00    -0.640 OA
HETATM   28  O6  UNL     1      21.099  26.046  21.785  1.00  0.00    -0.640 OA
ENDBRANCH  23  26
ENDBRANCH  21  22
ENDBRANCH  20  21
ENDBRANCH  19  20
ENDBRANCH   1  19
BRANCH   1  29
HETATM   29  N4  UNL     1      17.332  24.828  17.825  1.00  0.00    -0.321 N 
HETATM   30  C16 UNL     1      18.295  24.595  16.849  1.00  0.00     0.279 C 
HETATM   31  O7  UNL     1      18.541  23.464  16.403  1.00  0.00    -0.265 OA
ATOM     32  H4  UNL     1      17.172  25.792  18.117  1.00  0.00     0.169 HD
BRANCH  30  33
HETATM   33  C17 UNL     1      19.100  25.703  16.266  1.00  0.00     0.143 A 
HETATM   34  N5  UNL     1      20.118  26.347  16.764  1.00  0.00    -0.349 N 
HETATM   35  C18 UNL     1      20.718  27.289  16.059  1.00  0.00     0.023 A 
ATOM     36  H5  UNL     1      20.452  26.123  17.701  1.00  0.00     0.166 HD
HETATM   37  C19 UNL     1      20.208  27.533  14.810  1.00  0.00     0.007 A 
HETATM   38  C25 UNL     1      21.932  28.053  16.587  1.00  0.00     0.062 C 
HETATM   39  S1  UNL     1      18.919  26.410  14.725  1.00  0.00    -0.069 SA
HETATM   40  C20 UNL     1      20.770  28.577  13.872  1.00  0.00     0.048 C 
HETATM   41  C21 UNL     1      22.283  28.474  14.127  1.00  0.00     0.010 C 
HETATM   42  C22 UNL     1      22.427  28.958  15.555  1.00  0.00    -0.009 C 
BRANCH  42  43
HETATM   43  C23 UNL     1      23.934  29.167  15.776  1.00  0.00     0.000 C 
HETATM   44  C24 UNL     1      24.672  27.849  15.858  1.00  0.00     0.005 C 
ENDBRANCH  42  43
ENDBRANCH  30  33
ENDBRANCH   1  29
TORSDOF 16
ENDMDL
