MODEL 1
REMARK VINA RESULT: -7.482404825      0.000      0.000
REMARK  13 active torsions:
REMARK  status: ('A' for Active; 'I' for Inactive)
REMARK    1  A    between atoms: C2_2  and  C4_4 
REMARK    2  A    between atoms: C4_4  and  O1_5 
REMARK    3  A    between atoms: O1_5  and  C5_6 
REMARK    4  A    between atoms: C16_19  and  O4_21 
REMARK    5  A    between atoms: C18_23  and  O5_24 
REMARK    6  A    between atoms: C19_26  and  C20_27 
REMARK    7  A    between atoms: C19_26  and  N4_50 
REMARK    8  A    between atoms: C20_27  and  C22_29 
REMARK    9  A    between atoms: C22_29  and  C23_30 
REMARK   10  A    between atoms: C23_30  and  C24_31 
REMARK   11  A    between atoms: C25_33  and  N1_34 
REMARK   12  A    between atoms: C28_37  and  N2_38 
REMARK   13  A    between atoms: C30_45  and  O8_46 
ROOT
HETATM    1  C5  UNL     1      18.590  -8.125   9.282  1.00  0.00     0.296 C 
HETATM    2  O2  UNL     1      18.568  -8.163   7.917  1.00  0.00    -0.347 OA
HETATM    3  C6  UNL     1      18.947  -9.346   7.284  1.00  0.00     0.200 C 
HETATM    4  C7  UNL     1      18.215 -10.435   7.996  1.00  0.00     0.084 C 
HETATM    5  C8  UNL     1      16.723 -10.053   7.850  1.00  0.00     0.048 C 
HETATM    6  C9  UNL     1      18.322 -11.823   7.473  1.00  0.00     0.048 C 
HETATM    7  O3  UNL     1      18.443 -10.500   9.355  1.00  0.00    -0.361 OA
HETATM    8  C10 UNL     1      18.904  -9.381   9.974  1.00  0.00     0.121 C 
HETATM    9  C11 UNL     1      18.246  -9.360  11.357  1.00  0.00     0.022 C 
HETATM   10  C12 UNL     1      17.733 -10.746  11.717  1.00  0.00     0.013 C 
HETATM   11  C13 UNL     1      19.274  -8.974  12.352  1.00  0.00     0.008 C 
HETATM   12  C14 UNL     1      20.528  -8.705  11.567  1.00  0.00     0.011 C 
HETATM   13  C15 UNL     1      20.326  -9.579  10.363  1.00  0.00     0.062 C 
HETATM   14  C16 UNL     1      21.363  -9.231   9.361  1.00  0.00     0.089 C 
HETATM   15  C17 UNL     1      22.669  -9.782  10.004  1.00  0.00     0.049 C 
HETATM   16  C18 UNL     1      21.291  -9.929   8.050  1.00  0.00     0.194 C 
HETATM   17  C19 UNL     1      20.358  -9.413   7.022  1.00  0.00     0.176 C 
ENDROOT
BRANCH  17  18
HETATM   18  C20 UNL     1      20.760 -10.011   5.687  1.00  0.00    -0.050 C 
HETATM   19  C21 UNL     1      19.876 -10.050   4.719  1.00  0.00     0.017 C 
BRANCH  18  20
HETATM   20  C22 UNL     1      22.154 -10.459   5.441  1.00  0.00     0.039 C 
BRANCH  20  21
HETATM   21  C23 UNL     1      22.746  -9.733   4.265  1.00  0.00     0.039 C 
BRANCH  21  22
HETATM   22  C24 UNL     1      24.245  -9.511   4.547  1.00  0.00     0.161 C 
HETATM   23  O6  UNL     1      24.593  -8.222   4.241  1.00  0.00    -0.355 OA
HETATM   24  C25 UNL     1      24.709  -7.541   5.421  1.00  0.00     0.264 C 
HETATM   25  C30 UNL     1      25.412  -8.556   6.326  1.00  0.00     0.204 C 
HETATM   26  C31 UNL     1      24.615  -9.803   5.963  1.00  0.00     0.232 C 
HETATM   27  F1  UNL     1      25.406 -10.920   6.028  1.00  0.00    -0.244 F 
BRANCH  24  28
HETATM   28  N1  UNL     1      25.441  -6.307   5.343  1.00  0.00    -0.280 N 
HETATM   29  C26 UNL     1      26.442  -6.236   4.440  1.00  0.00     0.102 A 
HETATM   30  C27 UNL     1      27.190  -5.094   4.303  1.00  0.00     0.065 A 
HETATM   31  C28 UNL     1      26.910  -4.011   5.099  1.00  0.00     0.103 A 
HETATM   32  N3  UNL     1      25.915  -4.093   5.992  1.00  0.00    -0.295 N 
HETATM   33  C29 UNL     1      25.205  -5.218   6.102  1.00  0.00     0.330 A 
ATOM     34  H3  UNL     1      25.699  -3.295   6.590  1.00  0.00     0.172 HD
HETATM   35  O7  UNL     1      24.252  -5.327   6.942  1.00  0.00    -0.246 OA
BRANCH  31  36
HETATM   36  N2  UNL     1      27.618  -2.920   4.975  1.00  0.00    -0.385 N 
ATOM     37  H22 UNL     1      28.380  -2.711   5.620  1.00  0.00     0.157 HD
ATOM     38  H21 UNL     1      27.407  -2.267   4.221  1.00  0.00     0.157 HD
ENDBRANCH  31  36
ENDBRANCH  24  28
BRANCH  25  39
HETATM   39  O8  UNL     1      25.210  -8.307   7.667  1.00  0.00    -0.388 OA
ATOM     40  H8  UNL     1      25.990  -8.446   8.190  1.00  0.00     0.210 HD
ENDBRANCH  25  39
ENDBRANCH  21  22
ENDBRANCH  20  21
ENDBRANCH  18  20
ENDBRANCH  17  18
BRANCH  17  41
HETATM   41  N4  UNL     1      20.837  -8.035   6.777  1.00  0.00    -0.135 N 
HETATM   42  O9  UNL     1      20.122  -7.135   6.381  1.00  0.00    -0.535 OA
HETATM   43  O10 UNL     1      22.155  -7.784   7.002  1.00  0.00    -0.535 OA
ENDBRANCH  17  41
BRANCH  16  44
HETATM   44  O5  UNL     1      21.239 -11.293   8.306  1.00  0.00    -0.389 OA
ATOM     45  H5  UNL     1      21.860 -11.476   9.001  1.00  0.00     0.210 HD
ENDBRANCH  16  44
BRANCH  14  46
HETATM   46  O4  UNL     1      21.624  -7.894   9.229  1.00  0.00    -0.387 OA
ATOM     47  H4  UNL     1      21.069  -7.431   8.613  1.00  0.00     0.210 HD
ENDBRANCH  14  46
BRANCH   1  48
HETATM   48  O1  UNL     1      17.354  -7.637   9.700  1.00  0.00    -0.354 OA
BRANCH  48  49
HETATM   49  C4  UNL     1      17.154  -6.297   9.365  1.00  0.00     0.204 C 
BRANCH  49  50
HETATM   50  C2  UNL     1      16.738  -5.530  10.568  1.00  0.00    -0.070 C 
HETATM   51  C1  UNL     1      15.970  -4.464  10.402  1.00  0.00     0.016 C 
HETATM   52  C3  UNL     1      17.162  -5.931  11.934  1.00  0.00     0.044 C 
ENDBRANCH  49  50
ENDBRANCH  48  49
ENDBRANCH   1  48
TORSDOF 13
ENDMDL
MODEL 2
REMARK VINA RESULT: -7.475637970      4.497      7.737
REMARK  13 active torsions:
REMARK  status: ('A' for Active; 'I' for Inactive)
REMARK    1  A    between atoms: C2_2  and  C4_4 
REMARK    2  A    between atoms: C4_4  and  O1_5 
REMARK    3  A    between atoms: O1_5  and  C5_6 
REMARK    4  A    between atoms: C16_19  and  O4_21 
REMARK    5  A    between atoms: C18_23  and  O5_24 
REMARK    6  A    between atoms: C19_26  and  C20_27 
REMARK    7  A    between atoms: C19_26  and  N4_50 
REMARK    8  A    between atoms: C20_27  and  C22_29 
REMARK    9  A    between atoms: C22_29  and  C23_30 
REMARK   10  A    between atoms: C23_30  and  C24_31 
REMARK   11  A    between atoms: C25_33  and  N1_34 
REMARK   12  A    between atoms: C28_37  and  N2_38 
REMARK   13  A    between atoms: C30_45  and  O8_46 
ROOT
HETATM    1  C5  UNL     1      20.042  -8.826  -0.081  1.00  0.00     0.296 C 
HETATM    2  O2  UNL     1      20.954  -8.138   0.666  1.00  0.00    -0.347 OA
HETATM    3  C6  UNL     1      20.829  -8.171   2.055  1.00  0.00     0.200 C 
HETATM    4  C7  UNL     1      20.624  -9.607   2.405  1.00  0.00     0.084 C 
HETATM    5  C8  UNL     1      21.871 -10.323   1.834  1.00  0.00     0.048 C 
HETATM    6  C9  UNL     1      20.572  -9.988   3.842  1.00  0.00     0.048 C 
HETATM    7  O3  UNL     1      19.546 -10.210   1.791  1.00  0.00    -0.361 OA
HETATM    8  C10 UNL     1      19.068  -9.643   0.651  1.00  0.00     0.121 C 
HETATM    9  C11 UNL     1      18.624 -10.804  -0.245  1.00  0.00     0.022 C 
HETATM   10  C12 UNL     1      18.428 -12.064   0.584  1.00  0.00     0.013 C 
HETATM   11  C13 UNL     1      17.322 -10.443  -0.855  1.00  0.00     0.008 C 
HETATM   12  C14 UNL     1      17.014  -9.052  -0.378  1.00  0.00     0.011 C 
HETATM   13  C15 UNL     1      17.752  -9.007   0.928  1.00  0.00     0.062 C 
HETATM   14  C16 UNL     1      17.760  -7.603   1.406  1.00  0.00     0.089 C 
HETATM   15  C17 UNL     1      16.277  -7.364   1.811  1.00  0.00     0.049 C 
HETATM   16  C18 UNL     1      18.518  -7.323   2.654  1.00  0.00     0.194 C 
HETATM   17  C19 UNL     1      19.983  -7.128   2.565  1.00  0.00     0.176 C 
ENDROOT
BRANCH  17  18
HETATM   18  C20 UNL     1      20.444  -6.467   3.851  1.00  0.00    -0.050 C 
HETATM   19  C21 UNL     1      19.556  -6.200   4.778  1.00  0.00     0.017 C 
BRANCH  18  20
HETATM   20  C22 UNL     1      21.884  -6.209   4.103  1.00  0.00     0.039 C 
BRANCH  20  21
HETATM   21  C23 UNL     1      22.373  -7.023   5.269  1.00  0.00     0.039 C 
BRANCH  21  22
HETATM   22  C24 UNL     1      23.851  -7.383   5.012  1.00  0.00     0.161 C 
HETATM   23  O6  UNL     1      24.558  -6.256   4.691  1.00  0.00    -0.355 OA
HETATM   24  C25 UNL     1      25.282  -5.902   5.795  1.00  0.00     0.264 C 
HETATM   25  C30 UNL     1      25.778  -7.253   6.318  1.00  0.00     0.204 C 
HETATM   26  C31 UNL     1      24.491  -8.057   6.180  1.00  0.00     0.232 C 
HETATM   27  F1  UNL     1      24.767  -9.366   5.881  1.00  0.00    -0.244 F 
BRANCH  24  28
HETATM   28  N1  UNL     1      26.374  -5.000   5.545  1.00  0.00    -0.280 N 
HETATM   29  C26 UNL     1      27.231  -5.325   4.555  1.00  0.00     0.102 A 
HETATM   30  C27 UNL     1      28.300  -4.518   4.253  1.00  0.00     0.065 A 
HETATM   31  C28 UNL     1      28.492  -3.366   4.974  1.00  0.00     0.103 A 
HETATM   32  N3  UNL     1      27.635  -3.055   5.955  1.00  0.00    -0.295 N 
HETATM   33  C29 UNL     1      26.605  -3.859   6.225  1.00  0.00     0.330 A 
ATOM     34  H3  UNL     1      27.770  -2.201   6.498  1.00  0.00     0.172 HD
HETATM   35  O7  UNL     1      25.773  -3.590   7.153  1.00  0.00    -0.246 OA
BRANCH  31  36
HETATM   36  N2  UNL     1      29.507  -2.593   4.693  1.00  0.00    -0.385 N 
ATOM     37  H22 UNL     1      30.464  -2.943   4.741  1.00  0.00     0.157 HD
ATOM     38  H21 UNL     1      29.341  -1.624   4.420  1.00  0.00     0.157 HD
ENDBRANCH  31  36
ENDBRANCH  24  28
BRANCH  25  39
HETATM   39  O8  UNL     1      26.107  -7.220   7.657  1.00  0.00    -0.388 OA
ATOM     40  H8  UNL     1      25.350  -7.108   8.219  1.00  0.00     0.210 HD
ENDBRANCH  25  39
ENDBRANCH  21  22
ENDBRANCH  20  21
ENDBRANCH  18  20
ENDBRANCH  17  18
BRANCH  17  41
HETATM   41  N4  UNL     1      20.126  -5.955   1.675  1.00  0.00    -0.135 N 
HETATM   42  O9  UNL     1      20.905  -5.909   0.743  1.00  0.00    -0.535 OA
HETATM   43  O10 UNL     1      19.341  -4.876   1.937  1.00  0.00    -0.535 OA
ENDBRANCH  17  41
BRANCH  16  44
HETATM   44  O5  UNL     1      18.067  -8.209   3.623  1.00  0.00    -0.389 OA
ATOM     45  H5  UNL     1      18.513  -9.036   3.482  1.00  0.00     0.210 HD
ENDBRANCH  16  44
BRANCH  14  46
HETATM   46  O4  UNL     1      17.973  -6.657   0.440  1.00  0.00    -0.387 OA
ATOM     47  H4  UNL     1      17.557  -5.818   0.595  1.00  0.00     0.210 HD
ENDBRANCH  14  46
BRANCH   1  48
HETATM   48  O1  UNL     1      20.758  -9.614  -0.980  1.00  0.00    -0.354 OA
BRANCH  48  49
HETATM   49  C4  UNL     1      21.050  -8.954  -2.174  1.00  0.00     0.204 C 
BRANCH  49  50
HETATM   50  C2  UNL     1      20.018  -9.271  -3.194  1.00  0.00    -0.070 C 
HETATM   51  C1  UNL     1      20.017 -10.479  -3.737  1.00  0.00     0.016 C 
HETATM   52  C3  UNL     1      19.001  -8.272  -3.612  1.00  0.00     0.044 C 
ENDBRANCH  49  50
ENDBRANCH  48  49
ENDBRANCH   1  48
TORSDOF 13
ENDMDL
MODEL 3
REMARK VINA RESULT: -7.341359371      5.195      8.191
REMARK  13 active torsions:
REMARK  status: ('A' for Active; 'I' for Inactive)
REMARK    1  A    between atoms: C2_2  and  C4_4 
REMARK    2  A    between atoms: C4_4  and  O1_5 
REMARK    3  A    between atoms: O1_5  and  C5_6 
REMARK    4  A    between atoms: C16_19  and  O4_21 
REMARK    5  A    between atoms: C18_23  and  O5_24 
REMARK    6  A    between atoms: C19_26  and  C20_27 
REMARK    7  A    between atoms: C19_26  and  N4_50 
REMARK    8  A    between atoms: C20_27  and  C22_29 
REMARK    9  A    between atoms: C22_29  and  C23_30 
REMARK   10  A    between atoms: C23_30  and  C24_31 
REMARK   11  A    between atoms: C25_33  and  N1_34 
REMARK   12  A    between atoms: C28_37  and  N2_38 
REMARK   13  A    between atoms: C30_45  and  O8_46 
ROOT
HETATM    1  C5  UNL     1      27.211 -13.937   7.748  1.00  0.00     0.296 C 
HETATM    2  O2  UNL     1      27.436 -12.706   7.202  1.00  0.00    -0.347 OA
HETATM    3  C6  UNL     1      26.421 -12.125   6.443  1.00  0.00     0.200 C 
HETATM    4  C7  UNL     1      25.176 -12.280   7.252  1.00  0.00     0.084 C 
HETATM    5  C8  UNL     1      25.495 -11.569   8.588  1.00  0.00     0.048 C 
HETATM    6  C9  UNL     1      23.923 -11.650   6.756  1.00  0.00     0.048 C 
HETATM    7  O3  UNL     1      24.862 -13.578   7.597  1.00  0.00    -0.361 OA
HETATM    8  C10 UNL     1      25.864 -14.497   7.583  1.00  0.00     0.121 C 
HETATM    9  C11 UNL     1      25.581 -15.450   8.749  1.00  0.00     0.022 C 
HETATM   10  C12 UNL     1      24.125 -15.341   9.176  1.00  0.00     0.013 C 
HETATM   11  C13 UNL     1      25.824 -16.836   8.282  1.00  0.00     0.008 C 
HETATM   12  C14 UNL     1      26.308 -16.714   6.864  1.00  0.00     0.011 C 
HETATM   13  C15 UNL     1      25.674 -15.423   6.435  1.00  0.00     0.062 C 
HETATM   14  C16 UNL     1      26.266 -15.027   5.134  1.00  0.00     0.089 C 
HETATM   15  C17 UNL     1      25.674 -16.076   4.148  1.00  0.00     0.049 C 
HETATM   16  C18 UNL     1      25.832 -13.723   4.567  1.00  0.00     0.194 C 
HETATM   17  C19 UNL     1      26.484 -12.486   5.054  1.00  0.00     0.176 C 
ENDROOT
BRANCH  17  18
HETATM   18  C20 UNL     1      26.179 -11.378   4.063  1.00  0.00    -0.050 C 
HETATM   19  C21 UNL     1      25.570 -11.682   2.942  1.00  0.00     0.017 C 
BRANCH  18  20
HETATM   20  C22 UNL     1      26.475  -9.960   4.389  1.00  0.00     0.039 C 
BRANCH  20  21
HETATM   21  C23 UNL     1      25.439  -9.050   3.790  1.00  0.00     0.039 C 
BRANCH  21  22
HETATM   22  C24 UNL     1      24.539  -8.535   4.931  1.00  0.00     0.161 C 
HETATM   23  O6  UNL     1      25.309  -8.002   5.931  1.00  0.00    -0.355 OA
HETATM   24  C25 UNL     1      25.224  -6.642   5.828  1.00  0.00     0.264 C 
HETATM   25  C30 UNL     1      23.742  -6.421   5.510  1.00  0.00     0.204 C 
HETATM   26  C31 UNL     1      23.548  -7.519   4.471  1.00  0.00     0.232 C 
HETATM   27  F1  UNL     1      22.278  -8.029   4.536  1.00  0.00    -0.244 F 
BRANCH  24  28
HETATM   28  N1  UNL     1      25.626  -5.915   7.001  1.00  0.00    -0.280 N 
HETATM   29  C26 UNL     1      25.483  -6.534   8.192  1.00  0.00     0.102 A 
HETATM   30  C27 UNL     1      25.843  -5.909   9.360  1.00  0.00     0.065 A 
HETATM   31  C28 UNL     1      26.354  -4.637   9.307  1.00  0.00     0.103 A 
HETATM   32  N3  UNL     1      26.491  -4.032   8.120  1.00  0.00    -0.295 N 
HETATM   33  C29 UNL     1      26.132  -4.666   7.001  1.00  0.00     0.330 A 
ATOM     34  H3  UNL     1      26.869  -3.086   8.070  1.00  0.00     0.172 HD
HETATM   35  O7  UNL     1      26.250  -4.117   5.856  1.00  0.00    -0.246 OA
BRANCH  31  36
HETATM   36  N2  UNL     1      26.698  -4.035  10.415  1.00  0.00    -0.385 N 
ATOM     37  H22 UNL     1      26.490  -4.446  11.325  1.00  0.00     0.157 HD
ATOM     38  H21 UNL     1      27.185  -3.139  10.370  1.00  0.00     0.157 HD
ENDBRANCH  31  36
ENDBRANCH  24  28
BRANCH  25  39
HETATM   39  O8  UNL     1      23.503  -5.213   4.890  1.00  0.00    -0.388 OA
ATOM     40  H8  UNL     1      22.924  -4.651   5.391  1.00  0.00     0.210 HD
ENDBRANCH  25  39
ENDBRANCH  21  22
ENDBRANCH  20  21
ENDBRANCH  18  20
ENDBRANCH  17  18
BRANCH  17  41
HETATM   41  N4  UNL     1      27.908 -12.681   4.704  1.00  0.00    -0.135 N 
HETATM   42  O9  UNL     1      28.825 -12.470   5.473  1.00  0.00    -0.535 OA
HETATM   43  O10 UNL     1      28.186 -13.110   3.443  1.00  0.00    -0.535 OA
ENDBRANCH  17  41
BRANCH  16  44
HETATM   44  O5  UNL     1      24.443 -13.722   4.539  1.00  0.00    -0.389 OA
ATOM     45  H5  UNL     1      24.156 -12.831   4.693  1.00  0.00     0.210 HD
ENDBRANCH  16  44
BRANCH  14  46
HETATM   46  O4  UNL     1      27.616 -15.224   5.021  1.00  0.00    -0.387 OA
ATOM     47  H4  UNL     1      28.030 -14.787   4.287  1.00  0.00     0.210 HD
ENDBRANCH  14  46
BRANCH   1  48
HETATM   48  O1  UNL     1      27.540 -13.853   9.099  1.00  0.00    -0.354 OA
BRANCH  48  49
HETATM   49  C4  UNL     1      28.836 -14.289   9.374  1.00  0.00     0.204 C 
BRANCH  49  50
HETATM   50  C2  UNL     1      28.838 -15.136  10.595  1.00  0.00    -0.070 C 
HETATM   51  C1  UNL     1      28.486 -14.584  11.747  1.00  0.00     0.016 C 
HETATM   52  C3  UNL     1      29.223 -16.570  10.550  1.00  0.00     0.044 C 
ENDBRANCH  49  50
ENDBRANCH  48  49
ENDBRANCH   1  48
TORSDOF 13
ENDMDL
MODEL 4
REMARK VINA RESULT: -7.323693848      4.525      7.057
REMARK  13 active torsions:
REMARK  status: ('A' for Active; 'I' for Inactive)
REMARK    1  A    between atoms: C2_2  and  C4_4 
REMARK    2  A    between atoms: C4_4  and  O1_5 
REMARK    3  A    between atoms: O1_5  and  C5_6 
REMARK    4  A    between atoms: C16_19  and  O4_21 
REMARK    5  A    between atoms: C18_23  and  O5_24 
REMARK    6  A    between atoms: C19_26  and  C20_27 
REMARK    7  A    between atoms: C19_26  and  N4_50 
REMARK    8  A    between atoms: C20_27  and  C22_29 
REMARK    9  A    between atoms: C22_29  and  C23_30 
REMARK   10  A    between atoms: C23_30  and  C24_31 
REMARK   11  A    between atoms: C25_33  and  N1_34 
REMARK   12  A    between atoms: C28_37  and  N2_38 
REMARK   13  A    between atoms: C30_45  and  O8_46 
ROOT
HETATM    1  C5  UNL     1      17.533  -7.754   0.548  1.00  0.00     0.296 C 
HETATM    2  O2  UNL     1      18.841  -8.112   0.388  1.00  0.00    -0.347 OA
HETATM    3  C6  UNL     1      19.558  -8.512   1.516  1.00  0.00     0.200 C 
HETATM    4  C7  UNL     1      18.678  -9.487   2.225  1.00  0.00     0.084 C 
HETATM    5  C8  UNL     1      18.413 -10.596   1.180  1.00  0.00     0.048 C 
HETATM    6  C9  UNL     1      19.215 -10.190   3.421  1.00  0.00     0.048 C 
HETATM    7  O3  UNL     1      17.432  -9.007   2.569  1.00  0.00    -0.361 OA
HETATM    8  C10 UNL     1      16.956  -7.932   1.885  1.00  0.00     0.121 C 
HETATM    9  C11 UNL     1      15.447  -8.152   1.747  1.00  0.00     0.022 C 
HETATM   10  C12 UNL     1      14.966  -9.169   2.771  1.00  0.00     0.013 C 
HETATM   11  C13 UNL     1      14.766  -6.864   2.018  1.00  0.00     0.008 C 
HETATM   12  C14 UNL     1      15.860  -5.861   2.259  1.00  0.00     0.011 C 
HETATM   13  C15 UNL     1      16.967  -6.737   2.771  1.00  0.00     0.062 C 
HETATM   14  C16 UNL     1      18.211  -5.930   2.813  1.00  0.00     0.089 C 
HETATM   15  C17 UNL     1      17.948  -4.943   3.987  1.00  0.00     0.049 C 
HETATM   16  C18 UNL     1      19.456  -6.636   3.215  1.00  0.00     0.194 C 
HETATM   17  C19 UNL     1      20.191  -7.416   2.193  1.00  0.00     0.176 C 
ENDROOT
BRANCH  17  18
HETATM   18  C20 UNL     1      21.588  -7.679   2.725  1.00  0.00    -0.050 C 
HETATM   19  C21 UNL     1      22.276  -8.678   2.228  1.00  0.00     0.017 C 
BRANCH  18  20
HETATM   20  C22 UNL     1      22.208  -6.771   3.723  1.00  0.00     0.039 C 
BRANCH  20  21
HETATM   21  C23 UNL     1      22.578  -7.524   4.970  1.00  0.00     0.039 C 
BRANCH  21  22
HETATM   22  C24 UNL     1      24.096  -7.789   4.935  1.00  0.00     0.161 C 
HETATM   23  O6  UNL     1      24.764  -6.642   4.598  1.00  0.00    -0.355 OA
HETATM   24  C25 UNL     1      25.311  -6.138   5.744  1.00  0.00     0.264 C 
HETATM   25  C30 UNL     1      25.823  -7.396   6.453  1.00  0.00     0.204 C 
HETATM   26  C31 UNL     1      24.621  -8.307   6.232  1.00  0.00     0.232 C 
HETATM   27  F1  UNL     1      25.021  -9.611   6.098  1.00  0.00    -0.244 F 
BRANCH  24  28
HETATM   28  N1  UNL     1      26.364  -5.178   5.547  1.00  0.00    -0.280 N 
HETATM   29  C26 UNL     1      27.123  -5.312   4.440  1.00  0.00     0.102 A 
HETATM   30  C27 UNL     1      28.149  -4.438   4.177  1.00  0.00     0.065 A 
HETATM   31  C28 UNL     1      28.398  -3.416   5.059  1.00  0.00     0.103 A 
HETATM   32  N3  UNL     1      27.638  -3.294   6.156  1.00  0.00    -0.295 N 
HETATM   33  C29 UNL     1      26.648  -4.160   6.383  1.00  0.00     0.330 A 
ATOM     34  H3  UNL     1      27.816  -2.539   6.818  1.00  0.00     0.172 HD
HETATM   35  O7  UNL     1      25.907  -4.070   7.417  1.00  0.00    -0.246 OA
BRANCH  31  36
HETATM   36  N2  UNL     1      29.373  -2.580   4.817  1.00  0.00    -0.385 N 
ATOM     37  H22 UNL     1      29.541  -2.225   3.876  1.00  0.00     0.157 HD
ATOM     38  H21 UNL     1      29.976  -2.276   5.582  1.00  0.00     0.157 HD
ENDBRANCH  31  36
ENDBRANCH  24  28
BRANCH  25  39
HETATM   39  O8  UNL     1      25.970  -7.221   7.812  1.00  0.00    -0.388 OA
ATOM     40  H8  UNL     1      26.542  -6.495   8.030  1.00  0.00     0.210 HD
ENDBRANCH  25  39
ENDBRANCH  21  22
ENDBRANCH  20  21
ENDBRANCH  18  20
ENDBRANCH  17  18
BRANCH  17  41
HETATM   41  N4  UNL     1      20.552  -6.404   1.176  1.00  0.00    -0.135 N 
HETATM   42  O9  UNL     1      20.398  -6.567  -0.018  1.00  0.00    -0.535 OA
HETATM   43  O10 UNL     1      21.096  -5.240   1.621  1.00  0.00    -0.535 OA
ENDBRANCH  17  41
BRANCH  16  44
HETATM   44  O5  UNL     1      19.200  -7.277   4.420  1.00  0.00    -0.389 OA
ATOM     45  H5  UNL     1      18.677  -8.046   4.228  1.00  0.00     0.210 HD
ENDBRANCH  16  44
BRANCH  14  46
HETATM   46  O4  UNL     1      18.404  -5.096   1.745  1.00  0.00    -0.387 OA
ATOM     47  H4  UNL     1      18.672  -4.211   1.964  1.00  0.00     0.210 HD
ENDBRANCH  14  46
BRANCH   1  48
HETATM   48  O1  UNL     1      16.795  -8.463  -0.398  1.00  0.00    -0.354 OA
BRANCH  48  49
HETATM   49  C4  UNL     1      16.768  -7.843  -1.647  1.00  0.00     0.204 C 
BRANCH  49  50
HETATM   50  C2  UNL     1      17.426  -8.712  -2.658  1.00  0.00    -0.070 C 
HETATM   51  C1  UNL     1      16.902  -9.903  -2.903  1.00  0.00     0.016 C 
HETATM   52  C3  UNL     1      18.644  -8.276  -3.388  1.00  0.00     0.044 C 
ENDBRANCH  49  50
ENDBRANCH  48  49
ENDBRANCH   1  48
TORSDOF 13
ENDMDL
MODEL 5
REMARK VINA RESULT: -7.295409455      4.535      7.783
REMARK  13 active torsions:
REMARK  status: ('A' for Active; 'I' for Inactive)
REMARK    1  A    between atoms: C2_2  and  C4_4 
REMARK    2  A    between atoms: C4_4  and  O1_5 
REMARK    3  A    between atoms: O1_5  and  C5_6 
REMARK    4  A    between atoms: C16_19  and  O4_21 
REMARK    5  A    between atoms: C18_23  and  O5_24 
REMARK    6  A    between atoms: C19_26  and  C20_27 
REMARK    7  A    between atoms: C19_26  and  N4_50 
REMARK    8  A    between atoms: C20_27  and  C22_29 
REMARK    9  A    between atoms: C22_29  and  C23_30 
REMARK   10  A    between atoms: C23_30  and  C24_31 
REMARK   11  A    between atoms: C25_33  and  N1_34 
REMARK   12  A    between atoms: C28_37  and  N2_38 
REMARK   13  A    between atoms: C30_45  and  O8_46 
ROOT
HETATM    1  C5  UNL     1      19.215  -8.592   0.060  1.00  0.00     0.296 C 
HETATM    2  O2  UNL     1      20.182  -8.368   0.999  1.00  0.00    -0.347 OA
HETATM    3  C6  UNL     1      19.816  -8.409   2.345  1.00  0.00     0.200 C 
HETATM    4  C7  UNL     1      19.003  -9.651   2.502  1.00  0.00     0.084 C 
HETATM    5  C8  UNL     1      19.944 -10.787   2.037  1.00  0.00     0.048 C 
HETATM    6  C9  UNL     1      18.557 -10.040   3.868  1.00  0.00     0.048 C 
HETATM    7  O3  UNL     1      17.898  -9.734   1.681  1.00  0.00    -0.361 OA
HETATM    8  C10 UNL     1      17.887  -8.972   0.555  1.00  0.00     0.121 C 
HETATM    9  C11 UNL     1      17.183  -9.811  -0.516  1.00  0.00     0.022 C 
HETATM   10  C12 UNL     1      16.366 -10.917   0.133  1.00  0.00     0.013 C 
HETATM   11  C13 UNL     1      16.256  -8.925  -1.260  1.00  0.00     0.008 C 
HETATM   12  C14 UNL     1      16.445  -7.551  -0.681  1.00  0.00     0.011 C 
HETATM   13  C15 UNL     1      16.903  -7.868   0.713  1.00  0.00     0.062 C 
HETATM   14  C16 UNL     1      17.382  -6.611   1.339  1.00  0.00     0.089 C 
HETATM   15  C17 UNL     1      16.068  -5.807   1.556  1.00  0.00     0.049 C 
HETATM   16  C18 UNL     1      17.961  -6.720   2.704  1.00  0.00     0.194 C 
HETATM   17  C19 UNL     1      19.376  -7.135   2.843  1.00  0.00     0.176 C 
ENDROOT
BRANCH  17  18
HETATM   18  C20 UNL     1      19.830  -6.776   4.245  1.00  0.00    -0.050 C 
HETATM   19  C21 UNL     1      19.064  -6.008   4.982  1.00  0.00     0.017 C 
BRANCH  18  20
HETATM   20  C22 UNL     1      21.073  -7.355   4.817  1.00  0.00     0.039 C 
BRANCH  20  21
HETATM   21  C23 UNL     1      22.055  -6.271   5.162  1.00  0.00     0.039 C 
BRANCH  21  22
HETATM   22  C24 UNL     1      23.435  -6.685   4.612  1.00  0.00     0.161 C 
HETATM   23  O6  UNL     1      24.241  -5.584   4.494  1.00  0.00    -0.355 OA
HETATM   24  C25 UNL     1      25.124  -5.613   5.536  1.00  0.00     0.264 C 
HETATM   25  C30 UNL     1      25.498  -7.096   5.618  1.00  0.00     0.204 C 
HETATM   26  C31 UNL     1      24.111  -7.707   5.462  1.00  0.00     0.232 C 
HETATM   27  F1  UNL     1      24.181  -8.906   4.801  1.00  0.00    -0.244 F 
BRANCH  24  28
HETATM   28  N1  UNL     1      26.288  -4.784   5.374  1.00  0.00    -0.280 N 
HETATM   29  C26 UNL     1      27.114  -5.072   4.347  1.00  0.00     0.102 A 
HETATM   30  C27 UNL     1      28.247  -4.330   4.122  1.00  0.00     0.065 A 
HETATM   31  C28 UNL     1      28.535  -3.281   4.959  1.00  0.00     0.103 A 
HETATM   32  N3  UNL     1      27.708  -3.005   5.975  1.00  0.00    -0.295 N 
HETATM   33  C29 UNL     1      26.614  -3.745   6.168  1.00  0.00     0.330 A 
ATOM     34  H3  UNL     1      27.913  -2.227   6.604  1.00  0.00     0.172 HD
HETATM   35  O7  UNL     1      25.807  -3.507   7.126  1.00  0.00    -0.246 OA
BRANCH  31  36
HETATM   36  N2  UNL     1      29.612  -2.570   4.752  1.00  0.00    -0.385 N 
ATOM     37  H22 UNL     1      29.633  -1.842   4.038  1.00  0.00     0.157 HD
ATOM     38  H21 UNL     1      30.445  -2.743   5.315  1.00  0.00     0.157 HD
ENDBRANCH  31  36
ENDBRANCH  24  28
BRANCH  25  39
HETATM   39  O8  UNL     1      25.978  -7.459   6.858  1.00  0.00    -0.388 OA
ATOM     40  H8  UNL     1      26.923  -7.396   6.921  1.00  0.00     0.210 HD
ENDBRANCH  25  39
ENDBRANCH  21  22
ENDBRANCH  20  21
ENDBRANCH  18  20
ENDBRANCH  17  18
BRANCH  17  41
HETATM   41  N4  UNL     1      20.122  -6.084   2.115  1.00  0.00    -0.135 N 
HETATM   42  O9  UNL     1      21.057  -6.314   1.374  1.00  0.00    -0.535 OA
HETATM   43  O10 UNL     1      19.730  -4.796   2.310  1.00  0.00    -0.535 OA
ENDBRANCH  17  41
BRANCH  16  44
HETATM   44  O5  UNL     1      17.038  -7.387   3.497  1.00  0.00    -0.389 OA
ATOM     45  H5  UNL     1      16.833  -8.209   3.066  1.00  0.00     0.210 HD
ENDBRANCH  16  44
BRANCH  14  46
HETATM   46  O4  UNL     1      18.115  -5.793   0.522  1.00  0.00    -0.387 OA
ATOM     47  H4  UNL     1      18.840  -5.346   0.940  1.00  0.00     0.210 HD
ENDBRANCH  14  46
BRANCH   1  48
HETATM   48  O1  UNL     1      19.706  -9.563  -0.810  1.00  0.00    -0.354 OA
BRANCH  48  49
HETATM   49  C4  UNL     1      20.604  -9.053  -1.748  1.00  0.00     0.204 C 
BRANCH  49  50
HETATM   50  C2  UNL     1      20.060  -9.229  -3.119  1.00  0.00    -0.070 C 
HETATM   51  C1  UNL     1      20.516 -10.230  -3.856  1.00  0.00     0.016 C 
HETATM   52  C3  UNL     1      19.027  -8.316  -3.672  1.00  0.00     0.044 C 
ENDBRANCH  49  50
ENDBRANCH  48  49
ENDBRANCH   1  48
TORSDOF 13
ENDMDL
