MODEL 1
REMARK VINA RESULT: -5.688309696      0.000      0.000
REMARK  2 active torsions:
REMARK  status: ('A' for Active; 'I' for Inactive)
REMARK    1  A    between atoms: N1_1  and  C1_4 
REMARK    2  A    between atoms: C3_9  and  N4_10 
ROOT
HETATM    1  C1  UNL     1      38.455  16.412 -14.599  1.00  0.00     0.107 C 
HETATM    2  N2  UNL     1      37.193  16.014 -14.784  1.00  0.00    -0.329 N 
ATOM      3  H2  UNL     1      36.962  15.108 -14.377  1.00  0.00     0.168 HD
HETATM    4  C2  UNL     1      36.180  16.624 -15.425  1.00  0.00     0.155 C 
HETATM    5  N3  UNL     1      35.105  15.822 -15.888  1.00  0.00    -0.080 NA
HETATM    6  C3  UNL     1      36.024  17.970 -15.714  1.00  0.00     0.194 C 
HETATM    7  C4  UNL     1      37.018  18.938 -15.691  1.00  0.00     0.222 C 
HETATM    8  O3  UNL     1      36.704  20.102 -16.014  1.00  0.00    -0.285 OA
HETATM    9  C5  UNL     1      38.348  18.785 -15.349  1.00  0.00     0.073 C 
HETATM   10  C6  UNL     1      39.011  17.618 -15.034  1.00  0.00     0.011 C 
HETATM   11  C7  UNL     1      40.294  18.264 -15.354  1.00  0.00     0.127 C 
HETATM   12  C8  UNL     1      39.585  19.532 -15.150  1.00  0.00     0.168 C 
HETATM   13  O4  UNL     1      39.911  20.725 -14.910  1.00  0.00    -0.292 OA
ENDROOT
BRANCH   1  14
HETATM   14  N1  UNL     1      39.256  15.612 -13.956  1.00  0.00    -0.385 N 
ATOM     15  H12 UNL     1      39.343  14.668 -14.333  1.00  0.00     0.157 HD
ATOM     16  H11 UNL     1      39.734  15.979 -13.132  1.00  0.00     0.157 HD
ENDBRANCH   1  14
BRANCH   6  17
HETATM   17  N4  UNL     1      34.727  18.402 -16.064  1.00  0.00    -0.108 N 
HETATM   18  O1  UNL     1      33.945  18.865 -15.226  1.00  0.00    -0.532 OA
HETATM   19  O2  UNL     1      34.322  18.306 -17.364  1.00  0.00    -0.532 OA
ENDBRANCH   6  17
TORSDOF 2
ENDMDL
MODEL 2
REMARK VINA RESULT: -5.337461602      2.761      3.404
REMARK  2 active torsions:
REMARK  status: ('A' for Active; 'I' for Inactive)
REMARK    1  A    between atoms: N1_1  and  C1_4 
REMARK    2  A    between atoms: C3_9  and  N4_10 
ROOT
HETATM    1  C1  UNL     1      39.068  19.910 -15.365  1.00  0.00     0.107 C 
HETATM    2  N2  UNL     1      37.794  19.753 -15.738  1.00  0.00    -0.329 N 
ATOM      3  H2  UNL     1      37.401  20.530 -16.270  1.00  0.00     0.168 HD
HETATM    4  C2  UNL     1      36.950  18.729 -15.520  1.00  0.00     0.155 C 
HETATM    5  N3  UNL     1      35.557  18.986 -15.593  1.00  0.00    -0.080 NA
HETATM    6  C3  UNL     1      37.250  17.409 -15.220  1.00  0.00     0.194 C 
HETATM    7  C4  UNL     1      38.468  16.923 -14.766  1.00  0.00     0.222 C 
HETATM    8  O3  UNL     1      38.550  15.704 -14.513  1.00  0.00    -0.285 OA
HETATM    9  C5  UNL     1      39.637  17.626 -14.550  1.00  0.00     0.073 C 
HETATM   10  C6  UNL     1      39.838  18.986 -14.655  1.00  0.00     0.011 C 
HETATM   11  C7  UNL     1      41.027  18.873 -13.795  1.00  0.00     0.127 C 
HETATM   12  C8  UNL     1      41.037  17.456 -14.174  1.00  0.00     0.168 C 
HETATM   13  O4  UNL     1      41.882  16.522 -14.172  1.00  0.00    -0.292 OA
ENDROOT
BRANCH   1  14
HETATM   14  N1  UNL     1      39.662  21.024 -15.685  1.00  0.00    -0.385 N 
ATOM     15  H12 UNL     1      39.534  21.338 -16.647  1.00  0.00     0.157 HD
ATOM     16  H11 UNL     1      40.207  21.497 -14.964  1.00  0.00     0.157 HD
ENDBRANCH   1  14
BRANCH   6  17
HETATM   17  N4  UNL     1      36.216  16.465 -15.396  1.00  0.00    -0.108 N 
HETATM   18  O1  UNL     1      36.071  15.845 -16.456  1.00  0.00    -0.532 OA
HETATM   19  O2  UNL     1      35.350  16.227 -14.367  1.00  0.00    -0.532 OA
ENDBRANCH   6  17
TORSDOF 2
ENDMDL
MODEL 3
REMARK VINA RESULT: -4.993134920      0.976      1.278
REMARK  2 active torsions:
REMARK  status: ('A' for Active; 'I' for Inactive)
REMARK    1  A    between atoms: N1_1  and  C1_4 
REMARK    2  A    between atoms: C3_9  and  N4_10 
ROOT
HETATM    1  C1  UNL     1      39.377  16.267 -14.633  1.00  0.00     0.107 C 
HETATM    2  N2  UNL     1      38.103  15.930 -14.852  1.00  0.00    -0.329 N 
ATOM      3  H2  UNL     1      37.850  14.985 -14.562  1.00  0.00     0.168 HD
HETATM    4  C2  UNL     1      37.102  16.644 -15.397  1.00  0.00     0.155 C 
HETATM    5  N3  UNL     1      36.001  15.937 -15.946  1.00  0.00    -0.080 NA
HETATM    6  C3  UNL     1      36.981  18.020 -15.507  1.00  0.00     0.194 C 
HETATM    7  C4  UNL     1      38.002  18.950 -15.372  1.00  0.00     0.222 C 
HETATM    8  O3  UNL     1      37.718  20.154 -15.539  1.00  0.00    -0.285 OA
HETATM    9  C5  UNL     1      39.330  18.719 -15.069  1.00  0.00     0.073 C 
HETATM   10  C6  UNL     1      39.963  17.503 -14.915  1.00  0.00     0.011 C 
HETATM   11  C7  UNL     1      41.260  18.151 -15.165  1.00  0.00     0.127 C 
HETATM   12  C8  UNL     1      40.589  19.401 -14.790  1.00  0.00     0.168 C 
HETATM   13  O4  UNL     1      40.951  20.544 -14.403  1.00  0.00    -0.292 OA
ENDROOT
BRANCH   1  14
HETATM   14  N1  UNL     1      40.161  15.369 -14.108  1.00  0.00    -0.385 N 
ATOM     15  H12 UNL     1      40.697  15.666 -13.292  1.00  0.00     0.157 HD
ATOM     16  H11 UNL     1      40.187  14.447 -14.542  1.00  0.00     0.157 HD
ENDBRANCH   1  14
BRANCH   6  17
HETATM   17  N4  UNL     1      35.693  18.528 -15.783  1.00  0.00    -0.108 N 
HETATM   18  O1  UNL     1      35.346  18.838 -16.928  1.00  0.00    -0.532 OA
HETATM   19  O2  UNL     1      34.805  18.681 -14.758  1.00  0.00    -0.532 OA
ENDBRANCH   6  17
TORSDOF 2
ENDMDL
MODEL 4
REMARK VINA RESULT: -4.923166111      1.618      4.243
REMARK  2 active torsions:
REMARK  status: ('A' for Active; 'I' for Inactive)
REMARK    1  A    between atoms: N1_1  and  C1_4 
REMARK    2  A    between atoms: C3_9  and  N4_10 
ROOT
HETATM    1  C1  UNL     1      36.123  16.594 -14.532  1.00  0.00     0.107 C 
HETATM    2  N2  UNL     1      37.362  16.260 -14.160  1.00  0.00    -0.329 N 
ATOM      3  H2  UNL     1      37.481  15.286 -13.883  1.00  0.00     0.168 HD
HETATM    4  C2  UNL     1      38.477  17.011 -14.094  1.00  0.00     0.155 C 
HETATM    5  N3  UNL     1      39.525  16.574 -13.243  1.00  0.00    -0.080 NA
HETATM    6  C3  UNL     1      38.764  18.194 -14.757  1.00  0.00     0.194 C 
HETATM    7  C4  UNL     1      37.851  19.030 -15.384  1.00  0.00     0.222 C 
HETATM    8  O3  UNL     1      38.284  20.077 -15.905  1.00  0.00    -0.285 OA
HETATM    9  C5  UNL     1      36.487  18.855 -15.514  1.00  0.00     0.073 C 
HETATM   10  C6  UNL     1      35.707  17.852 -14.978  1.00  0.00     0.011 C 
HETATM   11  C7  UNL     1      34.516  18.702 -15.129  1.00  0.00     0.127 C 
HETATM   12  C8  UNL     1      35.299  19.440 -16.126  1.00  0.00     0.168 C 
HETATM   13  O4  UNL     1      35.045  20.225 -17.079  1.00  0.00    -0.292 OA
ENDROOT
BRANCH   1  14
HETATM   14  N1  UNL     1      35.204  15.674 -14.481  1.00  0.00    -0.385 N 
ATOM     15  H12 UNL     1      34.421  15.787 -15.125  1.00  0.00     0.157 HD
ATOM     16  H11 UNL     1      35.327  14.915 -13.811  1.00  0.00     0.157 HD
ENDBRANCH   1  14
BRANCH   6  17
HETATM   17  N4  UNL     1      40.119  18.587 -14.801  1.00  0.00    -0.108 N 
HETATM   18  O1  UNL     1      40.566  19.469 -14.059  1.00  0.00    -0.532 OA
HETATM   19  O2  UNL     1      40.960  17.978 -15.686  1.00  0.00    -0.532 OA
ENDBRANCH   6  17
TORSDOF 2
ENDMDL
MODEL 5
REMARK VINA RESULT: -4.912630488      2.207      4.669
REMARK  2 active torsions:
REMARK  status: ('A' for Active; 'I' for Inactive)
REMARK    1  A    between atoms: N1_1  and  C1_4 
REMARK    2  A    between atoms: C3_9  and  N4_10 
ROOT
HETATM    1  C1  UNL     1      39.170  16.507 -14.138  1.00  0.00     0.107 C 
HETATM    2  N2  UNL     1      40.395  17.017 -13.981  1.00  0.00    -0.329 N 
ATOM      3  H2  UNL     1      41.122  16.335 -13.768  1.00  0.00     0.168 HD
HETATM    4  C2  UNL     1      40.816  18.292 -14.059  1.00  0.00     0.155 C 
HETATM    5  N3  UNL     1      42.027  18.635 -13.404  1.00  0.00    -0.080 NA
HETATM    6  C3  UNL     1      40.220  19.362 -14.708  1.00  0.00     0.194 C 
HETATM    7  C4  UNL     1      38.905  19.432 -15.146  1.00  0.00     0.222 C 
HETATM    8  O3  UNL     1      38.527  20.493 -15.683  1.00  0.00    -0.285 OA
HETATM    9  C5  UNL     1      37.929  18.458 -15.067  1.00  0.00     0.073 C 
HETATM   10  C6  UNL     1      38.013  17.224 -14.458  1.00  0.00     0.011 C 
HETATM   11  C7  UNL     1      36.545  17.165 -14.381  1.00  0.00     0.127 C 
HETATM   12  C8  UNL     1      36.555  18.163 -15.457  1.00  0.00     0.168 C 
HETATM   13  O4  UNL     1      35.736  18.571 -16.323  1.00  0.00    -0.292 OA
ENDROOT
BRANCH   1  14
HETATM   14  N1  UNL     1      39.021  15.223 -13.982  1.00  0.00    -0.385 N 
ATOM     15  H12 UNL     1      38.077  14.862 -14.120  1.00  0.00     0.157 HD
ATOM     16  H11 UNL     1      39.845  14.675 -13.736  1.00  0.00     0.157 HD
ENDBRANCH   1  14
BRANCH   6  17
HETATM   17  N4  UNL     1      41.030  20.493 -14.948  1.00  0.00    -0.108 N 
HETATM   18  O1  UNL     1      41.075  21.443 -14.158  1.00  0.00    -0.532 OA
HETATM   19  O2  UNL     1      41.784  20.542 -16.084  1.00  0.00    -0.532 OA
ENDBRANCH   6  17
TORSDOF 2
ENDMDL
