MODEL 1
REMARK VINA RESULT: -5.986441064      0.000      0.000
REMARK  3 active torsions:
REMARK  status: ('A' for Active; 'I' for Inactive)
REMARK    1  A    between atoms: N1_1  and  C1_4 
REMARK    2  A    between atoms: C5_14  and  S1_15 
REMARK    3  A    between atoms: S1_15  and  N4_16 
ROOT
HETATM    1  C1  UNL     1     -36.589 -18.776 -15.831  1.00  0.00     0.126 C 
HETATM    2  N2  UNL     1     -35.468 -19.485 -16.125  1.00  0.00    -0.293 N 
ATOM      3  H2  UNL     1     -35.500 -20.485 -15.925  1.00  0.00     0.172 HD
HETATM    4  C2  UNL     1     -34.303 -19.011 -16.658  1.00  0.00     0.328 C 
HETATM    5  O1  UNL     1     -33.351 -19.827 -16.614  1.00  0.00    -0.247 OA
HETATM    6  N3  UNL     1     -34.040 -17.813 -17.212  1.00  0.00    -0.275 N 
ATOM      7  H3  UNL     1     -33.181 -17.747 -17.757  1.00  0.00     0.173 HD
HETATM    8  C3  UNL     1     -34.781 -16.688 -17.129  1.00  0.00     0.250 C 
HETATM    9  O2  UNL     1     -34.326 -15.659 -17.710  1.00  0.00    -0.268 OA
HETATM   10  C4  UNL     1     -35.989 -16.482 -16.490  1.00  0.00     0.103 C 
HETATM   11  C5  UNL     1     -36.767 -17.406 -15.820  1.00  0.00     0.128 C 
ENDROOT
BRANCH  11  12
HETATM   12  S1  UNL     1     -38.101 -16.850 -14.860  1.00  0.00     0.260 S 
HETATM   13  O3  UNL     1     -39.358 -17.458 -15.418  1.00  0.00    -0.201 OA
HETATM   14  O4  UNL     1     -38.000 -17.286 -13.429  1.00  0.00    -0.201 OA
BRANCH  12  15
HETATM   15  N4  UNL     1     -38.287 -15.138 -14.943  1.00  0.00    -0.324 N 
ATOM     16  H42 UNL     1     -38.061 -14.592 -15.774  1.00  0.00     0.169 HD
ATOM     17  H41 UNL     1     -38.646 -14.750 -14.071  1.00  0.00     0.169 HD
ENDBRANCH  12  15
ENDBRANCH  11  12
BRANCH   1  18
HETATM   18  N1  UNL     1     -37.653 -19.436 -15.517  1.00  0.00    -0.384 N 
ATOM     19  H12 UNL     1     -37.469 -20.248 -14.929  1.00  0.00     0.157 HD
ATOM     20  H11 UNL     1     -38.546 -19.094 -15.873  1.00  0.00     0.157 HD
ENDBRANCH   1  18
TORSDOF 3
ENDMDL
MODEL 2
REMARK VINA RESULT: -5.953000941      1.199      3.040
REMARK  3 active torsions:
REMARK  status: ('A' for Active; 'I' for Inactive)
REMARK    1  A    between atoms: N1_1  and  C1_4 
REMARK    2  A    between atoms: C5_14  and  S1_15 
REMARK    3  A    between atoms: S1_15  and  N4_16 
ROOT
HETATM    1  C1  UNL     1     -36.907 -16.529 -15.462  1.00  0.00     0.126 C 
HETATM    2  N2  UNL     1     -35.895 -15.908 -16.123  1.00  0.00    -0.293 N 
ATOM      3  H2  UNL     1     -35.926 -14.889 -16.143  1.00  0.00     0.172 HD
HETATM    4  C2  UNL     1     -34.840 -16.495 -16.763  1.00  0.00     0.328 C 
HETATM    5  O1  UNL     1     -34.179 -15.710 -17.485  1.00  0.00    -0.247 OA
HETATM    6  N3  UNL     1     -34.421 -17.774 -16.728  1.00  0.00    -0.275 N 
ATOM      7  H3  UNL     1     -33.483 -17.951 -17.087  1.00  0.00     0.173 HD
HETATM    8  C3  UNL     1     -35.098 -18.849 -16.274  1.00  0.00     0.250 C 
HETATM    9  O2  UNL     1     -34.516 -19.970 -16.363  1.00  0.00    -0.268 OA
HETATM   10  C4  UNL     1     -36.360 -18.916 -15.715  1.00  0.00     0.103 C 
HETATM   11  C5  UNL     1     -37.222 -17.874 -15.432  1.00  0.00     0.128 C 
ENDROOT
BRANCH  11  12
HETATM   12  S1  UNL     1     -38.862 -18.231 -14.991  1.00  0.00     0.260 S 
HETATM   13  O3  UNL     1     -39.020 -17.943 -13.524  1.00  0.00    -0.201 OA
HETATM   14  O4  UNL     1     -39.852 -17.368 -15.717  1.00  0.00    -0.201 OA
BRANCH  12  15
HETATM   15  N4  UNL     1     -39.246 -19.895 -15.225  1.00  0.00    -0.324 N 
ATOM     16  H42 UNL     1     -38.662 -20.531 -15.768  1.00  0.00     0.169 HD
ATOM     17  H41 UNL     1     -40.116 -20.156 -14.760  1.00  0.00     0.169 HD
ENDBRANCH  12  15
ENDBRANCH  11  12
BRANCH   1  18
HETATM   18  N1  UNL     1     -37.703 -15.798 -14.758  1.00  0.00    -0.384 N 
ATOM     19  H12 UNL     1     -38.495 -16.312 -14.373  1.00  0.00     0.157 HD
ATOM     20  H11 UNL     1     -37.473 -14.809 -14.655  1.00  0.00     0.157 HD
ENDBRANCH   1  18
TORSDOF 3
ENDMDL
MODEL 3
REMARK VINA RESULT: -5.720097663      2.231      5.123
REMARK  3 active torsions:
REMARK  status: ('A' for Active; 'I' for Inactive)
REMARK    1  A    between atoms: N1_1  and  C1_4 
REMARK    2  A    between atoms: C5_14  and  S1_15 
REMARK    3  A    between atoms: S1_15  and  N4_16 
ROOT
HETATM    1  C1  UNL     1     -36.905 -16.532 -15.269  1.00  0.00     0.126 C 
HETATM    2  N2  UNL     1     -37.830 -15.851 -14.543  1.00  0.00    -0.293 N 
ATOM      3  H2  UNL     1     -37.622 -14.872 -14.350  1.00  0.00     0.172 HD
HETATM    4  C2  UNL     1     -39.007 -16.331 -14.043  1.00  0.00     0.328 C 
HETATM    5  O1  UNL     1     -39.562 -15.565 -13.218  1.00  0.00    -0.247 OA
HETATM    6  N3  UNL     1     -39.641 -17.489 -14.306  1.00  0.00    -0.275 N 
ATOM      7  H3  UNL     1     -40.615 -17.547 -14.010  1.00  0.00     0.173 HD
HETATM    8  C3  UNL     1     -39.137 -18.582 -14.916  1.00  0.00     0.250 C 
HETATM    9  O2  UNL     1     -39.910 -19.578 -15.036  1.00  0.00    -0.268 OA
HETATM   10  C4  UNL     1     -37.876 -18.787 -15.441  1.00  0.00     0.103 C 
HETATM   11  C5  UNL     1     -36.829 -17.888 -15.518  1.00  0.00     0.128 C 
ENDROOT
BRANCH  11  12
HETATM   12  S1  UNL     1     -35.253 -18.462 -15.965  1.00  0.00     0.260 S 
HETATM   13  O3  UNL     1     -34.808 -17.697 -17.179  1.00  0.00    -0.201 OA
HETATM   14  O4  UNL     1     -34.231 -18.222 -14.895  1.00  0.00    -0.201 OA
BRANCH  12  15
HETATM   15  N4  UNL     1     -35.273 -20.131 -16.398  1.00  0.00    -0.324 N 
ATOM     16  H42 UNL     1     -35.138 -20.461 -17.353  1.00  0.00     0.169 HD
ATOM     17  H41 UNL     1     -35.434 -20.734 -15.591  1.00  0.00     0.169 HD
ENDBRANCH  12  15
ENDBRANCH  11  12
BRANCH   1  18
HETATM   18  N1  UNL     1     -35.953 -15.854 -15.816  1.00  0.00    -0.384 N 
ATOM     19  H12 UNL     1     -35.089 -15.855 -15.275  1.00  0.00     0.157 HD
ATOM     20  H11 UNL     1     -36.147 -15.396 -16.707  1.00  0.00     0.157 HD
ENDBRANCH   1  18
TORSDOF 3
ENDMDL
MODEL 4
REMARK VINA RESULT: -5.400738429      2.041      4.476
REMARK  3 active torsions:
REMARK  status: ('A' for Active; 'I' for Inactive)
REMARK    1  A    between atoms: N1_1  and  C1_4 
REMARK    2  A    between atoms: C5_14  and  S1_15 
REMARK    3  A    between atoms: S1_15  and  N4_16 
ROOT
HETATM    1  C1  UNL     1     -37.183 -18.580 -15.628  1.00  0.00     0.126 C 
HETATM    2  N2  UNL     1     -38.470 -19.015 -15.628  1.00  0.00    -0.293 N 
ATOM      3  H2  UNL     1     -38.625 -19.968 -15.955  1.00  0.00     0.172 HD
HETATM    4  C2  UNL     1     -39.580 -18.320 -15.238  1.00  0.00     0.328 C 
HETATM    5  O1  UNL     1     -40.663 -18.869 -15.554  1.00  0.00    -0.247 OA
HETATM    6  N3  UNL     1     -39.670 -17.151 -14.577  1.00  0.00    -0.275 N 
ATOM      7  H3  UNL     1     -40.583 -16.927 -14.181  1.00  0.00     0.173 HD
HETATM    8  C3  UNL     1     -38.694 -16.241 -14.379  1.00  0.00     0.250 C 
HETATM    9  O2  UNL     1     -39.011 -15.190 -13.747  1.00  0.00    -0.268 OA
HETATM   10  C4  UNL     1     -37.370 -16.280 -14.770  1.00  0.00     0.103 C 
HETATM   11  C5  UNL     1     -36.704 -17.301 -15.421  1.00  0.00     0.128 C 
ENDROOT
BRANCH  11  12
HETATM   12  S1  UNL     1     -35.116 -17.004 -16.056  1.00  0.00     0.260 S 
HETATM   13  O3  UNL     1     -34.798 -15.550 -15.847  1.00  0.00    -0.201 OA
HETATM   14  O4  UNL     1     -34.057 -17.792 -15.344  1.00  0.00    -0.201 OA
BRANCH  12  15
HETATM   15  N4  UNL     1     -35.032 -17.302 -17.752  1.00  0.00    -0.324 N 
ATOM     16  H42 UNL     1     -35.833 -17.606 -18.306  1.00  0.00     0.169 HD
ATOM     17  H41 UNL     1     -34.096 -17.139 -18.123  1.00  0.00     0.169 HD
ENDBRANCH  12  15
ENDBRANCH  11  12
BRANCH   1  18
HETATM   18  N1  UNL     1     -36.255 -19.449 -15.847  1.00  0.00    -0.384 N 
ATOM     19  H12 UNL     1     -35.805 -19.787 -14.997  1.00  0.00     0.157 HD
ATOM     20  H11 UNL     1     -36.064 -19.706 -16.816  1.00  0.00     0.157 HD
ENDBRANCH   1  18
TORSDOF 3
ENDMDL
MODEL 5
REMARK VINA RESULT: -5.243196057      1.573      2.901
REMARK  3 active torsions:
REMARK  status: ('A' for Active; 'I' for Inactive)
REMARK    1  A    between atoms: N1_1  and  C1_4 
REMARK    2  A    between atoms: C5_14  and  S1_15 
REMARK    3  A    between atoms: S1_15  and  N4_16 
ROOT
HETATM    1  C1  UNL     1     -37.197 -16.408 -15.095  1.00  0.00     0.126 C 
HETATM    2  N2  UNL     1     -36.177 -15.845 -15.793  1.00  0.00    -0.293 N 
ATOM      3  H2  UNL     1     -36.126 -14.827 -15.776  1.00  0.00     0.172 HD
HETATM    4  C2  UNL     1     -35.212 -16.488 -16.515  1.00  0.00     0.328 C 
HETATM    5  O1  UNL     1     -34.531 -15.730 -17.247  1.00  0.00    -0.247 OA
HETATM    6  N3  UNL     1     -34.897 -17.796 -16.549  1.00  0.00    -0.275 N 
ATOM      7  H3  UNL     1     -33.998 -18.033 -16.969  1.00  0.00     0.173 HD
HETATM    8  C3  UNL     1     -35.633 -18.831 -16.091  1.00  0.00     0.250 C 
HETATM    9  O2  UNL     1     -35.150 -19.991 -16.253  1.00  0.00    -0.268 OA
HETATM   10  C4  UNL     1     -36.861 -18.819 -15.460  1.00  0.00     0.103 C 
HETATM   11  C5  UNL     1     -37.618 -17.724 -15.091  1.00  0.00     0.128 C 
ENDROOT
BRANCH  11  12
HETATM   12  S1  UNL     1     -39.254 -17.966 -14.565  1.00  0.00     0.260 S 
HETATM   13  O3  UNL     1     -39.577 -19.427 -14.714  1.00  0.00    -0.201 OA
HETATM   14  O4  UNL     1     -39.450 -17.618 -13.119  1.00  0.00    -0.201 OA
BRANCH  12  15
HETATM   15  N4  UNL     1     -40.381 -17.096 -15.538  1.00  0.00    -0.324 N 
ATOM     16  H42 UNL     1     -40.681 -16.144 -15.328  1.00  0.00     0.169 HD
ATOM     17  H41 UNL     1     -40.703 -17.646 -16.335  1.00  0.00     0.169 HD
ENDBRANCH  12  15
ENDBRANCH  11  12
BRANCH   1  18
HETATM   18  N1  UNL     1     -37.889 -15.644 -14.319  1.00  0.00    -0.384 N 
ATOM     19  H12 UNL     1     -38.114 -16.071 -13.421  1.00  0.00     0.157 HD
ATOM     20  H11 UNL     1     -38.138 -14.717 -14.665  1.00  0.00     0.157 HD
ENDBRANCH   1  18
TORSDOF 3
ENDMDL
