MODEL 1
REMARK VINA RESULT: -6.851329452      0.000      0.000
REMARK  6 active torsions:
REMARK  status: ('A' for Active; 'I' for Inactive)
REMARK    1  A    between atoms: N1_2  and  C3_4 
REMARK    2  A    between atoms: C3_4  and  C4_5 
REMARK    3  A    between atoms: C4_5  and  N2_6 
REMARK    4  A    between atoms: C5_8  and  C6_9 
REMARK    5  A    between atoms: C10_19  and  C11_20 
REMARK    6  A    between atoms: C12_21  and  O2_22 
ROOT
HETATM    1  C6  UNL     1      38.882  18.127 -14.563  1.00  0.00     0.047 A 
HETATM    2  C7  UNL     1      39.966  18.912 -14.433  1.00  0.00     0.134 A 
HETATM    3  N3  UNL     1      41.078  18.396 -13.734  1.00  0.00    -0.082 NA
HETATM    4  N4  UNL     1      40.048  20.223 -14.957  1.00  0.00    -0.296 N 
ATOM      5  H4  UNL     1      40.897  20.774 -14.828  1.00  0.00     0.171 HD
HETATM    6  C8  UNL     1      38.957  20.762 -15.653  1.00  0.00     0.326 A 
HETATM    7  O1  UNL     1      38.983  21.948 -16.146  1.00  0.00    -0.247 OA
HETATM    8  N5  UNL     1      37.802  19.963 -15.809  1.00  0.00    -0.308 N 
ATOM      9  H5  UNL     1      37.004  20.345 -16.316  1.00  0.00     0.170 HD
HETATM   10  C9  UNL     1      37.711  18.618 -15.275  1.00  0.00     0.052 A 
HETATM   11  C10 UNL     1      36.643  17.896 -15.490  1.00  0.00     0.052 C 
ENDROOT
BRANCH   1  12
HETATM   12  C5  UNL     1      38.932  16.814 -13.979  1.00  0.00     0.100 C 
HETATM   13  N2  UNL     1      39.728  15.856 -14.133  1.00  0.00    -0.396 N 
ATOM     14  H2  UNL     1      40.488  16.021 -14.793  1.00  0.00     0.158 HD
BRANCH  13  15
HETATM   15  C4  UNL     1      39.720  14.580 -13.523  1.00  0.00     0.149 C 
BRANCH  15  16
HETATM   16  C3  UNL     1      40.806  14.320 -12.538  1.00  0.00     0.290 C 
BRANCH  16  17
HETATM   17  N1  UNL     1      41.843  15.304 -12.537  1.00  0.00     0.081 N 
HETATM   18  C1  UNL     1      43.000  14.700 -13.210  1.00  0.00     0.309 C 
HETATM   19  C2  UNL     1      42.270  15.733 -11.237  1.00  0.00     0.309 C 
ENDBRANCH  16  17
ENDBRANCH  15  16
ENDBRANCH  13  15
ENDBRANCH   1  12
BRANCH  11  20
HETATM   20  C11 UNL     1      35.477  18.408 -16.193  1.00  0.00     0.085 A 
HETATM   21  C12 UNL     1      35.067  17.894 -17.418  1.00  0.00     0.160 A 
HETATM   22  N6  UNL     1      33.964  18.401 -17.991  1.00  0.00    -0.288 N 
HETATM   23  C13 UNL     1      33.234  19.375 -17.455  1.00  0.00     0.329 A 
ATOM     24  H6  UNL     1      33.668  18.018 -18.889  1.00  0.00     0.172 HD
HETATM   25  O3  UNL     1      32.202  19.848 -17.994  1.00  0.00    -0.247 OA
HETATM   26  N7  UNL     1      33.594  19.899 -16.277  1.00  0.00    -0.275 N 
HETATM   27  C14 UNL     1      34.690  19.423 -15.665  1.00  0.00     0.264 A 
ATOM     28  H7  UNL     1      33.046  20.647 -15.853  1.00  0.00     0.173 HD
HETATM   29  O4  UNL     1      35.017  19.923 -14.560  1.00  0.00    -0.267 OA
BRANCH  21  30
HETATM   30  O2  UNL     1      35.758  16.878 -18.071  1.00  0.00    -0.345 OA
ATOM     31  H2  UNL     1      35.391  16.403 -18.807  1.00  0.00     0.219 HD
ENDBRANCH  21  30
ENDBRANCH  11  20
TORSDOF 6
ENDMDL
MODEL 2
REMARK VINA RESULT: -6.747330279      3.225      7.072
REMARK  6 active torsions:
REMARK  status: ('A' for Active; 'I' for Inactive)
REMARK    1  A    between atoms: N1_2  and  C3_4 
REMARK    2  A    between atoms: C3_4  and  C4_5 
REMARK    3  A    between atoms: C4_5  and  N2_6 
REMARK    4  A    between atoms: C5_8  and  C6_9 
REMARK    5  A    between atoms: C10_19  and  C11_20 
REMARK    6  A    between atoms: C12_21  and  O2_22 
ROOT
HETATM    1  C6  UNL     1      39.834  19.380 -15.394  1.00  0.00     0.047 A 
HETATM    2  C7  UNL     1      40.612  20.205 -16.118  1.00  0.00     0.134 A 
HETATM    3  N3  UNL     1      39.992  21.281 -16.788  1.00  0.00    -0.082 NA
HETATM    4  N4  UNL     1      42.012  20.048 -16.243  1.00  0.00    -0.296 N 
ATOM      5  H4  UNL     1      42.552  20.705 -16.806  1.00  0.00     0.171 HD
HETATM    6  C8  UNL     1      42.653  18.985 -15.590  1.00  0.00     0.326 A 
HETATM    7  O1  UNL     1      43.921  18.801 -15.674  1.00  0.00    -0.247 OA
HETATM    8  N5  UNL     1      41.865  18.101 -14.819  1.00  0.00    -0.308 N 
ATOM      9  H5  UNL     1      42.323  17.326 -14.339  1.00  0.00     0.170 HD
HETATM   10  C9  UNL     1      40.429  18.255 -14.686  1.00  0.00     0.052 A 
HETATM   11  C10 UNL     1      39.749  17.445 -13.920  1.00  0.00     0.052 C 
ENDROOT
BRANCH   1  12
HETATM   12  C5  UNL     1      38.423  19.654 -15.354  1.00  0.00     0.100 C 
HETATM   13  N2  UNL     1      37.456  19.173 -15.993  1.00  0.00    -0.396 N 
ATOM     14  H2  UNL     1      37.696  18.452 -16.673  1.00  0.00     0.158 HD
BRANCH  13  15
HETATM   15  C4  UNL     1      36.081  19.490 -15.904  1.00  0.00     0.149 C 
BRANCH  15  16
HETATM   16  C3  UNL     1      35.251  18.576 -15.071  1.00  0.00     0.290 C 
BRANCH  16  17
HETATM   17  N1  UNL     1      34.403  17.706 -15.825  1.00  0.00     0.081 N 
HETATM   18  C1  UNL     1      35.026  16.376 -15.793  1.00  0.00     0.309 C 
HETATM   19  C2  UNL     1      34.227  18.073 -17.199  1.00  0.00     0.309 C 
ENDBRANCH  16  17
ENDBRANCH  15  16
ENDBRANCH  13  15
ENDBRANCH   1  12
BRANCH  11  20
HETATM   20  C11 UNL     1      40.359  16.318 -13.231  1.00  0.00     0.085 A 
HETATM   21  C12 UNL     1      40.138  15.003 -13.622  1.00  0.00     0.160 A 
HETATM   22  N6  UNL     1      40.760  14.019 -12.952  1.00  0.00    -0.288 N 
HETATM   23  C13 UNL     1      41.580  14.229 -11.926  1.00  0.00     0.329 A 
ATOM     24  H6  UNL     1      40.594  13.057 -13.246  1.00  0.00     0.172 HD
HETATM   25  O3  UNL     1      42.161  13.306 -11.300  1.00  0.00    -0.247 OA
HETATM   26  N7  UNL     1      41.820  15.480 -11.516  1.00  0.00    -0.275 N 
HETATM   27  C14 UNL     1      41.221  16.497 -12.157  1.00  0.00     0.264 A 
ATOM     28  H7  UNL     1      42.446  15.658 -10.731  1.00  0.00     0.173 HD
HETATM   29  O4  UNL     1      41.454  17.666 -11.762  1.00  0.00    -0.267 OA
BRANCH  21  30
HETATM   30  O2  UNL     1      39.296  14.669 -14.678  1.00  0.00    -0.345 OA
ATOM     31  H2  UNL     1      39.611  14.567 -15.569  1.00  0.00     0.219 HD
ENDBRANCH  21  30
ENDBRANCH  11  20
TORSDOF 6
ENDMDL
MODEL 3
REMARK VINA RESULT: -6.612741791      3.559      7.124
REMARK  6 active torsions:
REMARK  status: ('A' for Active; 'I' for Inactive)
REMARK    1  A    between atoms: N1_2  and  C3_4 
REMARK    2  A    between atoms: C3_4  and  C4_5 
REMARK    3  A    between atoms: C4_5  and  N2_6 
REMARK    4  A    between atoms: C5_8  and  C6_9 
REMARK    5  A    between atoms: C10_19  and  C11_20 
REMARK    6  A    between atoms: C12_21  and  O2_22 
ROOT
HETATM    1  C6  UNL     1      39.640  19.419 -15.101  1.00  0.00     0.047 A 
HETATM    2  C7  UNL     1      40.012  20.673 -15.415  1.00  0.00     0.134 A 
HETATM    3  N3  UNL     1      39.008  21.582 -15.810  1.00  0.00    -0.082 NA
HETATM    4  N4  UNL     1      41.352  21.123 -15.371  1.00  0.00    -0.296 N 
ATOM      5  H4  UNL     1      41.576  22.086 -15.620  1.00  0.00     0.171 HD
HETATM    6  C8  UNL     1      42.370  20.240 -14.985  1.00  0.00     0.326 A 
HETATM    7  O1  UNL     1      43.601  20.602 -14.931  1.00  0.00    -0.247 OA
HETATM    8  N5  UNL     1      42.013  18.915 -14.647  1.00  0.00    -0.308 N 
ATOM      9  H5  UNL     1      42.746  18.265 -14.362  1.00  0.00     0.170 HD
HETATM   10  C9  UNL     1      40.642  18.445 -14.689  1.00  0.00     0.052 A 
HETATM   11  C10 UNL     1      40.351  17.227 -14.317  1.00  0.00     0.052 C 
ENDROOT
BRANCH   1  12
HETATM   12  C5  UNL     1      38.243  19.093 -15.191  1.00  0.00     0.100 C 
HETATM   13  N2  UNL     1      37.457  19.025 -16.167  1.00  0.00    -0.396 N 
ATOM     14  H2  UNL     1      37.869  19.237 -17.075  1.00  0.00     0.158 HD
BRANCH  13  15
HETATM   15  C4  UNL     1      36.082  18.696 -16.186  1.00  0.00     0.149 C 
BRANCH  15  16
HETATM   16  C3  UNL     1      35.419  18.576 -14.857  1.00  0.00     0.290 C 
BRANCH  16  17
HETATM   17  N1  UNL     1      34.916  17.268 -14.572  1.00  0.00     0.081 N 
HETATM   18  C1  UNL     1      35.690  16.757 -13.433  1.00  0.00     0.309 C 
HETATM   19  C2  UNL     1      35.040  16.324 -15.642  1.00  0.00     0.309 C 
ENDBRANCH  16  17
ENDBRANCH  15  16
ENDBRANCH  13  15
ENDBRANCH   1  12
BRANCH  11  20
HETATM   20  C11 UNL     1      41.367  16.264 -13.920  1.00  0.00     0.085 A 
HETATM   21  C12 UNL     1      42.096  15.531 -14.849  1.00  0.00     0.160 A 
HETATM   22  N6  UNL     1      43.036  14.682 -14.405  1.00  0.00    -0.288 N 
HETATM   23  C13 UNL     1      43.315  14.497 -13.117  1.00  0.00     0.329 A 
ATOM     24  H6  UNL     1      43.567  14.149 -15.093  1.00  0.00     0.172 HD
HETATM   25  O3  UNL     1      44.195  13.701 -12.704  1.00  0.00    -0.247 OA
HETATM   26  N7  UNL     1      42.637  15.182 -12.189  1.00  0.00    -0.275 N 
HETATM   27  C14 UNL     1      41.687  16.045 -12.586  1.00  0.00     0.264 A 
ATOM     28  H7  UNL     1      42.838  15.052 -11.198  1.00  0.00     0.173 HD
HETATM   29  O4  UNL     1      41.058  16.681 -11.705  1.00  0.00    -0.267 OA
BRANCH  21  30
HETATM   30  O2  UNL     1      41.884  15.642 -16.220  1.00  0.00    -0.345 OA
ATOM     31  H2  UNL     1      42.471  16.126 -16.789  1.00  0.00     0.219 HD
ENDBRANCH  21  30
ENDBRANCH  11  20
TORSDOF 6
ENDMDL
MODEL 4
REMARK VINA RESULT: -6.601502970      3.791      7.357
REMARK  6 active torsions:
REMARK  status: ('A' for Active; 'I' for Inactive)
REMARK    1  A    between atoms: N1_2  and  C3_4 
REMARK    2  A    between atoms: C3_4  and  C4_5 
REMARK    3  A    between atoms: C4_5  and  N2_6 
REMARK    4  A    between atoms: C5_8  and  C6_9 
REMARK    5  A    between atoms: C10_19  and  C11_20 
REMARK    6  A    between atoms: C12_21  and  O2_22 
ROOT
HETATM    1  C6  UNL     1      39.770  19.110 -14.541  1.00  0.00     0.047 A 
HETATM    2  C7  UNL     1      40.094  20.360 -14.917  1.00  0.00     0.134 A 
HETATM    3  N3  UNL     1      39.152  21.090 -15.672  1.00  0.00    -0.082 NA
HETATM    4  N4  UNL     1      41.327  20.976 -14.598  1.00  0.00    -0.296 N 
ATOM      5  H4  UNL     1      41.518  21.928 -14.909  1.00  0.00     0.171 HD
HETATM    6  C8  UNL     1      42.282  20.272 -13.851  1.00  0.00     0.326 A 
HETATM    7  O1  UNL     1      43.415  20.789 -13.537  1.00  0.00    -0.247 OA
HETATM    8  N5  UNL     1      41.972  18.956 -13.438  1.00  0.00    -0.308 N 
ATOM      9  H5  UNL     1      42.661  18.437 -12.892  1.00  0.00     0.170 HD
HETATM   10  C9  UNL     1      40.712  18.318 -13.762  1.00  0.00     0.052 A 
HETATM   11  C10 UNL     1      40.447  17.119 -13.314  1.00  0.00     0.052 C 
ENDROOT
BRANCH   1  12
HETATM   12  C5  UNL     1      38.483  18.604 -14.936  1.00  0.00     0.100 C 
HETATM   13  N2  UNL     1      37.966  18.414 -16.063  1.00  0.00    -0.396 N 
ATOM     14  H2  UNL     1      38.553  18.657 -16.860  1.00  0.00     0.158 HD
BRANCH  13  15
HETATM   15  C4  UNL     1      36.684  17.910 -16.384  1.00  0.00     0.149 C 
BRANCH  15  16
HETATM   16  C3  UNL     1      36.273  16.666 -15.675  1.00  0.00     0.290 C 
BRANCH  16  17
HETATM   17  N1  UNL     1      35.208  16.851 -14.739  1.00  0.00     0.081 N 
HETATM   18  C1  UNL     1      34.661  18.193 -14.982  1.00  0.00     0.309 C 
HETATM   19  C2  UNL     1      35.594  16.781 -13.361  1.00  0.00     0.309 C 
ENDBRANCH  16  17
ENDBRANCH  15  16
ENDBRANCH  13  15
ENDBRANCH   1  12
BRANCH  11  20
HETATM   20  C11 UNL     1      41.405  16.339 -12.547  1.00  0.00     0.085 A 
HETATM   21  C12 UNL     1      42.149  15.312 -13.117  1.00  0.00     0.160 A 
HETATM   22  N6  UNL     1      43.034  14.656 -12.350  1.00  0.00    -0.288 N 
HETATM   23  C13 UNL     1      43.243  14.930 -11.065  1.00  0.00     0.329 A 
ATOM     24  H6  UNL     1      43.577  13.905 -12.776  1.00  0.00     0.172 HD
HETATM   25  O3  UNL     1      44.072  14.313 -10.348  1.00  0.00    -0.247 OA
HETATM   26  N7  UNL     1      42.548  15.910 -10.476  1.00  0.00    -0.275 N 
HETATM   27  C14 UNL     1      41.652  16.595 -11.204  1.00  0.00     0.264 A 
ATOM     28  H7  UNL     1      42.696  16.132  -9.491  1.00  0.00     0.173 HD
HETATM   29  O4  UNL     1      41.005  17.512 -10.640  1.00  0.00    -0.267 OA
BRANCH  21  30
HETATM   30  O2  UNL     1      42.008  14.939 -14.450  1.00  0.00    -0.345 OA
ATOM     31  H2  UNL     1      42.463  14.192 -14.821  1.00  0.00     0.219 HD
ENDBRANCH  21  30
ENDBRANCH  11  20
TORSDOF 6
ENDMDL
MODEL 5
REMARK VINA RESULT: -6.548528348      3.735      7.339
REMARK  6 active torsions:
REMARK  status: ('A' for Active; 'I' for Inactive)
REMARK    1  A    between atoms: N1_2  and  C3_4 
REMARK    2  A    between atoms: C3_4  and  C4_5 
REMARK    3  A    between atoms: C4_5  and  N2_6 
REMARK    4  A    between atoms: C5_8  and  C6_9 
REMARK    5  A    between atoms: C10_19  and  C11_20 
REMARK    6  A    between atoms: C12_21  and  O2_22 
ROOT
HETATM    1  C6  UNL     1      39.741  18.996 -15.261  1.00  0.00     0.047 A 
HETATM    2  C7  UNL     1      40.002  20.309 -15.392  1.00  0.00     0.134 A 
HETATM    3  N3  UNL     1      38.923  21.172 -15.678  1.00  0.00    -0.082 NA
HETATM    4  N4  UNL     1      41.295  20.865 -15.261  1.00  0.00    -0.296 N 
ATOM      5  H4  UNL     1      41.434  21.869 -15.370  1.00  0.00     0.171 HD
HETATM    6  C8  UNL     1      42.386  20.029 -14.980  1.00  0.00     0.326 A 
HETATM    7  O1  UNL     1      43.579  20.488 -14.852  1.00  0.00    -0.247 OA
HETATM    8  N5  UNL     1      42.147  18.644 -14.834  1.00  0.00    -0.308 N 
ATOM      9  H5  UNL     1      42.933  18.028 -14.628  1.00  0.00     0.170 HD
HETATM   10  C9  UNL     1      40.824  18.066 -14.967  1.00  0.00     0.052 A 
HETATM   11  C10 UNL     1      40.641  16.787 -14.772  1.00  0.00     0.052 C 
ENDROOT
BRANCH   1  12
HETATM   12  C5  UNL     1      38.380  18.564 -15.422  1.00  0.00     0.100 C 
HETATM   13  N2  UNL     1      37.677  18.365 -16.442  1.00  0.00    -0.396 N 
ATOM     14  H2  UNL     1      38.141  18.538 -17.333  1.00  0.00     0.158 HD
BRANCH  13  15
HETATM   15  C4  UNL     1      36.332  17.937 -16.531  1.00  0.00     0.149 C 
BRANCH  15  16
HETATM   16  C3  UNL     1      35.984  16.708 -15.764  1.00  0.00     0.290 C 
BRANCH  16  17
HETATM   17  N1  UNL     1      35.109  16.938 -14.657  1.00  0.00     0.081 N 
HETATM   18  C1  UNL     1      34.680  18.340 -14.742  1.00  0.00     0.309 C 
HETATM   19  C2  UNL     1      35.699  16.741 -13.366  1.00  0.00     0.309 C 
ENDBRANCH  16  17
ENDBRANCH  15  16
ENDBRANCH  13  15
ENDBRANCH   1  12
BRANCH  11  20
HETATM   20  C11 UNL     1      41.737  15.872 -14.492  1.00  0.00     0.085 A 
HETATM   21  C12 UNL     1      41.903  15.275 -13.247  1.00  0.00     0.160 A 
HETATM   22  N6  UNL     1      42.923  14.420 -13.075  1.00  0.00    -0.288 N 
HETATM   23  C13 UNL     1      43.794  14.106 -14.030  1.00  0.00     0.329 A 
ATOM     24  H6  UNL     1      43.038  13.985 -12.159  1.00  0.00     0.172 HD
HETATM   25  O3  UNL     1      44.748  13.306 -13.866  1.00  0.00    -0.247 OA
HETATM   26  N7  UNL     1      43.671  14.659 -15.244  1.00  0.00    -0.275 N 
HETATM   27  C14 UNL     1      42.664  15.520 -15.464  1.00  0.00     0.264 A 
ATOM     28  H7  UNL     1      44.331  14.430 -15.987  1.00  0.00     0.173 HD
HETATM   29  O4  UNL     1      42.560  16.031 -16.606  1.00  0.00    -0.267 OA
BRANCH  21  30
HETATM   30  O2  UNL     1      41.054  15.535 -12.176  1.00  0.00    -0.345 OA
ATOM     31  H2  UNL     1      41.144  16.307 -11.629  1.00  0.00     0.219 HD
ENDBRANCH  21  30
ENDBRANCH  11  20
TORSDOF 6
ENDMDL
