MODEL 1
REMARK VINA RESULT: -6.169182915      0.000      0.000
REMARK  3 active torsions:
REMARK  status: ('A' for Active; 'I' for Inactive)
REMARK       I    between atoms: C1_2  and  N3_4 
REMARK    1  A    between atoms: N3_4  and  N4_6 
REMARK    2  A    between atoms: N4_6  and  C2_8 
REMARK    3  A    between atoms: N8_18  and  C5_20 
ROOT
HETATM    1  C2  UNL     1      36.376  17.995 -16.109  1.00  0.00     0.170 A 
HETATM    2  N5  UNL     1      35.848  18.770 -17.090  1.00  0.00    -0.289 N 
ATOM      3  H5  UNL     1      36.400  19.043 -17.904  1.00  0.00     0.172 HD
HETATM    4  C3  UNL     1      34.569  19.163 -16.948  1.00  0.00     0.340 A 
HETATM    5  O1  UNL     1      34.056  19.889 -17.856  1.00  0.00    -0.245 OA
HETATM    6  N6  UNL     1      33.839  18.796 -15.866  1.00  0.00    -0.250 N 
ATOM      7  H6  UNL     1      32.870  19.106 -15.780  1.00  0.00     0.192 HD
HETATM    8  N7  UNL     1      34.378  18.034 -14.912  1.00  0.00    -0.278 N 
ATOM      9  H7  UNL     1      33.816  17.767 -14.104  1.00  0.00     0.189 HD
HETATM   10  C4  UNL     1      35.651  17.613 -15.002  1.00  0.00     0.168 A 
HETATM   11  N8  UNL     1      36.229  16.879 -14.125  1.00  0.00    -0.316 N 
ATOM     12  H8  UNL     1      37.200  16.621 -14.301  1.00  0.00     0.170 HD
ENDROOT
BRANCH   1  13
HETATM   13  N4  UNL     1      37.582  17.617 -16.231  1.00  0.00    -0.280 N 
ATOM     14  H4  UNL     1      37.746  16.667 -16.563  1.00  0.00     0.188 HD
BRANCH  13  15
HETATM   15  N3  UNL     1      38.691  18.399 -15.950  1.00  0.00    -0.274 N 
HETATM   16  C1  UNL     1      39.404  18.270 -14.885  1.00  0.00     0.215 C 
HETATM   17  N1  UNL     1      40.522  19.140 -14.719  1.00  0.00    -0.065 NA
HETATM   18  N2  UNL     1      39.139  17.320 -13.881  1.00  0.00    -0.065 NA
ATOM     19  H3  UNL     1      38.958  19.117 -16.623  1.00  0.00     0.189 HD
ENDBRANCH  13  15
ENDBRANCH   1  13
BRANCH  11  20
HETATM   20  C5  UNL     1      35.645  16.401 -12.942  1.00  0.00     0.354 C 
HETATM   21  O2  UNL     1      35.202  17.206 -12.110  1.00  0.00    -0.283 OA
ENDBRANCH  11  20
TORSDOF 3
ENDMDL
MODEL 2
REMARK VINA RESULT: -5.825973027      2.828      5.530
REMARK  3 active torsions:
REMARK  status: ('A' for Active; 'I' for Inactive)
REMARK       I    between atoms: C1_2  and  N3_4 
REMARK    1  A    between atoms: N3_4  and  N4_6 
REMARK    2  A    between atoms: N4_6  and  C2_8 
REMARK    3  A    between atoms: N8_18  and  C5_20 
ROOT
HETATM    1  C2  UNL     1      38.131  17.614 -15.388  1.00  0.00     0.170 A 
HETATM    2  N5  UNL     1      38.240  16.340 -14.932  1.00  0.00    -0.289 N 
ATOM      3  H5  UNL     1      37.545  15.632 -15.168  1.00  0.00     0.172 HD
HETATM    4  C3  UNL     1      39.301  16.049 -14.157  1.00  0.00     0.340 A 
HETATM    5  O1  UNL     1      39.422  14.861 -13.720  1.00  0.00    -0.245 OA
HETATM    6  N6  UNL     1      40.225  16.993 -13.847  1.00  0.00    -0.250 N 
ATOM      7  H6  UNL     1      41.021  16.748 -13.259  1.00  0.00     0.192 HD
HETATM    8  N7  UNL     1      40.098  18.240 -14.307  1.00  0.00    -0.278 N 
ATOM      9  H7  UNL     1      40.799  18.939 -14.064  1.00  0.00     0.189 HD
HETATM   10  C4  UNL     1      39.058  18.587 -15.084  1.00  0.00     0.168 A 
HETATM   11  N8  UNL     1      38.877  19.763 -15.558  1.00  0.00    -0.316 N 
ATOM     12  H8  UNL     1      38.050  19.909 -16.137  1.00  0.00     0.170 HD
ENDROOT
BRANCH   1  13
HETATM   13  N4  UNL     1      37.135  17.902 -16.120  1.00  0.00    -0.280 N 
ATOM     14  H4  UNL     1      36.879  18.886 -16.200  1.00  0.00     0.188 HD
BRANCH  13  15
HETATM   15  N3  UNL     1      36.370  16.981 -16.818  1.00  0.00    -0.274 N 
HETATM   16  C1  UNL     1      35.086  16.913 -16.739  1.00  0.00     0.215 C 
HETATM   17  N1  UNL     1      34.421  15.916 -17.514  1.00  0.00    -0.065 NA
HETATM   18  N2  UNL     1      34.310  17.765 -15.933  1.00  0.00    -0.065 NA
ATOM     19  H3  UNL     1      36.851  16.321 -17.429  1.00  0.00     0.189 HD
ENDBRANCH  13  15
ENDBRANCH   1  13
BRANCH  11  20
HETATM   20  C5  UNL     1      39.714  20.869 -15.351  1.00  0.00     0.354 C 
HETATM   21  O2  UNL     1      40.897  20.818 -15.721  1.00  0.00    -0.283 OA
ENDBRANCH  11  20
TORSDOF 3
ENDMDL
MODEL 3
REMARK VINA RESULT: -5.822894065      2.861      4.893
REMARK  3 active torsions:
REMARK  status: ('A' for Active; 'I' for Inactive)
REMARK       I    between atoms: C1_2  and  N3_4 
REMARK    1  A    between atoms: N3_4  and  N4_6 
REMARK    2  A    between atoms: N4_6  and  C2_8 
REMARK    3  A    between atoms: N8_18  and  C5_20 
ROOT
HETATM    1  C2  UNL     1      38.051  16.961 -14.554  1.00  0.00     0.170 A 
HETATM    2  N5  UNL     1      37.988  18.255 -14.958  1.00  0.00    -0.289 N 
ATOM      3  H5  UNL     1      37.106  18.675 -15.253  1.00  0.00     0.172 HD
HETATM    4  C3  UNL     1      39.133  18.961 -14.953  1.00  0.00     0.340 A 
HETATM    5  O1  UNL     1      39.095  20.176 -15.328  1.00  0.00    -0.245 OA
HETATM    6  N6  UNL     1      40.302  18.400 -14.558  1.00  0.00    -0.250 N 
ATOM      7  H6  UNL     1      41.158  18.956 -14.562  1.00  0.00     0.192 HD
HETATM    8  N7  UNL     1      40.342  17.125 -14.165  1.00  0.00    -0.278 N 
ATOM      9  H7  UNL     1      41.229  16.717 -13.871  1.00  0.00     0.189 HD
HETATM   10  C4  UNL     1      39.229  16.372 -14.150  1.00  0.00     0.168 A 
HETATM   11  N8  UNL     1      39.197  15.145 -13.784  1.00  0.00    -0.316 N 
ATOM     12  H8  UNL     1      38.293  14.674 -13.814  1.00  0.00     0.170 HD
ENDROOT
BRANCH   1  13
HETATM   13  N4  UNL     1      36.978  16.283 -14.554  1.00  0.00    -0.280 N 
ATOM     14  H4  UNL     1      36.618  15.971 -13.652  1.00  0.00     0.188 HD
BRANCH  13  15
HETATM   15  N3  UNL     1      36.258  15.936 -15.686  1.00  0.00    -0.274 N 
HETATM   16  C1  UNL     1      35.173  16.525 -16.052  1.00  0.00     0.215 C 
HETATM   17  N1  UNL     1      34.531  16.068 -17.241  1.00  0.00    -0.065 NA
HETATM   18  N2  UNL     1      34.590  17.592 -15.343  1.00  0.00    -0.065 NA
ATOM     19  H3  UNL     1      36.607  15.170 -16.262  1.00  0.00     0.189 HD
ENDBRANCH  13  15
ENDBRANCH   1  13
BRANCH  11  20
HETATM   20  C5  UNL     1      40.295  14.390 -13.345  1.00  0.00     0.354 C 
HETATM   21  O2  UNL     1      41.002  14.820 -12.422  1.00  0.00    -0.283 OA
ENDBRANCH  11  20
TORSDOF 3
ENDMDL
MODEL 4
REMARK VINA RESULT: -5.800331390      2.309      4.559
REMARK  3 active torsions:
REMARK  status: ('A' for Active; 'I' for Inactive)
REMARK       I    between atoms: C1_2  and  N3_4 
REMARK    1  A    between atoms: N3_4  and  N4_6 
REMARK    2  A    between atoms: N4_6  and  C2_8 
REMARK    3  A    between atoms: N8_18  and  C5_20 
ROOT
HETATM    1  C2  UNL     1      37.683  17.517 -15.747  1.00  0.00     0.170 A 
HETATM    2  N5  UNL     1      38.980  17.729 -16.084  1.00  0.00    -0.289 N 
ATOM      3  H5  UNL     1      39.236  18.091 -17.003  1.00  0.00     0.172 HD
HETATM    4  C3  UNL     1      39.915  17.442 -15.159  1.00  0.00     0.340 A 
HETATM    5  O1  UNL     1      41.137  17.635 -15.456  1.00  0.00    -0.245 OA
HETATM    6  N6  UNL     1      39.572  16.963 -13.939  1.00  0.00    -0.250 N 
ATOM      7  H6  UNL     1      40.298  16.754 -13.254  1.00  0.00     0.192 HD
HETATM    8  N7  UNL     1      38.289  16.761 -13.628  1.00  0.00    -0.278 N 
ATOM      9  H7  UNL     1      38.046  16.399 -12.706  1.00  0.00     0.189 HD
HETATM   10  C4  UNL     1      37.314  17.029 -14.512  1.00  0.00     0.168 A 
HETATM   11  N8  UNL     1      36.065  16.860 -14.278  1.00  0.00    -0.316 N 
ATOM     12  H8  UNL     1      35.415  17.098 -15.027  1.00  0.00     0.170 HD
ENDROOT
BRANCH   1  13
HETATM   13  N4  UNL     1      36.792  17.782 -16.610  1.00  0.00    -0.280 N 
ATOM     14  H4  UNL     1      36.596  18.766 -16.798  1.00  0.00     0.188 HD
BRANCH  13  15
HETATM   15  N3  UNL     1      36.064  16.838 -17.316  1.00  0.00    -0.274 N 
HETATM   16  C1  UNL     1      34.777  16.814 -17.359  1.00  0.00     0.215 C 
HETATM   17  N1  UNL     1      34.153  15.785 -18.126  1.00  0.00    -0.065 NA
HETATM   18  N2  UNL     1      33.958  17.744 -16.692  1.00  0.00    -0.065 NA
ATOM     19  H3  UNL     1      36.576  16.122 -17.830  1.00  0.00     0.189 HD
ENDBRANCH  13  15
ENDBRANCH   1  13
BRANCH  11  20
HETATM   20  C5  UNL     1      35.513  16.375 -13.084  1.00  0.00     0.354 C 
HETATM   21  O2  UNL     1      35.440  17.121 -12.096  1.00  0.00    -0.283 OA
ENDBRANCH  11  20
TORSDOF 3
ENDMDL
MODEL 5
REMARK VINA RESULT: -5.764308833      2.220      4.744
REMARK  3 active torsions:
REMARK  status: ('A' for Active; 'I' for Inactive)
REMARK       I    between atoms: C1_2  and  N3_4 
REMARK    1  A    between atoms: N3_4  and  N4_6 
REMARK    2  A    between atoms: N4_6  and  C2_8 
REMARK    3  A    between atoms: N8_18  and  C5_20 
ROOT
HETATM    1  C2  UNL     1      36.191  18.320 -16.171  1.00  0.00     0.170 A 
HETATM    2  N5  UNL     1      35.275  17.326 -16.061  1.00  0.00    -0.289 N 
ATOM      3  H5  UNL     1      34.402  17.348 -16.588  1.00  0.00     0.172 HD
HETATM    4  C3  UNL     1      35.563  16.308 -15.228  1.00  0.00     0.340 A 
HETATM    5  O1  UNL     1      34.717  15.366 -15.111  1.00  0.00    -0.245 OA
HETATM    6  N6  UNL     1      36.725  16.280 -14.530  1.00  0.00    -0.250 N 
ATOM      7  H6  UNL     1      36.922  15.498 -13.905  1.00  0.00     0.192 HD
HETATM    8  N7  UNL     1      37.612  17.270 -14.653  1.00  0.00    -0.278 N 
ATOM      9  H7  UNL     1      38.481  17.235 -14.120  1.00  0.00     0.189 HD
HETATM   10  C4  UNL     1      37.377  18.310 -15.469  1.00  0.00     0.168 A 
HETATM   11  N8  UNL     1      38.185  19.291 -15.635  1.00  0.00    -0.316 N 
ATOM     12  H8  UNL     1      37.899  20.026 -16.282  1.00  0.00     0.170 HD
ENDROOT
BRANCH   1  13
HETATM   13  N4  UNL     1      35.932  19.286 -16.952  1.00  0.00    -0.280 N 
ATOM     14  H4  UNL     1      36.632  20.023 -17.039  1.00  0.00     0.188 HD
BRANCH  13  15
HETATM   15  N3  UNL     1      34.770  19.415 -17.697  1.00  0.00    -0.274 N 
HETATM   16  C1  UNL     1      33.617  19.669 -17.183  1.00  0.00     0.215 C 
HETATM   17  N1  UNL     1      32.501  19.777 -18.065  1.00  0.00    -0.065 NA
HETATM   18  N2  UNL     1      33.401  19.845 -15.804  1.00  0.00    -0.065 NA
ATOM     19  H3  UNL     1      34.832  19.303 -18.709  1.00  0.00     0.189 HD
ENDBRANCH  13  15
ENDBRANCH   1  13
BRANCH  11  20
HETATM   20  C5  UNL     1      39.429  19.444 -15.005  1.00  0.00     0.354 C 
HETATM   21  O2  UNL     1      40.306  18.582 -15.165  1.00  0.00    -0.283 OA
ENDBRANCH  11  20
TORSDOF 3
ENDMDL
