MODEL 1
REMARK VINA RESULT: -7.120074587      0.000      0.000
REMARK  3 active torsions:
REMARK  status: ('A' for Active; 'I' for Inactive)
REMARK    1  A    between atoms: C1_2  and  C2_3 
REMARK    2  A    between atoms: C3_6  and  C4_7 
REMARK    3  A    between atoms: C4_7  and  C5_8 
ROOT
HETATM    1  C2  UNL     1      37.925  16.366 -16.514  1.00  0.00     0.102 C 
HETATM    2  N2  UNL     1      36.666  16.513 -16.963  1.00  0.00    -0.338 N 
ATOM      3  H2  UNL     1      36.579  16.437 -17.976  1.00  0.00     0.167 HD
HETATM    4  C3  UNL     1      35.504  16.740 -16.334  1.00  0.00     0.110 C 
HETATM    5  N5  UNL     1      35.270  16.674 -15.010  1.00  0.00    -0.306 N 
ATOM      6  H5  UNL     1      34.290  16.628 -14.733  1.00  0.00     0.170 HD
HETATM    7  C7  UNL     1      36.176  16.661 -13.994  1.00  0.00     0.301 C 
HETATM    8  O1  UNL     1      35.723  16.856 -12.837  1.00  0.00    -0.264 OA
HETATM    9  C8  UNL     1      37.535  16.463 -14.056  1.00  0.00     0.291 C 
HETATM   10  O2  UNL     1      38.119  16.400 -12.958  1.00  0.00    -0.278 OA
HETATM   11  C9  UNL     1      38.322  16.328 -15.197  1.00  0.00     0.255 C 
HETATM   12  O3  UNL     1      39.537  16.153 -14.929  1.00  0.00    -0.281 OA
ENDROOT
BRANCH   4  13
HETATM   13  C4  UNL     1      34.466  17.066 -17.108  1.00  0.00     0.081 C 
BRANCH  13  14
HETATM   14  C5  UNL     1      33.879  18.388 -17.055  1.00  0.00     0.068 A 
HETATM   15  C6  UNL     1      33.991  19.467 -16.210  1.00  0.00     0.138 A 
HETATM   16  N3  UNL     1      33.108  20.108 -16.991  1.00  0.00    -0.309 N 
HETATM   17  N4  UNL     1      32.986  19.065 -17.825  1.00  0.00    -0.300 N 
ATOM     18  H3  UNL     1      32.688  21.038 -16.961  1.00  0.00     0.186 HD
ATOM     19  H4  UNL     1      32.454  18.866 -18.672  1.00  0.00     0.187 HD
ENDBRANCH  13  14
ENDBRANCH   4  13
BRANCH   1  20
HETATM   20  C1  UNL     1      38.912  16.242 -17.375  1.00  0.00     0.133 C 
HETATM   21  N1  UNL     1      39.116  15.026 -18.089  1.00  0.00    -0.113 NA
ENDBRANCH   1  20
TORSDOF 3
ENDMDL
MODEL 2
REMARK VINA RESULT: -6.764582648      2.362      3.234
REMARK  3 active torsions:
REMARK  status: ('A' for Active; 'I' for Inactive)
REMARK    1  A    between atoms: C1_2  and  C2_3 
REMARK    2  A    between atoms: C3_6  and  C4_7 
REMARK    3  A    between atoms: C4_7  and  C5_8 
ROOT
HETATM    1  C2  UNL     1      39.062  18.496 -15.438  1.00  0.00     0.102 C 
HETATM    2  N2  UNL     1      37.725  18.565 -15.559  1.00  0.00    -0.338 N 
ATOM      3  H2  UNL     1      37.324  19.432 -15.201  1.00  0.00     0.167 HD
HETATM    4  C3  UNL     1      36.819  17.714 -16.059  1.00  0.00     0.110 C 
HETATM    5  N5  UNL     1      37.058  16.605 -16.784  1.00  0.00    -0.306 N 
ATOM      6  H5  UNL     1      36.259  16.222 -17.288  1.00  0.00     0.170 HD
HETATM    7  C7  UNL     1      38.232  15.930 -16.929  1.00  0.00     0.301 C 
HETATM    8  O1  UNL     1      38.160  14.784 -17.441  1.00  0.00    -0.264 OA
HETATM    9  C8  UNL     1      39.502  16.331 -16.588  1.00  0.00     0.291 C 
HETATM   10  O2  UNL     1      40.417  15.557 -16.924  1.00  0.00    -0.278 OA
HETATM   11  C9  UNL     1      39.874  17.493 -15.915  1.00  0.00     0.255 C 
HETATM   12  O3  UNL     1      41.116  17.581 -15.754  1.00  0.00    -0.281 OA
ENDROOT
BRANCH   4  13
HETATM   13  C4  UNL     1      35.538  17.998 -15.810  1.00  0.00     0.081 C 
BRANCH  13  14
HETATM   14  C5  UNL     1      34.764  18.820 -16.717  1.00  0.00     0.068 A 
HETATM   15  C6  UNL     1      33.668  19.640 -16.589  1.00  0.00     0.138 A 
HETATM   16  N3  UNL     1      33.759  19.886 -17.905  1.00  0.00    -0.309 N 
HETATM   17  N4  UNL     1      34.829  19.089 -18.048  1.00  0.00    -0.300 N 
ATOM     18  H3  UNL     1      33.219  20.461 -18.552  1.00  0.00     0.186 HD
ATOM     19  H4  UNL     1      35.432  18.808 -18.821  1.00  0.00     0.187 HD
ENDBRANCH  13  14
ENDBRANCH   4  13
BRANCH   1  20
HETATM   20  C1  UNL     1      39.709  19.455 -14.811  1.00  0.00     0.133 C 
HETATM   21  N1  UNL     1      39.812  20.761 -15.373  1.00  0.00    -0.113 NA
ENDBRANCH   1  20
TORSDOF 3
ENDMDL
MODEL 3
REMARK VINA RESULT: -6.640238922      2.052      2.318
REMARK  3 active torsions:
REMARK  status: ('A' for Active; 'I' for Inactive)
REMARK    1  A    between atoms: C1_2  and  C2_3 
REMARK    2  A    between atoms: C3_6  and  C4_7 
REMARK    3  A    between atoms: C4_7  and  C5_8 
ROOT
HETATM    1  C2  UNL     1      38.592  15.740 -16.434  1.00  0.00     0.102 C 
HETATM    2  N2  UNL     1      37.297  16.064 -16.277  1.00  0.00    -0.338 N 
ATOM      3  H2  UNL     1      36.654  15.294 -16.464  1.00  0.00     0.167 HD
HETATM    4  C3  UNL     1      36.687  17.204 -15.923  1.00  0.00     0.110 C 
HETATM    5  N5  UNL     1      37.264  18.310 -15.415  1.00  0.00    -0.306 N 
ATOM      6  H5  UNL     1      36.632  18.978 -14.973  1.00  0.00     0.170 HD
HETATM    7  C7  UNL     1      38.582  18.650 -15.417  1.00  0.00     0.301 C 
HETATM    8  O1  UNL     1      38.854  19.840 -15.120  1.00  0.00    -0.264 OA
HETATM    9  C8  UNL     1      39.672  17.862 -15.704  1.00  0.00     0.291 C 
HETATM   10  O2  UNL     1      40.782  18.399 -15.531  1.00  0.00    -0.278 OA
HETATM   11  C9  UNL     1      39.672  16.546 -16.162  1.00  0.00     0.255 C 
HETATM   12  O3  UNL     1      40.832  16.093 -16.328  1.00  0.00    -0.281 OA
ENDROOT
BRANCH   4  13
HETATM   13  C4  UNL     1      35.363  17.245 -16.092  1.00  0.00     0.081 C 
BRANCH  13  14
HETATM   14  C5  UNL     1      34.731  18.349 -16.782  1.00  0.00     0.068 A 
HETATM   15  C6  UNL     1      33.762  19.271 -16.459  1.00  0.00     0.138 A 
HETATM   16  N3  UNL     1      33.910  19.785 -17.689  1.00  0.00    -0.309 N 
HETATM   17  N4  UNL     1      34.857  18.895 -18.022  1.00  0.00    -0.300 N 
ATOM     18  H3  UNL     1      33.470  20.561 -18.185  1.00  0.00     0.186 HD
ATOM     19  H4  UNL     1      35.426  18.708 -18.847  1.00  0.00     0.187 HD
ENDBRANCH  13  14
ENDBRANCH   4  13
BRANCH   1  20
HETATM   20  C1  UNL     1      38.914  14.549 -16.889  1.00  0.00     0.133 C 
HETATM   21  N1  UNL     1      38.620  14.170 -18.231  1.00  0.00    -0.113 NA
ENDBRANCH   1  20
TORSDOF 3
ENDMDL
MODEL 4
REMARK VINA RESULT: -5.978688038      2.772      3.463
REMARK  3 active torsions:
REMARK  status: ('A' for Active; 'I' for Inactive)
REMARK    1  A    between atoms: C1_2  and  C2_3 
REMARK    2  A    between atoms: C3_6  and  C4_7 
REMARK    3  A    between atoms: C4_7  and  C5_8 
ROOT
HETATM    1  C2  UNL     1      40.029  16.281 -14.401  1.00  0.00     0.102 C 
HETATM    2  N2  UNL     1      38.908  16.084 -15.117  1.00  0.00    -0.338 N 
ATOM      3  H2  UNL     1      38.632  15.105 -15.190  1.00  0.00     0.167 HD
HETATM    4  C3  UNL     1      38.084  16.927 -15.755  1.00  0.00     0.110 C 
HETATM    5  N5  UNL     1      38.064  18.270 -15.662  1.00  0.00    -0.306 N 
ATOM      6  H5  UNL     1      37.223  18.728 -16.013  1.00  0.00     0.170 HD
HETATM    7  C7  UNL     1      39.024  19.094 -15.160  1.00  0.00     0.301 C 
HETATM    8  O1  UNL     1      38.899  20.320 -15.411  1.00  0.00    -0.264 OA
HETATM    9  C8  UNL     1      40.128  18.769 -14.406  1.00  0.00     0.291 C 
HETATM   10  O2  UNL     1      40.794  19.734 -13.988  1.00  0.00    -0.278 OA
HETATM   11  C9  UNL     1      40.577  17.496 -14.064  1.00  0.00     0.255 C 
HETATM   12  O3  UNL     1      41.617  17.525 -13.359  1.00  0.00    -0.281 OA
ENDROOT
BRANCH   4  13
HETATM   13  C4  UNL     1      37.184  16.372 -16.571  1.00  0.00     0.081 C 
BRANCH  13  14
HETATM   14  C5  UNL     1      35.859  16.936 -16.718  1.00  0.00     0.068 A 
HETATM   15  C6  UNL     1      34.705  16.914 -15.969  1.00  0.00     0.138 A 
HETATM   16  N3  UNL     1      34.134  17.673 -16.917  1.00  0.00    -0.309 N 
HETATM   17  N4  UNL     1      35.250  17.705 -17.660  1.00  0.00    -0.300 N 
ATOM     18  H3  UNL     1      33.202  18.073 -17.030  1.00  0.00     0.186 HD
ATOM     19  H4  UNL     1      35.524  18.125 -18.548  1.00  0.00     0.187 HD
ENDBRANCH  13  14
ENDBRANCH   4  13
BRANCH   1  20
HETATM   20  C1  UNL     1      40.706  15.245 -13.955  1.00  0.00     0.133 C 
HETATM   21  N1  UNL     1      40.061  14.204 -13.226  1.00  0.00    -0.113 NA
ENDBRANCH   1  20
TORSDOF 3
ENDMDL
MODEL 5
REMARK VINA RESULT: -5.919942177      2.817      3.723
REMARK  3 active torsions:
REMARK  status: ('A' for Active; 'I' for Inactive)
REMARK    1  A    between atoms: C1_2  and  C2_3 
REMARK    2  A    between atoms: C3_6  and  C4_7 
REMARK    3  A    between atoms: C4_7  and  C5_8 
ROOT
HETATM    1  C2  UNL     1      39.994  18.498 -14.481  1.00  0.00     0.102 C 
HETATM    2  N2  UNL     1      38.710  18.194 -14.735  1.00  0.00    -0.338 N 
ATOM      3  H2  UNL     1      38.169  18.973 -15.110  1.00  0.00     0.167 HD
HETATM    4  C3  UNL     1      38.004  17.064 -14.592  1.00  0.00     0.110 C 
HETATM    5  N5  UNL     1      38.483  15.834 -14.330  1.00  0.00    -0.306 N 
ATOM      6  H5  UNL     1      37.841  15.060 -14.501  1.00  0.00     0.170 HD
HETATM    7  C7  UNL     1      39.716  15.491 -13.864  1.00  0.00     0.301 C 
HETATM    8  O1  UNL     1      39.851  14.311 -13.452  1.00  0.00    -0.264 OA
HETATM    9  C8  UNL     1      40.849  16.266 -13.780  1.00  0.00     0.291 C 
HETATM   10  O2  UNL     1      41.878  15.672 -13.407  1.00  0.00    -0.278 OA
HETATM   11  C9  UNL     1      40.971  17.625 -14.062  1.00  0.00     0.255 C 
HETATM   12  O3  UNL     1      42.142  18.049 -13.894  1.00  0.00    -0.281 OA
ENDROOT
BRANCH   4  13
HETATM   13  C4  UNL     1      36.679  17.173 -14.723  1.00  0.00     0.081 C 
BRANCH  13  14
HETATM   14  C5  UNL     1      36.082  17.573 -15.980  1.00  0.00     0.068 A 
HETATM   15  C6  UNL     1      35.368  18.667 -16.412  1.00  0.00     0.138 A 
HETATM   16  N3  UNL     1      35.306  18.087 -17.621  1.00  0.00    -0.309 N 
HETATM   17  N4  UNL     1      36.001  17.013 -17.217  1.00  0.00    -0.300 N 
ATOM     18  H3  UNL     1      34.888  18.360 -18.511  1.00  0.00     0.186 HD
ATOM     19  H4  UNL     1      36.328  16.150 -17.650  1.00  0.00     0.187 HD
ENDBRANCH  13  14
ENDBRANCH   4  13
BRANCH   1  20
HETATM   20  C1  UNL     1      40.412  19.736 -14.630  1.00  0.00     0.133 C 
HETATM   21  N1  UNL     1      39.645  20.687 -15.365  1.00  0.00    -0.113 NA
ENDBRANCH   1  20
TORSDOF 3
ENDMDL
