MODEL 1
REMARK VINA RESULT: -5.883344246      0.000      0.000
REMARK  7 active torsions:
REMARK  status: ('A' for Active; 'I' for Inactive)
REMARK    1  A    between atoms: C5_5  and  C6_7 
REMARK    2  A    between atoms: C10_11  and  O1_12 
REMARK    3  A    between atoms: O1_12  and  C11_13 
REMARK    4  A    between atoms: C11_13  and  C12_14 
REMARK    5  A    between atoms: C12_14  and  N1_15 
REMARK    6  A    between atoms: C12_14  and  C13_19 
REMARK    7  A    between atoms: C13_19  and  N2_20 
ROOT
HETATM    1  C1  UNL     1      21.755  -8.971   6.490  1.00  0.00     0.012 C 
HETATM    2  C2  UNL     1      22.784  -8.697   7.074  1.00  0.00    -0.110 C 
HETATM    3  C3  UNL     1      24.021  -8.381   7.790  1.00  0.00     0.104 C 
HETATM    4  C4  UNL     1      23.860  -7.442   8.960  1.00  0.00     0.067 C 
HETATM    5  C5  UNL     1      24.438  -6.301   8.130  1.00  0.00     0.142 C 
HETATM    6  F1  UNL     1      23.441  -5.426   7.790  1.00  0.00    -0.239 F 
HETATM    7  C14 UNL     1      24.835  -7.303   7.104  1.00  0.00     0.226 C 
HETATM    8  F2  UNL     1      26.163  -7.666   7.081  1.00  0.00    -0.245 F 
ENDROOT
BRANCH   5   9
HETATM    9  C6  UNL     1      25.539  -5.632   8.898  1.00  0.00     0.057 C 
HETATM   10  C7  UNL     1      24.862  -4.727   9.936  1.00  0.00     0.011 C 
HETATM   11  C8  UNL     1      25.787  -3.542  10.088  1.00  0.00     0.003 C 
HETATM   12  C9  UNL     1      26.385  -3.362   8.731  1.00  0.00     0.032 C 
HETATM   13  C10 UNL     1      26.372  -4.709   8.041  1.00  0.00     0.128 C 
BRANCH  13  14
HETATM   14  O1  UNL     1      25.860  -4.532   6.780  1.00  0.00    -0.383 OA
BRANCH  14  15
HETATM   15  C11 UNL     1      26.538  -3.587   6.051  1.00  0.00     0.202 C 
BRANCH  15  16
HETATM   16  C12 UNL     1      27.940  -3.961   5.689  1.00  0.00     0.232 C 
BRANCH  16  17
HETATM   17  N1  UNL     1      28.736  -2.791   5.349  1.00  0.00    -0.071 N 
ATOM     18  H13 UNL     1      28.482  -1.987   5.923  1.00  0.00     0.274 HD
ATOM     19  H12 UNL     1      29.705  -2.900   5.649  1.00  0.00     0.274 HD
ATOM     20  H11 UNL     1      28.677  -2.573   4.354  1.00  0.00     0.274 HD
ENDBRANCH  16  17
BRANCH  16  21
HETATM   21  C13 UNL     1      27.857  -4.791   4.399  1.00  0.00     0.264 C 
BRANCH  21  22
HETATM   22  N2  UNL     1      27.663  -6.189   4.683  1.00  0.00    -0.077 N 
ATOM     23  H23 UNL     1      27.545  -6.354   5.682  1.00  0.00     0.274 HD
ATOM     24  H22 UNL     1      26.749  -6.511   4.362  1.00  0.00     0.274 HD
ATOM     25  H21 UNL     1      28.416  -6.757   4.297  1.00  0.00     0.274 HD
ENDBRANCH  21  22
ENDBRANCH  16  21
ENDBRANCH  15  16
ENDBRANCH  14  15
ENDBRANCH  13  14
ENDBRANCH   5   9
TORSDOF 7
ENDMDL
MODEL 2
REMARK VINA RESULT: -5.793343639      2.397      4.027
REMARK  7 active torsions:
REMARK  status: ('A' for Active; 'I' for Inactive)
REMARK    1  A    between atoms: C5_5  and  C6_7 
REMARK    2  A    between atoms: C10_11  and  O1_12 
REMARK    3  A    between atoms: O1_12  and  C11_13 
REMARK    4  A    between atoms: C11_13  and  C12_14 
REMARK    5  A    between atoms: C12_14  and  N1_15 
REMARK    6  A    between atoms: C12_14  and  C13_19 
REMARK    7  A    between atoms: C13_19  and  N2_20 
ROOT
HETATM    1  C1  UNL     1      22.659  -5.440   9.184  1.00  0.00     0.012 C 
HETATM    2  C2  UNL     1      22.791  -5.963   8.096  1.00  0.00    -0.110 C 
HETATM    3  C3  UNL     1      22.936  -6.605   6.788  1.00  0.00     0.104 C 
HETATM    4  C4  UNL     1      23.888  -7.775   6.754  1.00  0.00     0.067 C 
HETATM    5  C5  UNL     1      24.941  -6.906   6.075  1.00  0.00     0.142 C 
HETATM    6  F1  UNL     1      25.942  -6.617   6.962  1.00  0.00    -0.239 F 
HETATM    7  C14 UNL     1      23.895  -5.867   5.877  1.00  0.00     0.226 C 
HETATM    8  F2  UNL     1      23.355  -5.771   4.614  1.00  0.00    -0.245 F 
ENDROOT
BRANCH   5   9
HETATM    9  C6  UNL     1      25.454  -7.605   4.851  1.00  0.00     0.057 C 
HETATM   10  C7  UNL     1      26.209  -8.848   5.342  1.00  0.00     0.011 C 
HETATM   11  C8  UNL     1      27.331  -9.044   4.348  1.00  0.00     0.003 C 
HETATM   12  C9  UNL     1      27.697  -7.660   3.926  1.00  0.00     0.032 C 
HETATM   13  C10 UNL     1      26.472  -6.787   4.095  1.00  0.00     0.128 C 
BRANCH  13  14
HETATM   14  O1  UNL     1      26.853  -5.648   4.758  1.00  0.00    -0.383 OA
BRANCH  14  15
HETATM   15  C11 UNL     1      28.090  -5.191   4.378  1.00  0.00     0.202 C 
BRANCH  15  16
HETATM   16  C12 UNL     1      28.567  -3.982   5.119  1.00  0.00     0.232 C 
BRANCH  16  17
HETATM   17  N1  UNL     1      27.503  -3.003   5.288  1.00  0.00    -0.071 N 
ATOM     18  H13 UNL     1      26.784  -3.106   4.571  1.00  0.00     0.274 HD
ATOM     19  H12 UNL     1      26.936  -3.208   6.111  1.00  0.00     0.274 HD
ATOM     20  H11 UNL     1      27.869  -2.052   5.314  1.00  0.00     0.274 HD
ENDBRANCH  16  17
BRANCH  16  21
HETATM   21  C13 UNL     1      29.613  -3.300   4.225  1.00  0.00     0.264 C 
BRANCH  21  22
HETATM   22  N2  UNL     1      29.900  -1.963   4.675  1.00  0.00    -0.077 N 
ATOM     23  H23 UNL     1      29.414  -1.267   4.111  1.00  0.00     0.274 HD
ATOM     24  H22 UNL     1      29.461  -1.771   5.576  1.00  0.00     0.274 HD
ATOM     25  H21 UNL     1      30.904  -1.786   4.704  1.00  0.00     0.274 HD
ENDBRANCH  21  22
ENDBRANCH  16  21
ENDBRANCH  15  16
ENDBRANCH  14  15
ENDBRANCH  13  14
ENDBRANCH   5   9
TORSDOF 7
ENDMDL
MODEL 3
REMARK VINA RESULT: -5.732960557      0.421      1.266
REMARK  7 active torsions:
REMARK  status: ('A' for Active; 'I' for Inactive)
REMARK    1  A    between atoms: C5_5  and  C6_7 
REMARK    2  A    between atoms: C10_11  and  O1_12 
REMARK    3  A    between atoms: O1_12  and  C11_13 
REMARK    4  A    between atoms: C11_13  and  C12_14 
REMARK    5  A    between atoms: C12_14  and  N1_15 
REMARK    6  A    between atoms: C12_14  and  C13_19 
REMARK    7  A    between atoms: C13_19  and  N2_20 
ROOT
HETATM    1  C1  UNL     1      21.750  -9.258   6.845  1.00  0.00     0.012 C 
HETATM    2  C2  UNL     1      22.794  -8.941   7.377  1.00  0.00    -0.110 C 
HETATM    3  C3  UNL     1      24.050  -8.571   8.032  1.00  0.00     0.104 C 
HETATM    4  C4  UNL     1      23.918  -7.551   9.136  1.00  0.00     0.067 C 
HETATM    5  C5  UNL     1      24.467  -6.471   8.210  1.00  0.00     0.142 C 
HETATM    6  F1  UNL     1      23.457  -5.625   7.838  1.00  0.00    -0.239 F 
HETATM    7  C14 UNL     1      24.838  -7.543   7.248  1.00  0.00     0.226 C 
HETATM    8  F2  UNL     1      26.166  -7.904   7.211  1.00  0.00    -0.245 F 
ENDROOT
BRANCH   5   9
HETATM    9  C6  UNL     1      25.587  -5.746   8.896  1.00  0.00     0.057 C 
HETATM   10  C7  UNL     1      24.935  -4.748   9.862  1.00  0.00     0.011 C 
HETATM   11  C8  UNL     1      25.872  -3.561   9.891  1.00  0.00     0.003 C 
HETATM   12  C9  UNL     1      26.444  -3.507   8.514  1.00  0.00     0.032 C 
HETATM   13  C10 UNL     1      26.409  -4.910   7.945  1.00  0.00     0.128 C 
BRANCH  13  14
HETATM   14  O1  UNL     1      25.875  -4.840   6.683  1.00  0.00    -0.383 OA
BRANCH  14  15
HETATM   15  C11 UNL     1      26.544  -3.968   5.862  1.00  0.00     0.202 C 
BRANCH  15  16
HETATM   16  C12 UNL     1      27.257  -4.610   4.714  1.00  0.00     0.232 C 
BRANCH  16  17
HETATM   17  N1  UNL     1      27.403  -6.045   4.908  1.00  0.00    -0.071 N 
ATOM     18  H13 UNL     1      28.383  -6.311   4.998  1.00  0.00     0.274 HD
ATOM     19  H12 UNL     1      27.075  -6.331   5.831  1.00  0.00     0.274 HD
ATOM     20  H11 UNL     1      26.940  -6.573   4.168  1.00  0.00     0.274 HD
ENDBRANCH  16  17
BRANCH  16  21
HETATM   21  C13 UNL     1      28.686  -4.049   4.711  1.00  0.00     0.264 C 
BRANCH  21  22
HETATM   22  N2  UNL     1      28.734  -2.726   5.278  1.00  0.00    -0.077 N 
ATOM     23  H23 UNL     1      27.820  -2.275   5.252  1.00  0.00     0.274 HD
ATOM     24  H22 UNL     1      28.866  -2.757   6.289  1.00  0.00     0.274 HD
ATOM     25  H21 UNL     1      29.446  -2.151   4.826  1.00  0.00     0.274 HD
ENDBRANCH  21  22
ENDBRANCH  16  21
ENDBRANCH  15  16
ENDBRANCH  14  15
ENDBRANCH  13  14
ENDBRANCH   5   9
TORSDOF 7
ENDMDL
MODEL 4
REMARK VINA RESULT: -5.685643618      1.058      1.111
REMARK  7 active torsions:
REMARK  status: ('A' for Active; 'I' for Inactive)
REMARK    1  A    between atoms: C5_5  and  C6_7 
REMARK    2  A    between atoms: C10_11  and  O1_12 
REMARK    3  A    between atoms: O1_12  and  C11_13 
REMARK    4  A    between atoms: C11_13  and  C12_14 
REMARK    5  A    between atoms: C12_14  and  N1_15 
REMARK    6  A    between atoms: C12_14  and  C13_19 
REMARK    7  A    between atoms: C13_19  and  N2_20 
ROOT
HETATM    1  C1  UNL     1      21.610  -8.530   5.789  1.00  0.00     0.012 C 
HETATM    2  C2  UNL     1      22.194  -8.376   6.843  1.00  0.00    -0.110 C 
HETATM    3  C3  UNL     1      22.883  -8.197   8.121  1.00  0.00     0.104 C 
HETATM    4  C4  UNL     1      22.736  -6.828   8.739  1.00  0.00     0.067 C 
HETATM    5  C5  UNL     1      24.154  -6.473   8.302  1.00  0.00     0.142 C 
HETATM    6  F1  UNL     1      24.108  -5.583   7.264  1.00  0.00    -0.239 F 
HETATM    7  C14 UNL     1      24.360  -7.905   7.955  1.00  0.00     0.226 C 
HETATM    8  F2  UNL     1      25.087  -8.657   8.850  1.00  0.00    -0.245 F 
ENDROOT
BRANCH   5   9
HETATM    9  C6  UNL     1      24.919  -5.935   9.475  1.00  0.00     0.057 C 
HETATM   10  C7  UNL     1      24.124  -4.731  10.000  1.00  0.00     0.011 C 
HETATM   11  C8  UNL     1      25.168  -3.770  10.524  1.00  0.00     0.003 C 
HETATM   12  C9  UNL     1      26.343  -3.975   9.626  1.00  0.00     0.032 C 
HETATM   13  C10 UNL     1      26.272  -5.389   9.089  1.00  0.00     0.128 C 
BRANCH  13  14
HETATM   14  O1  UNL     1      26.467  -5.334   7.732  1.00  0.00    -0.383 OA
BRANCH  14  15
HETATM   15  C11 UNL     1      26.992  -4.138   7.310  1.00  0.00     0.202 C 
BRANCH  15  16
HETATM   16  C12 UNL     1      27.710  -4.196   5.999  1.00  0.00     0.232 C 
BRANCH  16  17
HETATM   17  N1  UNL     1      27.848  -2.875   5.405  1.00  0.00    -0.071 N 
ATOM     18  H13 UNL     1      27.033  -2.292   5.597  1.00  0.00     0.274 HD
ATOM     19  H12 UNL     1      28.556  -2.321   5.888  1.00  0.00     0.274 HD
ATOM     20  H11 UNL     1      28.038  -2.931   4.404  1.00  0.00     0.274 HD
ENDBRANCH  16  17
BRANCH  16  21
HETATM   21  C13 UNL     1      26.811  -4.986   5.037  1.00  0.00     0.264 C 
BRANCH  21  22
HETATM   22  N2  UNL     1      27.173  -6.379   5.001  1.00  0.00    -0.077 N 
ATOM     23  H23 UNL     1      27.240  -6.772   5.940  1.00  0.00     0.274 HD
ATOM     24  H22 UNL     1      26.410  -6.955   4.644  1.00  0.00     0.274 HD
ATOM     25  H21 UNL     1      28.032  -6.529   4.472  1.00  0.00     0.274 HD
ENDBRANCH  21  22
ENDBRANCH  16  21
ENDBRANCH  15  16
ENDBRANCH  14  15
ENDBRANCH  13  14
ENDBRANCH   5   9
TORSDOF 7
ENDMDL
MODEL 5
REMARK VINA RESULT: -5.582119573      1.290      1.441
REMARK  7 active torsions:
REMARK  status: ('A' for Active; 'I' for Inactive)
REMARK    1  A    between atoms: C5_5  and  C6_7 
REMARK    2  A    between atoms: C10_11  and  O1_12 
REMARK    3  A    between atoms: O1_12  and  C11_13 
REMARK    4  A    between atoms: C11_13  and  C12_14 
REMARK    5  A    between atoms: C12_14  and  N1_15 
REMARK    6  A    between atoms: C12_14  and  C13_19 
REMARK    7  A    between atoms: C13_19  and  N2_20 
ROOT
HETATM    1  C1  UNL     1      22.610  -8.374   3.576  1.00  0.00     0.012 C 
HETATM    2  C2  UNL     1      23.202  -8.391   4.637  1.00  0.00    -0.110 C 
HETATM    3  C3  UNL     1      23.903  -8.424   5.921  1.00  0.00     0.104 C 
HETATM    4  C4  UNL     1      23.362  -7.481   6.968  1.00  0.00     0.067 C 
HETATM    5  C5  UNL     1      24.534  -6.535   6.728  1.00  0.00     0.142 C 
HETATM    6  F1  UNL     1      24.100  -5.422   6.059  1.00  0.00    -0.239 F 
HETATM    7  C14 UNL     1      25.176  -7.603   5.915  1.00  0.00     0.226 C 
HETATM    8  F2  UNL     1      26.189  -8.312   6.520  1.00  0.00    -0.245 F 
ENDROOT
BRANCH   5   9
HETATM    9  C6  UNL     1      25.176  -6.192   8.039  1.00  0.00     0.057 C 
HETATM   10  C7  UNL     1      24.123  -5.432   8.857  1.00  0.00     0.011 C 
HETATM   11  C8  UNL     1      24.908  -4.439   9.683  1.00  0.00     0.003 C 
HETATM   12  C9  UNL     1      26.067  -4.072   8.818  1.00  0.00     0.032 C 
HETATM   13  C10 UNL     1      26.336  -5.237   7.889  1.00  0.00     0.128 C 
BRANCH  13  14
HETATM   14  O1  UNL     1      26.468  -4.740   6.617  1.00  0.00    -0.383 OA
BRANCH  14  15
HETATM   15  C11 UNL     1      27.368  -3.707   6.532  1.00  0.00     0.202 C 
BRANCH  15  16
HETATM   16  C12 UNL     1      28.486  -3.928   5.564  1.00  0.00     0.232 C 
BRANCH  16  17
HETATM   17  N1  UNL     1      29.007  -2.670   5.050  1.00  0.00    -0.071 N 
ATOM     18  H13 UNL     1      28.261  -2.085   4.672  1.00  0.00     0.274 HD
ATOM     19  H12 UNL     1      29.320  -2.060   5.805  1.00  0.00     0.274 HD
ATOM     20  H11 UNL     1      29.745  -2.822   4.363  1.00  0.00     0.274 HD
ENDBRANCH  16  17
BRANCH  16  21
HETATM   21  C13 UNL     1      27.884  -4.650   4.350  1.00  0.00     0.264 C 
BRANCH  21  22
HETATM   22  N2  UNL     1      28.018  -6.079   4.467  1.00  0.00    -0.077 N 
ATOM     23  H23 UNL     1      27.595  -6.424   5.328  1.00  0.00     0.274 HD
ATOM     24  H22 UNL     1      27.424  -6.566   3.794  1.00  0.00     0.274 HD
ATOM     25  H21 UNL     1      28.991  -6.371   4.386  1.00  0.00     0.274 HD
ENDBRANCH  21  22
ENDBRANCH  16  21
ENDBRANCH  15  16
ENDBRANCH  14  15
ENDBRANCH  13  14
ENDBRANCH   5   9
TORSDOF 7
ENDMDL
