MODEL 1
REMARK VINA RESULT: -8.859164453      0.000      0.000
REMARK  5 active torsions:
REMARK  status: ('A' for Active; 'I' for Inactive)
REMARK    1  A    between atoms: C9_9  and  C10_10 
REMARK       I    between atoms: C10_10  and  N1_12 
REMARK    2  A    between atoms: N1_12  and  C11_14 
REMARK    3  A    between atoms: C11_14  and  C12_15 
REMARK    4  A    between atoms: C12_15  and  C13_16 
REMARK    5  A    between atoms: N2_21  and  C16_22 
ROOT
HETATM    1  C1  UNL     1      45.001  51.108  29.233  1.00  0.00     0.015 C 
HETATM    2  C2  UNL     1      44.762  50.984  30.525  1.00  0.00    -0.084 C 
HETATM    3  C3  UNL     1      43.834  49.981  31.132  1.00  0.00     0.039 C 
HETATM    4  C4  UNL     1      44.106  50.293  32.571  1.00  0.00     0.004 C 
HETATM    5  C5  UNL     1      43.986  51.824  32.528  1.00  0.00     0.016 C 
HETATM    6  C6  UNL     1      45.255  51.707  31.703  1.00  0.00     0.028 C 
HETATM    7  C7  UNL     1      45.617  50.575  32.653  1.00  0.00     0.004 C 
HETATM    8  C8  UNL     1      45.936  50.972  34.035  1.00  0.00     0.032 C 
HETATM    9  C9  UNL     1      46.682  49.823  34.745  1.00  0.00     0.097 C 
HETATM   10  C15 UNL     1      47.933  49.624  34.008  1.00  0.00     0.136 C 
HETATM   11  N2  UNL     1      47.647  49.112  32.701  1.00  0.00    -0.387 N 
HETATM   12  C21 UNL     1      46.502  49.575  32.023  1.00  0.00     0.069 C 
ENDROOT
BRANCH   9  13
HETATM   13  C10 UNL     1      46.691  50.060  36.182  1.00  0.00     0.223 C 
HETATM   14  O1  UNL     1      46.082  51.088  36.628  1.00  0.00    -0.273 OA
HETATM   15  N1  UNL     1      47.370  49.186  37.119  1.00  0.00    -0.360 N 
ATOM     16  H1  UNL     1      47.845  48.343  36.797  1.00  0.00     0.162 HD
BRANCH  15  17
HETATM   17  C11 UNL     1      47.357  49.535  38.503  1.00  0.00     0.128 C 
BRANCH  17  18
HETATM   18  C12 UNL     1      47.192  48.432  39.474  1.00  0.00     0.098 C 
BRANCH  18  19
HETATM   19  C13 UNL     1      47.504  48.796  40.898  1.00  0.00     0.241 C 
HETATM   20  C14 UNL     1      48.514  49.937  40.936  1.00  0.00     0.090 C 
HETATM   21  F1  UNL     1      46.379  49.136  41.571  1.00  0.00    -0.207 F 
HETATM   22  F2  UNL     1      48.098  47.668  41.513  1.00  0.00    -0.207 F 
ENDBRANCH  18  19
ENDBRANCH  17  18
ENDBRANCH  15  17
ENDBRANCH   9  13
BRANCH  11  23
HETATM   23  C16 UNL     1      48.027  47.765  32.443  1.00  0.00     0.087 C 
HETATM   24  C17 UNL     1      47.330  46.710  33.244  1.00  0.00     0.051 C 
HETATM   25  C18 UNL     1      47.689  45.349  32.699  1.00  0.00     0.169 C 
HETATM   26  O2  UNL     1      48.703  45.427  31.750  1.00  0.00    -0.391 OA
HETATM   27  C19 UNL     1      48.162  46.034  30.617  1.00  0.00     0.169 C 
HETATM   28  C20 UNL     1      47.789  47.449  30.983  1.00  0.00     0.051 C 
ENDBRANCH  11  23
TORSDOF 5
ENDMDL
MODEL 2
REMARK VINA RESULT: -8.710898726      0.759      1.026
REMARK  5 active torsions:
REMARK  status: ('A' for Active; 'I' for Inactive)
REMARK    1  A    between atoms: C9_9  and  C10_10 
REMARK       I    between atoms: C10_10  and  N1_12 
REMARK    2  A    between atoms: N1_12  and  C11_14 
REMARK    3  A    between atoms: C11_14  and  C12_15 
REMARK    4  A    between atoms: C12_15  and  C13_16 
REMARK    5  A    between atoms: N2_21  and  C16_22 
ROOT
HETATM    1  C1  UNL     1      44.973  51.469  28.956  1.00  0.00     0.015 C 
HETATM    2  C2  UNL     1      44.732  51.236  30.232  1.00  0.00    -0.084 C 
HETATM    3  C3  UNL     1      43.944  50.079  30.757  1.00  0.00     0.039 C 
HETATM    4  C4  UNL     1      44.144  50.339  32.218  1.00  0.00     0.004 C 
HETATM    5  C5  UNL     1      43.810  51.838  32.259  1.00  0.00     0.016 C 
HETATM    6  C6  UNL     1      45.097  51.948  31.461  1.00  0.00     0.028 C 
HETATM    7  C7  UNL     1      45.599  50.824  32.354  1.00  0.00     0.004 C 
HETATM    8  C8  UNL     1      45.834  51.178  33.764  1.00  0.00     0.032 C 
HETATM    9  C9  UNL     1      46.723  50.104  34.427  1.00  0.00     0.097 C 
HETATM   10  C15 UNL     1      48.001  50.125  33.712  1.00  0.00     0.136 C 
HETATM   11  N2  UNL     1      47.814  49.658  32.371  1.00  0.00    -0.387 N 
HETATM   12  C21 UNL     1      46.626  49.996  31.692  1.00  0.00     0.069 C 
ENDROOT
BRANCH   9  13
HETATM   13  C10 UNL     1      46.673  50.253  35.875  1.00  0.00     0.223 C 
HETATM   14  O1  UNL     1      46.132  51.303  36.355  1.00  0.00    -0.273 OA
HETATM   15  N1  UNL     1      47.221  49.267  36.786  1.00  0.00    -0.360 N 
ATOM     16  H1  UNL     1      47.637  48.405  36.434  1.00  0.00     0.162 HD
BRANCH  15  17
HETATM   17  C11 UNL     1      47.162  49.532  38.188  1.00  0.00     0.128 C 
BRANCH  17  18
HETATM   18  C12 UNL     1      47.547  48.433  39.098  1.00  0.00     0.098 C 
BRANCH  18  19
HETATM   19  C13 UNL     1      47.405  48.748  40.560  1.00  0.00     0.241 C 
HETATM   20  C14 UNL     1      48.167  50.026  40.894  1.00  0.00     0.090 C 
HETATM   21  F1  UNL     1      46.102  48.869  40.908  1.00  0.00    -0.207 F 
HETATM   22  F2  UNL     1      47.991  47.687  41.291  1.00  0.00    -0.207 F 
ENDBRANCH  18  19
ENDBRANCH  17  18
ENDBRANCH  15  17
ENDBRANCH   9  13
BRANCH  11  23
HETATM   23  C16 UNL     1      48.384  48.395  32.047  1.00  0.00     0.087 C 
HETATM   24  C17 UNL     1      49.796  48.168  32.489  1.00  0.00     0.051 C 
HETATM   25  C18 UNL     1      50.165  46.723  32.259  1.00  0.00     0.169 C 
HETATM   26  O2  UNL     1      49.189  46.053  31.531  1.00  0.00    -0.391 OA
HETATM   27  C19 UNL     1      48.077  45.915  32.361  1.00  0.00     0.169 C 
HETATM   28  C20 UNL     1      47.543  47.295  32.653  1.00  0.00     0.051 C 
ENDBRANCH  11  23
TORSDOF 5
ENDMDL
MODEL 3
REMARK VINA RESULT: -8.601274815      1.774      4.266
REMARK  5 active torsions:
REMARK  status: ('A' for Active; 'I' for Inactive)
REMARK    1  A    between atoms: C9_9  and  C10_10 
REMARK       I    between atoms: C10_10  and  N1_12 
REMARK    2  A    between atoms: N1_12  and  C11_14 
REMARK    3  A    between atoms: C11_14  and  C12_15 
REMARK    4  A    between atoms: C12_15  and  C13_16 
REMARK    5  A    between atoms: N2_21  and  C16_22 
ROOT
HETATM    1  C1  UNL     1      47.868  46.315  29.457  1.00  0.00     0.015 C 
HETATM    2  C2  UNL     1      48.234  46.930  30.566  1.00  0.00    -0.084 C 
HETATM    3  C3  UNL     1      49.143  48.115  30.627  1.00  0.00     0.039 C 
HETATM    4  C4  UNL     1      49.051  48.369  32.100  1.00  0.00     0.004 C 
HETATM    5  C5  UNL     1      49.280  46.942  32.621  1.00  0.00     0.016 C 
HETATM    6  C6  UNL     1      47.925  46.699  31.981  1.00  0.00     0.028 C 
HETATM    7  C7  UNL     1      47.583  48.097  32.474  1.00  0.00     0.004 C 
HETATM    8  C8  UNL     1      47.444  48.249  33.932  1.00  0.00     0.032 C 
HETATM    9  C9  UNL     1      46.694  49.561  34.247  1.00  0.00     0.097 C 
HETATM   10  C15 UNL     1      45.361  49.428  33.655  1.00  0.00     0.136 C 
HETATM   11  N2  UNL     1      45.466  49.409  32.227  1.00  0.00    -0.387 N 
HETATM   12  C21 UNL     1      46.564  48.754  31.632  1.00  0.00     0.069 C 
ENDROOT
BRANCH   9  13
HETATM   13  C10 UNL     1      46.857  49.891  35.656  1.00  0.00     0.223 C 
HETATM   14  O1  UNL     1      46.696  51.104  36.014  1.00  0.00    -0.273 OA
HETATM   15  N1  UNL     1      47.204  48.904  36.660  1.00  0.00    -0.360 N 
ATOM     16  H1  UNL     1      47.315  47.921  36.409  1.00  0.00     0.162 HD
BRANCH  15  17
HETATM   17  C11 UNL     1      47.386  49.341  38.007  1.00  0.00     0.128 C 
BRANCH  17  18
HETATM   18  C12 UNL     1      47.646  48.300  39.023  1.00  0.00     0.098 C 
BRANCH  18  19
HETATM   19  C13 UNL     1      47.401  48.730  40.441  1.00  0.00     0.241 C 
HETATM   20  C14 UNL     1      48.147  50.028  40.729  1.00  0.00     0.090 C 
HETATM   21  F1  UNL     1      46.077  48.881  40.683  1.00  0.00    -0.207 F 
HETATM   22  F2  UNL     1      47.923  47.729  41.294  1.00  0.00    -0.207 F 
ENDBRANCH  18  19
ENDBRANCH  17  18
ENDBRANCH  15  17
ENDBRANCH   9  13
BRANCH  11  23
HETATM   23  C16 UNL     1      44.960  50.543  31.531  1.00  0.00     0.087 C 
HETATM   24  C17 UNL     1      45.737  51.815  31.677  1.00  0.00     0.051 C 
HETATM   25  C18 UNL     1      45.194  52.844  30.716  1.00  0.00     0.169 C 
HETATM   26  O2  UNL     1      44.019  52.413  30.110  1.00  0.00    -0.391 OA
HETATM   27  C19 UNL     1      44.360  51.383  29.233  1.00  0.00     0.169 C 
HETATM   28  C20 UNL     1      44.885  50.231  30.053  1.00  0.00     0.051 C 
ENDBRANCH  11  23
TORSDOF 5
ENDMDL
MODEL 4
REMARK VINA RESULT: -8.452041999      1.442      1.807
REMARK  5 active torsions:
REMARK  status: ('A' for Active; 'I' for Inactive)
REMARK    1  A    between atoms: C9_9  and  C10_10 
REMARK       I    between atoms: C10_10  and  N1_12 
REMARK    2  A    between atoms: N1_12  and  C11_14 
REMARK    3  A    between atoms: C11_14  and  C12_15 
REMARK    4  A    between atoms: C12_15  and  C13_16 
REMARK    5  A    between atoms: N2_21  and  C16_22 
ROOT
HETATM    1  C1  UNL     1      45.716  51.495  29.184  1.00  0.00     0.015 C 
HETATM    2  C2  UNL     1      45.396  51.076  30.394  1.00  0.00    -0.084 C 
HETATM    3  C3  UNL     1      45.051  49.665  30.747  1.00  0.00     0.039 C 
HETATM    4  C4  UNL     1      44.913  49.851  32.226  1.00  0.00     0.004 C 
HETATM    5  C5  UNL     1      44.021  51.102  32.245  1.00  0.00     0.016 C 
HETATM    6  C6  UNL     1      45.267  51.762  31.684  1.00  0.00     0.028 C 
HETATM    7  C7  UNL     1      46.027  50.837  32.623  1.00  0.00     0.004 C 
HETATM    8  C8  UNL     1      45.893  51.128  34.061  1.00  0.00     0.032 C 
HETATM    9  C9  UNL     1      47.018  50.416  34.841  1.00  0.00     0.097 C 
HETATM   10  C15 UNL     1      48.280  50.984  34.358  1.00  0.00     0.136 C 
HETATM   11  N2  UNL     1      48.491  50.602  32.994  1.00  0.00    -0.387 N 
HETATM   12  C21 UNL     1      47.382  50.523  32.128  1.00  0.00     0.069 C 
ENDROOT
BRANCH   9  13
HETATM   13  C10 UNL     1      46.698  50.407  36.262  1.00  0.00     0.223 C 
HETATM   14  O1  UNL     1      45.931  51.319  36.714  1.00  0.00    -0.273 OA
HETATM   15  N1  UNL     1      47.223  49.414  37.179  1.00  0.00    -0.360 N 
ATOM     16  H1  UNL     1      47.819  48.657  36.844  1.00  0.00     0.162 HD
BRANCH  15  17
HETATM   17  C11 UNL     1      46.885  49.522  38.562  1.00  0.00     0.128 C 
BRANCH  17  18
HETATM   18  C12 UNL     1      47.286  48.405  39.442  1.00  0.00     0.098 C 
BRANCH  18  19
HETATM   19  C13 UNL     1      47.513  48.786  40.878  1.00  0.00     0.241 C 
HETATM   20  C14 UNL     1      48.452  49.984  40.958  1.00  0.00     0.090 C 
HETATM   21  F1  UNL     1      46.342  49.060  41.500  1.00  0.00    -0.207 F 
HETATM   22  F2  UNL     1      48.143  47.694  41.521  1.00  0.00    -0.207 F 
ENDBRANCH  18  19
ENDBRANCH  17  18
ENDBRANCH  15  17
ENDBRANCH   9  13
BRANCH  11  23
HETATM   23  C16 UNL     1      49.549  49.684  32.742  1.00  0.00     0.087 C 
HETATM   24  C17 UNL     1      50.618  49.595  33.787  1.00  0.00     0.051 C 
HETATM   25  C18 UNL     1      51.531  48.436  33.470  1.00  0.00     0.169 C 
HETATM   26  O2  UNL     1      51.263  47.898  32.216  1.00  0.00    -0.391 OA
HETATM   27  C19 UNL     1      50.031  47.251  32.300  1.00  0.00     0.169 C 
HETATM   28  C20 UNL     1      48.976  48.295  32.569  1.00  0.00     0.051 C 
ENDBRANCH  11  23
TORSDOF 5
ENDMDL
MODEL 5
REMARK VINA RESULT: -8.313842071      2.165      2.523
REMARK  5 active torsions:
REMARK  status: ('A' for Active; 'I' for Inactive)
REMARK    1  A    between atoms: C9_9  and  C10_10 
REMARK       I    between atoms: C10_10  and  N1_12 
REMARK    2  A    between atoms: N1_12  and  C11_14 
REMARK    3  A    between atoms: C11_14  and  C12_15 
REMARK    4  A    between atoms: C12_15  and  C13_16 
REMARK    5  A    between atoms: N2_21  and  C16_22 
ROOT
HETATM    1  C1  UNL     1      45.030  51.560  29.379  1.00  0.00     0.015 C 
HETATM    2  C2  UNL     1      44.927  51.001  30.570  1.00  0.00    -0.084 C 
HETATM    3  C3  UNL     1      45.174  49.556  30.862  1.00  0.00     0.039 C 
HETATM    4  C4  UNL     1      45.006  49.613  32.348  1.00  0.00     0.004 C 
HETATM    5  C5  UNL     1      43.694  50.409  32.427  1.00  0.00     0.016 C 
HETATM    6  C6  UNL     1      44.566  51.529  31.890  1.00  0.00     0.028 C 
HETATM    7  C7  UNL     1      45.649  50.943  32.784  1.00  0.00     0.004 C 
HETATM    8  C8  UNL     1      45.442  51.099  34.233  1.00  0.00     0.032 C 
HETATM    9  C9  UNL     1      46.773  50.860  34.977  1.00  0.00     0.097 C 
HETATM   10  C15 UNL     1      47.698  51.898  34.514  1.00  0.00     0.136 C 
HETATM   11  N2  UNL     1      48.014  51.684  33.134  1.00  0.00    -0.387 N 
HETATM   12  C21 UNL     1      47.007  51.209  32.270  1.00  0.00     0.069 C 
ENDROOT
BRANCH   9  13
HETATM   13  C10 UNL     1      46.513  50.669  36.397  1.00  0.00     0.223 C 
HETATM   14  O1  UNL     1      45.686  51.452  36.970  1.00  0.00    -0.273 OA
HETATM   15  N1  UNL     1      47.161  49.637  37.182  1.00  0.00    -0.360 N 
ATOM     16  H1  UNL     1      47.808  48.979  36.748  1.00  0.00     0.162 HD
BRANCH  15  17
HETATM   17  C11 UNL     1      46.872  49.564  38.578  1.00  0.00     0.128 C 
BRANCH  17  18
HETATM   18  C12 UNL     1      47.538  48.494  39.350  1.00  0.00     0.098 C 
BRANCH  18  19
HETATM   19  C13 UNL     1      47.598  48.732  40.832  1.00  0.00     0.241 C 
HETATM   20  C14 UNL     1      48.623  49.815  41.146  1.00  0.00     0.090 C 
HETATM   21  F1  UNL     1      46.382  49.075  41.320  1.00  0.00    -0.207 F 
HETATM   22  F2  UNL     1      48.028  47.531  41.446  1.00  0.00    -0.207 F 
ENDBRANCH  18  19
ENDBRANCH  17  18
ENDBRANCH  15  17
ENDBRANCH   9  13
BRANCH  11  23
HETATM   23  C16 UNL     1      49.342  51.269  32.837  1.00  0.00     0.087 C 
HETATM   24  C17 UNL     1      50.275  51.137  34.000  1.00  0.00     0.051 C 
HETATM   25  C18 UNL     1      51.558  50.488  33.541  1.00  0.00     0.169 C 
HETATM   26  O2  UNL     1      51.608  50.373  32.156  1.00  0.00    -0.391 OA
HETATM   27  C19 UNL     1      50.674  49.406  31.788  1.00  0.00     0.169 C 
HETATM   28  C20 UNL     1      49.303  49.928  32.140  1.00  0.00     0.051 C 
ENDBRANCH  11  23
TORSDOF 5
ENDMDL
