MODEL 1
REMARK VINA RESULT: -9.745880807      0.000      0.000
REMARK  4 active torsions:
REMARK  status: ('A' for Active; 'I' for Inactive)
REMARK    1  A    between atoms: C3_9  and  S2_10 
REMARK    2  A    between atoms: S2_10  and  C4_11 
REMARK    3  A    between atoms: C8_15  and  N4_16 
REMARK       I    between atoms: N4_16  and  C9_18 
REMARK    4  A    between atoms: C9_18  and  C10_20 
ROOT
HETATM    1  N1  UNL     1      11.951  13.551  61.182  1.00  0.00    -0.190 NA
HETATM    2  C1  UNL     1      11.493  13.801  62.225  1.00  0.00     0.121 C 
HETATM    3  C2  UNL     1      10.897  14.097  63.532  1.00  0.00     0.154 A 
HETATM    4  N2  UNL     1       9.825  13.528  63.948  1.00  0.00    -0.283 N 
ATOM      5  H2  UNL     1       9.366  12.841  63.350  1.00  0.00     0.188 HD
HETATM    6  N3  UNL     1       9.311  13.799  65.101  1.00  0.00    -0.268 N 
ATOM      7  H3  UNL     1       8.470  13.413  65.533  1.00  0.00     0.195 HD
HETATM    8  S1  UNL     1      10.373  14.945  65.709  1.00  0.00     0.012 SA
HETATM    9  C3  UNL     1      11.474  15.032  64.409  1.00  0.00     0.103 A 
ENDROOT
BRANCH   9  10
HETATM   10  S2  UNL     1      12.949  15.959  64.085  1.00  0.00    -0.079 SA
BRANCH  10  11
HETATM   11  C4  UNL     1      14.343  15.402  64.968  1.00  0.00     0.008 A 
HETATM   12  C5  UNL     1      14.346  14.692  66.139  1.00  0.00     0.019 A 
HETATM   13  C6  UNL     1      15.544  14.309  66.748  1.00  0.00     0.004 A 
HETATM   14  C7  UNL     1      16.762  14.634  66.186  1.00  0.00     0.029 A 
HETATM   15  C8  UNL     1      16.794  15.336  65.026  1.00  0.00     0.035 A 
HETATM   16  C16 UNL     1      15.588  15.705  64.442  1.00  0.00     0.048 A 
BRANCH  15  17
HETATM   17  N4  UNL     1      17.998  15.735  64.392  1.00  0.00    -0.327 N 
HETATM   18  C9  UNL     1      18.828  14.918  63.629  1.00  0.00     0.226 C 
HETATM   19  O1  UNL     1      18.636  13.706  63.396  1.00  0.00    -0.273 OA
ATOM     20  H4  UNL     1      18.282  16.709  64.506  1.00  0.00     0.169 HD
BRANCH  18  21
HETATM   21  C10 UNL     1      20.071  15.579  63.038  1.00  0.00     0.078 C 
HETATM   22  C11 UNL     1      21.216  15.124  63.893  1.00  0.00     0.014 C 
HETATM   23  C12 UNL     1      22.479  15.864  63.513  1.00  0.00     0.001 C 
HETATM   24  C13 UNL     1      22.220  17.351  63.693  1.00  0.00     0.000 C 
HETATM   25  C14 UNL     1      21.179  17.735  62.665  1.00  0.00     0.001 C 
HETATM   26  C15 UNL     1      19.875  17.060  63.008  1.00  0.00     0.014 C 
ENDBRANCH  18  21
ENDBRANCH  15  17
ENDBRANCH  10  11
ENDBRANCH   9  10
TORSDOF 4
ENDMDL
MODEL 2
REMARK VINA RESULT: -9.642186157      1.074      1.875
REMARK  4 active torsions:
REMARK  status: ('A' for Active; 'I' for Inactive)
REMARK    1  A    between atoms: C3_9  and  S2_10 
REMARK    2  A    between atoms: S2_10  and  C4_11 
REMARK    3  A    between atoms: C8_15  and  N4_16 
REMARK       I    between atoms: N4_16  and  C9_18 
REMARK    4  A    between atoms: C9_18  and  C10_20 
ROOT
HETATM    1  N1  UNL     1       9.290  14.912  66.360  1.00  0.00    -0.190 NA
HETATM    2  C1  UNL     1       9.748  14.564  65.345  1.00  0.00     0.121 C 
HETATM    3  C2  UNL     1      10.303  14.108  64.066  1.00  0.00     0.154 A 
HETATM    4  N2  UNL     1       9.753  13.185  63.364  1.00  0.00    -0.283 N 
ATOM      5  H2  UNL     1       8.895  12.750  63.704  1.00  0.00     0.188 HD
HETATM    6  N3  UNL     1      10.253  12.792  62.240  1.00  0.00    -0.268 N 
ATOM      7  H3  UNL     1       9.907  12.075  61.602  1.00  0.00     0.195 HD
HETATM    8  S1  UNL     1      11.614  13.760  62.094  1.00  0.00     0.012 SA
HETATM    9  C3  UNL     1      11.481  14.662  63.536  1.00  0.00     0.103 A 
ENDROOT
BRANCH   9  10
HETATM   10  S2  UNL     1      12.438  15.943  64.298  1.00  0.00    -0.079 SA
BRANCH  10  11
HETATM   11  C4  UNL     1      13.888  15.373  65.077  1.00  0.00     0.008 A 
HETATM   12  C5  UNL     1      13.968  14.609  66.210  1.00  0.00     0.019 A 
HETATM   13  C6  UNL     1      15.204  14.222  66.735  1.00  0.00     0.004 A 
HETATM   14  C7  UNL     1      16.383  14.599  66.125  1.00  0.00     0.029 A 
HETATM   15  C8  UNL     1      16.340  15.355  65.001  1.00  0.00     0.035 A 
HETATM   16  C16 UNL     1      15.097  15.726  64.501  1.00  0.00     0.048 A 
BRANCH  15  17
HETATM   17  N4  UNL     1      17.500  15.809  64.324  1.00  0.00    -0.327 N 
HETATM   18  C9  UNL     1      18.418  15.007  63.650  1.00  0.00     0.226 C 
HETATM   19  O1  UNL     1      18.357  13.763  63.550  1.00  0.00    -0.273 OA
ATOM     20  H4  UNL     1      17.680  16.814  64.332  1.00  0.00     0.169 HD
BRANCH  18  21
HETATM   21  C10 UNL     1      19.590  15.728  62.988  1.00  0.00     0.078 C 
HETATM   22  C11 UNL     1      20.815  15.262  63.716  1.00  0.00     0.014 C 
HETATM   23  C12 UNL     1      22.024  16.053  63.265  1.00  0.00     0.001 C 
HETATM   24  C13 UNL     1      21.749  17.521  63.543  1.00  0.00     0.000 C 
HETATM   25  C14 UNL     1      20.613  17.928  62.632  1.00  0.00     0.001 C 
HETATM   26  C15 UNL     1      19.360  17.203  63.052  1.00  0.00     0.014 C 
ENDBRANCH  18  21
ENDBRANCH  15  17
ENDBRANCH  10  11
ENDBRANCH   9  10
TORSDOF 4
ENDMDL
MODEL 3
REMARK VINA RESULT: -9.511864539      4.034      8.548
REMARK  4 active torsions:
REMARK  status: ('A' for Active; 'I' for Inactive)
REMARK    1  A    between atoms: C3_9  and  S2_10 
REMARK    2  A    between atoms: S2_10  and  C4_11 
REMARK    3  A    between atoms: C8_15  and  N4_16 
REMARK       I    between atoms: N4_16  and  C9_18 
REMARK    4  A    between atoms: C9_18  and  C10_20 
ROOT
HETATM    1  N1  UNL     1      17.665  20.226  61.103  1.00  0.00    -0.190 NA
HETATM    2  C1  UNL     1      18.725  19.864  60.776  1.00  0.00     0.121 C 
HETATM    3  C2  UNL     1      20.052  19.419  60.339  1.00  0.00     0.154 A 
HETATM    4  N2  UNL     1      20.484  19.601  59.145  1.00  0.00    -0.283 N 
ATOM      5  H2  UNL     1      19.885  20.075  58.469  1.00  0.00     0.188 HD
HETATM    6  N3  UNL     1      21.655  19.202  58.773  1.00  0.00    -0.268 N 
ATOM      7  H3  UNL     1      22.101  19.291  57.860  1.00  0.00     0.195 HD
HETATM    8  S1  UNL     1      22.258  18.503  60.172  1.00  0.00     0.012 SA
HETATM    9  C3  UNL     1      20.932  18.760  61.215  1.00  0.00     0.103 A 
ENDROOT
BRANCH   9  10
HETATM   10  S2  UNL     1      20.589  18.380  62.911  1.00  0.00    -0.079 SA
BRANCH  10  11
HETATM   11  C4  UNL     1      19.830  16.830  63.149  1.00  0.00     0.008 A 
HETATM   12  C5  UNL     1      20.434  15.602  63.100  1.00  0.00     0.019 A 
HETATM   13  C6  UNL     1      19.702  14.430  63.306  1.00  0.00     0.004 A 
HETATM   14  C7  UNL     1      18.348  14.474  63.567  1.00  0.00     0.029 A 
HETATM   15  C8  UNL     1      17.719  15.674  63.622  1.00  0.00     0.035 A 
HETATM   16  C16 UNL     1      18.470  16.825  63.413  1.00  0.00     0.048 A 
BRANCH  15  17
HETATM   17  N4  UNL     1      16.328  15.813  63.858  1.00  0.00    -0.327 N 
HETATM   18  C9  UNL     1      15.662  15.476  65.034  1.00  0.00     0.226 C 
HETATM   19  O1  UNL     1      16.194  14.992  66.055  1.00  0.00    -0.273 OA
ATOM     20  H4  UNL     1      15.764  16.194  63.098  1.00  0.00     0.169 HD
BRANCH  18  21
HETATM   21  C10 UNL     1      14.155  15.725  65.054  1.00  0.00     0.078 C 
HETATM   22  C11 UNL     1      13.582  14.663  65.944  1.00  0.00     0.014 C 
HETATM   23  C12 UNL     1      12.070  14.697  65.892  1.00  0.00     0.001 C 
HETATM   24  C13 UNL     1      11.649  14.486  64.447  1.00  0.00     0.000 C 
HETATM   25  C14 UNL     1      12.126  15.696  63.677  1.00  0.00     0.001 C 
HETATM   26  C15 UNL     1      13.634  15.703  63.654  1.00  0.00     0.014 C 
ENDBRANCH  18  21
ENDBRANCH  15  17
ENDBRANCH  10  11
ENDBRANCH   9  10
TORSDOF 4
ENDMDL
MODEL 4
REMARK VINA RESULT: -9.486908852      4.008      8.857
REMARK  4 active torsions:
REMARK  status: ('A' for Active; 'I' for Inactive)
REMARK    1  A    between atoms: C3_9  and  S2_10 
REMARK    2  A    between atoms: S2_10  and  C4_11 
REMARK    3  A    between atoms: C8_15  and  N4_16 
REMARK       I    between atoms: N4_16  and  C9_18 
REMARK    4  A    between atoms: C9_18  and  C10_20 
ROOT
HETATM    1  N1  UNL     1      23.513  16.204  61.525  1.00  0.00    -0.190 NA
HETATM    2  C1  UNL     1      22.811  17.020  61.074  1.00  0.00     0.121 C 
HETATM    3  C2  UNL     1      21.942  18.043  60.483  1.00  0.00     0.154 A 
HETATM    4  N2  UNL     1      22.066  18.437  59.269  1.00  0.00    -0.283 N 
ATOM      5  H2  UNL     1      22.796  18.026  58.687  1.00  0.00     0.188 HD
HETATM    6  N3  UNL     1      21.295  19.340  58.761  1.00  0.00    -0.268 N 
ATOM      7  H3  UNL     1      21.300  19.729  57.818  1.00  0.00     0.195 HD
HETATM    8  S1  UNL     1      20.282  19.711  60.045  1.00  0.00     0.012 SA
HETATM    9  C3  UNL     1      20.915  18.653  61.224  1.00  0.00     0.103 A 
ENDROOT
BRANCH   9  10
HETATM   10  S2  UNL     1      20.527  18.297  62.916  1.00  0.00    -0.079 SA
BRANCH  10  11
HETATM   11  C4  UNL     1      19.756  16.754  63.155  1.00  0.00     0.008 A 
HETATM   12  C5  UNL     1      20.349  15.521  63.109  1.00  0.00     0.019 A 
HETATM   13  C6  UNL     1      19.608  14.355  63.316  1.00  0.00     0.004 A 
HETATM   14  C7  UNL     1      18.254  14.411  63.574  1.00  0.00     0.029 A 
HETATM   15  C8  UNL     1      17.635  15.616  63.627  1.00  0.00     0.035 A 
HETATM   16  C16 UNL     1      18.396  16.760  63.417  1.00  0.00     0.048 A 
BRANCH  15  17
HETATM   17  N4  UNL     1      16.244  15.767  63.860  1.00  0.00    -0.327 N 
HETATM   18  C9  UNL     1      15.575  15.442  65.037  1.00  0.00     0.226 C 
HETATM   19  O1  UNL     1      16.103  14.960  66.062  1.00  0.00    -0.273 OA
ATOM     20  H4  UNL     1      15.684  16.147  63.097  1.00  0.00     0.169 HD
BRANCH  18  21
HETATM   21  C10 UNL     1      14.070  15.702  65.055  1.00  0.00     0.078 C 
HETATM   22  C11 UNL     1      13.487  14.641  65.939  1.00  0.00     0.014 C 
HETATM   23  C12 UNL     1      11.975  14.686  65.883  1.00  0.00     0.001 C 
HETATM   24  C13 UNL     1      11.556  14.483  64.437  1.00  0.00     0.000 C 
HETATM   25  C14 UNL     1      12.045  15.693  63.672  1.00  0.00     0.001 C 
HETATM   26  C15 UNL     1      13.552  15.688  63.653  1.00  0.00     0.014 C 
ENDBRANCH  18  21
ENDBRANCH  15  17
ENDBRANCH  10  11
ENDBRANCH   9  10
TORSDOF 4
ENDMDL
MODEL 5
REMARK VINA RESULT: -9.413310502      4.080      8.943
REMARK  4 active torsions:
REMARK  status: ('A' for Active; 'I' for Inactive)
REMARK    1  A    between atoms: C3_9  and  S2_10 
REMARK    2  A    between atoms: S2_10  and  C4_11 
REMARK    3  A    between atoms: C8_15  and  N4_16 
REMARK       I    between atoms: N4_16  and  C9_18 
REMARK    4  A    between atoms: C9_18  and  C10_20 
ROOT
HETATM    1  N1  UNL     1      19.471  20.506  59.432  1.00  0.00    -0.190 NA
HETATM    2  C1  UNL     1      20.321  19.791  59.789  1.00  0.00     0.121 C 
HETATM    3  C2  UNL     1      21.403  18.897  60.213  1.00  0.00     0.154 A 
HETATM    4  N2  UNL     1      22.443  18.680  59.493  1.00  0.00    -0.283 N 
ATOM      5  H2  UNL     1      22.525  19.147  58.590  1.00  0.00     0.188 HD
HETATM    6  N3  UNL     1      23.388  17.889  59.879  1.00  0.00    -0.268 N 
ATOM      7  H3  UNL     1      24.253  17.643  59.396  1.00  0.00     0.195 HD
HETATM    8  S1  UNL     1      22.836  17.370  61.374  1.00  0.00     0.012 SA
HETATM    9  C3  UNL     1      21.358  18.220  61.444  1.00  0.00     0.103 A 
ENDROOT
BRANCH   9  10
HETATM   10  S2  UNL     1      20.043  18.337  62.625  1.00  0.00    -0.079 SA
BRANCH  10  11
HETATM   11  C4  UNL     1      19.338  16.802  63.052  1.00  0.00     0.008 A 
HETATM   12  C5  UNL     1      19.982  15.598  63.146  1.00  0.00     0.019 A 
HETATM   13  C6  UNL     1      19.291  14.435  63.496  1.00  0.00     0.004 A 
HETATM   14  C7  UNL     1      17.938  14.465  63.759  1.00  0.00     0.029 A 
HETATM   15  C8  UNL     1      17.269  15.642  63.676  1.00  0.00     0.035 A 
HETATM   16  C16 UNL     1      17.980  16.783  63.325  1.00  0.00     0.048 A 
BRANCH  15  17
HETATM   17  N4  UNL     1      15.874  15.762  63.903  1.00  0.00    -0.327 N 
HETATM   18  C9  UNL     1      15.207  15.419  65.076  1.00  0.00     0.226 C 
HETATM   19  O1  UNL     1      15.741  14.946  66.102  1.00  0.00    -0.273 OA
ATOM     20  H4  UNL     1      15.309  16.132  63.139  1.00  0.00     0.169 HD
BRANCH  18  21
HETATM   21  C10 UNL     1      13.697  15.646  65.088  1.00  0.00     0.078 C 
HETATM   22  C11 UNL     1      13.130  14.550  65.939  1.00  0.00     0.014 C 
HETATM   23  C12 UNL     1      11.618  14.565  65.872  1.00  0.00     0.001 C 
HETATM   24  C13 UNL     1      11.215  14.392  64.417  1.00  0.00     0.000 C 
HETATM   25  C14 UNL     1      11.683  15.631  63.688  1.00  0.00     0.001 C 
HETATM   26  C15 UNL     1      13.191  15.659  63.682  1.00  0.00     0.014 C 
ENDBRANCH  18  21
ENDBRANCH  15  17
ENDBRANCH  10  11
ENDBRANCH   9  10
TORSDOF 4
ENDMDL
