MODEL 1
REMARK VINA RESULT: -5.347431933      0.000      0.000
REMARK  4 active torsions:
REMARK  status: ('A' for Active; 'I' for Inactive)
REMARK    1  A    between atoms: C2_2  and  N1_5 
REMARK    2  A    between atoms: N1_5  and  N2_7 
REMARK    3  A    between atoms: N3_9  and  N4_11 
REMARK    4  A    between atoms: N4_11  and  N5_13 
ROOT
HETATM    1  N2  UNL     1       1.513  31.019  21.795  1.00  0.00    -0.231 N 
ATOM      2  H2  UNL     1       2.140  31.181  21.008  1.00  0.00     0.209 HD
HETATM    3  N3  UNL     1       1.988  30.795  22.955  1.00  0.00    -0.214 N 
ATOM      4  H3  UNL     1       1.373  30.631  23.752  1.00  0.00     0.211 HD
ENDROOT
BRANCH   1   5
HETATM    5  N1  UNL     1       0.129  31.040  21.607  1.00  0.00    -0.312 N 
ATOM      6  H1  UNL     1      -0.468  30.386  22.111  1.00  0.00     0.182 HD
BRANCH   5   7
HETATM    7  C2  UNL     1      -0.443  31.986  20.702  1.00  0.00     0.036 C 
HETATM    8  C1  UNL     1      -0.775  31.409  19.348  1.00  0.00     0.039 C 
HETATM    9  C3  UNL     1      -1.670  32.661  21.266  1.00  0.00     0.039 C 
HETATM   10  C4  UNL     1       0.604  33.087  20.488  1.00  0.00     0.039 C 
ENDBRANCH   5   7
ENDBRANCH   1   5
BRANCH   3  11
HETATM   11  N4  UNL     1       3.396  30.782  23.105  1.00  0.00    -0.234 N 
ATOM     12  H4  UNL     1       4.000  30.229  22.497  1.00  0.00     0.209 HD
BRANCH  11  13
HETATM   13  N5  UNL     1       3.904  31.573  24.136  1.00  0.00    -0.330 N 
ATOM     14  H52 UNL     1       3.292  31.972  24.847  1.00  0.00     0.178 HD
ATOM     15  H51 UNL     1       4.914  31.719  24.126  1.00  0.00     0.178 HD
ENDBRANCH  11  13
ENDBRANCH   3  11
TORSDOF 4
ENDMDL
MODEL 2
REMARK VINA RESULT: -5.332886659      0.062      1.418
REMARK  4 active torsions:
REMARK  status: ('A' for Active; 'I' for Inactive)
REMARK    1  A    between atoms: C2_2  and  N1_5 
REMARK    2  A    between atoms: N1_5  and  N2_7 
REMARK    3  A    between atoms: N3_9  and  N4_11 
REMARK    4  A    between atoms: N4_11  and  N5_13 
ROOT
HETATM    1  N2  UNL     1       1.496  31.005  21.779  1.00  0.00    -0.231 N 
ATOM      2  H2  UNL     1       2.134  31.146  20.997  1.00  0.00     0.209 HD
HETATM    3  N3  UNL     1       1.953  30.781  22.946  1.00  0.00    -0.214 N 
ATOM      4  H3  UNL     1       1.327  30.638  23.737  1.00  0.00     0.211 HD
ENDROOT
BRANCH   1   5
HETATM    5  N1  UNL     1       0.115  31.054  21.575  1.00  0.00    -0.312 N 
ATOM      6  H1  UNL     1      -0.495  30.370  22.022  1.00  0.00     0.182 HD
BRANCH   5   7
HETATM    7  C2  UNL     1      -0.437  32.070  20.737  1.00  0.00     0.036 C 
HETATM    8  C1  UNL     1      -1.704  32.685  21.278  1.00  0.00     0.039 C 
HETATM    9  C3  UNL     1       0.552  33.168  20.426  1.00  0.00     0.039 C 
HETATM   10  C4  UNL     1      -0.786  31.403  19.399  1.00  0.00     0.039 C 
ENDBRANCH   5   7
ENDBRANCH   1   5
BRANCH   3  11
HETATM   11  N4  UNL     1       3.359  30.739  23.111  1.00  0.00    -0.234 N 
ATOM     12  H4  UNL     1       3.954  30.142  22.537  1.00  0.00     0.209 HD
BRANCH  11  13
HETATM   13  N5  UNL     1       3.879  31.566  24.108  1.00  0.00    -0.330 N 
ATOM     14  H52 UNL     1       4.499  31.199  24.829  1.00  0.00     0.178 HD
ATOM     15  H51 UNL     1       3.597  32.546  24.062  1.00  0.00     0.178 HD
ENDBRANCH  11  13
ENDBRANCH   3  11
TORSDOF 4
ENDMDL
MODEL 3
REMARK VINA RESULT: -5.294155347      0.110      1.395
REMARK  4 active torsions:
REMARK  status: ('A' for Active; 'I' for Inactive)
REMARK    1  A    between atoms: C2_2  and  N1_5 
REMARK    2  A    between atoms: N1_5  and  N2_7 
REMARK    3  A    between atoms: N3_9  and  N4_11 
REMARK    4  A    between atoms: N4_11  and  N5_13 
ROOT
HETATM    1  N2  UNL     1       1.530  31.002  21.780  1.00  0.00    -0.231 N 
ATOM      2  H2  UNL     1       2.184  31.148  21.012  1.00  0.00     0.209 HD
HETATM    3  N3  UNL     1       1.963  30.769  22.954  1.00  0.00    -0.214 N 
ATOM      4  H3  UNL     1       1.321  30.621  23.732  1.00  0.00     0.211 HD
ENDROOT
BRANCH   1   5
HETATM    5  N1  UNL     1       0.153  31.057  21.549  1.00  0.00    -0.312 N 
ATOM      6  H1  UNL     1      -0.478  30.440  22.060  1.00  0.00     0.182 HD
BRANCH   5   7
HETATM    7  C2  UNL     1      -0.364  31.984  20.594  1.00  0.00     0.036 C 
HETATM    8  C1  UNL     1       0.592  33.098  20.247  1.00  0.00     0.039 C 
HETATM    9  C3  UNL     1      -0.824  31.313  19.322  1.00  0.00     0.039 C 
HETATM   10  C4  UNL     1      -1.607  32.627  21.226  1.00  0.00     0.039 C 
ENDBRANCH   5   7
ENDBRANCH   1   5
BRANCH   3  11
HETATM   11  N4  UNL     1       3.366  30.721  23.146  1.00  0.00    -0.234 N 
ATOM     12  H4  UNL     1       3.965  30.091  22.614  1.00  0.00     0.209 HD
BRANCH  11  13
HETATM   13  N5  UNL     1       3.876  31.593  24.110  1.00  0.00    -0.330 N 
ATOM     14  H52 UNL     1       3.257  32.145  24.704  1.00  0.00     0.178 HD
ATOM     15  H51 UNL     1       4.893  31.636  24.175  1.00  0.00     0.178 HD
ENDBRANCH  11  13
ENDBRANCH   3  11
TORSDOF 4
ENDMDL
MODEL 4
REMARK VINA RESULT: -4.855352057      0.880      1.787
REMARK  4 active torsions:
REMARK  status: ('A' for Active; 'I' for Inactive)
REMARK    1  A    between atoms: C2_2  and  N1_5 
REMARK    2  A    between atoms: N1_5  and  N2_7 
REMARK    3  A    between atoms: N3_9  and  N4_11 
REMARK    4  A    between atoms: N4_11  and  N5_13 
ROOT
HETATM    1  N2  UNL     1       1.915  30.777  22.111  1.00  0.00    -0.231 N 
ATOM      2  H2  UNL     1       2.470  30.087  21.607  1.00  0.00     0.209 HD
HETATM    3  N3  UNL     1       2.409  31.386  23.114  1.00  0.00    -0.214 N 
ATOM      4  H3  UNL     1       1.865  32.079  23.628  1.00  0.00     0.211 HD
ENDROOT
BRANCH   1   5
HETATM    5  N1  UNL     1       0.608  31.058  21.706  1.00  0.00    -0.312 N 
ATOM      6  H1  UNL     1      -0.182  30.617  22.176  1.00  0.00     0.182 HD
BRANCH   5   7
HETATM    7  C2  UNL     1       0.386  31.970  20.629  1.00  0.00     0.036 C 
HETATM    8  C1  UNL     1       0.416  33.420  21.043  1.00  0.00     0.039 C 
HETATM    9  C3  UNL     1       1.347  31.762  19.483  1.00  0.00     0.039 C 
HETATM   10  C4  UNL     1      -1.018  31.678  20.081  1.00  0.00     0.039 C 
ENDBRANCH   5   7
ENDBRANCH   1   5
BRANCH   3  11
HETATM   11  N4  UNL     1       3.737  31.073  23.493  1.00  0.00    -0.234 N 
ATOM     12  H4  UNL     1       4.325  30.450  22.941  1.00  0.00     0.209 HD
BRANCH  11  13
HETATM   13  N5  UNL     1       4.189  31.672  24.670  1.00  0.00    -0.330 N 
ATOM     14  H52 UNL     1       4.766  32.512  24.648  1.00  0.00     0.178 HD
ATOM     15  H51 UNL     1       3.905  31.215  25.537  1.00  0.00     0.178 HD
ENDBRANCH  11  13
ENDBRANCH   3  11
TORSDOF 4
ENDMDL
MODEL 5
REMARK VINA RESULT: -4.793100648      1.537      1.888
REMARK  4 active torsions:
REMARK  status: ('A' for Active; 'I' for Inactive)
REMARK    1  A    between atoms: C2_2  and  N1_5 
REMARK    2  A    between atoms: N1_5  and  N2_7 
REMARK    3  A    between atoms: N3_9  and  N4_11 
REMARK    4  A    between atoms: N4_11  and  N5_13 
ROOT
HETATM    1  N2  UNL     1       0.655  30.834  21.460  1.00  0.00    -0.231 N 
ATOM      2  H2  UNL     1       0.371  29.885  21.702  1.00  0.00     0.209 HD
HETATM    3  N3  UNL     1       1.634  31.381  22.062  1.00  0.00    -0.214 N 
ATOM      4  H3  UNL     1       1.929  32.329  21.831  1.00  0.00     0.211 HD
ENDROOT
BRANCH   1   5
HETATM    5  N1  UNL     1      -0.029  31.540  20.468  1.00  0.00    -0.312 N 
ATOM      6  H1  UNL     1      -0.697  32.268  20.724  1.00  0.00     0.182 HD
BRANCH   5   7
HETATM    7  C2  UNL     1       0.213  31.237  19.094  1.00  0.00     0.036 C 
HETATM    8  C1  UNL     1       1.322  30.237  18.877  1.00  0.00     0.039 C 
HETATM    9  C3  UNL     1      -1.027  30.764  18.375  1.00  0.00     0.039 C 
HETATM   10  C4  UNL     1       0.639  32.548  18.418  1.00  0.00     0.039 C 
ENDBRANCH   5   7
ENDBRANCH   1   5
BRANCH   3  11
HETATM   11  N4  UNL     1       2.302  30.631  23.061  1.00  0.00    -0.234 N 
ATOM     12  H4  UNL     1       1.959  29.724  23.378  1.00  0.00     0.209 HD
BRANCH  11  13
HETATM   13  N5  UNL     1       3.458  31.212  23.585  1.00  0.00    -0.330 N 
ATOM     14  H52 UNL     1       4.232  31.486  22.980  1.00  0.00     0.178 HD
ATOM     15  H51 UNL     1       3.471  31.340  24.597  1.00  0.00     0.178 HD
ENDBRANCH  11  13
ENDBRANCH   3  11
TORSDOF 4
ENDMDL
