MODEL 1
REMARK VINA RESULT: -7.595620601      0.000      0.000
REMARK  2 active torsions:
REMARK  status: ('A' for Active; 'I' for Inactive)
REMARK       I    between atoms: C1_2  and  N2_4 
REMARK    1  A    between atoms: C6_15  and  N6_16 
REMARK    2  A    between atoms: N6_16  and  C7_18 
ROOT
HETATM    1  N1  UNL     1     -11.528 -28.707 -29.509  1.00  0.00    -0.038 NA
HETATM    2  C1  UNL     1     -11.858 -27.974 -28.349  1.00  0.00     0.355 C 
HETATM    3  O1  UNL     1     -10.962 -27.374 -27.729  1.00  0.00    -0.249 OA
HETATM    4  N2  UNL     1     -13.197 -27.928 -27.901  1.00  0.00    -0.188 N 
HETATM    5  N3  UNL     1     -14.361 -28.448 -28.326  1.00  0.00    -0.283 N 
ATOM      6  H3  UNL     1     -14.643 -29.039 -29.107  1.00  0.00     0.188 HD
HETATM    7  C2  UNL     1     -14.998 -27.867 -27.300  1.00  0.00     0.124 A 
HETATM    8  C3  UNL     1     -16.134 -27.586 -26.568  1.00  0.00     0.096 A 
HETATM    9  N4  UNL     1     -17.389 -27.961 -26.759  1.00  0.00    -0.348 N 
ATOM     10  H4  UNL     1     -17.728 -28.550 -27.519  1.00  0.00     0.167 HD
HETATM   11  C4  UNL     1     -18.150 -27.423 -25.760  1.00  0.00     0.181 A 
HETATM   12  N5  UNL     1     -17.338 -26.705 -24.945  1.00  0.00    -0.347 N 
ATOM     13  H5  UNL     1     -17.624 -26.189 -24.113  1.00  0.00     0.167 HD
HETATM   14  C5  UNL     1     -16.072 -26.798 -25.439  1.00  0.00     0.107 A 
HETATM   15  C6  UNL     1     -14.871 -26.273 -25.019  1.00  0.00     0.138 A 
HETATM   16  N7  UNL     1     -13.784 -26.553 -25.734  1.00  0.00    -0.323 N 
ATOM     17  H7  UNL     1     -12.888 -26.171 -25.431  1.00  0.00     0.169 HD
HETATM   18  C8  UNL     1     -13.815 -27.325 -26.848  1.00  0.00     0.164 A 
ENDROOT
BRANCH  15  19
HETATM   19  N6  UNL     1     -14.837 -25.457 -23.841  1.00  0.00    -0.318 N 
ATOM     20  H6  UNL     1     -14.595 -25.890 -22.950  1.00  0.00     0.169 HD
BRANCH  19  21
HETATM   21  C7  UNL     1     -15.126 -24.080 -23.867  1.00  0.00     0.354 C 
HETATM   22  O2  UNL     1     -16.226 -23.676 -24.358  1.00  0.00    -0.283 OA
ENDBRANCH  19  21
ENDBRANCH  15  19
TORSDOF 2
ENDMDL
MODEL 2
REMARK VINA RESULT: -7.468924131      1.844      5.181
REMARK  2 active torsions:
REMARK  status: ('A' for Active; 'I' for Inactive)
REMARK       I    between atoms: C1_2  and  N2_4 
REMARK    1  A    between atoms: C6_15  and  N6_16 
REMARK    2  A    between atoms: N6_16  and  C7_18 
ROOT
HETATM    1  N1  UNL     1     -17.271 -25.732 -23.501  1.00  0.00    -0.038 NA
HETATM    2  C1  UNL     1     -15.912 -25.900 -23.841  1.00  0.00     0.355 C 
HETATM    3  O1  UNL     1     -15.032 -25.444 -23.089  1.00  0.00    -0.249 OA
HETATM    4  N2  UNL     1     -15.561 -26.579 -25.030  1.00  0.00    -0.188 N 
HETATM    5  N3  UNL     1     -16.243 -27.169 -26.025  1.00  0.00    -0.283 N 
ATOM      6  H3  UNL     1     -17.231 -27.313 -26.235  1.00  0.00     0.188 HD
HETATM    7  C2  UNL     1     -15.090 -27.492 -26.628  1.00  0.00     0.124 A 
HETATM    8  C3  UNL     1     -14.367 -28.068 -27.652  1.00  0.00     0.096 A 
HETATM    9  N4  UNL     1     -14.777 -28.705 -28.737  1.00  0.00    -0.348 N 
ATOM     10  H4  UNL     1     -15.748 -28.877 -28.998  1.00  0.00     0.167 HD
HETATM   11  C4  UNL     1     -13.675 -29.091 -29.446  1.00  0.00     0.181 A 
HETATM   12  N5  UNL     1     -12.571 -28.678 -28.775  1.00  0.00    -0.347 N 
ATOM     13  H5  UNL     1     -11.603 -28.823 -29.063  1.00  0.00     0.167 HD
HETATM   14  C5  UNL     1     -12.989 -28.037 -27.649  1.00  0.00     0.107 A 
HETATM   15  C6  UNL     1     -12.306 -27.428 -26.621  1.00  0.00     0.138 A 
HETATM   16  N7  UNL     1     -13.018 -26.876 -25.640  1.00  0.00    -0.323 N 
ATOM     17  H7  UNL     1     -12.523 -26.421 -24.873  1.00  0.00     0.169 HD
HETATM   18  C8  UNL     1     -14.373 -26.892 -25.617  1.00  0.00     0.164 A 
ENDROOT
BRANCH  15  19
HETATM   19  N6  UNL     1     -10.873 -27.410 -26.645  1.00  0.00    -0.318 N 
ATOM     20  H6  UNL     1     -10.398 -26.593 -27.028  1.00  0.00     0.169 HD
BRANCH  19  21
HETATM   21  C7  UNL     1     -10.096 -28.479 -26.161  1.00  0.00     0.354 C 
HETATM   22  O2  UNL     1      -9.389 -28.323 -25.117  1.00  0.00    -0.283 OA
ENDBRANCH  19  21
ENDBRANCH  15  19
TORSDOF 2
ENDMDL
MODEL 3
REMARK VINA RESULT: -7.428377508      2.279      3.495
REMARK  2 active torsions:
REMARK  status: ('A' for Active; 'I' for Inactive)
REMARK       I    between atoms: C1_2  and  N2_4 
REMARK    1  A    between atoms: C6_15  and  N6_16 
REMARK    2  A    between atoms: N6_16  and  C7_18 
ROOT
HETATM    1  N1  UNL     1     -10.802 -27.490 -28.035  1.00  0.00    -0.038 NA
HETATM    2  C1  UNL     1     -12.186 -27.738 -28.150  1.00  0.00     0.355 C 
HETATM    3  O1  UNL     1     -12.637 -28.217 -29.206  1.00  0.00    -0.249 OA
HETATM    4  N2  UNL     1     -13.048 -27.440 -27.071  1.00  0.00    -0.188 N 
HETATM    5  N3  UNL     1     -12.887 -26.932 -25.837  1.00  0.00    -0.283 N 
ATOM      6  H3  UNL     1     -12.091 -26.602 -25.292  1.00  0.00     0.188 HD
HETATM    7  C2  UNL     1     -14.206 -27.039 -25.619  1.00  0.00     0.124 A 
HETATM    8  C3  UNL     1     -15.329 -26.895 -24.831  1.00  0.00     0.096 A 
HETATM    9  N4  UNL     1     -15.455 -26.430 -23.598  1.00  0.00    -0.348 N 
ATOM     10  H4  UNL     1     -14.698 -26.088 -23.007  1.00  0.00     0.167 HD
HETATM   11  C4  UNL     1     -16.776 -26.488 -23.255  1.00  0.00     0.181 A 
HETATM   12  N5  UNL     1     -17.467 -27.000 -24.303  1.00  0.00    -0.347 N 
ATOM     13  H5  UNL     1     -18.473 -27.162 -24.340  1.00  0.00     0.167 HD
HETATM   14  C5  UNL     1     -16.573 -27.260 -25.298  1.00  0.00     0.107 A 
HETATM   15  C6  UNL     1     -16.719 -27.778 -26.564  1.00  0.00     0.138 A 
HETATM   16  N7  UNL     1     -15.626 -27.912 -27.313  1.00  0.00    -0.323 N 
ATOM     17  H7  UNL     1     -15.723 -28.294 -28.254  1.00  0.00     0.169 HD
HETATM   18  C8  UNL     1     -14.391 -27.562 -26.880  1.00  0.00     0.164 A 
ENDROOT
BRANCH  15  19
HETATM   19  N6  UNL     1     -18.026 -28.149 -27.023  1.00  0.00    -0.318 N 
ATOM     20  H6  UNL     1     -18.829 -27.961 -26.424  1.00  0.00     0.169 HD
BRANCH  19  21
HETATM   21  C7  UNL     1     -18.242 -28.764 -28.271  1.00  0.00     0.354 C 
HETATM   22  O2  UNL     1     -17.529 -29.758 -28.616  1.00  0.00    -0.283 OA
ENDBRANCH  19  21
ENDBRANCH  15  19
TORSDOF 2
ENDMDL
MODEL 4
REMARK VINA RESULT: -6.982140975      2.133      5.923
REMARK  2 active torsions:
REMARK  status: ('A' for Active; 'I' for Inactive)
REMARK       I    between atoms: C1_2  and  N2_4 
REMARK    1  A    between atoms: C6_15  and  N6_16 
REMARK    2  A    between atoms: N6_16  and  C7_18 
ROOT
HETATM    1  N1  UNL     1     -17.005 -24.991 -23.720  1.00  0.00    -0.038 NA
HETATM    2  C1  UNL     1     -16.725 -25.912 -24.751  1.00  0.00     0.355 C 
HETATM    3  O1  UNL     1     -17.663 -26.405 -25.404  1.00  0.00    -0.249 OA
HETATM    4  N2  UNL     1     -15.387 -26.268 -25.035  1.00  0.00    -0.188 N 
HETATM    5  N3  UNL     1     -14.186 -25.930 -24.536  1.00  0.00    -0.283 N 
ATOM      6  H3  UNL     1     -13.863 -25.309 -23.794  1.00  0.00     0.188 HD
HETATM    7  C2  UNL     1     -13.588 -26.745 -25.416  1.00  0.00     0.124 A 
HETATM    8  C3  UNL     1     -12.470 -27.325 -25.979  1.00  0.00     0.096 A 
HETATM    9  N4  UNL     1     -11.188 -27.174 -25.687  1.00  0.00    -0.348 N 
ATOM     10  H4  UNL     1     -10.808 -26.570 -24.958  1.00  0.00     0.167 HD
HETATM   11  C4  UNL     1     -10.463 -27.967 -26.530  1.00  0.00     0.181 A 
HETATM   12  N5  UNL     1     -11.325 -28.615 -27.353  1.00  0.00    -0.347 N 
ATOM     13  H5  UNL     1     -11.074 -29.275 -28.088  1.00  0.00     0.167 HD
HETATM   14  C5  UNL     1     -12.586 -28.222 -27.020  1.00  0.00     0.107 A 
HETATM   15  C6  UNL     1     -13.824 -28.556 -27.519  1.00  0.00     0.138 A 
HETATM   16  N7  UNL     1     -14.894 -27.988 -26.965  1.00  0.00    -0.323 N 
ATOM     17  H7  UNL     1     -15.817 -28.229 -27.327  1.00  0.00     0.169 HD
HETATM   18  C8  UNL     1     -14.810 -27.104 -25.942  1.00  0.00     0.164 A 
ENDROOT
BRANCH  15  19
HETATM   19  N6  UNL     1     -13.914 -29.492 -28.602  1.00  0.00    -0.318 N 
ATOM     20  H6  UNL     1     -13.956 -30.488 -28.387  1.00  0.00     0.169 HD
BRANCH  19  21
HETATM   21  C7  UNL     1     -13.947 -29.087 -29.949  1.00  0.00     0.354 C 
HETATM   22  O2  UNL     1     -13.057 -29.504 -30.755  1.00  0.00    -0.283 OA
ENDBRANCH  19  21
ENDBRANCH  15  19
TORSDOF 2
ENDMDL
MODEL 5
REMARK VINA RESULT: -6.835620702      1.997      3.272
REMARK  2 active torsions:
REMARK  status: ('A' for Active; 'I' for Inactive)
REMARK       I    between atoms: C1_2  and  N2_4 
REMARK    1  A    between atoms: C6_15  and  N6_16 
REMARK    2  A    between atoms: N6_16  and  C7_18 
ROOT
HETATM    1  N1  UNL     1     -11.606 -28.247 -29.060  1.00  0.00    -0.038 NA
HETATM    2  C1  UNL     1     -12.993 -28.305 -28.814  1.00  0.00     0.355 C 
HETATM    3  O1  UNL     1     -13.745 -28.819 -29.662  1.00  0.00    -0.249 OA
HETATM    4  N2  UNL     1     -13.519 -27.780 -27.612  1.00  0.00    -0.188 N 
HETATM    5  N3  UNL     1     -12.999 -27.179 -26.529  1.00  0.00    -0.283 N 
ATOM      6  H3  UNL     1     -12.059 -26.913 -26.234  1.00  0.00     0.188 HD
HETATM    7  C2  UNL     1     -14.224 -27.074 -25.995  1.00  0.00     0.124 A 
HETATM    8  C3  UNL     1     -15.091 -26.692 -24.992  1.00  0.00     0.096 A 
HETATM    9  N4  UNL     1     -14.852 -26.092 -23.837  1.00  0.00    -0.348 N 
ATOM     10  H4  UNL     1     -13.937 -25.803 -23.491  1.00  0.00     0.167 HD
HETATM   11  C4  UNL     1     -16.043 -25.926 -23.189  1.00  0.00     0.181 A 
HETATM   12  N5  UNL     1     -17.027 -26.437 -23.969  1.00  0.00    -0.347 N 
ATOM     13  H5  UNL     1     -18.023 -26.456 -23.748  1.00  0.00     0.167 HD
HETATM   14  C5  UNL     1     -16.446 -26.920 -25.102  1.00  0.00     0.107 A 
HETATM   15  C6  UNL     1     -16.961 -27.538 -26.219  1.00  0.00     0.138 A 
HETATM   16  N7  UNL     1     -16.112 -27.901 -27.178  1.00  0.00    -0.323 N 
ATOM     17  H7  UNL     1     -16.483 -28.359 -28.011  1.00  0.00     0.169 HD
HETATM   18  C8  UNL     1     -14.777 -27.689 -27.097  1.00  0.00     0.164 A 
ENDROOT
BRANCH  15  19
HETATM   19  N6  UNL     1     -18.375 -27.763 -26.306  1.00  0.00    -0.318 N 
ATOM     20  H6  UNL     1     -18.947 -27.095 -26.821  1.00  0.00     0.169 HD
BRANCH  19  21
HETATM   21  C7  UNL     1     -19.001 -28.871 -25.706  1.00  0.00     0.354 C 
HETATM   22  O2  UNL     1     -19.079 -28.943 -24.440  1.00  0.00    -0.283 OA
ENDBRANCH  19  21
ENDBRANCH  15  19
TORSDOF 2
ENDMDL
