MODEL 1
REMARK VINA RESULT: -6.892696610      0.000      0.000
REMARK  4 active torsions:
REMARK  status: ('A' for Active; 'I' for Inactive)
REMARK    1  A    between atoms: O1_2  and  C2_3 
REMARK    2  A    between atoms: C5_6  and  C6_7 
REMARK    3  A    between atoms: C6_7  and  N1_8 
REMARK       I    between atoms: N1_8  and  C9_11 
REMARK    4  A    between atoms: C11_17  and  O2_18 
ROOT
HETATM    1  C2  UNL     1      -8.493 -26.757  -2.421  1.00  0.00     0.101 A 
HETATM    2  C3  UNL     1      -9.532 -27.266  -1.672  1.00  0.00     0.040 A 
HETATM    3  C4  UNL     1      -9.776 -26.801  -0.378  1.00  0.00     0.012 A 
HETATM    4  C5  UNL     1      -8.988 -25.824   0.193  1.00  0.00    -0.029 A 
HETATM    5  C10 UNL     1      -7.952 -25.324  -0.568  1.00  0.00     0.048 A 
HETATM    6  C11 UNL     1      -7.705 -25.783  -1.857  1.00  0.00     0.102 A 
ENDROOT
BRANCH   4   7
HETATM    7  C6  UNL     1      -9.283 -25.362   1.568  1.00  0.00     0.284 C 
BRANCH   7   8
HETATM    8  N1  UNL     1      -8.404 -25.900   2.554  1.00  0.00    -0.013 N 
HETATM    9  C7  UNL     1      -7.948 -27.242   2.258  1.00  0.00     0.282 C 
HETATM   10  C8  UNL     1      -7.209 -25.059   2.605  1.00  0.00     0.282 C 
HETATM   11  C9  UNL     1      -8.951 -25.905   3.868  1.00  0.00     0.286 C 
HETATM   12  N2  UNL     1      -8.751 -24.905   4.650  1.00  0.00    -0.367 N 
HETATM   13  N3  UNL     1      -9.725 -26.992   4.358  1.00  0.00    -0.057 NA
ATOM     14  H22 UNL     1      -8.195 -24.125   4.298  1.00  0.00     0.158 HD
ATOM     15  H21 UNL     1      -9.143 -24.909   5.592  1.00  0.00     0.158 HD
ENDBRANCH   7   8
ENDBRANCH   4   7
BRANCH   6  16
HETATM   16  O2  UNL     1      -6.652 -25.253  -2.587  1.00  0.00    -0.353 OA
HETATM   17  C12 UNL     1      -5.330 -25.691  -2.342  1.00  0.00     0.210 C 
ENDBRANCH   6  16
BRANCH   1  18
HETATM   18  O1  UNL     1      -8.249 -27.227  -3.727  1.00  0.00    -0.353 OA
HETATM   19  C1  UNL     1      -7.549 -28.456  -3.898  1.00  0.00     0.210 C 
ENDBRANCH   1  18
TORSDOF 4
ENDMDL
MODEL 2
REMARK VINA RESULT: -6.777606664      0.845      1.472
REMARK  4 active torsions:
REMARK  status: ('A' for Active; 'I' for Inactive)
REMARK    1  A    between atoms: O1_2  and  C2_3 
REMARK    2  A    between atoms: C5_6  and  C6_7 
REMARK    3  A    between atoms: C6_7  and  N1_8 
REMARK       I    between atoms: N1_8  and  C9_11 
REMARK    4  A    between atoms: C11_17  and  O2_18 
ROOT
HETATM    1  C2  UNL     1      -8.140 -26.822  -2.124  1.00  0.00     0.101 A 
HETATM    2  C3  UNL     1      -8.985 -27.616  -1.379  1.00  0.00     0.040 A 
HETATM    3  C4  UNL     1      -8.881 -27.662   0.013  1.00  0.00     0.012 A 
HETATM    4  C5  UNL     1      -7.933 -26.920   0.686  1.00  0.00    -0.029 A 
HETATM    5  C10 UNL     1      -7.094 -26.131  -0.073  1.00  0.00     0.048 A 
HETATM    6  C11 UNL     1      -7.194 -26.081  -1.459  1.00  0.00     0.102 A 
ENDROOT
BRANCH   4   7
HETATM    7  C6  UNL     1      -7.859 -27.001   2.163  1.00  0.00     0.284 C 
BRANCH   7   8
HETATM    8  N1  UNL     1      -8.403 -25.861   2.826  1.00  0.00    -0.013 N 
HETATM    9  C7  UNL     1      -7.570 -24.680   2.732  1.00  0.00     0.282 C 
HETATM   10  C8  UNL     1      -9.673 -25.524   2.185  1.00  0.00     0.282 C 
HETATM   11  C9  UNL     1      -8.691 -26.083   4.202  1.00  0.00     0.286 C 
HETATM   12  N2  UNL     1      -9.859 -26.487   4.555  1.00  0.00    -0.367 N 
HETATM   13  N3  UNL     1      -7.721 -25.873   5.219  1.00  0.00    -0.057 NA
ATOM     14  H22 UNL     1     -10.555 -26.637   3.824  1.00  0.00     0.158 HD
ATOM     15  H21 UNL     1     -10.066 -26.646   5.541  1.00  0.00     0.158 HD
ENDBRANCH   7   8
ENDBRANCH   4   7
BRANCH   6  16
HETATM   16  O2  UNL     1      -6.330 -25.274  -2.183  1.00  0.00    -0.353 OA
HETATM   17  C12 UNL     1      -5.007 -25.704  -2.440  1.00  0.00     0.210 C 
ENDBRANCH   6  16
BRANCH   1  18
HETATM   18  O1  UNL     1      -8.246 -26.778  -3.528  1.00  0.00    -0.353 OA
HETATM   19  C1  UNL     1      -7.675 -27.831  -4.298  1.00  0.00     0.210 C 
ENDBRANCH   1  18
TORSDOF 4
ENDMDL
MODEL 3
REMARK VINA RESULT: -6.764136542      1.631      3.142
REMARK  4 active torsions:
REMARK  status: ('A' for Active; 'I' for Inactive)
REMARK    1  A    between atoms: O1_2  and  C2_3 
REMARK    2  A    between atoms: C5_6  and  C6_7 
REMARK    3  A    between atoms: C6_7  and  N1_8 
REMARK       I    between atoms: N1_8  and  C9_11 
REMARK    4  A    between atoms: C11_17  and  O2_18 
ROOT
HETATM    1  C2  UNL     1      -7.899 -25.789  -0.716  1.00  0.00     0.101 A 
HETATM    2  C3  UNL     1      -7.035 -25.734   0.357  1.00  0.00     0.040 A 
HETATM    3  C4  UNL     1      -7.311 -26.433   1.534  1.00  0.00     0.012 A 
HETATM    4  C5  UNL     1      -8.451 -27.198   1.663  1.00  0.00    -0.029 A 
HETATM    5  C10 UNL     1      -9.306 -27.244   0.581  1.00  0.00     0.048 A 
HETATM    6  C11 UNL     1      -9.036 -26.550  -0.593  1.00  0.00     0.102 A 
ENDROOT
BRANCH   4   7
HETATM    7  C6  UNL     1      -8.702 -27.922   2.930  1.00  0.00     0.284 C 
BRANCH   7   8
HETATM    8  N1  UNL     1      -9.378 -27.140   3.912  1.00  0.00    -0.013 N 
HETATM    9  C7  UNL     1      -9.909 -25.894   3.400  1.00  0.00     0.282 C 
HETATM   10  C8  UNL     1     -10.523 -27.910   4.397  1.00  0.00     0.282 C 
HETATM   11  C9  UNL     1      -8.582 -26.840   5.052  1.00  0.00     0.286 C 
HETATM   12  N2  UNL     1      -8.604 -27.620   6.074  1.00  0.00    -0.367 N 
HETATM   13  N3  UNL     1      -7.746 -25.692   5.107  1.00  0.00    -0.057 NA
ATOM     14  H22 UNL     1      -9.204 -28.444   6.034  1.00  0.00     0.158 HD
ATOM     15  H21 UNL     1      -8.033 -27.405   6.891  1.00  0.00     0.158 HD
ENDBRANCH   7   8
ENDBRANCH   4   7
BRANCH   6  16
HETATM   16  O2  UNL     1      -9.923 -26.624  -1.656  1.00  0.00    -0.353 OA
HETATM   17  C12 UNL     1     -10.673 -27.803  -1.872  1.00  0.00     0.210 C 
ENDBRANCH   6  16
BRANCH   1  18
HETATM   18  O1  UNL     1      -7.619 -25.083  -1.903  1.00  0.00    -0.353 OA
HETATM   19  C1  UNL     1      -6.600 -25.568  -2.771  1.00  0.00     0.210 C 
ENDBRANCH   1  18
TORSDOF 4
ENDMDL
MODEL 4
REMARK VINA RESULT: -6.715919907      1.236      2.620
REMARK  4 active torsions:
REMARK  status: ('A' for Active; 'I' for Inactive)
REMARK    1  A    between atoms: O1_2  and  C2_3 
REMARK    2  A    between atoms: C5_6  and  C6_7 
REMARK    3  A    between atoms: C6_7  and  N1_8 
REMARK       I    between atoms: N1_8  and  C9_11 
REMARK    4  A    between atoms: C11_17  and  O2_18 
ROOT
HETATM    1  C2  UNL     1      -7.483 -26.274  -2.004  1.00  0.00     0.101 A 
HETATM    2  C3  UNL     1      -6.531 -25.816  -1.118  1.00  0.00     0.040 A 
HETATM    3  C4  UNL     1      -6.663 -26.046   0.253  1.00  0.00     0.012 A 
HETATM    4  C5  UNL     1      -7.743 -26.733   0.765  1.00  0.00    -0.029 A 
HETATM    5  C10 UNL     1      -8.687 -27.185  -0.134  1.00  0.00     0.048 A 
HETATM    6  C11 UNL     1      -8.561 -26.960  -1.500  1.00  0.00     0.102 A 
ENDROOT
BRANCH   4   7
HETATM    7  C6  UNL     1      -7.841 -26.953   2.226  1.00  0.00     0.284 C 
BRANCH   7   8
HETATM    8  N1  UNL     1      -8.428 -25.862   2.931  1.00  0.00    -0.013 N 
HETATM    9  C7  UNL     1      -7.675 -24.628   2.828  1.00  0.00     0.282 C 
HETATM   10  C8  UNL     1      -9.740 -25.595   2.344  1.00  0.00     0.282 C 
HETATM   11  C9  UNL     1      -8.649 -26.124   4.312  1.00  0.00     0.286 C 
HETATM   12  N2  UNL     1      -9.775 -26.607   4.700  1.00  0.00    -0.367 N 
HETATM   13  N3  UNL     1      -7.656 -25.871   5.296  1.00  0.00    -0.057 NA
ATOM     14  H22 UNL     1     -10.488 -26.788   3.994  1.00  0.00     0.158 HD
ATOM     15  H21 UNL     1      -9.934 -26.795   5.691  1.00  0.00     0.158 HD
ENDBRANCH   7   8
ENDBRANCH   4   7
BRANCH   6  16
HETATM   16  O2  UNL     1      -9.533 -27.431  -2.369  1.00  0.00    -0.353 OA
HETATM   17  C12 UNL     1     -10.794 -27.832  -1.870  1.00  0.00     0.210 C 
ENDBRANCH   6  16
BRANCH   1  18
HETATM   18  O1  UNL     1      -7.349 -26.040  -3.388  1.00  0.00    -0.353 OA
HETATM   19  C1  UNL     1      -6.398 -26.801  -4.127  1.00  0.00     0.210 C 
ENDBRANCH   1  18
TORSDOF 4
ENDMDL
MODEL 5
REMARK VINA RESULT: -6.581688291      0.710      1.271
REMARK  4 active torsions:
REMARK  status: ('A' for Active; 'I' for Inactive)
REMARK    1  A    between atoms: O1_2  and  C2_3 
REMARK    2  A    between atoms: C5_6  and  C6_7 
REMARK    3  A    between atoms: C6_7  and  N1_8 
REMARK       I    between atoms: N1_8  and  C9_11 
REMARK    4  A    between atoms: C11_17  and  O2_18 
ROOT
HETATM    1  C2  UNL     1      -8.502 -26.775  -2.462  1.00  0.00     0.101 A 
HETATM    2  C3  UNL     1      -9.587 -27.362  -1.846  1.00  0.00     0.040 A 
HETATM    3  C4  UNL     1      -9.960 -26.992  -0.552  1.00  0.00     0.012 A 
HETATM    4  C5  UNL     1      -9.259 -26.035   0.151  1.00  0.00    -0.029 A 
HETATM    5  C10 UNL     1      -8.176 -25.457  -0.478  1.00  0.00     0.048 A 
HETATM    6  C11 UNL     1      -7.800 -25.821  -1.767  1.00  0.00     0.102 A 
ENDROOT
BRANCH   4   7
HETATM    7  C6  UNL     1      -9.691 -25.675   1.521  1.00  0.00     0.284 C 
BRANCH   7   8
HETATM    8  N1  UNL     1      -8.939 -26.320   2.546  1.00  0.00    -0.013 N 
HETATM    9  C7  UNL     1      -9.755 -27.021   3.516  1.00  0.00     0.282 C 
HETATM   10  C8  UNL     1      -8.086 -27.328   1.918  1.00  0.00     0.282 C 
HETATM   11  C9  UNL     1      -8.072 -25.444   3.257  1.00  0.00     0.286 C 
HETATM   12  N2  UNL     1      -6.858 -25.285   2.865  1.00  0.00    -0.367 N 
HETATM   13  N3  UNL     1      -8.503 -24.724   4.405  1.00  0.00    -0.057 NA
ATOM     14  H22 UNL     1      -6.549 -25.802   2.042  1.00  0.00     0.158 HD
ATOM     15  H21 UNL     1      -6.237 -24.657   3.375  1.00  0.00     0.158 HD
ENDBRANCH   7   8
ENDBRANCH   4   7
BRANCH   6  16
HETATM   16  O2  UNL     1      -6.704 -25.215  -2.362  1.00  0.00    -0.353 OA
HETATM   17  C12 UNL     1      -5.404 -25.723  -2.135  1.00  0.00     0.210 C 
ENDBRANCH   6  16
BRANCH   1  18
HETATM   18  O1  UNL     1      -8.126 -27.150  -3.768  1.00  0.00    -0.353 OA
HETATM   19  C1  UNL     1      -7.422 -28.372  -3.960  1.00  0.00     0.210 C 
ENDBRANCH   1  18
TORSDOF 4
ENDMDL
