MODEL 1
REMARK VINA RESULT: -7.729138977      0.000      0.000
REMARK  7 active torsions:
REMARK  status: ('A' for Active; 'I' for Inactive)
REMARK    1  A    between atoms: O1_2  and  C2_3 
REMARK    2  A    between atoms: C2_3  and  N1_4 
REMARK    3  A    between atoms: C2_3  and  N2_8 
REMARK    4  A    between atoms: N2_8  and  C3_10 
REMARK    5  A    between atoms: C4_13  and  C5_14 
REMARK    6  A    between atoms: C5_14  and  C6_15 
REMARK    7  A    between atoms: C6_15  and  C7_16 
ROOT
HETATM    1  C3  UNL     1      -9.992 -25.696   3.021  1.00  0.00     0.697 A 
HETATM    2  N3  UNL     1      -9.912 -26.417   1.878  1.00  0.00    -0.178 N 
ATOM      3  H3  UNL     1      -9.857 -27.434   1.820  1.00  0.00     0.185 HD
HETATM    4  C4  UNL     1      -9.916 -25.575   0.833  1.00  0.00     0.112 A 
HETATM    5  N4  UNL     1      -9.999 -24.329   1.360  1.00  0.00    -0.274 N 
ATOM      6  H4  UNL     1     -10.022 -23.461   0.824  1.00  0.00     0.189 HD
HETATM    7  N5  UNL     1     -10.045 -24.417   2.680  1.00  0.00    -0.131 N 
ATOM      8  H5  UNL     1     -10.110 -23.631   3.327  1.00  0.00     0.205 HD
ENDROOT
BRANCH   1   9
HETATM    9  N2  UNL     1     -10.011 -26.199   4.192  1.00  0.00    -0.173 N 
ATOM     10  H2  UNL     1     -10.333 -25.615   4.963  1.00  0.00     0.182 HD
BRANCH   9  11
HETATM   11  C2  UNL     1      -9.602 -27.548   4.485  1.00  0.00     0.440 C 
BRANCH  11  12
HETATM   12  O1  UNL     1     -10.681 -28.384   4.155  1.00  0.00    -0.349 OA
HETATM   13  C1  UNL     1     -10.241 -29.604   3.659  1.00  0.00     0.206 C 
ENDBRANCH  11  12
BRANCH  11  14
HETATM   14  N1  UNL     1      -9.295 -27.635   5.903  1.00  0.00    -0.034 N 
ATOM     15  H13 UNL     1     -10.030 -28.117   6.419  1.00  0.00     0.279 HD
ATOM     16  H12 UNL     1      -8.529 -28.285   6.083  1.00  0.00     0.279 HD
ATOM     17  H11 UNL     1      -9.105 -26.712   6.290  1.00  0.00     0.279 HD
ENDBRANCH  11  14
ENDBRANCH   9  11
ENDBRANCH   1   9
BRANCH   4  18
HETATM   18  C5  UNL     1      -9.842 -25.920  -0.626  1.00  0.00     0.083 C 
BRANCH  18  19
HETATM   19  C6  UNL     1      -8.790 -26.988  -0.764  1.00  0.00     0.046 C 
BRANCH  19  20
HETATM   20  C7  UNL     1      -7.557 -26.502  -1.400  1.00  0.00    -0.058 A 
HETATM   21  C8  UNL     1      -7.583 -26.285  -2.774  1.00  0.00     0.007 A 
HETATM   22  C9  UNL     1      -6.429 -25.823  -3.410  1.00  0.00     0.001 A 
HETATM   23  C10 UNL     1      -5.280 -25.586  -2.687  1.00  0.00     0.000 A 
HETATM   24  C11 UNL     1      -5.285 -25.809  -1.332  1.00  0.00     0.001 A 
HETATM   25  C12 UNL     1      -6.428 -26.270  -0.674  1.00  0.00     0.007 A 
ENDBRANCH  19  20
ENDBRANCH  18  19
ENDBRANCH   4  18
TORSDOF 7
ENDMDL
MODEL 2
REMARK VINA RESULT: -7.649968097      1.186      1.273
REMARK  7 active torsions:
REMARK  status: ('A' for Active; 'I' for Inactive)
REMARK    1  A    between atoms: O1_2  and  C2_3 
REMARK    2  A    between atoms: C2_3  and  N1_4 
REMARK    3  A    between atoms: C2_3  and  N2_8 
REMARK    4  A    between atoms: N2_8  and  C3_10 
REMARK    5  A    between atoms: C4_13  and  C5_14 
REMARK    6  A    between atoms: C5_14  and  C6_15 
REMARK    7  A    between atoms: C6_15  and  C7_16 
ROOT
HETATM    1  C3  UNL     1      -9.652 -25.350   2.575  1.00  0.00     0.697 A 
HETATM    2  N3  UNL     1      -9.540 -26.360   1.679  1.00  0.00    -0.178 N 
ATOM      3  H3  UNL     1      -9.218 -27.305   1.887  1.00  0.00     0.185 HD
HETATM    4  C4  UNL     1      -9.922 -25.913   0.473  1.00  0.00     0.112 A 
HETATM    5  N4  UNL     1     -10.266 -24.614   0.649  1.00  0.00    -0.274 N 
ATOM      6  H4  UNL     1     -10.602 -23.987  -0.082  1.00  0.00     0.189 HD
HETATM    7  N5  UNL     1     -10.099 -24.289   1.921  1.00  0.00    -0.131 N 
ATOM      8  H5  UNL     1     -10.285 -23.373   2.330  1.00  0.00     0.205 HD
ENDROOT
BRANCH   1   9
HETATM    9  N2  UNL     1      -9.366 -25.450   3.813  1.00  0.00    -0.173 N 
ATOM     10  H2  UNL     1      -9.883 -24.871   4.475  1.00  0.00     0.182 HD
BRANCH   9  11
HETATM   11  C2  UNL     1      -8.354 -26.334   4.328  1.00  0.00     0.440 C 
BRANCH  11  12
HETATM   12  O1  UNL     1      -8.907 -26.985   5.443  1.00  0.00    -0.349 OA
HETATM   13  C1  UNL     1      -9.707 -28.053   5.059  1.00  0.00     0.206 C 
ENDBRANCH  11  12
BRANCH  11  14
HETATM   14  N1  UNL     1      -7.202 -25.536   4.715  1.00  0.00    -0.034 N 
ATOM     15  H13 UNL     1      -7.026 -24.782   4.051  1.00  0.00     0.279 HD
ATOM     16  H12 UNL     1      -7.396 -24.971   5.541  1.00  0.00     0.279 HD
ATOM     17  H11 UNL     1      -6.380 -26.125   4.844  1.00  0.00     0.279 HD
ENDBRANCH  11  14
ENDBRANCH   9  11
ENDBRANCH   1   9
BRANCH   4  18
HETATM   18  C5  UNL     1      -9.964 -26.677  -0.819  1.00  0.00     0.083 C 
BRANCH  18  19
HETATM   19  C6  UNL     1      -8.718 -27.521  -0.862  1.00  0.00     0.046 C 
BRANCH  19  20
HETATM   20  C7  UNL     1      -7.577 -26.831  -1.482  1.00  0.00    -0.058 A 
HETATM   21  C8  UNL     1      -7.683 -26.492  -2.827  1.00  0.00     0.007 A 
HETATM   22  C9  UNL     1      -6.619 -25.837  -3.448  1.00  0.00     0.001 A 
HETATM   23  C10 UNL     1      -5.478 -25.530  -2.738  1.00  0.00     0.000 A 
HETATM   24  C11 UNL     1      -5.403 -25.878  -1.412  1.00  0.00     0.001 A 
HETATM   25  C12 UNL     1      -6.455 -26.533  -0.770  1.00  0.00     0.007 A 
ENDBRANCH  19  20
ENDBRANCH  18  19
ENDBRANCH   4  18
TORSDOF 7
ENDMDL
MODEL 3
REMARK VINA RESULT: -7.646326324      1.577      2.156
REMARK  7 active torsions:
REMARK  status: ('A' for Active; 'I' for Inactive)
REMARK    1  A    between atoms: O1_2  and  C2_3 
REMARK    2  A    between atoms: C2_3  and  N1_4 
REMARK    3  A    between atoms: C2_3  and  N2_8 
REMARK    4  A    between atoms: N2_8  and  C3_10 
REMARK    5  A    between atoms: C4_13  and  C5_14 
REMARK    6  A    between atoms: C5_14  and  C6_15 
REMARK    7  A    between atoms: C6_15  and  C7_16 
ROOT
HETATM    1  C3  UNL     1      -8.586 -26.149   4.385  1.00  0.00     0.697 A 
HETATM    2  N3  UNL     1      -9.086 -25.746   3.192  1.00  0.00    -0.178 N 
ATOM      3  H3  UNL     1     -10.033 -25.919   2.856  1.00  0.00     0.185 HD
HETATM    4  C4  UNL     1      -8.130 -25.081   2.524  1.00  0.00     0.112 A 
HETATM    5  N4  UNL     1      -7.041 -25.087   3.330  1.00  0.00    -0.274 N 
ATOM      6  H4  UNL     1      -6.140 -24.661   3.109  1.00  0.00     0.189 HD
HETATM    7  N5  UNL     1      -7.330 -25.733   4.448  1.00  0.00    -0.131 N 
ATOM      8  H5  UNL     1      -6.691 -25.886   5.229  1.00  0.00     0.205 HD
ENDROOT
BRANCH   1   9
HETATM    9  N2  UNL     1      -9.243 -26.805   5.257  1.00  0.00    -0.173 N 
ATOM     10  H2  UNL     1      -9.473 -26.343   6.137  1.00  0.00     0.182 HD
BRANCH   9  11
HETATM   11  C2  UNL     1      -9.677 -28.165   5.069  1.00  0.00     0.440 C 
BRANCH  11  12
HETATM   12  O1  UNL     1      -9.283 -28.546   3.776  1.00  0.00    -0.349 OA
HETATM   13  C1  UNL     1     -10.278 -29.274   3.139  1.00  0.00     0.206 C 
ENDBRANCH  11  12
BRANCH  11  14
HETATM   14  N1  UNL     1     -11.124 -28.206   5.201  1.00  0.00    -0.034 N 
ATOM     15  H13 UNL     1     -11.423 -28.931   5.853  1.00  0.00     0.279 HD
ATOM     16  H12 UNL     1     -11.479 -27.392   5.702  1.00  0.00     0.279 HD
ATOM     17  H11 UNL     1     -11.569 -28.312   4.290  1.00  0.00     0.279 HD
ENDBRANCH  11  14
ENDBRANCH   9  11
ENDBRANCH   1   9
BRANCH   4  18
HETATM   18  C5  UNL     1      -8.227 -24.455   1.163  1.00  0.00     0.083 C 
BRANCH  18  19
HETATM   19  C6  UNL     1      -8.419 -25.580   0.183  1.00  0.00     0.046 C 
BRANCH  19  20
HETATM   20  C7  UNL     1      -7.381 -25.619  -0.859  1.00  0.00    -0.058 A 
HETATM   21  C8  UNL     1      -6.068 -25.830  -0.452  1.00  0.00     0.007 A 
HETATM   22  C9  UNL     1      -5.057 -25.872  -1.414  1.00  0.00     0.001 A 
HETATM   23  C10 UNL     1      -5.358 -25.708  -2.749  1.00  0.00     0.000 A 
HETATM   24  C11 UNL     1      -6.663 -25.501  -3.120  1.00  0.00     0.001 A 
HETATM   25  C12 UNL     1      -7.690 -25.455  -2.175  1.00  0.00     0.007 A 
ENDBRANCH  19  20
ENDBRANCH  18  19
ENDBRANCH   4  18
TORSDOF 7
ENDMDL
MODEL 4
REMARK VINA RESULT: -7.641192102      1.576      1.849
REMARK  7 active torsions:
REMARK  status: ('A' for Active; 'I' for Inactive)
REMARK    1  A    between atoms: O1_2  and  C2_3 
REMARK    2  A    between atoms: C2_3  and  N1_4 
REMARK    3  A    between atoms: C2_3  and  N2_8 
REMARK    4  A    between atoms: N2_8  and  C3_10 
REMARK    5  A    between atoms: C4_13  and  C5_14 
REMARK    6  A    between atoms: C5_14  and  C6_15 
REMARK    7  A    between atoms: C6_15  and  C7_16 
ROOT
HETATM    1  C3  UNL     1      -8.576 -26.125   4.378  1.00  0.00     0.697 A 
HETATM    2  N3  UNL     1      -9.098 -25.720   3.196  1.00  0.00    -0.178 N 
ATOM      3  H3  UNL     1     -10.052 -25.893   2.878  1.00  0.00     0.185 HD
HETATM    4  C4  UNL     1      -8.156 -25.053   2.510  1.00  0.00     0.112 A 
HETATM    5  N4  UNL     1      -7.051 -25.061   3.295  1.00  0.00    -0.274 N 
ATOM      6  H4  UNL     1      -6.156 -24.634   3.057  1.00  0.00     0.189 HD
HETATM    7  N5  UNL     1      -7.318 -25.709   4.417  1.00  0.00    -0.131 N 
ATOM      8  H5  UNL     1      -6.665 -25.863   5.185  1.00  0.00     0.205 HD
ENDROOT
BRANCH   1   9
HETATM    9  N2  UNL     1      -9.215 -26.784   5.261  1.00  0.00    -0.173 N 
ATOM     10  H2  UNL     1      -9.438 -26.320   6.141  1.00  0.00     0.182 HD
BRANCH   9  11
HETATM   11  C2  UNL     1      -9.638 -28.149   5.085  1.00  0.00     0.440 C 
BRANCH  11  12
HETATM   12  O1  UNL     1      -9.235 -28.540   3.799  1.00  0.00    -0.349 OA
HETATM   13  C1  UNL     1     -10.232 -29.256   3.152  1.00  0.00     0.206 C 
ENDBRANCH  11  12
BRANCH  11  14
HETATM   14  N1  UNL     1     -11.085 -28.198   5.210  1.00  0.00    -0.034 N 
ATOM     15  H13 UNL     1     -11.478 -29.011   4.734  1.00  0.00     0.279 HD
ATOM     16  H12 UNL     1     -11.374 -28.424   6.161  1.00  0.00     0.279 HD
ATOM     17  H11 UNL     1     -11.508 -27.330   4.883  1.00  0.00     0.279 HD
ENDBRANCH  11  14
ENDBRANCH   9  11
ENDBRANCH   1   9
BRANCH   4  18
HETATM   18  C5  UNL     1      -8.280 -24.424   1.153  1.00  0.00     0.083 C 
BRANCH  18  19
HETATM   19  C6  UNL     1      -8.441 -25.551   0.168  1.00  0.00     0.046 C 
BRANCH  19  20
HETATM   20  C7  UNL     1      -7.350 -25.615  -0.816  1.00  0.00    -0.058 A 
HETATM   21  C8  UNL     1      -7.681 -25.443  -2.156  1.00  0.00     0.007 A 
HETATM   22  C9  UNL     1      -6.670 -25.498  -3.117  1.00  0.00     0.001 A 
HETATM   23  C10 UNL     1      -5.362 -25.719  -2.743  1.00  0.00     0.000 A 
HETATM   24  C11 UNL     1      -5.067 -25.885  -1.412  1.00  0.00     0.001 A 
HETATM   25  C12 UNL     1      -6.061 -25.833  -0.434  1.00  0.00     0.007 A 
ENDBRANCH  19  20
ENDBRANCH  18  19
ENDBRANCH   4  18
TORSDOF 7
ENDMDL
MODEL 5
REMARK VINA RESULT: -7.637966736      1.180      1.694
REMARK  7 active torsions:
REMARK  status: ('A' for Active; 'I' for Inactive)
REMARK    1  A    between atoms: O1_2  and  C2_3 
REMARK    2  A    between atoms: C2_3  and  N1_4 
REMARK    3  A    between atoms: C2_3  and  N2_8 
REMARK    4  A    between atoms: N2_8  and  C3_10 
REMARK    5  A    between atoms: C4_13  and  C5_14 
REMARK    6  A    between atoms: C5_14  and  C6_15 
REMARK    7  A    between atoms: C6_15  and  C7_16 
ROOT
HETATM    1  C3  UNL     1      -9.683 -25.352   2.595  1.00  0.00     0.697 A 
HETATM    2  N3  UNL     1      -9.541 -26.347   1.686  1.00  0.00    -0.178 N 
ATOM      3  H3  UNL     1      -9.194 -27.286   1.883  1.00  0.00     0.185 HD
HETATM    4  C4  UNL     1      -9.931 -25.895   0.484  1.00  0.00     0.112 A 
HETATM    5  N4  UNL     1     -10.311 -24.609   0.676  1.00  0.00    -0.274 N 
ATOM      6  H4  UNL     1     -10.661 -23.982  -0.049  1.00  0.00     0.189 HD
HETATM    7  N5  UNL     1     -10.157 -24.295   1.952  1.00  0.00    -0.131 N 
ATOM      8  H5  UNL     1     -10.369 -23.390   2.372  1.00  0.00     0.205 HD
ENDROOT
BRANCH   1   9
HETATM    9  N2  UNL     1      -9.399 -25.459   3.832  1.00  0.00    -0.173 N 
ATOM     10  H2  UNL     1      -9.932 -24.902   4.499  1.00  0.00     0.182 HD
BRANCH   9  11
HETATM   11  C2  UNL     1      -8.366 -26.324   4.340  1.00  0.00     0.440 C 
BRANCH  11  12
HETATM   12  O1  UNL     1      -8.899 -26.987   5.456  1.00  0.00    -0.349 OA
HETATM   13  C1  UNL     1      -9.695 -28.059   5.075  1.00  0.00     0.206 C 
ENDBRANCH  11  12
BRANCH  11  14
HETATM   14  N1  UNL     1      -7.228 -25.504   4.720  1.00  0.00    -0.034 N 
ATOM     15  H13 UNL     1      -6.851 -25.780   5.627  1.00  0.00     0.279 HD
ATOM     16  H12 UNL     1      -6.410 -25.704   4.145  1.00  0.00     0.279 HD
ATOM     17  H11 UNL     1      -7.472 -24.514   4.699  1.00  0.00     0.279 HD
ENDBRANCH  11  14
ENDBRANCH   9  11
ENDBRANCH   1   9
BRANCH   4  18
HETATM   18  C5  UNL     1      -9.948 -26.643  -0.817  1.00  0.00     0.083 C 
BRANCH  18  19
HETATM   19  C6  UNL     1      -8.691 -27.470  -0.856  1.00  0.00     0.046 C 
BRANCH  19  20
HETATM   20  C7  UNL     1      -7.578 -26.793  -1.540  1.00  0.00    -0.058 A 
HETATM   21  C8  UNL     1      -6.442 -26.505  -0.791  1.00  0.00     0.007 A 
HETATM   22  C9  UNL     1      -5.367 -25.863  -1.409  1.00  0.00     0.001 A 
HETATM   23  C10 UNL     1      -5.431 -25.519  -2.742  1.00  0.00     0.000 A 
HETATM   24  C11 UNL     1      -6.567 -25.817  -3.455  1.00  0.00     0.001 A 
HETATM   25  C12 UNL     1      -7.654 -26.459  -2.858  1.00  0.00     0.007 A 
ENDBRANCH  19  20
ENDBRANCH  18  19
ENDBRANCH   4  18
TORSDOF 7
ENDMDL
