MODEL 1
REMARK VINA RESULT: -7.408322360      0.000      0.000
REMARK  5 active torsions:
REMARK  status: ('A' for Active; 'I' for Inactive)
REMARK    1  A    between atoms: N1_2  and  C2_5 
REMARK    2  A    between atoms: C2_5  and  C3_6 
REMARK    3  A    between atoms: C3_6  and  C4_7 
REMARK    4  A    between atoms: C7_10  and  C8_11 
REMARK    5  A    between atoms: C8_11  and  N2_12 
ROOT
HETATM    1  C4  UNL     1      -9.258 -25.722   2.472  1.00  0.00    -0.057 A 
HETATM    2  C5  UNL     1     -10.093 -25.452   1.418  1.00  0.00     0.007 A 
HETATM    3  C6  UNL     1      -9.589 -25.307   0.139  1.00  0.00     0.009 A 
HETATM    4  C7  UNL     1      -8.241 -25.426  -0.142  1.00  0.00    -0.039 A 
HETATM    5  C13 UNL     1      -7.426 -25.696   0.931  1.00  0.00     0.009 A 
HETATM    6  C14 UNL     1      -7.915 -25.844   2.226  1.00  0.00     0.007 A 
ENDROOT
BRANCH   4   7
HETATM    7  C8  UNL     1      -7.687 -25.268  -1.501  1.00  0.00     0.186 C 
BRANCH   7   8
HETATM    8  N2  UNL     1      -7.020 -26.432  -2.029  1.00  0.00    -0.182 N 
HETATM    9  C9  UNL     1      -7.572 -27.520  -2.589  1.00  0.00     0.041 A 
HETATM   10  C10 UNL     1      -9.036 -27.759  -2.782  1.00  0.00     0.070 C 
HETATM   11  C11 UNL     1      -6.585 -28.431  -2.973  1.00  0.00     0.131 A 
HETATM   12  N3  UNL     1      -5.421 -27.864  -2.628  1.00  0.00    -0.200 N 
HETATM   13  C12 UNL     1      -5.678 -26.669  -2.064  1.00  0.00     0.678 A 
ATOM     14  H3  UNL     1      -4.496 -28.270  -2.770  1.00  0.00     0.183 HD
HETATM   15  N4  UNL     1      -4.807 -25.836  -1.599  1.00  0.00    -0.234 N 
ATOM     16  H42 UNL     1      -5.001 -24.930  -1.172  1.00  0.00     0.174 HD
ATOM     17  H41 UNL     1      -3.803 -26.013  -1.626  1.00  0.00     0.174 HD
ENDBRANCH   7   8
ENDBRANCH   4   7
BRANCH   1  18
HETATM   18  C3  UNL     1      -9.822 -25.877   3.855  1.00  0.00     0.066 C 
BRANCH  18  19
HETATM   19  C2  UNL     1      -8.967 -26.811   4.676  1.00  0.00     0.236 C 
BRANCH  19  20
HETATM   20  N1  UNL     1      -9.824 -27.749   5.365  1.00  0.00    -0.079 N 
HETATM   21  C1  UNL     1     -10.673 -28.444   4.420  1.00  0.00     0.267 C 
ATOM     22  H12 UNL     1     -10.366 -27.297   6.102  1.00  0.00     0.276 HD
ATOM     23  H11 UNL     1      -9.290 -28.397   5.944  1.00  0.00     0.276 HD
ENDBRANCH  19  20
ENDBRANCH  18  19
ENDBRANCH   1  18
TORSDOF 5
ENDMDL
MODEL 2
REMARK VINA RESULT: -7.371533268      0.076      1.107
REMARK  5 active torsions:
REMARK  status: ('A' for Active; 'I' for Inactive)
REMARK    1  A    between atoms: N1_2  and  C2_5 
REMARK    2  A    between atoms: C2_5  and  C3_6 
REMARK    3  A    between atoms: C3_6  and  C4_7 
REMARK    4  A    between atoms: C7_10  and  C8_11 
REMARK    5  A    between atoms: C8_11  and  N2_12 
ROOT
HETATM    1  C4  UNL     1      -9.259 -25.695   2.505  1.00  0.00    -0.057 A 
HETATM    2  C5  UNL     1      -7.929 -25.908   2.244  1.00  0.00     0.007 A 
HETATM    3  C6  UNL     1      -7.434 -25.787   0.960  1.00  0.00     0.009 A 
HETATM    4  C7  UNL     1      -8.238 -25.449  -0.113  1.00  0.00    -0.039 A 
HETATM    5  C13 UNL     1      -9.565 -25.241   0.174  1.00  0.00     0.009 A 
HETATM    6  C14 UNL     1     -10.082 -25.359   1.461  1.00  0.00     0.007 A 
ENDROOT
BRANCH   4   7
HETATM    7  C8  UNL     1      -7.725 -25.322  -1.491  1.00  0.00     0.186 C 
BRANCH   7   8
HETATM    8  N2  UNL     1      -7.033 -26.482  -1.995  1.00  0.00    -0.182 N 
HETATM    9  C9  UNL     1      -7.560 -27.597  -2.524  1.00  0.00     0.041 A 
HETATM   10  C10 UNL     1      -9.019 -27.878  -2.702  1.00  0.00     0.070 C 
HETATM   11  C11 UNL     1      -6.552 -28.493  -2.892  1.00  0.00     0.131 A 
HETATM   12  N3  UNL     1      -5.402 -27.889  -2.569  1.00  0.00    -0.200 N 
HETATM   13  C12 UNL     1      -5.685 -26.686  -2.033  1.00  0.00     0.678 A 
ATOM     14  H3  UNL     1      -4.468 -28.275  -2.706  1.00  0.00     0.183 HD
HETATM   15  N4  UNL     1      -4.832 -25.821  -1.594  1.00  0.00    -0.234 N 
ATOM     16  H42 UNL     1      -5.047 -24.910  -1.188  1.00  0.00     0.174 HD
ATOM     17  H41 UNL     1      -3.824 -25.973  -1.623  1.00  0.00     0.174 HD
ENDBRANCH   7   8
ENDBRANCH   4   7
BRANCH   1  18
HETATM   18  C3  UNL     1      -9.780 -25.830   3.906  1.00  0.00     0.066 C 
BRANCH  18  19
HETATM   19  C2  UNL     1      -8.957 -26.827   4.686  1.00  0.00     0.236 C 
BRANCH  19  20
HETATM   20  N1  UNL     1      -9.846 -27.735   5.372  1.00  0.00    -0.079 N 
HETATM   21  C1  UNL     1     -10.726 -28.391   4.427  1.00  0.00     0.267 C 
ATOM     22  H12 UNL     1     -10.367 -27.269   6.115  1.00  0.00     0.276 HD
ATOM     23  H11 UNL     1      -9.335 -28.408   5.945  1.00  0.00     0.276 HD
ENDBRANCH  19  20
ENDBRANCH  18  19
ENDBRANCH   1  18
TORSDOF 5
ENDMDL
MODEL 3
REMARK VINA RESULT: -7.232079257      1.647      6.454
REMARK  5 active torsions:
REMARK  status: ('A' for Active; 'I' for Inactive)
REMARK    1  A    between atoms: N1_2  and  C2_5 
REMARK    2  A    between atoms: C2_5  and  C3_6 
REMARK    3  A    between atoms: C3_6  and  C4_7 
REMARK    4  A    between atoms: C7_10  and  C8_11 
REMARK    5  A    between atoms: C8_11  and  N2_12 
ROOT
HETATM    1  C4  UNL     1      -6.782 -25.750  -1.142  1.00  0.00    -0.057 A 
HETATM    2  C5  UNL     1      -6.475 -26.039   0.163  1.00  0.00     0.007 A 
HETATM    3  C6  UNL     1      -7.457 -26.037   1.136  1.00  0.00     0.009 A 
HETATM    4  C7  UNL     1      -8.779 -25.749   0.850  1.00  0.00    -0.039 A 
HETATM    5  C13 UNL     1      -9.060 -25.463  -0.463  1.00  0.00     0.009 A 
HETATM    6  C14 UNL     1      -8.085 -25.459  -1.457  1.00  0.00     0.007 A 
ENDROOT
BRANCH   4   7
HETATM    7  C8  UNL     1      -9.837 -25.736   1.879  1.00  0.00     0.186 C 
BRANCH   7   8
HETATM    8  N2  UNL     1      -9.585 -26.573   3.026  1.00  0.00    -0.182 N 
HETATM    9  C9  UNL     1      -9.761 -27.898   3.139  1.00  0.00     0.041 A 
HETATM   10  C10 UNL     1     -10.277 -28.809   2.069  1.00  0.00     0.070 C 
HETATM   11  C11 UNL     1      -9.403 -28.336   4.417  1.00  0.00     0.131 A 
HETATM   12  N3  UNL     1      -9.007 -27.238   5.073  1.00  0.00    -0.200 N 
HETATM   13  C12 UNL     1      -9.113 -26.182   4.244  1.00  0.00     0.678 A 
ATOM     14  H3  UNL     1      -8.679 -27.207   6.039  1.00  0.00     0.183 HD
HETATM   15  N4  UNL     1      -8.830 -24.953   4.525  1.00  0.00    -0.234 N 
ATOM     16  H42 UNL     1      -8.910 -24.153   3.897  1.00  0.00     0.174 HD
ATOM     17  H41 UNL     1      -8.477 -24.661   5.436  1.00  0.00     0.174 HD
ENDBRANCH   7   8
ENDBRANCH   4   7
BRANCH   1  18
HETATM   18  C3  UNL     1      -5.704 -25.757  -2.187  1.00  0.00     0.066 C 
BRANCH  18  19
HETATM   19  C2  UNL     1      -6.013 -26.771  -3.263  1.00  0.00     0.236 C 
BRANCH  19  20
HETATM   20  N1  UNL     1      -6.476 -26.076  -4.442  1.00  0.00    -0.079 N 
HETATM   21  C1  UNL     1      -7.650 -26.728  -4.984  1.00  0.00     0.267 C 
ATOM     22  H12 UNL     1      -5.739 -25.980  -5.140  1.00  0.00     0.276 HD
ATOM     23  H11 UNL     1      -6.642 -25.086  -4.259  1.00  0.00     0.276 HD
ENDBRANCH  19  20
ENDBRANCH  18  19
ENDBRANCH   1  18
TORSDOF 5
ENDMDL
MODEL 4
REMARK VINA RESULT: -7.208690745      2.106      6.506
REMARK  5 active torsions:
REMARK  status: ('A' for Active; 'I' for Inactive)
REMARK    1  A    between atoms: N1_2  and  C2_5 
REMARK    2  A    between atoms: C2_5  and  C3_6 
REMARK    3  A    between atoms: C3_6  and  C4_7 
REMARK    4  A    between atoms: C7_10  and  C8_11 
REMARK    5  A    between atoms: C8_11  and  N2_12 
ROOT
HETATM    1  C4  UNL     1      -8.855 -26.890  -1.650  1.00  0.00    -0.057 A 
HETATM    2  C5  UNL     1      -8.410 -25.662  -1.230  1.00  0.00     0.007 A 
HETATM    3  C6  UNL     1      -8.740 -25.185   0.025  1.00  0.00     0.009 A 
HETATM    4  C7  UNL     1      -9.522 -25.907   0.908  1.00  0.00    -0.039 A 
HETATM    5  C13 UNL     1      -9.955 -27.132   0.463  1.00  0.00     0.009 A 
HETATM    6  C14 UNL     1      -9.633 -27.629  -0.798  1.00  0.00     0.007 A 
ENDROOT
BRANCH   4   7
HETATM    7  C8  UNL     1      -9.888 -25.408   2.248  1.00  0.00     0.186 C 
BRANCH   7   8
HETATM    8  N2  UNL     1      -9.010 -25.818   3.314  1.00  0.00    -0.182 N 
HETATM    9  C9  UNL     1      -9.191 -26.808   4.203  1.00  0.00     0.041 A 
HETATM   10  C10 UNL     1     -10.381 -27.712   4.277  1.00  0.00     0.070 C 
HETATM   11  C11 UNL     1      -8.107 -26.886   5.082  1.00  0.00     0.131 A 
HETATM   12  N3  UNL     1      -7.266 -25.916   4.700  1.00  0.00    -0.200 N 
HETATM   13  C12 UNL     1      -7.802 -25.276   3.643  1.00  0.00     0.678 A 
ATOM     14  H3  UNL     1      -6.370 -25.699   5.136  1.00  0.00     0.183 HD
HETATM   15  N4  UNL     1      -7.285 -24.278   3.006  1.00  0.00    -0.234 N 
ATOM     16  H42 UNL     1      -7.691 -23.793   2.205  1.00  0.00     0.174 HD
ATOM     17  H41 UNL     1      -6.383 -23.873   3.252  1.00  0.00     0.174 HD
ENDBRANCH   7   8
ENDBRANCH   4   7
BRANCH   1  18
HETATM   18  C3  UNL     1      -8.487 -27.394  -3.016  1.00  0.00     0.066 C 
BRANCH  18  19
HETATM   19  C2  UNL     1      -7.204 -26.754  -3.490  1.00  0.00     0.236 C 
BRANCH  19  20
HETATM   20  N1  UNL     1      -7.436 -26.132  -4.774  1.00  0.00    -0.079 N 
HETATM   21  C1  UNL     1      -6.922 -26.966  -5.840  1.00  0.00     0.267 C 
ATOM     22  H12 UNL     1      -7.054 -25.187  -4.812  1.00  0.00     0.276 HD
ATOM     23  H11 UNL     1      -8.421 -25.903  -4.912  1.00  0.00     0.276 HD
ENDBRANCH  19  20
ENDBRANCH  18  19
ENDBRANCH   1  18
TORSDOF 5
ENDMDL
MODEL 5
REMARK VINA RESULT: -7.207944838      2.104      6.478
REMARK  5 active torsions:
REMARK  status: ('A' for Active; 'I' for Inactive)
REMARK    1  A    between atoms: N1_2  and  C2_5 
REMARK    2  A    between atoms: C2_5  and  C3_6 
REMARK    3  A    between atoms: C3_6  and  C4_7 
REMARK    4  A    between atoms: C7_10  and  C8_11 
REMARK    5  A    between atoms: C8_11  and  N2_12 
ROOT
HETATM    1  C4  UNL     1      -8.840 -26.882  -1.638  1.00  0.00    -0.057 A 
HETATM    2  C5  UNL     1      -9.619 -27.626  -0.788  1.00  0.00     0.007 A 
HETATM    3  C6  UNL     1      -9.956 -27.145   0.463  1.00  0.00     0.009 A 
HETATM    4  C7  UNL     1      -9.534 -25.909   0.918  1.00  0.00    -0.039 A 
HETATM    5  C13 UNL     1      -8.755 -25.184   0.049  1.00  0.00     0.009 A 
HETATM    6  C14 UNL     1      -8.405 -25.652  -1.215  1.00  0.00     0.007 A 
ENDROOT
BRANCH   4   7
HETATM    7  C8  UNL     1      -9.879 -25.385   2.254  1.00  0.00     0.186 C 
BRANCH   7   8
HETATM    8  N2  UNL     1      -9.007 -25.809   3.320  1.00  0.00    -0.182 N 
HETATM    9  C9  UNL     1      -9.196 -26.807   4.198  1.00  0.00     0.041 A 
HETATM   10  C10 UNL     1     -10.388 -27.709   4.257  1.00  0.00     0.070 C 
HETATM   11  C11 UNL     1      -8.116 -26.898   5.081  1.00  0.00     0.131 A 
HETATM   12  N3  UNL     1      -7.271 -25.927   4.713  1.00  0.00    -0.200 N 
HETATM   13  C12 UNL     1      -7.799 -25.274   3.660  1.00  0.00     0.678 A 
ATOM     14  H3  UNL     1      -6.376 -25.717   5.156  1.00  0.00     0.183 HD
HETATM   15  N4  UNL     1      -7.277 -24.271   3.037  1.00  0.00    -0.234 N 
ATOM     16  H42 UNL     1      -7.677 -23.777   2.239  1.00  0.00     0.174 HD
ATOM     17  H41 UNL     1      -6.374 -23.871   3.291  1.00  0.00     0.174 HD
ENDBRANCH   7   8
ENDBRANCH   4   7
BRANCH   1  18
HETATM   18  C3  UNL     1      -8.485 -27.419  -2.994  1.00  0.00     0.066 C 
BRANCH  18  19
HETATM   19  C2  UNL     1      -7.194 -26.809  -3.485  1.00  0.00     0.236 C 
BRANCH  19  20
HETATM   20  N1  UNL     1      -7.436 -26.153  -4.749  1.00  0.00    -0.079 N 
HETATM   21  C1  UNL     1      -6.897 -26.940  -5.839  1.00  0.00     0.267 C 
ATOM     22  H12 UNL     1      -7.076 -25.198  -4.756  1.00  0.00     0.276 HD
ATOM     23  H11 UNL     1      -8.425 -25.943  -4.885  1.00  0.00     0.276 HD
ENDBRANCH  19  20
ENDBRANCH  18  19
ENDBRANCH   1  18
TORSDOF 5
ENDMDL
