MODEL 1
REMARK VINA RESULT: -7.371639207      0.000      0.000
REMARK  7 active torsions:
REMARK  status: ('A' for Active; 'I' for Inactive)
REMARK    1  A    between atoms: N1_2  and  C2_5 
REMARK    2  A    between atoms: C2_5  and  C3_6 
REMARK    3  A    between atoms: C3_6  and  N2_7 
REMARK    4  A    between atoms: N2_7  and  C4_9 
REMARK    5  A    between atoms: C4_9  and  N3_11 
REMARK    6  A    between atoms: N3_11  and  N4_13 
REMARK    7  A    between atoms: C5_15  and  C6_16 
ROOT
HETATM    1  N3  UNL     1      -7.385 -25.798   3.194  1.00  0.00    -0.277 N 
ATOM      2  H3  UNL     1      -6.665 -26.185   3.804  1.00  0.00     0.189 HD
ENDROOT
BRANCH   1   3
HETATM    3  C4  UNL     1      -8.715 -25.666   3.671  1.00  0.00     0.186 C 
HETATM    4  S1  UNL     1      -9.819 -24.841   2.792  1.00  0.00    -0.040 SA
BRANCH   3   5
HETATM    5  N2  UNL     1      -9.144 -26.229   4.905  1.00  0.00    -0.364 N 
ATOM      6  H2  UNL     1      -9.399 -25.598   5.665  1.00  0.00     0.162 HD
BRANCH   5   7
HETATM    7  C3  UNL     1      -9.234 -27.643   5.133  1.00  0.00     0.149 C 
BRANCH   7   8
HETATM    8  C2  UNL     1     -10.328 -28.291   4.354  1.00  0.00     0.251 C 
BRANCH   8   9
HETATM    9  N1  UNL     1     -11.508 -28.408   5.185  1.00  0.00    -0.077 N 
HETATM   10  C1  UNL     1     -12.313 -29.543   4.840  1.00  0.00     0.267 C 
ATOM     11  H12 UNL     1     -12.058 -27.549   5.165  1.00  0.00     0.276 HD
ATOM     12  H11 UNL     1     -11.261 -28.420   6.175  1.00  0.00     0.276 HD
ENDBRANCH   8   9
ENDBRANCH   7   8
ENDBRANCH   5   7
ENDBRANCH   3   5
ENDBRANCH   1   3
BRANCH   1  13
HETATM   13  N4  UNL     1      -7.057 -25.405   1.907  1.00  0.00    -0.309 N 
HETATM   14  C5  UNL     1      -7.028 -26.267   0.954  1.00  0.00     0.119 C 
ATOM     15  H4  UNL     1      -6.837 -24.427   1.715  1.00  0.00     0.186 HD
BRANCH  14  16
HETATM   16  C6  UNL     1      -6.706 -26.001  -0.425  1.00  0.00    -0.013 A 
HETATM   17  C7  UNL     1      -5.364 -25.959  -0.833  1.00  0.00     0.013 A 
HETATM   18  C8  UNL     1      -5.006 -25.709  -2.136  1.00  0.00     0.001 A 
HETATM   19  C9  UNL     1      -5.992 -25.496  -3.066  1.00  0.00     0.001 A 
HETATM   20  C10 UNL     1      -7.311 -25.533  -2.686  1.00  0.00     0.007 A 
HETATM   21  C11 UNL     1      -7.669 -25.787  -1.355  1.00  0.00    -0.050 A 
HETATM   22  C12 UNL     1      -9.098 -25.811  -1.017  1.00  0.00     0.049 C 
ENDBRANCH  14  16
ENDBRANCH   1  13
TORSDOF 7
ENDMDL
MODEL 2
REMARK VINA RESULT: -7.157365869      0.940      1.189
REMARK  7 active torsions:
REMARK  status: ('A' for Active; 'I' for Inactive)
REMARK    1  A    between atoms: N1_2  and  C2_5 
REMARK    2  A    between atoms: C2_5  and  C3_6 
REMARK    3  A    between atoms: C3_6  and  N2_7 
REMARK    4  A    between atoms: N2_7  and  C4_9 
REMARK    5  A    between atoms: C4_9  and  N3_11 
REMARK    6  A    between atoms: N3_11  and  N4_13 
REMARK    7  A    between atoms: C5_15  and  C6_16 
ROOT
HETATM    1  N3  UNL     1      -7.376 -25.785   3.188  1.00  0.00    -0.277 N 
ATOM      2  H3  UNL     1      -6.656 -26.172   3.798  1.00  0.00     0.189 HD
ENDROOT
BRANCH   1   3
HETATM    3  C4  UNL     1      -8.705 -25.649   3.667  1.00  0.00     0.186 C 
HETATM    4  S1  UNL     1      -9.795 -24.780   2.813  1.00  0.00    -0.040 SA
BRANCH   3   5
HETATM    5  N2  UNL     1      -9.145 -26.245   4.882  1.00  0.00    -0.364 N 
ATOM      6  H2  UNL     1      -9.417 -25.633   5.652  1.00  0.00     0.162 HD
BRANCH   5   7
HETATM    7  C3  UNL     1      -9.222 -27.664   5.076  1.00  0.00     0.149 C 
BRANCH   7   8
HETATM    8  C2  UNL     1     -10.233 -28.319   4.196  1.00  0.00     0.251 C 
BRANCH   8   9
HETATM    9  N1  UNL     1      -9.555 -29.063   3.154  1.00  0.00    -0.077 N 
HETATM   10  C1  UNL     1      -9.916 -28.620   1.839  1.00  0.00     0.267 C 
ATOM     11  H12 UNL     1      -9.710 -30.066   3.260  1.00  0.00     0.276 HD
ATOM     12  H11 UNL     1      -8.544 -29.040   3.285  1.00  0.00     0.276 HD
ENDBRANCH   8   9
ENDBRANCH   7   8
ENDBRANCH   5   7
ENDBRANCH   3   5
ENDBRANCH   1   3
BRANCH   1  13
HETATM   13  N4  UNL     1      -7.049 -25.397   1.899  1.00  0.00    -0.309 N 
HETATM   14  C5  UNL     1      -7.007 -26.265   0.952  1.00  0.00     0.119 C 
ATOM     15  H4  UNL     1      -6.842 -24.418   1.701  1.00  0.00     0.186 HD
BRANCH  14  16
HETATM   16  C6  UNL     1      -6.684 -26.004  -0.427  1.00  0.00    -0.013 A 
HETATM   17  C7  UNL     1      -5.341 -25.951  -0.833  1.00  0.00     0.013 A 
HETATM   18  C8  UNL     1      -4.983 -25.706  -2.136  1.00  0.00     0.001 A 
HETATM   19  C9  UNL     1      -5.969 -25.508  -3.070  1.00  0.00     0.001 A 
HETATM   20  C10 UNL     1      -7.289 -25.557  -2.693  1.00  0.00     0.007 A 
HETATM   21  C11 UNL     1      -7.647 -25.807  -1.361  1.00  0.00    -0.050 A 
HETATM   22  C12 UNL     1      -9.076 -25.843  -1.027  1.00  0.00     0.049 C 
ENDBRANCH  14  16
ENDBRANCH   1  13
TORSDOF 7
ENDMDL
MODEL 3
REMARK VINA RESULT: -6.839279156      1.180      1.251
REMARK  7 active torsions:
REMARK  status: ('A' for Active; 'I' for Inactive)
REMARK    1  A    between atoms: N1_2  and  C2_5 
REMARK    2  A    between atoms: C2_5  and  C3_6 
REMARK    3  A    between atoms: C3_6  and  N2_7 
REMARK    4  A    between atoms: N2_7  and  C4_9 
REMARK    5  A    between atoms: C4_9  and  N3_11 
REMARK    6  A    between atoms: N3_11  and  N4_13 
REMARK    7  A    between atoms: C5_15  and  C6_16 
ROOT
HETATM    1  N3  UNL     1      -7.330 -27.357   2.726  1.00  0.00    -0.277 N 
ATOM      2  H3  UNL     1      -6.708 -27.870   3.350  1.00  0.00     0.189 HD
ENDROOT
BRANCH   1   3
HETATM    3  C4  UNL     1      -8.485 -26.722   3.251  1.00  0.00     0.186 C 
HETATM    4  S1  UNL     1      -8.327 -25.512   4.340  1.00  0.00    -0.040 SA
BRANCH   3   5
HETATM    5  N2  UNL     1      -9.804 -27.096   2.869  1.00  0.00    -0.364 N 
ATOM      6  H2  UNL     1     -10.458 -26.361   2.599  1.00  0.00     0.162 HD
BRANCH   5   7
HETATM    7  C3  UNL     1     -10.258 -28.456   2.846  1.00  0.00     0.149 C 
BRANCH   7   8
HETATM    8  C2  UNL     1     -10.207 -29.111   4.186  1.00  0.00     0.251 C 
BRANCH   8   9
HETATM    9  N1  UNL     1     -11.149 -28.464   5.075  1.00  0.00    -0.077 N 
HETATM   10  C1  UNL     1     -12.416 -29.134   5.114  1.00  0.00     0.267 C 
ATOM     11  H12 UNL     1     -11.261 -27.479   4.837  1.00  0.00     0.276 HD
ATOM     12  H11 UNL     1     -10.759 -28.362   6.012  1.00  0.00     0.276 HD
ENDBRANCH   8   9
ENDBRANCH   7   8
ENDBRANCH   5   7
ENDBRANCH   3   5
ENDBRANCH   1   3
BRANCH   1  13
HETATM   13  N4  UNL     1      -7.042 -27.287   1.373  1.00  0.00    -0.309 N 
HETATM   14  C5  UNL     1      -6.937 -26.145   0.792  1.00  0.00     0.119 C 
ATOM     15  H4  UNL     1      -6.913 -28.144   0.836  1.00  0.00     0.186 HD
BRANCH  14  16
HETATM   16  C6  UNL     1      -6.642 -25.923  -0.601  1.00  0.00    -0.013 A 
HETATM   17  C7  UNL     1      -5.308 -25.883  -1.035  1.00  0.00     0.013 A 
HETATM   18  C8  UNL     1      -4.976 -25.675  -2.352  1.00  0.00     0.001 A 
HETATM   19  C9  UNL     1      -5.981 -25.504  -3.270  1.00  0.00     0.001 A 
HETATM   20  C10 UNL     1      -7.293 -25.540  -2.866  1.00  0.00     0.007 A 
HETATM   21  C11 UNL     1      -7.624 -25.751  -1.520  1.00  0.00    -0.050 A 
HETATM   22  C12 UNL     1      -9.046 -25.777  -1.155  1.00  0.00     0.049 C 
ENDBRANCH  14  16
ENDBRANCH   1  13
TORSDOF 7
ENDMDL
MODEL 4
REMARK VINA RESULT: -6.764771052      1.588      1.938
REMARK  7 active torsions:
REMARK  status: ('A' for Active; 'I' for Inactive)
REMARK    1  A    between atoms: N1_2  and  C2_5 
REMARK    2  A    between atoms: C2_5  and  C3_6 
REMARK    3  A    between atoms: C3_6  and  N2_7 
REMARK    4  A    between atoms: N2_7  and  C4_9 
REMARK    5  A    between atoms: C4_9  and  N3_11 
REMARK    6  A    between atoms: N3_11  and  N4_13 
REMARK    7  A    between atoms: C5_15  and  C6_16 
ROOT
HETATM    1  N3  UNL     1     -10.029 -24.648   1.932  1.00  0.00    -0.277 N 
ATOM      2  H3  UNL     1     -10.921 -24.162   2.023  1.00  0.00     0.189 HD
ENDROOT
BRANCH   1   3
HETATM    3  C4  UNL     1      -9.417 -25.216   3.079  1.00  0.00     0.186 C 
HETATM    4  S1  UNL     1      -7.831 -24.947   3.375  1.00  0.00    -0.040 SA
BRANCH   3   5
HETATM    5  N2  UNL     1     -10.130 -26.028   4.003  1.00  0.00    -0.364 N 
ATOM      6  H2  UNL     1     -11.057 -25.724   4.302  1.00  0.00     0.162 HD
BRANCH   5   7
HETATM    7  C3  UNL     1      -9.608 -27.253   4.536  1.00  0.00     0.149 C 
BRANCH   7   8
HETATM    8  C2  UNL     1     -10.511 -28.419   4.310  1.00  0.00     0.251 C 
BRANCH   8   9
HETATM    9  N1  UNL     1     -11.463 -28.511   5.397  1.00  0.00    -0.077 N 
HETATM   10  C1  UNL     1     -12.600 -29.320   5.066  1.00  0.00     0.267 C 
ATOM     11  H12 UNL     1     -11.751 -27.584   5.712  1.00  0.00     0.276 HD
ATOM     12  H11 UNL     1     -11.014 -28.841   6.252  1.00  0.00     0.276 HD
ENDBRANCH   8   9
ENDBRANCH   7   8
ENDBRANCH   5   7
ENDBRANCH   3   5
ENDBRANCH   1   3
BRANCH   1  13
HETATM   13  N4  UNL     1      -9.424 -24.746   0.689  1.00  0.00    -0.309 N 
HETATM   14  C5  UNL     1      -9.267 -25.896   0.136  1.00  0.00     0.119 C 
ATOM     15  H4  UNL     1      -9.103 -23.904   0.213  1.00  0.00     0.186 HD
BRANCH  14  16
HETATM   16  C6  UNL     1      -8.658 -26.146  -1.146  1.00  0.00    -0.013 A 
HETATM   17  C7  UNL     1      -7.514 -25.429  -1.528  1.00  0.00     0.013 A 
HETATM   18  C8  UNL     1      -6.898 -25.632  -2.740  1.00  0.00     0.001 A 
HETATM   19  C9  UNL     1      -7.417 -26.565  -3.600  1.00  0.00     0.001 A 
HETATM   20  C10 UNL     1      -8.536 -27.277  -3.245  1.00  0.00     0.007 A 
HETATM   21  C11 UNL     1      -9.161 -27.064  -2.009  1.00  0.00    -0.050 A 
HETATM   22  C12 UNL     1     -10.354 -27.858  -1.693  1.00  0.00     0.049 C 
ENDBRANCH  14  16
ENDBRANCH   1  13
TORSDOF 7
ENDMDL
MODEL 5
REMARK VINA RESULT: -6.631818858      2.103      2.874
REMARK  7 active torsions:
REMARK  status: ('A' for Active; 'I' for Inactive)
REMARK    1  A    between atoms: N1_2  and  C2_5 
REMARK    2  A    between atoms: C2_5  and  C3_6 
REMARK    3  A    between atoms: C3_6  and  N2_7 
REMARK    4  A    between atoms: N2_7  and  C4_9 
REMARK    5  A    between atoms: C4_9  and  N3_11 
REMARK    6  A    between atoms: N3_11  and  N4_13 
REMARK    7  A    between atoms: C5_15  and  C6_16 
ROOT
HETATM    1  N3  UNL     1      -7.363 -27.672   2.372  1.00  0.00    -0.277 N 
ATOM      2  H3  UNL     1      -6.689 -28.316   2.786  1.00  0.00     0.189 HD
ENDROOT
BRANCH   1   3
HETATM    3  C4  UNL     1      -8.648 -27.528   2.955  1.00  0.00     0.186 C 
HETATM    4  S1  UNL     1      -9.859 -28.536   2.519  1.00  0.00    -0.040 SA
BRANCH   3   5
HETATM    5  N2  UNL     1      -8.941 -26.527   3.922  1.00  0.00    -0.364 N 
ATOM      6  H2  UNL     1      -9.177 -26.820   4.870  1.00  0.00     0.162 HD
BRANCH   5   7
HETATM    7  C3  UNL     1      -8.922 -25.123   3.627  1.00  0.00     0.149 C 
BRANCH   7   8
HETATM    8  C2  UNL     1     -10.028 -24.702   2.719  1.00  0.00     0.251 C 
BRANCH   8   9
HETATM    9  N1  UNL     1      -9.485 -24.374   1.417  1.00  0.00    -0.077 N 
HETATM   10  C1  UNL     1     -10.063 -25.162   0.367  1.00  0.00     0.267 C 
ATOM     11  H12 UNL     1      -8.468 -24.448   1.414  1.00  0.00     0.276 HD
ATOM     12  H11 UNL     1      -9.577 -23.377   1.221  1.00  0.00     0.276 HD
ENDBRANCH   8   9
ENDBRANCH   7   8
ENDBRANCH   5   7
ENDBRANCH   3   5
ENDBRANCH   1   3
BRANCH   1  13
HETATM   13  N4  UNL     1      -7.015 -26.945   1.245  1.00  0.00    -0.309 N 
HETATM   14  C5  UNL     1      -7.106 -27.477   0.078  1.00  0.00     0.119 C 
ATOM     15  H4  UNL     1      -6.687 -25.984   1.342  1.00  0.00     0.186 HD
BRANCH  14  16
HETATM   16  C6  UNL     1      -6.781 -26.842  -1.173  1.00  0.00    -0.013 A 
HETATM   17  C7  UNL     1      -5.548 -26.189  -1.327  1.00  0.00     0.013 A 
HETATM   18  C8  UNL     1      -5.192 -25.570  -2.500  1.00  0.00     0.001 A 
HETATM   19  C9  UNL     1      -6.070 -25.591  -3.554  1.00  0.00     0.001 A 
HETATM   20  C10 UNL     1      -7.281 -26.225  -3.425  1.00  0.00     0.007 A 
HETATM   21  C11 UNL     1      -7.638 -26.854  -2.224  1.00  0.00    -0.050 A 
HETATM   22  C12 UNL     1      -8.949 -27.511  -2.153  1.00  0.00     0.049 C 
ENDBRANCH  14  16
ENDBRANCH   1  13
TORSDOF 7
ENDMDL
