MODEL 1
REMARK VINA RESULT: -7.832097136      0.000      0.000
REMARK  16 active torsions:
REMARK  status: ('A' for Active; 'I' for Inactive)
REMARK    1  A    between atoms: C2_2  and  N1_3 
REMARK    2  A    between atoms: C2_2  and  N2_10 
REMARK    3  A    between atoms: N1_3  and  C3_6 
REMARK    4  A    between atoms: N2_10  and  C7_11 
REMARK    5  A    between atoms: N2_10  and  C12_17 
REMARK    6  A    between atoms: C7_11  and  C8_12 
REMARK    7  A    between atoms: C8_12  and  C9_13 
REMARK    8  A    between atoms: C9_13  and  N3_14 
REMARK    9  A    between atoms: C12_17  and  O1_18 
REMARK   10  A    between atoms: C12_17  and  C13_20 
REMARK   11  A    between atoms: C16_23  and  N4_24 
REMARK       I    between atoms: N4_24  and  C17_26 
REMARK   12  A    between atoms: C17_26  and  C18_28 
REMARK   13  A    between atoms: C20_32  and  N6_33 
REMARK   14  A    between atoms: N6_33  and  C21_35 
REMARK   15  A    between atoms: C21_35  and  C22_36 
REMARK   16  A    between atoms: C22_36  and  N7_37 
ROOT
HETATM    1  C18 UNL     1       2.665  -6.667 -15.239  1.00  0.00     0.117 A 
HETATM    2  C19 UNL     1       3.294  -6.252 -14.085  1.00  0.00     0.125 A 
HETATM    3  N5  UNL     1       4.189  -7.023 -13.504  1.00  0.00    -0.348 N 
ATOM      4  H5  UNL     1       4.643  -6.700 -12.650  1.00  0.00     0.167 HD
HETATM    5  C20 UNL     1       4.531  -8.266 -14.021  1.00  0.00     0.139 A 
HETATM    6  C25 UNL     1       3.901  -8.663 -15.161  1.00  0.00     0.158 A 
HETATM    7  C26 UNL     1       4.173  -9.941 -15.803  1.00  0.00     0.121 C 
HETATM    8  N8  UNL     1       4.363 -10.931 -16.330  1.00  0.00    -0.190 NA
HETATM    9  N9  UNL     1       2.975  -7.851 -15.752  1.00  0.00    -0.339 N 
ATOM     10  H9  UNL     1       2.512  -8.161 -16.606  1.00  0.00     0.167 HD
ENDROOT
BRANCH   5  11
HETATM   11  N6  UNL     1       5.378  -8.939 -13.420  1.00  0.00    -0.372 N 
ATOM     12  H6  UNL     1       5.066  -9.901 -13.292  1.00  0.00     0.161 HD
BRANCH  11  13
HETATM   13  C21 UNL     1       6.622  -8.742 -12.880  1.00  0.00     0.140 C 
BRANCH  13  14
HETATM   14  C22 UNL     1       6.497  -8.780 -11.344  1.00  0.00     0.135 C 
BRANCH  14  15
HETATM   15  N7  UNL     1       7.387  -7.884 -10.689  1.00  0.00    -0.419 N 
HETATM   16  C23 UNL     1       7.104  -7.579  -9.327  1.00  0.00     0.142 C 
HETATM   17  C24 UNL     1       7.842  -6.783 -11.472  1.00  0.00     0.142 C 
ENDBRANCH  14  15
ENDBRANCH  13  14
ENDBRANCH  11  13
ENDBRANCH   5  11
BRANCH   1  18
HETATM   18  C17 UNL     1       1.656  -5.806 -15.894  1.00  0.00     0.274 C 
HETATM   19  N4  UNL     1       2.086  -5.003 -16.936  1.00  0.00    -0.316 N 
ATOM     20  H4  UNL     1       3.069  -5.036 -17.207  1.00  0.00     0.170 HD
HETATM   21  O2  UNL     1       0.494  -5.881 -15.444  1.00  0.00    -0.266 OA
BRANCH  19  22
HETATM   22  C16 UNL     1       1.202  -4.125 -17.651  1.00  0.00     0.077 A 
HETATM   23  C15 UNL     1       1.334  -2.860 -18.111  1.00  0.00     0.039 A 
HETATM   24  C14 UNL     1       0.299  -2.300 -18.761  1.00  0.00     0.026 A 
HETATM   25  C13 UNL     1      -0.835  -3.008 -18.939  1.00  0.00     0.058 A 
HETATM   26  S1  UNL     1      -0.408  -4.510 -18.155  1.00  0.00    -0.068 SA
BRANCH  25  27
HETATM   27  C12 UNL     1      -2.119  -2.784 -19.567  1.00  0.00     0.161 C 
BRANCH  27  28
HETATM   28  N2  UNL     1      -2.500  -2.660 -20.926  1.00  0.00    -0.308 N 
BRANCH  28  29
HETATM   29  C2  UNL     1      -2.833  -3.945 -21.566  1.00  0.00     0.288 C 
HETATM   30  C1  UNL     1      -3.260  -3.919 -22.978  1.00  0.00     0.064 C 
BRANCH  29  31
HETATM   31  N1  UNL     1      -3.822  -4.591 -20.745  1.00  0.00    -0.046 N 
ATOM     32  H12 UNL     1      -3.921  -4.099 -19.857  1.00  0.00     0.280 HD
ATOM     33  H11 UNL     1      -4.754  -4.445 -21.132  1.00  0.00     0.280 HD
BRANCH  31  34
HETATM   34  C3  UNL     1      -3.588  -6.008 -20.513  1.00  0.00     0.117 C 
HETATM   35  C4  UNL     1      -3.757  -6.150 -18.980  1.00  0.00     0.045 C 
HETATM   36  C5  UNL     1      -4.611  -6.907 -21.132  1.00  0.00     0.045 C 
HETATM   37  C6  UNL     1      -2.192  -6.453 -20.791  1.00  0.00     0.045 C 
ENDBRANCH  31  34
ENDBRANCH  29  31
ENDBRANCH  28  29
BRANCH  28  38
HETATM   38  C7  UNL     1      -2.695  -1.465 -21.664  1.00  0.00     0.093 C 
BRANCH  38  39
HETATM   39  C8  UNL     1      -1.712  -0.401 -21.784  1.00  0.00     0.020 C 
BRANCH  39  40
HETATM   40  C9  UNL     1      -1.374   0.226 -23.089  1.00  0.00     0.300 C 
BRANCH  40  41
HETATM   41  N3  UNL     1      -0.709  -0.796 -23.918  1.00  0.00     0.083 N 
HETATM   42  C10 UNL     1       0.658  -0.882 -23.456  1.00  0.00     0.309 C 
HETATM   43  C11 UNL     1      -0.772  -0.506 -25.314  1.00  0.00     0.309 C 
ENDBRANCH  40  41
ENDBRANCH  39  40
ENDBRANCH  38  39
ENDBRANCH  28  38
ENDBRANCH  27  28
BRANCH  27  44
HETATM   44  O1  UNL     1      -3.094  -2.679 -18.687  1.00  0.00    -0.345 OA
ATOM     45  H1  UNL     1      -2.828  -2.480 -17.797  1.00  0.00     0.219 HD
ENDBRANCH  27  44
ENDBRANCH  25  27
ENDBRANCH  19  22
ENDBRANCH   1  18
TORSDOF 16
ENDMDL
MODEL 2
REMARK VINA RESULT: -7.716568871      1.485      4.090
REMARK  16 active torsions:
REMARK  status: ('A' for Active; 'I' for Inactive)
REMARK    1  A    between atoms: C2_2  and  N1_3 
REMARK    2  A    between atoms: C2_2  and  N2_10 
REMARK    3  A    between atoms: N1_3  and  C3_6 
REMARK    4  A    between atoms: N2_10  and  C7_11 
REMARK    5  A    between atoms: N2_10  and  C12_17 
REMARK    6  A    between atoms: C7_11  and  C8_12 
REMARK    7  A    between atoms: C8_12  and  C9_13 
REMARK    8  A    between atoms: C9_13  and  N3_14 
REMARK    9  A    between atoms: C12_17  and  O1_18 
REMARK   10  A    between atoms: C12_17  and  C13_20 
REMARK   11  A    between atoms: C16_23  and  N4_24 
REMARK       I    between atoms: N4_24  and  C17_26 
REMARK   12  A    between atoms: C17_26  and  C18_28 
REMARK   13  A    between atoms: C20_32  and  N6_33 
REMARK   14  A    between atoms: N6_33  and  C21_35 
REMARK   15  A    between atoms: C21_35  and  C22_36 
REMARK   16  A    between atoms: C22_36  and  N7_37 
ROOT
HETATM    1  C18 UNL     1       2.650  -5.901 -16.210  1.00  0.00     0.117 A 
HETATM    2  C19 UNL     1       2.981  -5.246 -15.041  1.00  0.00     0.125 A 
HETATM    3  N5  UNL     1       3.414  -5.925 -14.001  1.00  0.00    -0.348 N 
ATOM      4  H5  UNL     1       3.653  -5.424 -13.146  1.00  0.00     0.167 HD
HETATM    5  C20 UNL     1       3.557  -7.307 -14.035  1.00  0.00     0.139 A 
HETATM    6  C25 UNL     1       3.227  -7.939 -15.195  1.00  0.00     0.158 A 
HETATM    7  C26 UNL     1       3.334  -9.382 -15.359  1.00  0.00     0.121 C 
HETATM    8  N8  UNL     1       3.407 -10.506 -15.520  1.00  0.00    -0.190 NA
HETATM    9  N9  UNL     1       2.778  -7.220 -16.266  1.00  0.00    -0.339 N 
ATOM     10  H9  UNL     1       2.535  -7.708 -17.128  1.00  0.00     0.167 HD
ENDROOT
BRANCH   5  11
HETATM   11  N6  UNL     1       3.968  -7.880 -13.018  1.00  0.00    -0.372 N 
ATOM     12  H6  UNL     1       3.322  -7.760 -12.238  1.00  0.00     0.161 HD
BRANCH  11  13
HETATM   13  C21 UNL     1       5.054  -8.631 -12.656  1.00  0.00     0.140 C 
BRANCH  13  14
HETATM   14  C22 UNL     1       6.330  -7.856 -13.037  1.00  0.00     0.135 C 
BRANCH  14  15
HETATM   15  N7  UNL     1       7.433  -8.140 -12.183  1.00  0.00    -0.419 N 
HETATM   16  C23 UNL     1       8.165  -7.025 -11.686  1.00  0.00     0.142 C 
HETATM   17  C24 UNL     1       8.225  -9.266 -12.554  1.00  0.00     0.142 C 
ENDBRANCH  14  15
ENDBRANCH  13  14
ENDBRANCH  11  13
ENDBRANCH   5  11
BRANCH   1  18
HETATM   18  C17 UNL     1       2.158  -5.142 -17.380  1.00  0.00     0.274 C 
HETATM   19  N4  UNL     1       1.327  -4.064 -17.133  1.00  0.00    -0.316 N 
ATOM     20  H4  UNL     1       1.089  -3.838 -16.167  1.00  0.00     0.170 HD
HETATM   21  O2  UNL     1       2.541  -5.546 -18.497  1.00  0.00    -0.266 OA
BRANCH  19  22
HETATM   22  C16 UNL     1       0.785  -3.248 -18.185  1.00  0.00     0.077 A 
HETATM   23  C15 UNL     1       1.231  -2.134 -18.809  1.00  0.00     0.039 A 
HETATM   24  C14 UNL     1       0.475  -1.595 -19.781  1.00  0.00     0.026 A 
HETATM   25  C13 UNL     1      -0.698  -2.175 -20.109  1.00  0.00     0.058 A 
HETATM   26  S1  UNL     1      -0.718  -3.522 -18.998  1.00  0.00    -0.068 SA
BRANCH  25  27
HETATM   27  C12 UNL     1      -1.756  -1.925 -21.065  1.00  0.00     0.161 C 
BRANCH  27  28
HETATM   28  N2  UNL     1      -2.087  -2.545 -22.294  1.00  0.00    -0.308 N 
BRANCH  28  29
HETATM   29  C2  UNL     1      -2.706  -1.631 -23.270  1.00  0.00     0.288 C 
HETATM   30  C1  UNL     1      -4.109  -1.880 -23.652  1.00  0.00     0.064 C 
BRANCH  29  31
HETATM   31  N1  UNL     1      -1.856  -1.603 -24.431  1.00  0.00    -0.046 N 
ATOM     32  H12 UNL     1      -1.259  -2.430 -24.452  1.00  0.00     0.280 HD
ATOM     33  H11 UNL     1      -2.406  -1.761 -25.276  1.00  0.00     0.280 HD
BRANCH  31  34
HETATM   34  C3  UNL     1      -1.055  -0.398 -24.569  1.00  0.00     0.117 C 
HETATM   35  C4  UNL     1       0.320  -0.817 -23.990  1.00  0.00     0.045 C 
HETATM   36  C5  UNL     1      -0.804   0.013 -25.986  1.00  0.00     0.045 C 
HETATM   37  C6  UNL     1      -1.503   0.739 -23.715  1.00  0.00     0.045 C 
ENDBRANCH  31  34
ENDBRANCH  29  31
ENDBRANCH  28  29
BRANCH  28  38
HETATM   38  C7  UNL     1      -1.790  -3.871 -22.702  1.00  0.00     0.093 C 
BRANCH  38  39
HETATM   39  C8  UNL     1      -2.365  -5.065 -22.103  1.00  0.00     0.020 C 
BRANCH  39  40
HETATM   40  C9  UNL     1      -3.675  -5.051 -21.399  1.00  0.00     0.300 C 
BRANCH  40  41
HETATM   41  N3  UNL     1      -3.816  -6.337 -20.692  1.00  0.00     0.083 N 
HETATM   42  C10 UNL     1      -3.646  -6.059 -19.284  1.00  0.00     0.309 C 
HETATM   43  C11 UNL     1      -2.890  -7.324 -21.145  1.00  0.00     0.309 C 
ENDBRANCH  40  41
ENDBRANCH  39  40
ENDBRANCH  38  39
ENDBRANCH  28  38
ENDBRANCH  27  28
BRANCH  27  44
HETATM   44  O1  UNL     1      -2.537  -0.930 -20.696  1.00  0.00    -0.345 OA
ATOM     45  H1  UNL     1      -2.784  -0.916 -19.779  1.00  0.00     0.219 HD
ENDBRANCH  27  44
ENDBRANCH  25  27
ENDBRANCH  19  22
ENDBRANCH   1  18
TORSDOF 16
ENDMDL
MODEL 3
REMARK VINA RESULT: -7.689173986      0.831      3.798
REMARK  16 active torsions:
REMARK  status: ('A' for Active; 'I' for Inactive)
REMARK    1  A    between atoms: C2_2  and  N1_3 
REMARK    2  A    between atoms: C2_2  and  N2_10 
REMARK    3  A    between atoms: N1_3  and  C3_6 
REMARK    4  A    between atoms: N2_10  and  C7_11 
REMARK    5  A    between atoms: N2_10  and  C12_17 
REMARK    6  A    between atoms: C7_11  and  C8_12 
REMARK    7  A    between atoms: C8_12  and  C9_13 
REMARK    8  A    between atoms: C9_13  and  N3_14 
REMARK    9  A    between atoms: C12_17  and  O1_18 
REMARK   10  A    between atoms: C12_17  and  C13_20 
REMARK   11  A    between atoms: C16_23  and  N4_24 
REMARK       I    between atoms: N4_24  and  C17_26 
REMARK   12  A    between atoms: C17_26  and  C18_28 
REMARK   13  A    between atoms: C20_32  and  N6_33 
REMARK   14  A    between atoms: N6_33  and  C21_35 
REMARK   15  A    between atoms: C21_35  and  C22_36 
REMARK   16  A    between atoms: C22_36  and  N7_37 
ROOT
HETATM    1  C18 UNL     1       2.663  -6.742 -15.210  1.00  0.00     0.117 A 
HETATM    2  C19 UNL     1       3.259  -6.315 -14.041  1.00  0.00     0.125 A 
HETATM    3  N5  UNL     1       4.169  -7.061 -13.451  1.00  0.00    -0.348 N 
ATOM      4  H5  UNL     1       4.598  -6.729 -12.587  1.00  0.00     0.167 HD
HETATM    5  C20 UNL     1       4.561  -8.288 -13.971  1.00  0.00     0.139 A 
HETATM    6  C25 UNL     1       3.965  -8.695 -15.126  1.00  0.00     0.158 A 
HETATM    7  C26 UNL     1       4.290  -9.959 -15.772  1.00  0.00     0.121 C 
HETATM    8  N8  UNL     1       4.522 -10.937 -16.303  1.00  0.00    -0.190 NA
HETATM    9  N9  UNL     1       3.022  -7.910 -15.726  1.00  0.00    -0.339 N 
ATOM     10  H9  UNL     1       2.584  -8.229 -16.590  1.00  0.00     0.167 HD
ENDROOT
BRANCH   5  11
HETATM   11  N6  UNL     1       5.421  -8.936 -13.361  1.00  0.00    -0.372 N 
ATOM     12  H6  UNL     1       5.111  -9.893 -13.189  1.00  0.00     0.161 HD
BRANCH  11  13
HETATM   13  C21 UNL     1       6.675  -8.719 -12.855  1.00  0.00     0.140 C 
BRANCH  13  14
HETATM   14  C22 UNL     1       6.607  -8.840 -11.320  1.00  0.00     0.135 C 
BRANCH  14  15
HETATM   15  N7  UNL     1       7.404  -7.873 -10.647  1.00  0.00    -0.419 N 
HETATM   16  C23 UNL     1       7.050  -7.572  -9.301  1.00  0.00     0.142 C 
HETATM   17  C24 UNL     1       7.806  -6.751 -11.430  1.00  0.00     0.142 C 
ENDBRANCH  14  15
ENDBRANCH  13  14
ENDBRANCH  11  13
ENDBRANCH   5  11
BRANCH   1  18
HETATM   18  C17 UNL     1       1.637  -5.909 -15.875  1.00  0.00     0.274 C 
HETATM   19  N4  UNL     1       2.033  -5.178 -16.981  1.00  0.00    -0.316 N 
ATOM     20  H4  UNL     1       3.003  -5.239 -17.288  1.00  0.00     0.170 HD
HETATM   21  O2  UNL     1       0.494  -5.943 -15.375  1.00  0.00    -0.266 OA
BRANCH  19  22
HETATM   22  C16 UNL     1       1.129  -4.334 -17.713  1.00  0.00     0.077 A 
HETATM   23  C15 UNL     1       1.156  -3.022 -18.041  1.00  0.00     0.039 A 
HETATM   24  C14 UNL     1       0.134  -2.516 -18.754  1.00  0.00     0.026 A 
HETATM   25  C13 UNL     1      -0.882  -3.322 -19.122  1.00  0.00     0.058 A 
HETATM   26  S1  UNL     1      -0.363  -4.839 -18.429  1.00  0.00    -0.068 SA
BRANCH  25  27
HETATM   27  C12 UNL     1      -2.112  -3.178 -19.871  1.00  0.00     0.161 C 
BRANCH  27  28
HETATM   28  N2  UNL     1      -2.432  -3.438 -21.226  1.00  0.00    -0.308 N 
BRANCH  28  29
HETATM   29  C2  UNL     1      -2.889  -2.248 -21.965  1.00  0.00     0.288 C 
HETATM   30  C1  UNL     1      -4.232  -2.291 -22.574  1.00  0.00     0.064 C 
BRANCH  29  31
HETATM   31  N1  UNL     1      -1.889  -1.945 -22.953  1.00  0.00    -0.046 N 
ATOM     32  H12 UNL     1      -1.275  -2.747 -23.093  1.00  0.00     0.280 HD
ATOM     33  H11 UNL     1      -2.313  -1.883 -23.879  1.00  0.00     0.280 HD
BRANCH  31  34
HETATM   34  C3  UNL     1      -1.104  -0.752 -22.678  1.00  0.00     0.117 C 
HETATM   35  C4  UNL     1       0.299  -1.318 -22.344  1.00  0.00     0.045 C 
HETATM   36  C5  UNL     1      -0.922   0.149 -23.859  1.00  0.00     0.045 C 
HETATM   37  C6  UNL     1      -1.522  -0.010 -21.453  1.00  0.00     0.045 C 
ENDBRANCH  31  34
ENDBRANCH  29  31
ENDBRANCH  28  29
BRANCH  28  38
HETATM   38  C7  UNL     1      -2.253  -4.650 -21.940  1.00  0.00     0.093 C 
BRANCH  38  39
HETATM   39  C8  UNL     1      -2.769  -5.941 -21.514  1.00  0.00     0.020 C 
BRANCH  39  40
HETATM   40  C9  UNL     1      -4.091  -6.089 -20.849  1.00  0.00     0.300 C 
BRANCH  40  41
HETATM   41  N3  UNL     1      -3.907  -6.963 -19.676  1.00  0.00     0.083 N 
HETATM   42  C10 UNL     1      -4.016  -6.120 -18.507  1.00  0.00     0.309 C 
HETATM   43  C11 UNL     1      -2.665  -7.666 -19.698  1.00  0.00     0.309 C 
ENDBRANCH  40  41
ENDBRANCH  39  40
ENDBRANCH  38  39
ENDBRANCH  28  38
ENDBRANCH  27  28
BRANCH  27  44
HETATM   44  O1  UNL     1      -3.097  -2.715 -19.129  1.00  0.00    -0.345 OA
ATOM     45  H1  UNL     1      -3.867  -3.268 -19.071  1.00  0.00     0.219 HD
ENDBRANCH  27  44
ENDBRANCH  25  27
ENDBRANCH  19  22
ENDBRANCH   1  18
TORSDOF 16
ENDMDL
MODEL 4
REMARK VINA RESULT: -7.662029366      1.696      4.415
REMARK  16 active torsions:
REMARK  status: ('A' for Active; 'I' for Inactive)
REMARK    1  A    between atoms: C2_2  and  N1_3 
REMARK    2  A    between atoms: C2_2  and  N2_10 
REMARK    3  A    between atoms: N1_3  and  C3_6 
REMARK    4  A    between atoms: N2_10  and  C7_11 
REMARK    5  A    between atoms: N2_10  and  C12_17 
REMARK    6  A    between atoms: C7_11  and  C8_12 
REMARK    7  A    between atoms: C8_12  and  C9_13 
REMARK    8  A    between atoms: C9_13  and  N3_14 
REMARK    9  A    between atoms: C12_17  and  O1_18 
REMARK   10  A    between atoms: C12_17  and  C13_20 
REMARK   11  A    between atoms: C16_23  and  N4_24 
REMARK       I    between atoms: N4_24  and  C17_26 
REMARK   12  A    between atoms: C17_26  and  C18_28 
REMARK   13  A    between atoms: C20_32  and  N6_33 
REMARK   14  A    between atoms: N6_33  and  C21_35 
REMARK   15  A    between atoms: C21_35  and  C22_36 
REMARK   16  A    between atoms: C22_36  and  N7_37 
ROOT
HETATM    1  C18 UNL     1       2.358  -5.879 -16.701  1.00  0.00     0.117 A 
HETATM    2  C19 UNL     1       2.577  -5.343 -15.449  1.00  0.00     0.125 A 
HETATM    3  N5  UNL     1       2.880  -6.128 -14.436  1.00  0.00    -0.348 N 
ATOM      4  H5  UNL     1       3.038  -5.713 -13.518  1.00  0.00     0.167 HD
HETATM    5  C20 UNL     1       2.991  -7.504 -14.584  1.00  0.00     0.139 A 
HETATM    6  C25 UNL     1       2.772  -8.019 -15.825  1.00  0.00     0.158 A 
HETATM    7  C26 UNL     1       2.859  -9.444 -16.110  1.00  0.00     0.121 C 
HETATM    8  N8  UNL     1       2.921 -10.550 -16.366  1.00  0.00    -0.190 NA
HETATM    9  N9  UNL     1       2.457  -7.191 -16.866  1.00  0.00    -0.339 N 
ATOM     10  H9  UNL     1       2.296  -7.591 -17.790  1.00  0.00     0.167 HD
ENDROOT
BRANCH   5  11
HETATM   11  N6  UNL     1       3.276  -8.180 -13.587  1.00  0.00    -0.372 N 
ATOM     12  H6  UNL     1       2.506  -8.794 -13.321  1.00  0.00     0.161 HD
BRANCH  11  13
HETATM   13  C21 UNL     1       4.345  -8.328 -12.744  1.00  0.00     0.140 C 
BRANCH  13  14
HETATM   14  C22 UNL     1       5.581  -8.703 -13.586  1.00  0.00     0.135 C 
BRANCH  14  15
HETATM   15  N7  UNL     1       6.789  -8.704 -12.836  1.00  0.00    -0.419 N 
HETATM   16  C23 UNL     1       6.710  -9.168 -11.492  1.00  0.00     0.142 C 
HETATM   17  C24 UNL     1       7.642  -7.580 -13.037  1.00  0.00     0.142 C 
ENDBRANCH  14  15
ENDBRANCH  13  14
ENDBRANCH  11  13
ENDBRANCH   5  11
BRANCH   1  18
HETATM   18  C17 UNL     1       2.012  -5.002 -17.841  1.00  0.00     0.274 C 
HETATM   19  N4  UNL     1       1.199  -3.913 -17.580  1.00  0.00    -0.316 N 
ATOM     20  H4  UNL     1       0.874  -3.761 -16.625  1.00  0.00     0.170 HD
HETATM   21  O2  UNL     1       2.490  -5.325 -18.947  1.00  0.00    -0.266 OA
BRANCH  19  22
HETATM   22  C16 UNL     1       0.795  -2.987 -18.602  1.00  0.00     0.077 A 
HETATM   23  C15 UNL     1       1.393  -1.907 -19.155  1.00  0.00     0.039 A 
HETATM   24  C14 UNL     1       0.739  -1.233 -20.118  1.00  0.00     0.026 A 
HETATM   25  C13 UNL     1      -0.484  -1.648 -20.505  1.00  0.00     0.058 A 
HETATM   26  S1  UNL     1      -0.703  -3.034 -19.466  1.00  0.00    -0.068 SA
BRANCH  25  27
HETATM   27  C12 UNL     1      -1.472  -1.224 -21.474  1.00  0.00     0.161 C 
BRANCH  27  28
HETATM   28  N2  UNL     1      -1.651  -1.537 -22.844  1.00  0.00    -0.308 N 
BRANCH  28  29
HETATM   29  C2  UNL     1      -0.934  -0.629 -23.757  1.00  0.00     0.288 C 
HETATM   30  C1  UNL     1       0.536  -0.739 -23.821  1.00  0.00     0.064 C 
BRANCH  29  31
HETATM   31  N1  UNL     1      -1.332   0.714 -23.427  1.00  0.00    -0.046 N 
ATOM     32  H12 UNL     1      -1.869   0.721 -22.560  1.00  0.00     0.280 HD
ATOM     33  H11 UNL     1      -0.523   1.262 -23.138  1.00  0.00     0.280 HD
BRANCH  31  34
HETATM   34  C3  UNL     1      -2.061   1.406 -24.478  1.00  0.00     0.117 C 
HETATM   35  C4  UNL     1      -2.519   2.716 -23.789  1.00  0.00     0.045 C 
HETATM   36  C5  UNL     1      -1.215   1.819 -25.641  1.00  0.00     0.045 C 
HETATM   37  C6  UNL     1      -3.322   0.730 -24.899  1.00  0.00     0.045 C 
ENDBRANCH  31  34
ENDBRANCH  29  31
ENDBRANCH  28  29
BRANCH  28  38
HETATM   38  C7  UNL     1      -2.326  -2.656 -23.395  1.00  0.00     0.093 C 
BRANCH  38  39
HETATM   39  C8  UNL     1      -2.526  -3.920 -22.703  1.00  0.00     0.020 C 
BRANCH  39  40
HETATM   40  C9  UNL     1      -3.736  -4.194 -21.882  1.00  0.00     0.300 C 
BRANCH  40  41
HETATM   41  N3  UNL     1      -3.442  -5.360 -21.029  1.00  0.00     0.083 N 
HETATM   42  C10 UNL     1      -2.173  -5.892 -21.474  1.00  0.00     0.309 C 
HETATM   43  C11 UNL     1      -4.467  -6.352 -21.073  1.00  0.00     0.309 C 
ENDBRANCH  40  41
ENDBRANCH  39  40
ENDBRANCH  38  39
ENDBRANCH  28  38
ENDBRANCH  27  28
BRANCH  27  44
HETATM   44  O1  UNL     1      -2.353  -0.392 -20.957  1.00  0.00    -0.345 OA
ATOM     45  H1  UNL     1      -2.981  -0.775 -20.356  1.00  0.00     0.219 HD
ENDBRANCH  27  44
ENDBRANCH  25  27
ENDBRANCH  19  22
ENDBRANCH   1  18
TORSDOF 16
ENDMDL
MODEL 5
REMARK VINA RESULT: -7.627077486      2.457      4.381
REMARK  16 active torsions:
REMARK  status: ('A' for Active; 'I' for Inactive)
REMARK    1  A    between atoms: C2_2  and  N1_3 
REMARK    2  A    between atoms: C2_2  and  N2_10 
REMARK    3  A    between atoms: N1_3  and  C3_6 
REMARK    4  A    between atoms: N2_10  and  C7_11 
REMARK    5  A    between atoms: N2_10  and  C12_17 
REMARK    6  A    between atoms: C7_11  and  C8_12 
REMARK    7  A    between atoms: C8_12  and  C9_13 
REMARK    8  A    between atoms: C9_13  and  N3_14 
REMARK    9  A    between atoms: C12_17  and  O1_18 
REMARK   10  A    between atoms: C12_17  and  C13_20 
REMARK   11  A    between atoms: C16_23  and  N4_24 
REMARK       I    between atoms: N4_24  and  C17_26 
REMARK   12  A    between atoms: C17_26  and  C18_28 
REMARK   13  A    between atoms: C20_32  and  N6_33 
REMARK   14  A    between atoms: N6_33  and  C21_35 
REMARK   15  A    between atoms: C21_35  and  C22_36 
REMARK   16  A    between atoms: C22_36  and  N7_37 
ROOT
HETATM    1  C18 UNL     1       2.265  -5.850 -16.783  1.00  0.00     0.117 A 
HETATM    2  C19 UNL     1       2.480  -5.334 -15.522  1.00  0.00     0.125 A 
HETATM    3  N5  UNL     1       2.757  -6.138 -14.517  1.00  0.00    -0.348 N 
ATOM      4  H5  UNL     1       2.912  -5.738 -13.591  1.00  0.00     0.167 HD
HETATM    5  C20 UNL     1       2.844  -7.514 -14.681  1.00  0.00     0.139 A 
HETATM    6  C25 UNL     1       2.630  -8.008 -15.932  1.00  0.00     0.158 A 
HETATM    7  C26 UNL     1       2.694  -9.431 -16.234  1.00  0.00     0.121 C 
HETATM    8  N8  UNL     1       2.739 -10.535 -16.504  1.00  0.00    -0.190 NA
HETATM    9  N9  UNL     1       2.343  -7.162 -16.964  1.00  0.00    -0.339 N 
ATOM     10  H9  UNL     1       2.185  -7.547 -17.895  1.00  0.00     0.167 HD
ENDROOT
BRANCH   5  11
HETATM   11  N6  UNL     1       3.105  -8.208 -13.690  1.00  0.00    -0.372 N 
ATOM     12  H6  UNL     1       2.328  -8.825 -13.453  1.00  0.00     0.161 HD
BRANCH  11  13
HETATM   13  C21 UNL     1       4.155  -8.373 -12.825  1.00  0.00     0.140 C 
BRANCH  13  14
HETATM   14  C22 UNL     1       5.420  -8.683 -13.649  1.00  0.00     0.135 C 
BRANCH  14  15
HETATM   15  N7  UNL     1       6.611  -8.665 -12.872  1.00  0.00    -0.419 N 
HETATM   16  C23 UNL     1       6.508  -9.125 -11.528  1.00  0.00     0.142 C 
HETATM   17  C24 UNL     1       7.453  -7.529 -13.058  1.00  0.00     0.142 C 
ENDBRANCH  14  15
ENDBRANCH  13  14
ENDBRANCH  11  13
ENDBRANCH   5  11
BRANCH   1  18
HETATM   18  C17 UNL     1       1.949  -4.952 -17.916  1.00  0.00     0.274 C 
HETATM   19  N4  UNL     1       1.201  -3.821 -17.639  1.00  0.00    -0.316 N 
ATOM     20  H4  UNL     1       0.899  -3.655 -16.679  1.00  0.00     0.170 HD
HETATM   21  O2  UNL     1       2.391  -5.297 -19.030  1.00  0.00    -0.266 OA
BRANCH  19  22
HETATM   22  C16 UNL     1       0.830  -2.872 -18.652  1.00  0.00     0.077 A 
HETATM   23  C15 UNL     1       1.499  -1.865 -19.259  1.00  0.00     0.039 A 
HETATM   24  C14 UNL     1       0.860  -1.140 -20.194  1.00  0.00     0.026 A 
HETATM   25  C13 UNL     1      -0.420  -1.433 -20.501  1.00  0.00     0.058 A 
HETATM   26  S1  UNL     1      -0.715  -2.778 -19.426  1.00  0.00    -0.068 SA
BRANCH  25  27
HETATM   27  C12 UNL     1      -1.418  -0.924 -21.418  1.00  0.00     0.161 C 
BRANCH  27  28
HETATM   28  N2  UNL     1      -1.800  -1.326 -22.721  1.00  0.00    -0.308 N 
BRANCH  28  29
HETATM   29  C2  UNL     1      -1.087  -0.611 -23.794  1.00  0.00     0.288 C 
HETATM   30  C1  UNL     1       0.377  -0.773 -23.872  1.00  0.00     0.064 C 
BRANCH  29  31
HETATM   31  N1  UNL     1      -1.443   0.780 -23.693  1.00  0.00    -0.046 N 
ATOM     32  H12 UNL     1      -2.153   0.912 -22.973  1.00  0.00     0.280 HD
ATOM     33  H11 UNL     1      -0.675   1.313 -23.285  1.00  0.00     0.280 HD
BRANCH  31  34
HETATM   34  C3  UNL     1      -1.872   1.389 -24.942  1.00  0.00     0.117 C 
HETATM   35  C4  UNL     1      -3.107   2.225 -24.524  1.00  0.00     0.045 C 
HETATM   36  C5  UNL     1      -0.888   2.357 -25.522  1.00  0.00     0.045 C 
HETATM   37  C6  UNL     1      -2.385   0.421 -25.954  1.00  0.00     0.045 C 
ENDBRANCH  31  34
ENDBRANCH  29  31
ENDBRANCH  28  29
BRANCH  28  38
HETATM   38  C7  UNL     1      -2.677  -2.382 -23.078  1.00  0.00     0.093 C 
BRANCH  38  39
HETATM   39  C8  UNL     1      -4.124  -2.262 -23.154  1.00  0.00     0.020 C 
BRANCH  39  40
HETATM   40  C9  UNL     1      -4.810  -1.639 -24.318  1.00  0.00     0.300 C 
BRANCH  40  41
HETATM   41  N3  UNL     1      -5.588  -2.693 -24.994  1.00  0.00     0.083 N 
HETATM   42  C10 UNL     1      -4.807  -3.121 -26.133  1.00  0.00     0.309 C 
HETATM   43  C11 UNL     1      -6.888  -2.257 -25.387  1.00  0.00     0.309 C 
ENDBRANCH  40  41
ENDBRANCH  39  40
ENDBRANCH  38  39
ENDBRANCH  28  38
ENDBRANCH  27  28
BRANCH  27  44
HETATM   44  O1  UNL     1      -2.073   0.106 -20.921  1.00  0.00    -0.345 OA
ATOM     45  H1  UNL     1      -1.603   0.931 -20.915  1.00  0.00     0.219 HD
ENDBRANCH  27  44
ENDBRANCH  25  27
ENDBRANCH  19  22
ENDBRANCH   1  18
TORSDOF 16
ENDMDL
