MODEL 1
REMARK VINA RESULT: -6.727480832      0.000      0.000
REMARK  3 active torsions:
REMARK  status: ('A' for Active; 'I' for Inactive)
REMARK    1  A    between atoms: N1_4  and  C4_5 
REMARK    2  A    between atoms: C4_5  and  C5_6 
REMARK    3  A    between atoms: C5_6  and  N2_7 
ROOT
HETATM    1  N2  UNL     1      24.233  24.260  13.399  1.00  0.00    -0.408 N 
HETATM    2  C6  UNL     1      24.514  23.610  12.171  1.00  0.00     0.138 C 
HETATM    3  C7  UNL     1      25.731  24.171  11.466  1.00  0.00     0.158 C 
HETATM    4  N3  UNL     1      26.914  23.678  12.133  1.00  0.00    -0.339 N 
ATOM      5  H3  UNL     1      27.664  23.329  11.535  1.00  0.00     0.179 HD
HETATM    6  N4  UNL     1      27.112  23.635  13.351  1.00  0.00    -0.339 N 
ATOM      7  H4  UNL     1      28.021  23.246  13.599  1.00  0.00     0.179 HD
HETATM    8  C8  UNL     1      26.334  24.016  14.477  1.00  0.00     0.158 C 
HETATM    9  C9  UNL     1      25.264  24.996  14.020  1.00  0.00     0.138 C 
ENDROOT
BRANCH   1  10
HETATM   10  C5  UNL     1      22.927  24.825  13.496  1.00  0.00     0.137 C 
BRANCH  10  11
HETATM   11  C4  UNL     1      22.505  25.012  14.963  1.00  0.00     0.146 C 
BRANCH  11  12
HETATM   12  N1  UNL     1      22.362  26.384  15.236  1.00  0.00    -0.372 N 
HETATM   13  C3  UNL     1      21.284  27.085  14.706  1.00  0.00     0.063 C 
HETATM   14  C2  UNL     1      21.266  28.546  15.007  1.00  0.00     0.045 C 
HETATM   15  C1  UNL     1      21.780  28.925  16.371  1.00  0.00     0.010 C 
HETATM   16  C11 UNL     1      23.191  28.351  16.463  1.00  0.00     0.045 C 
HETATM   17  C10 UNL     1      23.141  26.848  16.286  1.00  0.00     0.063 C 
ENDBRANCH  11  12
ENDBRANCH  10  11
ENDBRANCH   1  10
TORSDOF 3
ENDMDL
MODEL 2
REMARK VINA RESULT: -6.568287922      1.044      1.692
REMARK  3 active torsions:
REMARK  status: ('A' for Active; 'I' for Inactive)
REMARK    1  A    between atoms: N1_4  and  C4_5 
REMARK    2  A    between atoms: C4_5  and  C5_6 
REMARK    3  A    between atoms: C5_6  and  N2_7 
ROOT
HETATM    1  N2  UNL     1      24.589  24.928  13.157  1.00  0.00    -0.408 N 
HETATM    2  C6  UNL     1      24.780  24.134  11.999  1.00  0.00     0.138 C 
HETATM    3  C7  UNL     1      26.151  24.306  11.381  1.00  0.00     0.158 C 
HETATM    4  N3  UNL     1      27.109  23.579  12.181  1.00  0.00    -0.339 N 
ATOM      5  H3  UNL     1      27.784  23.004  11.675  1.00  0.00     0.179 HD
HETATM    6  N4  UNL     1      27.197  23.582  13.412  1.00  0.00    -0.339 N 
ATOM      7  H4  UNL     1      27.951  22.993  13.765  1.00  0.00     0.179 HD
HETATM    8  C8  UNL     1      26.464  24.238  14.438  1.00  0.00     0.158 C 
HETATM    9  C9  UNL     1      25.727  25.420  13.829  1.00  0.00     0.138 C 
ENDROOT
BRANCH   1  10
HETATM   10  C5  UNL     1      23.473  25.816  13.101  1.00  0.00     0.137 C 
BRANCH  10  11
HETATM   11  C4  UNL     1      23.881  27.252  13.471  1.00  0.00     0.146 C 
BRANCH  11  12
HETATM   12  N1  UNL     1      23.032  27.731  14.485  1.00  0.00    -0.372 N 
HETATM   13  C3  UNL     1      23.445  27.681  15.812  1.00  0.00     0.063 C 
HETATM   14  C2  UNL     1      22.442  28.156  16.809  1.00  0.00     0.045 C 
HETATM   15  C1  UNL     1      21.589  29.312  16.357  1.00  0.00     0.010 C 
HETATM   16  C11 UNL     1      20.921  28.859  15.061  1.00  0.00     0.045 C 
HETATM   17  C10 UNL     1      21.981  28.516  14.037  1.00  0.00     0.063 C 
ENDBRANCH  11  12
ENDBRANCH  10  11
ENDBRANCH   1  10
TORSDOF 3
ENDMDL
MODEL 3
REMARK VINA RESULT: -6.419332747      1.501      2.418
REMARK  3 active torsions:
REMARK  status: ('A' for Active; 'I' for Inactive)
REMARK    1  A    between atoms: N1_4  and  C4_5 
REMARK    2  A    between atoms: C4_5  and  C5_6 
REMARK    3  A    between atoms: C5_6  and  N2_7 
ROOT
HETATM    1  N2  UNL     1      25.125  26.250  13.271  1.00  0.00    -0.408 N 
HETATM    2  C6  UNL     1      24.806  25.642  12.031  1.00  0.00     0.138 C 
HETATM    3  C7  UNL     1      26.021  25.115  11.297  1.00  0.00     0.158 C 
HETATM    4  N3  UNL     1      26.439  23.884  11.927  1.00  0.00    -0.339 N 
ATOM      5  H3  UNL     1      26.663  23.106  11.306  1.00  0.00     0.179 HD
HETATM    6  N4  UNL     1      26.552  23.676  13.139  1.00  0.00    -0.339 N 
ATOM      7  H4  UNL     1      26.862  22.729  13.359  1.00  0.00     0.179 HD
HETATM    8  C8  UNL     1      26.340  24.483  14.289  1.00  0.00     0.158 C 
HETATM    9  C9  UNL     1      26.366  25.944  13.868  1.00  0.00     0.138 C 
ENDROOT
BRANCH   1  10
HETATM   10  C5  UNL     1      24.690  27.602  13.408  1.00  0.00     0.137 C 
BRANCH  10  11
HETATM   11  C4  UNL     1      23.185  27.677  13.715  1.00  0.00     0.146 C 
BRANCH  11  12
HETATM   12  N1  UNL     1      22.880  26.800  14.771  1.00  0.00    -0.372 N 
HETATM   13  C3  UNL     1      23.329  27.085  16.056  1.00  0.00     0.063 C 
HETATM   14  C2  UNL     1      23.003  26.057  17.087  1.00  0.00     0.045 C 
HETATM   15  C1  UNL     1      21.667  25.383  16.917  1.00  0.00     0.010 C 
HETATM   16  C11 UNL     1      21.672  24.787  15.512  1.00  0.00     0.045 C 
HETATM   17  C10 UNL     1      21.872  25.889  14.494  1.00  0.00     0.063 C 
ENDBRANCH  11  12
ENDBRANCH  10  11
ENDBRANCH   1  10
TORSDOF 3
ENDMDL
MODEL 4
REMARK VINA RESULT: -6.335246149      1.407      2.502
REMARK  3 active torsions:
REMARK  status: ('A' for Active; 'I' for Inactive)
REMARK    1  A    between atoms: N1_4  and  C4_5 
REMARK    2  A    between atoms: C4_5  and  C5_6 
REMARK    3  A    between atoms: C5_6  and  N2_7 
ROOT
HETATM    1  N2  UNL     1      25.737  26.215  12.893  1.00  0.00    -0.408 N 
HETATM    2  C6  UNL     1      26.505  25.820  14.018  1.00  0.00     0.138 C 
HETATM    3  C7  UNL     1      26.245  24.391  14.442  1.00  0.00     0.158 C 
HETATM    4  N3  UNL     1      26.922  23.508  13.522  1.00  0.00    -0.339 N 
ATOM      5  H3  UNL     1      27.451  22.738  13.932  1.00  0.00     0.179 HD
HETATM    6  N4  UNL     1      26.929  23.589  12.290  1.00  0.00    -0.339 N 
ATOM      7  H4  UNL     1      27.477  22.857  11.839  1.00  0.00     0.179 HD
HETATM    8  C8  UNL     1      26.331  24.493  11.371  1.00  0.00     0.158 C 
HETATM    9  C9  UNL     1      25.187  25.210  12.070  1.00  0.00     0.138 C 
ENDROOT
BRANCH   1  10
HETATM   10  C5  UNL     1      24.917  27.364  13.099  1.00  0.00     0.137 C 
BRANCH  10  11
HETATM   11  C4  UNL     1      23.423  27.005  13.033  1.00  0.00     0.146 C 
BRANCH  11  12
HETATM   12  N1  UNL     1      22.959  26.703  14.326  1.00  0.00    -0.372 N 
HETATM   13  C3  UNL     1      22.422  25.448  14.591  1.00  0.00     0.063 C 
HETATM   14  C2  UNL     1      21.903  25.258  15.977  1.00  0.00     0.045 C 
HETATM   15  C1  UNL     1      22.690  25.954  17.056  1.00  0.00     0.010 C 
HETATM   16  C11 UNL     1      22.724  27.430  16.666  1.00  0.00     0.045 C 
HETATM   17  C10 UNL     1      23.381  27.583  15.312  1.00  0.00     0.063 C 
ENDBRANCH  11  12
ENDBRANCH  10  11
ENDBRANCH   1  10
TORSDOF 3
ENDMDL
MODEL 5
REMARK VINA RESULT: -6.272944013      1.239      1.541
REMARK  3 active torsions:
REMARK  status: ('A' for Active; 'I' for Inactive)
REMARK    1  A    between atoms: N1_4  and  C4_5 
REMARK    2  A    between atoms: C4_5  and  C5_6 
REMARK    3  A    between atoms: C5_6  and  N2_7 
ROOT
HETATM    1  N2  UNL     1      24.466  24.642  13.626  1.00  0.00    -0.408 N 
HETATM    2  C6  UNL     1      23.853  25.560  12.737  1.00  0.00     0.138 C 
HETATM    3  C7  UNL     1      24.798  26.636  12.248  1.00  0.00     0.158 C 
HETATM    4  N3  UNL     1      25.665  26.063  11.245  1.00  0.00    -0.339 N 
ATOM      5  H3  UNL     1      25.806  26.611  10.395  1.00  0.00     0.179 HD
HETATM    6  N4  UNL     1      26.253  24.979  11.308  1.00  0.00    -0.339 N 
ATOM      7  H4  UNL     1      26.812  24.774  10.480  1.00  0.00     0.179 HD
HETATM    8  C8  UNL     1      26.310  23.960  12.296  1.00  0.00     0.158 C 
HETATM    9  C9  UNL     1      25.874  24.549  13.628  1.00  0.00     0.138 C 
ENDROOT
BRANCH   1  10
HETATM   10  C5  UNL     1      23.837  24.528  14.901  1.00  0.00     0.137 C 
BRANCH  10  11
HETATM   11  C4  UNL     1      22.368  24.978  14.844  1.00  0.00     0.146 C 
BRANCH  11  12
HETATM   12  N1  UNL     1      22.285  26.341  15.178  1.00  0.00    -0.372 N 
HETATM   13  C3  UNL     1      21.202  27.095  14.739  1.00  0.00     0.063 C 
HETATM   14  C2  UNL     1      21.247  28.543  15.097  1.00  0.00     0.045 C 
HETATM   15  C1  UNL     1      21.848  28.850  16.443  1.00  0.00     0.010 C 
HETATM   16  C11 UNL     1      23.243  28.231  16.432  1.00  0.00     0.045 C 
HETATM   17  C10 UNL     1      23.135  26.740  16.199  1.00  0.00     0.063 C 
ENDBRANCH  11  12
ENDBRANCH  10  11
ENDBRANCH   1  10
TORSDOF 3
ENDMDL
