MODEL 1
REMARK VINA RESULT: -7.115733700      0.000      0.000
REMARK  8 active torsions:
REMARK  status: ('A' for Active; 'I' for Inactive)
REMARK    1  A    between atoms: C2_2  and  O1_5 
REMARK    2  A    between atoms: O1_5  and  C5_6 
REMARK       I    between atoms: C5_6  and  N1_8 
REMARK    3  A    between atoms: C8_11  and  C9_12 
REMARK       I    between atoms: C9_12  and  N2_14 
REMARK    4  A    between atoms: N2_14  and  C10_16 
REMARK    5  A    between atoms: C10_16  and  C11_17 
REMARK       I    between atoms: C11_17  and  N3_19 
REMARK    6  A    between atoms: N3_19  and  C12_21 
REMARK    7  A    between atoms: C12_21  and  C13_22 
REMARK       I    between atoms: C13_22  and  N4_24 
REMARK    8  A    between atoms: N4_24  and  C14_26 
ROOT
HETATM    1  C9  UNL     1      -5.005  26.826  -4.729  1.00  0.00     0.223 C 
HETATM    2  O3  UNL     1      -4.257  27.834  -4.680  1.00  0.00    -0.273 OA
HETATM    3  N2  UNL     1      -4.898  25.865  -3.689  1.00  0.00    -0.352 N 
ATOM      4  H2  UNL     1      -5.498  25.042  -3.731  1.00  0.00     0.162 HD
ENDROOT
BRANCH   3   5
HETATM    5  C10 UNL     1      -3.992  25.989  -2.585  1.00  0.00     0.225 C 
BRANCH   5   6
HETATM    6  C11 UNL     1      -4.636  26.533  -1.394  1.00  0.00     0.235 C 
HETATM    7  O4  UNL     1      -3.869  27.132  -0.561  1.00  0.00    -0.272 OA
HETATM    8  N3  UNL     1      -5.994  26.452  -1.092  1.00  0.00    -0.351 N 
ATOM      9  H3  UNL     1      -6.609  25.963  -1.743  1.00  0.00     0.163 HD
BRANCH   8  10
HETATM   10  C12 UNL     1      -6.573  27.034   0.109  1.00  0.00     0.225 C 
BRANCH  10  11
HETATM   11  C13 UNL     1      -6.948  28.440  -0.088  1.00  0.00     0.235 C 
HETATM   12  O5  UNL     1      -7.728  28.769  -1.009  1.00  0.00    -0.272 OA
HETATM   13  N4  UNL     1      -6.448  29.486   0.750  1.00  0.00    -0.355 N 
ATOM     14  H4  UNL     1      -5.810  29.250   1.510  1.00  0.00     0.162 HD
BRANCH  13  15
HETATM   15  C14 UNL     1      -6.822  30.868   0.551  1.00  0.00     0.084 C 
HETATM   16  C15 UNL     1      -7.999  31.228   1.410  1.00  0.00     0.025 C 
HETATM   17  C16 UNL     1      -8.147  32.711   1.610  1.00  0.00     0.002 C 
HETATM   18  C17 UNL     1      -6.913  33.371   2.143  1.00  0.00     0.000 C 
HETATM   19  C18 UNL     1      -5.810  32.340   2.215  1.00  0.00     0.002 C 
HETATM   20  C19 UNL     1      -5.644  31.778   0.811  1.00  0.00     0.025 C 
ENDBRANCH  13  15
ENDBRANCH  10  11
ENDBRANCH   8  10
ENDBRANCH   5   6
ENDBRANCH   3   5
BRANCH   1  21
HETATM   21  C8  UNL     1      -5.946  26.684  -5.841  1.00  0.00     0.097 C 
HETATM   22  C7  UNL     1      -7.038  25.676  -5.564  1.00  0.00     0.035 C 
HETATM   23  C6  UNL     1      -8.173  26.499  -5.081  1.00  0.00     0.129 C 
HETATM   24  N1  UNL     1      -7.864  27.883  -5.370  1.00  0.00    -0.327 N 
HETATM   25  C5  UNL     1      -8.627  28.996  -4.876  1.00  0.00     0.363 C 
HETATM   26  C20 UNL     1      -6.694  27.919  -6.213  1.00  0.00     0.142 C 
HETATM   27  O2  UNL     1      -8.311  30.184  -5.161  1.00  0.00    -0.238 OA
BRANCH  25  28
HETATM   28  O1  UNL     1      -9.737  28.819  -4.072  1.00  0.00    -0.294 OA
BRANCH  28  29
HETATM   29  C2  UNL     1     -11.071  28.876  -4.486  1.00  0.00     0.061 C 
HETATM   30  C1  UNL     1     -11.705  30.225  -4.377  1.00  0.00     0.046 C 
HETATM   31  C3  UNL     1     -11.265  28.383  -5.905  1.00  0.00     0.046 C 
HETATM   32  C4  UNL     1     -11.862  27.917  -3.590  1.00  0.00     0.046 C 
ENDBRANCH  28  29
ENDBRANCH  25  28
ENDBRANCH   1  21
TORSDOF 8
ENDMDL
MODEL 2
REMARK VINA RESULT: -7.018262461      1.486      1.893
REMARK  8 active torsions:
REMARK  status: ('A' for Active; 'I' for Inactive)
REMARK    1  A    between atoms: C2_2  and  O1_5 
REMARK    2  A    between atoms: O1_5  and  C5_6 
REMARK       I    between atoms: C5_6  and  N1_8 
REMARK    3  A    between atoms: C8_11  and  C9_12 
REMARK       I    between atoms: C9_12  and  N2_14 
REMARK    4  A    between atoms: N2_14  and  C10_16 
REMARK    5  A    between atoms: C10_16  and  C11_17 
REMARK       I    between atoms: C11_17  and  N3_19 
REMARK    6  A    between atoms: N3_19  and  C12_21 
REMARK    7  A    between atoms: C12_21  and  C13_22 
REMARK       I    between atoms: C13_22  and  N4_24 
REMARK    8  A    between atoms: N4_24  and  C14_26 
ROOT
HETATM    1  C9  UNL     1      -4.737  26.159  -3.546  1.00  0.00     0.223 C 
HETATM    2  O3  UNL     1      -4.277  26.952  -2.687  1.00  0.00    -0.273 OA
HETATM    3  N2  UNL     1      -5.400  24.991  -3.087  1.00  0.00    -0.352 N 
ATOM      4  H2  UNL     1      -5.767  24.341  -3.782  1.00  0.00     0.162 HD
ENDROOT
BRANCH   3   5
HETATM    5  C10 UNL     1      -5.582  24.675  -1.700  1.00  0.00     0.225 C 
BRANCH   5   6
HETATM    6  C11 UNL     1      -6.693  25.407  -1.102  1.00  0.00     0.235 C 
HETATM    7  O4  UNL     1      -7.866  24.973  -1.374  1.00  0.00    -0.272 OA
HETATM    8  N3  UNL     1      -6.582  26.524  -0.276  1.00  0.00    -0.351 N 
ATOM      9  H3  UNL     1      -5.652  26.886  -0.068  1.00  0.00     0.163 HD
BRANCH   8  10
HETATM   10  C12 UNL     1      -7.737  27.197   0.302  1.00  0.00     0.225 C 
BRANCH  10  11
HETATM   11  C13 UNL     1      -7.706  28.645   0.059  1.00  0.00     0.235 C 
HETATM   12  O5  UNL     1      -8.262  29.135  -0.949  1.00  0.00    -0.272 OA
HETATM   13  N4  UNL     1      -7.049  29.552   0.949  1.00  0.00    -0.355 N 
ATOM     14  H4  UNL     1      -6.587  29.184   1.779  1.00  0.00     0.162 HD
BRANCH  13  15
HETATM   15  C14 UNL     1      -7.024  30.977   0.704  1.00  0.00     0.084 C 
HETATM   16  C15 UNL     1      -8.127  31.663   1.455  1.00  0.00     0.025 C 
HETATM   17  C16 UNL     1      -7.890  33.139   1.626  1.00  0.00     0.002 C 
HETATM   18  C17 UNL     1      -6.572  33.465   2.258  1.00  0.00     0.000 C 
HETATM   19  C18 UNL     1      -5.794  32.182   2.435  1.00  0.00     0.002 C 
HETATM   20  C19 UNL     1      -5.671  31.550   1.057  1.00  0.00     0.025 C 
ENDBRANCH  13  15
ENDBRANCH  10  11
ENDBRANCH   8  10
ENDBRANCH   5   6
ENDBRANCH   3   5
BRANCH   1  21
HETATM   21  C8  UNL     1      -4.573  26.467  -4.968  1.00  0.00     0.097 C 
HETATM   22  C7  UNL     1      -5.185  25.421  -5.872  1.00  0.00     0.035 C 
HETATM   23  C6  UNL     1      -6.525  25.968  -6.198  1.00  0.00     0.129 C 
HETATM   24  N1  UNL     1      -6.544  27.354  -5.783  1.00  0.00    -0.327 N 
HETATM   25  C5  UNL     1      -7.730  28.166  -5.751  1.00  0.00     0.363 C 
HETATM   26  C20 UNL     1      -5.201  27.739  -5.427  1.00  0.00     0.142 C 
HETATM   27  O2  UNL     1      -7.688  29.371  -5.380  1.00  0.00    -0.238 OA
BRANCH  25  28
HETATM   28  O1  UNL     1      -8.964  27.668  -6.124  1.00  0.00    -0.294 OA
BRANCH  28  29
HETATM   29  C2  UNL     1      -9.922  27.119  -5.268  1.00  0.00     0.061 C 
HETATM   30  C1  UNL     1      -9.466  26.923  -3.858  1.00  0.00     0.046 C 
HETATM   31  C3  UNL     1     -11.207  27.920  -5.235  1.00  0.00     0.046 C 
HETATM   32  C4  UNL     1     -10.294  25.743  -5.831  1.00  0.00     0.046 C 
ENDBRANCH  28  29
ENDBRANCH  25  28
ENDBRANCH   1  21
TORSDOF 8
ENDMDL
MODEL 3
REMARK VINA RESULT: -7.010828746      2.104      7.553
REMARK  8 active torsions:
REMARK  status: ('A' for Active; 'I' for Inactive)
REMARK    1  A    between atoms: C2_2  and  O1_5 
REMARK    2  A    between atoms: O1_5  and  C5_6 
REMARK       I    between atoms: C5_6  and  N1_8 
REMARK    3  A    between atoms: C8_11  and  C9_12 
REMARK       I    between atoms: C9_12  and  N2_14 
REMARK    4  A    between atoms: N2_14  and  C10_16 
REMARK    5  A    between atoms: C10_16  and  C11_17 
REMARK       I    between atoms: C11_17  and  N3_19 
REMARK    6  A    between atoms: N3_19  and  C12_21 
REMARK    7  A    between atoms: C12_21  and  C13_22 
REMARK       I    between atoms: C13_22  and  N4_24 
REMARK    8  A    between atoms: N4_24  and  C14_26 
ROOT
HETATM    1  C9  UNL     1      -6.675  26.669  -0.593  1.00  0.00     0.223 C 
HETATM    2  O3  UNL     1      -5.861  27.621  -0.698  1.00  0.00    -0.273 OA
HETATM    3  N2  UNL     1      -6.418  25.488  -1.338  1.00  0.00    -0.352 N 
ATOM      4  H2  UNL     1      -7.080  24.717  -1.262  1.00  0.00     0.162 HD
ENDROOT
BRANCH   3   5
HETATM    5  C10 UNL     1      -5.277  25.320  -2.191  1.00  0.00     0.225 C 
BRANCH   5   6
HETATM    6  C11 UNL     1      -5.493  25.871  -3.525  1.00  0.00     0.235 C 
HETATM    7  O4  UNL     1      -5.935  25.054  -4.407  1.00  0.00    -0.272 OA
HETATM    8  N3  UNL     1      -5.259  27.189  -3.911  1.00  0.00    -0.351 N 
ATOM      9  H3  UNL     1      -4.891  27.841  -3.218  1.00  0.00     0.163 HD
BRANCH   8  10
HETATM   10  C12 UNL     1      -5.514  27.675  -5.259  1.00  0.00     0.225 C 
BRANCH  10  11
HETATM   11  C13 UNL     1      -6.950  27.797  -5.536  1.00  0.00     0.235 C 
HETATM   12  O5  UNL     1      -7.587  28.811  -5.171  1.00  0.00    -0.272 OA
HETATM   13  N4  UNL     1      -7.682  26.779  -6.225  1.00  0.00    -0.355 N 
ATOM     14  H4  UNL     1      -7.191  25.940  -6.535  1.00  0.00     0.162 HD
BRANCH  13  15
HETATM   15  C14 UNL     1      -9.097  26.905  -6.495  1.00  0.00     0.084 C 
HETATM   16  C15 UNL     1      -9.326  27.512  -7.849  1.00  0.00     0.025 C 
HETATM   17  C16 UNL     1     -10.708  27.251  -8.382  1.00  0.00     0.002 C 
HETATM   18  C17 UNL     1     -11.075  25.799  -8.410  1.00  0.00     0.000 C 
HETATM   19  C18 UNL     1      -9.960  25.009  -7.766  1.00  0.00     0.002 C 
HETATM   20  C19 UNL     1      -9.782  25.565  -6.362  1.00  0.00     0.025 C 
ENDBRANCH  13  15
ENDBRANCH  10  11
ENDBRANCH   8  10
ENDBRANCH   5   6
ENDBRANCH   3   5
BRANCH   1  21
HETATM   21  C8  UNL     1      -7.840  26.814   0.281  1.00  0.00     0.097 C 
HETATM   22  C7  UNL     1      -7.470  26.911   1.744  1.00  0.00     0.035 C 
HETATM   23  C6  UNL     1      -7.443  28.370   2.011  1.00  0.00     0.129 C 
HETATM   24  N1  UNL     1      -8.064  29.032   0.885  1.00  0.00    -0.327 N 
HETATM   25  C5  UNL     1      -8.049  30.456   0.682  1.00  0.00     0.363 C 
HETATM   26  C20 UNL     1      -8.673  28.028   0.047  1.00  0.00     0.142 C 
HETATM   27  O2  UNL     1      -8.608  30.980  -0.320  1.00  0.00    -0.238 OA
BRANCH  25  28
HETATM   28  O1  UNL     1      -7.426  31.311   1.571  1.00  0.00    -0.294 OA
BRANCH  28  29
HETATM   29  C2  UNL     1      -6.208  31.967   1.365  1.00  0.00     0.061 C 
HETATM   30  C1  UNL     1      -5.261  31.259   0.450  1.00  0.00     0.046 C 
HETATM   31  C3  UNL     1      -6.384  33.380   0.851  1.00  0.00     0.046 C 
HETATM   32  C4  UNL     1      -5.527  32.092   2.732  1.00  0.00     0.046 C 
ENDBRANCH  28  29
ENDBRANCH  25  28
ENDBRANCH   1  21
TORSDOF 8
ENDMDL
MODEL 4
REMARK VINA RESULT: -6.999973337      2.541      6.273
REMARK  8 active torsions:
REMARK  status: ('A' for Active; 'I' for Inactive)
REMARK    1  A    between atoms: C2_2  and  O1_5 
REMARK    2  A    between atoms: O1_5  and  C5_6 
REMARK       I    between atoms: C5_6  and  N1_8 
REMARK    3  A    between atoms: C8_11  and  C9_12 
REMARK       I    between atoms: C9_12  and  N2_14 
REMARK    4  A    between atoms: N2_14  and  C10_16 
REMARK    5  A    between atoms: C10_16  and  C11_17 
REMARK       I    between atoms: C11_17  and  N3_19 
REMARK    6  A    between atoms: N3_19  and  C12_21 
REMARK    7  A    between atoms: C12_21  and  C13_22 
REMARK       I    between atoms: C13_22  and  N4_24 
REMARK    8  A    between atoms: N4_24  and  C14_26 
ROOT
HETATM    1  C9  UNL     1      -7.761  27.480   0.807  1.00  0.00     0.223 C 
HETATM    2  O3  UNL     1      -7.402  27.092   1.947  1.00  0.00    -0.273 OA
HETATM    3  N2  UNL     1      -7.766  28.876   0.549  1.00  0.00    -0.352 N 
ATOM      4  H2  UNL     1      -8.065  29.194  -0.372  1.00  0.00     0.162 HD
ENDROOT
BRANCH   3   5
HETATM    5  C10 UNL     1      -7.375  29.863   1.513  1.00  0.00     0.225 C 
BRANCH   5   6
HETATM    6  C11 UNL     1      -7.544  31.225   1.018  1.00  0.00     0.235 C 
HETATM    7  O4  UNL     1      -8.534  31.880   1.498  1.00  0.00    -0.272 OA
HETATM    8  N3  UNL     1      -6.732  31.857   0.078  1.00  0.00    -0.351 N 
ATOM      9  H3  UNL     1      -5.952  31.336  -0.321  1.00  0.00     0.163 HD
BRANCH   8  10
HETATM   10  C12 UNL     1      -6.950  33.229  -0.359  1.00  0.00     0.225 C 
BRANCH  10  11
HETATM   11  C13 UNL     1      -7.768  33.293  -1.576  1.00  0.00     0.235 C 
HETATM   12  O5  UNL     1      -7.351  33.888  -2.595  1.00  0.00    -0.272 OA
HETATM   13  N4  UNL     1      -9.062  32.689  -1.657  1.00  0.00    -0.355 N 
ATOM     14  H4  UNL     1      -9.430  32.197  -0.843  1.00  0.00     0.162 HD
BRANCH  13  15
HETATM   15  C14 UNL     1      -9.862  32.755  -2.860  1.00  0.00     0.084 C 
HETATM   16  C15 UNL     1     -10.310  31.384  -3.274  1.00  0.00     0.025 C 
HETATM   17  C16 UNL     1     -11.491  31.410  -4.205  1.00  0.00     0.002 C 
HETATM   18  C17 UNL     1     -12.658  32.182  -3.672  1.00  0.00     0.000 C 
HETATM   19  C18 UNL     1     -12.252  32.826  -2.367  1.00  0.00     0.002 C 
HETATM   20  C19 UNL     1     -11.035  33.688  -2.664  1.00  0.00     0.025 C 
ENDBRANCH  13  15
ENDBRANCH  10  11
ENDBRANCH   8  10
ENDBRANCH   5   6
ENDBRANCH   3   5
BRANCH   1  21
HETATM   21  C8  UNL     1      -8.154  26.490  -0.197  1.00  0.00     0.097 C 
HETATM   22  C7  UNL     1      -8.694  27.116  -1.463  1.00  0.00     0.035 C 
HETATM   23  C6  UNL     1      -7.522  27.156  -2.372  1.00  0.00     0.129 C 
HETATM   24  N1  UNL     1      -6.490  26.324  -1.791  1.00  0.00    -0.327 N 
HETATM   25  C5  UNL     1      -5.138  26.268  -2.275  1.00  0.00     0.363 C 
HETATM   26  C20 UNL     1      -7.062  25.599  -0.684  1.00  0.00     0.142 C 
HETATM   27  O2  UNL     1      -4.278  25.523  -1.729  1.00  0.00    -0.238 OA
BRANCH  25  28
HETATM   28  O1  UNL     1      -4.719  27.021  -3.356  1.00  0.00    -0.294 OA
BRANCH  28  29
HETATM   29  C2  UNL     1      -4.513  26.550  -4.656  1.00  0.00     0.061 C 
HETATM   30  C1  UNL     1      -3.199  25.871  -4.877  1.00  0.00     0.046 C 
HETATM   31  C3  UNL     1      -5.607  25.611  -5.119  1.00  0.00     0.046 C 
HETATM   32  C4  UNL     1      -4.571  27.764  -5.590  1.00  0.00     0.046 C 
ENDBRANCH  28  29
ENDBRANCH  25  28
ENDBRANCH   1  21
TORSDOF 8
ENDMDL
MODEL 5
REMARK VINA RESULT: -6.960556049      1.707      2.446
REMARK  8 active torsions:
REMARK  status: ('A' for Active; 'I' for Inactive)
REMARK    1  A    between atoms: C2_2  and  O1_5 
REMARK    2  A    between atoms: O1_5  and  C5_6 
REMARK       I    between atoms: C5_6  and  N1_8 
REMARK    3  A    between atoms: C8_11  and  C9_12 
REMARK       I    between atoms: C9_12  and  N2_14 
REMARK    4  A    between atoms: N2_14  and  C10_16 
REMARK    5  A    between atoms: C10_16  and  C11_17 
REMARK       I    between atoms: C11_17  and  N3_19 
REMARK    6  A    between atoms: N3_19  and  C12_21 
REMARK    7  A    between atoms: C12_21  and  C13_22 
REMARK       I    between atoms: C13_22  and  N4_24 
REMARK    8  A    between atoms: N4_24  and  C14_26 
ROOT
HETATM    1  C9  UNL     1      -4.321  26.523  -3.659  1.00  0.00     0.223 C 
HETATM    2  O3  UNL     1      -3.231  26.110  -3.190  1.00  0.00    -0.273 OA
HETATM    3  N2  UNL     1      -5.337  26.908  -2.744  1.00  0.00    -0.352 N 
ATOM      4  H2  UNL     1      -6.225  27.236  -3.122  1.00  0.00     0.162 HD
ENDROOT
BRANCH   3   5
HETATM    5  C10 UNL     1      -5.181  26.861  -1.320  1.00  0.00     0.225 C 
BRANCH   5   6
HETATM    6  C11 UNL     1      -6.323  27.432  -0.615  1.00  0.00     0.235 C 
HETATM    7  O4  UNL     1      -7.420  26.775  -0.691  1.00  0.00    -0.272 OA
HETATM    8  N3  UNL     1      -6.319  28.617   0.120  1.00  0.00    -0.351 N 
ATOM      9  H3  UNL     1      -5.453  29.154   0.172  1.00  0.00     0.163 HD
BRANCH   8  10
HETATM   10  C12 UNL     1      -7.494  29.121   0.815  1.00  0.00     0.225 C 
BRANCH  10  11
HETATM   11  C13 UNL     1      -7.575  30.586   0.764  1.00  0.00     0.235 C 
HETATM   12  O5  UNL     1      -7.441  31.195  -0.321  1.00  0.00    -0.272 OA
HETATM   13  N4  UNL     1      -7.808  31.377   1.933  1.00  0.00    -0.355 N 
ATOM     14  H4  UNL     1      -7.922  30.909   2.832  1.00  0.00     0.162 HD
BRANCH  13  15
HETATM   15  C14 UNL     1      -7.887  32.819   1.876  1.00  0.00     0.084 C 
HETATM   16  C15 UNL     1      -9.126  33.309   2.567  1.00  0.00     0.025 C 
HETATM   17  C16 UNL     1      -9.048  34.761   2.952  1.00  0.00     0.002 C 
HETATM   18  C17 UNL     1      -7.844  35.098   3.776  1.00  0.00     0.000 C 
HETATM   19  C18 UNL     1      -6.975  33.867   3.883  1.00  0.00     0.002 C 
HETATM   20  C19 UNL     1      -6.641  33.441   2.462  1.00  0.00     0.025 C 
ENDBRANCH  13  15
ENDBRANCH  10  11
ENDBRANCH   8  10
ENDBRANCH   5   6
ENDBRANCH   3   5
BRANCH   1  21
HETATM   21  C8  UNL     1      -4.498  26.591  -5.110  1.00  0.00     0.097 C 
HETATM   22  C7  UNL     1      -5.201  25.378  -5.675  1.00  0.00     0.035 C 
HETATM   23  C6  UNL     1      -6.622  25.796  -5.767  1.00  0.00     0.129 C 
HETATM   24  N1  UNL     1      -6.668  27.231  -5.580  1.00  0.00    -0.327 N 
HETATM   25  C5  UNL     1      -7.883  27.978  -5.405  1.00  0.00     0.363 C 
HETATM   26  C20 UNL     1      -5.317  27.734  -5.606  1.00  0.00     0.142 C 
HETATM   27  O2  UNL     1      -7.863  29.230  -5.246  1.00  0.00    -0.238 OA
BRANCH  25  28
HETATM   28  O1  UNL     1      -9.122  27.366  -5.403  1.00  0.00    -0.294 OA
BRANCH  28  29
HETATM   29  C2  UNL     1      -9.884  27.048  -6.530  1.00  0.00     0.061 C 
HETATM   30  C1  UNL     1      -9.383  27.633  -7.812  1.00  0.00     0.046 C 
HETATM   31  C3  UNL     1     -10.041  25.555  -6.730  1.00  0.00     0.046 C 
HETATM   32  C4  UNL     1     -11.295  27.596  -6.290  1.00  0.00     0.046 C 
ENDBRANCH  28  29
ENDBRANCH  25  28
ENDBRANCH   1  21
TORSDOF 8
ENDMDL
