MODEL 1
REMARK VINA RESULT: -7.455650076      0.000      0.000
REMARK  8 active torsions:
REMARK  status: ('A' for Active; 'I' for Inactive)
REMARK    1  A    between atoms: O1_2  and  C2_3 
REMARK    2  A    between atoms: N1_6  and  S1_7 
REMARK    3  A    between atoms: S1_7  and  N2_10 
REMARK    4  A    between atoms: C7_13  and  C8_14 
REMARK    5  A    between atoms: C8_14  and  C9_15 
REMARK    6  A    between atoms: C9_15  and  N3_16 
REMARK       I    between atoms: N3_16  and  C10_18 
REMARK       I    between atoms: C10_18  and  N4_20 
REMARK    7  A    between atoms: N4_20  and  C11_22 
REMARK    8  A    between atoms: C11_22  and  C12_26 
ROOT
HETATM    1  N2  UNL     1      -5.407  25.728  -3.050  1.00  0.00    -0.193 NA
HETATM    2  C5  UNL     1      -6.362  24.698  -2.816  1.00  0.00     0.109 C 
HETATM    3  C6  UNL     1      -6.671  24.643  -1.290  1.00  0.00     0.020 C 
HETATM    4  C7  UNL     1      -7.367  25.881  -0.877  1.00  0.00    -0.007 C 
HETATM    5  C16 UNL     1      -6.790  27.063  -1.616  1.00  0.00     0.020 C 
HETATM    6  C17 UNL     1      -5.413  26.768  -2.080  1.00  0.00     0.109 C 
ENDROOT
BRANCH   4   7
HETATM    7  C8  UNL     1      -7.310  26.183   0.587  1.00  0.00     0.049 C 
BRANCH   7   8
HETATM    8  C9  UNL     1      -8.124  27.318   1.089  1.00  0.00     0.066 C 
BRANCH   8   9
HETATM    9  N3  UNL     1      -7.497  28.368   1.775  1.00  0.00    -0.322 N 
HETATM   10  C10 UNL     1      -7.398  29.675   1.123  1.00  0.00     0.325 C 
HETATM   11  O4  UNL     1      -7.898  29.718  -0.019  1.00  0.00    -0.247 OA
HETATM   12  N4  UNL     1      -6.775  30.728   1.799  1.00  0.00    -0.298 N 
ATOM     13  H4  UNL     1      -6.435  30.474   2.725  1.00  0.00     0.172 HD
ATOM     14  H3  UNL     1      -7.118  28.225   2.712  1.00  0.00     0.169 HD
BRANCH  12  15
HETATM   15  C11 UNL     1      -6.528  32.056   1.458  1.00  0.00     0.086 C 
HETATM   16  N5  UNL     1      -5.696  32.254   0.456  1.00  0.00    -0.388 N 
ATOM     17  H52 UNL     1      -5.296  31.429   0.008  1.00  0.00     0.157 HD
ATOM     18  H51 UNL     1      -5.514  33.226   0.207  1.00  0.00     0.157 HD
BRANCH  15  19
HETATM   19  C12 UNL     1      -7.095  33.225   2.093  1.00  0.00     0.007 C 
HETATM   20  C13 UNL     1      -6.547  33.476   3.498  1.00  0.00     0.022 C 
HETATM   21  C14 UNL     1      -8.631  33.108   2.225  1.00  0.00     0.022 C 
HETATM   22  C15 UNL     1      -6.891  34.467   1.252  1.00  0.00     0.022 C 
ENDBRANCH  15  19
ENDBRANCH  12  15
ENDBRANCH   8   9
ENDBRANCH   7   8
ENDBRANCH   4   7
BRANCH   1  23
HETATM   23  S1  UNL     1      -5.487  26.352  -4.633  1.00  0.00     0.304 S 
HETATM   24  O2  UNL     1      -5.057  25.291  -5.653  1.00  0.00    -0.188 OA
HETATM   25  O3  UNL     1      -4.434  27.455  -4.789  1.00  0.00    -0.188 OA
BRANCH  23  26
HETATM   26  N1  UNL     1      -7.001  26.908  -5.120  1.00  0.00    -0.275 N 
HETATM   27  C4  UNL     1      -7.055  28.237  -5.611  1.00  0.00     0.144 C 
HETATM   28  C3  UNL     1      -8.130  28.279  -6.681  1.00  0.00     0.058 C 
HETATM   29  C2  UNL     1      -8.847  26.955  -6.581  1.00  0.00     0.161 C 
HETATM   30  C18 UNL     1      -7.829  26.070  -5.895  1.00  0.00     0.109 C 
BRANCH  29  31
HETATM   31  O1  UNL     1     -10.042  27.029  -5.915  1.00  0.00    -0.385 OA
HETATM   32  C1  UNL     1     -10.485  25.827  -5.405  1.00  0.00     0.202 C 
ENDBRANCH  29  31
ENDBRANCH  23  26
ENDBRANCH   1  23
TORSDOF 8
ENDMDL
MODEL 2
REMARK VINA RESULT: -7.443127824      1.076      1.141
REMARK  8 active torsions:
REMARK  status: ('A' for Active; 'I' for Inactive)
REMARK    1  A    between atoms: O1_2  and  C2_3 
REMARK    2  A    between atoms: N1_6  and  S1_7 
REMARK    3  A    between atoms: S1_7  and  N2_10 
REMARK    4  A    between atoms: C7_13  and  C8_14 
REMARK    5  A    between atoms: C8_14  and  C9_15 
REMARK    6  A    between atoms: C9_15  and  N3_16 
REMARK       I    between atoms: N3_16  and  C10_18 
REMARK       I    between atoms: C10_18  and  N4_20 
REMARK    7  A    between atoms: N4_20  and  C11_22 
REMARK    8  A    between atoms: C11_22  and  C12_26 
ROOT
HETATM    1  N2  UNL     1      -5.461  25.467  -2.842  1.00  0.00    -0.193 NA
HETATM    2  C5  UNL     1      -6.721  24.817  -2.710  1.00  0.00     0.109 C 
HETATM    3  C6  UNL     1      -7.081  24.730  -1.197  1.00  0.00     0.020 C 
HETATM    4  C7  UNL     1      -7.318  26.088  -0.661  1.00  0.00    -0.007 C 
HETATM    5  C16 UNL     1      -6.342  27.059  -1.280  1.00  0.00     0.020 C 
HETATM    6  C17 UNL     1      -5.139  26.349  -1.773  1.00  0.00     0.109 C 
ENDROOT
BRANCH   4   7
HETATM    7  C8  UNL     1      -7.208  26.212   0.825  1.00  0.00     0.049 C 
BRANCH   7   8
HETATM    8  C9  UNL     1      -8.007  27.274   1.488  1.00  0.00     0.066 C 
BRANCH   8   9
HETATM    9  N3  UNL     1      -7.354  28.377   2.057  1.00  0.00    -0.322 N 
HETATM   10  C10 UNL     1      -7.375  29.653   1.340  1.00  0.00     0.325 C 
HETATM   11  O4  UNL     1      -7.992  29.623   0.257  1.00  0.00    -0.247 OA
HETATM   12  N4  UNL     1      -6.727  30.759   1.898  1.00  0.00    -0.298 N 
ATOM     13  H4  UNL     1      -6.282  30.562   2.794  1.00  0.00     0.172 HD
ATOM     14  H3  UNL     1      -6.875  28.292   2.954  1.00  0.00     0.169 HD
BRANCH  12  15
HETATM   15  C11 UNL     1      -6.569  32.076   1.475  1.00  0.00     0.086 C 
HETATM   16  N5  UNL     1      -5.819  32.257   0.406  1.00  0.00    -0.388 N 
ATOM     17  H52 UNL     1      -5.411  31.428  -0.027  1.00  0.00     0.157 HD
ATOM     18  H51 UNL     1      -5.702  33.222   0.096  1.00  0.00     0.157 HD
BRANCH  15  19
HETATM   19  C12 UNL     1      -7.147  33.251   2.089  1.00  0.00     0.007 C 
HETATM   20  C13 UNL     1      -6.620  33.518   3.498  1.00  0.00     0.022 C 
HETATM   21  C14 UNL     1      -8.685  33.133   2.199  1.00  0.00     0.022 C 
HETATM   22  C15 UNL     1      -6.932  34.484   1.238  1.00  0.00     0.022 C 
ENDBRANCH  15  19
ENDBRANCH  12  15
ENDBRANCH   8   9
ENDBRANCH   7   8
ENDBRANCH   4   7
BRANCH   1  23
HETATM   23  S1  UNL     1      -5.267  26.225  -4.354  1.00  0.00     0.304 S 
HETATM   24  O2  UNL     1      -5.424  25.209  -5.492  1.00  0.00    -0.188 OA
HETATM   25  O3  UNL     1      -3.817  26.704  -4.492  1.00  0.00    -0.188 OA
BRANCH  23  26
HETATM   26  N1  UNL     1      -6.338  27.485  -4.680  1.00  0.00    -0.275 N 
HETATM   27  C4  UNL     1      -6.096  28.225  -5.865  1.00  0.00     0.144 C 
HETATM   28  C3  UNL     1      -7.446  28.664  -6.404  1.00  0.00     0.058 C 
HETATM   29  C2  UNL     1      -8.437  28.342  -5.313  1.00  0.00     0.161 C 
HETATM   30  C18 UNL     1      -7.721  27.279  -4.508  1.00  0.00     0.109 C 
BRANCH  29  31
HETATM   31  O1  UNL     1      -8.805  29.432  -4.569  1.00  0.00    -0.385 OA
HETATM   32  C1  UNL     1     -10.077  29.360  -4.041  1.00  0.00     0.202 C 
ENDBRANCH  29  31
ENDBRANCH  23  26
ENDBRANCH   1  23
TORSDOF 8
ENDMDL
MODEL 3
REMARK VINA RESULT: -7.261413247      1.057      1.575
REMARK  8 active torsions:
REMARK  status: ('A' for Active; 'I' for Inactive)
REMARK    1  A    between atoms: O1_2  and  C2_3 
REMARK    2  A    between atoms: N1_6  and  S1_7 
REMARK    3  A    between atoms: S1_7  and  N2_10 
REMARK    4  A    between atoms: C7_13  and  C8_14 
REMARK    5  A    between atoms: C8_14  and  C9_15 
REMARK    6  A    between atoms: C9_15  and  N3_16 
REMARK       I    between atoms: N3_16  and  C10_18 
REMARK       I    between atoms: C10_18  and  N4_20 
REMARK    7  A    between atoms: N4_20  and  C11_22 
REMARK    8  A    between atoms: C11_22  and  C12_26 
ROOT
HETATM    1  N2  UNL     1      -5.316  25.585  -3.089  1.00  0.00    -0.193 NA
HETATM    2  C5  UNL     1      -6.484  24.785  -2.943  1.00  0.00     0.109 C 
HETATM    3  C6  UNL     1      -6.854  24.715  -1.431  1.00  0.00     0.020 C 
HETATM    4  C7  UNL     1      -7.270  26.052  -0.956  1.00  0.00    -0.007 C 
HETATM    5  C16 UNL     1      -6.417  27.115  -1.606  1.00  0.00     0.020 C 
HETATM    6  C17 UNL     1      -5.125  26.544  -2.056  1.00  0.00     0.109 C 
ENDROOT
BRANCH   4   7
HETATM    7  C8  UNL     1      -7.201  26.251   0.525  1.00  0.00     0.049 C 
BRANCH   7   8
HETATM    8  C9  UNL     1      -8.047  27.317   1.117  1.00  0.00     0.066 C 
BRANCH   8   9
HETATM    9  N3  UNL     1      -7.438  28.425   1.726  1.00  0.00    -0.322 N 
HETATM   10  C10 UNL     1      -7.856  29.768   1.320  1.00  0.00     0.325 C 
HETATM   11  O4  UNL     1      -8.741  29.787   0.441  1.00  0.00    -0.247 OA
HETATM   12  N4  UNL     1      -7.255  30.878   1.921  1.00  0.00    -0.298 N 
ATOM     13  H4  UNL     1      -6.551  30.635   2.617  1.00  0.00     0.172 HD
ATOM     14  H3  UNL     1      -6.719  28.297   2.438  1.00  0.00     0.169 HD
BRANCH  12  15
HETATM   15  C11 UNL     1      -7.427  32.251   1.758  1.00  0.00     0.086 C 
HETATM   16  N5  UNL     1      -8.095  32.871   2.709  1.00  0.00    -0.388 N 
ATOM     17  H52 UNL     1      -8.437  32.306   3.487  1.00  0.00     0.157 HD
ATOM     18  H51 UNL     1      -8.221  33.876   2.589  1.00  0.00     0.157 HD
BRANCH  15  19
HETATM   19  C12 UNL     1      -6.942  33.051   0.654  1.00  0.00     0.007 C 
HETATM   20  C13 UNL     1      -6.686  34.510   1.033  1.00  0.00     0.022 C 
HETATM   21  C14 UNL     1      -7.948  33.063  -0.520  1.00  0.00     0.022 C 
HETATM   22  C15 UNL     1      -5.682  32.466   0.056  1.00  0.00     0.022 C 
ENDBRANCH  15  19
ENDBRANCH  12  15
ENDBRANCH   8   9
ENDBRANCH   7   8
ENDBRANCH   4   7
BRANCH   1  23
HETATM   23  S1  UNL     1      -5.197  26.299  -4.631  1.00  0.00     0.304 S 
HETATM   24  O2  UNL     1      -4.452  25.372  -5.599  1.00  0.00    -0.188 OA
HETATM   25  O3  UNL     1      -4.292  27.534  -4.541  1.00  0.00    -0.188 OA
BRANCH  23  26
HETATM   26  N1  UNL     1      -6.660  26.693  -5.366  1.00  0.00    -0.275 N 
HETATM   27  C4  UNL     1      -7.514  25.607  -5.688  1.00  0.00     0.144 C 
HETATM   28  C3  UNL     1      -8.942  26.098  -5.537  1.00  0.00     0.058 C 
HETATM   29  C2  UNL     1      -8.836  27.593  -5.358  1.00  0.00     0.161 C 
HETATM   30  C18 UNL     1      -7.415  27.774  -4.870  1.00  0.00     0.109 C 
BRANCH  29  31
HETATM   31  O1  UNL     1      -9.115  28.301  -6.498  1.00  0.00    -0.385 OA
HETATM   32  C1  UNL     1      -9.853  27.607  -7.433  1.00  0.00     0.202 C 
ENDBRANCH  29  31
ENDBRANCH  23  26
ENDBRANCH   1  23
TORSDOF 8
ENDMDL
MODEL 4
REMARK VINA RESULT: -7.163797586      2.907      8.067
REMARK  8 active torsions:
REMARK  status: ('A' for Active; 'I' for Inactive)
REMARK    1  A    between atoms: O1_2  and  C2_3 
REMARK    2  A    between atoms: N1_6  and  S1_7 
REMARK    3  A    between atoms: S1_7  and  N2_10 
REMARK    4  A    between atoms: C7_13  and  C8_14 
REMARK    5  A    between atoms: C8_14  and  C9_15 
REMARK    6  A    between atoms: C9_15  and  N3_16 
REMARK       I    between atoms: N3_16  and  C10_18 
REMARK       I    between atoms: C10_18  and  N4_20 
REMARK    7  A    between atoms: N4_20  and  C11_22 
REMARK    8  A    between atoms: C11_22  and  C12_26 
ROOT
HETATM    1  N2  UNL     1      -8.586  30.174  -0.517  1.00  0.00    -0.193 NA
HETATM    2  C5  UNL     1      -9.721  29.348  -0.280  1.00  0.00     0.109 C 
HETATM    3  C6  UNL     1      -9.227  27.941   0.176  1.00  0.00     0.020 C 
HETATM    4  C7  UNL     1      -8.575  28.046   1.499  1.00  0.00    -0.007 C 
HETATM    5  C16 UNL     1      -7.780  29.327   1.578  1.00  0.00     0.020 C 
HETATM    6  C17 UNL     1      -7.426  29.806   0.221  1.00  0.00     0.109 C 
ENDROOT
BRANCH   4   7
HETATM    7  C8  UNL     1      -7.660  26.916   1.848  1.00  0.00     0.049 C 
BRANCH   7   8
HETATM    8  C9  UNL     1      -7.103  26.112   0.732  1.00  0.00     0.066 C 
BRANCH   8   9
HETATM    9  N3  UNL     1      -6.151  26.683  -0.126  1.00  0.00    -0.322 N 
HETATM   10  C10 UNL     1      -5.948  26.088  -1.447  1.00  0.00     0.325 C 
HETATM   11  O4  UNL     1      -6.668  25.097  -1.680  1.00  0.00    -0.247 OA
HETATM   12  N4  UNL     1      -5.002  26.650  -2.310  1.00  0.00    -0.298 N 
ATOM     13  H4  UNL     1      -4.522  27.459  -1.917  1.00  0.00     0.172 HD
ATOM     14  H3  UNL     1      -5.611  27.498   0.166  1.00  0.00     0.169 HD
BRANCH  12  15
HETATM   15  C11 UNL     1      -4.585  26.325  -3.598  1.00  0.00     0.086 C 
HETATM   16  N5  UNL     1      -3.476  25.618  -3.689  1.00  0.00    -0.388 N 
ATOM     17  H52 UNL     1      -3.008  25.366  -2.818  1.00  0.00     0.157 HD
ATOM     18  H51 UNL     1      -3.170  25.380  -4.632  1.00  0.00     0.157 HD
BRANCH  15  19
HETATM   19  C12 UNL     1      -5.249  26.683  -4.832  1.00  0.00     0.007 C 
HETATM   20  C13 UNL     1      -6.707  27.096  -4.635  1.00  0.00     0.022 C 
HETATM   21  C14 UNL     1      -5.246  25.507  -5.837  1.00  0.00     0.022 C 
HETATM   22  C15 UNL     1      -4.513  27.789  -5.556  1.00  0.00     0.022 C 
ENDBRANCH  15  19
ENDBRANCH  12  15
ENDBRANCH   8   9
ENDBRANCH   7   8
ENDBRANCH   4   7
BRANCH   1  23
HETATM   23  S1  UNL     1      -8.932  31.832  -0.346  1.00  0.00     0.304 S 
HETATM   24  O2  UNL     1     -10.359  32.034   0.178  1.00  0.00    -0.188 OA
HETATM   25  O3  UNL     1      -8.959  32.484  -1.734  1.00  0.00    -0.188 OA
BRANCH  23  26
HETATM   26  N1  UNL     1      -7.912  32.687   0.688  1.00  0.00    -0.275 N 
HETATM   27  C4  UNL     1      -6.961  33.537   0.070  1.00  0.00     0.144 C 
HETATM   28  C3  UNL     1      -6.759  34.728   0.988  1.00  0.00     0.058 C 
HETATM   29  C2  UNL     1      -7.463  34.368   2.273  1.00  0.00     0.161 C 
HETATM   30  C18 UNL     1      -8.450  33.309   1.832  1.00  0.00     0.109 C 
BRANCH  29  31
HETATM   31  O1  UNL     1      -6.615  33.945   3.262  1.00  0.00    -0.385 OA
HETATM   32  C1  UNL     1      -7.122  34.063   4.538  1.00  0.00     0.202 C 
ENDBRANCH  29  31
ENDBRANCH  23  26
ENDBRANCH   1  23
TORSDOF 8
ENDMDL
MODEL 5
REMARK VINA RESULT: -6.940497979      3.017      8.375
REMARK  8 active torsions:
REMARK  status: ('A' for Active; 'I' for Inactive)
REMARK    1  A    between atoms: O1_2  and  C2_3 
REMARK    2  A    between atoms: N1_6  and  S1_7 
REMARK    3  A    between atoms: S1_7  and  N2_10 
REMARK    4  A    between atoms: C7_13  and  C8_14 
REMARK    5  A    between atoms: C8_14  and  C9_15 
REMARK    6  A    between atoms: C9_15  and  N3_16 
REMARK       I    between atoms: N3_16  and  C10_18 
REMARK       I    between atoms: C10_18  and  N4_20 
REMARK    7  A    between atoms: N4_20  and  C11_22 
REMARK    8  A    between atoms: C11_22  and  C12_26 
ROOT
HETATM    1  N2  UNL     1      -7.495  31.226  -0.280  1.00  0.00    -0.193 NA
HETATM    2  C5  UNL     1      -8.905  31.039  -0.250  1.00  0.00     0.109 C 
HETATM    3  C6  UNL     1      -9.202  29.523  -0.041  1.00  0.00     0.020 C 
HETATM    4  C7  UNL     1      -8.754  29.107   1.305  1.00  0.00    -0.007 C 
HETATM    5  C16 UNL     1      -7.463  29.808   1.654  1.00  0.00     0.020 C 
HETATM    6  C17 UNL     1      -6.754  30.238   0.426  1.00  0.00     0.109 C 
ENDROOT
BRANCH   4   7
HETATM    7  C8  UNL     1      -8.538  27.637   1.478  1.00  0.00     0.049 C 
BRANCH   7   8
HETATM    8  C9  UNL     1      -7.328  27.041   0.860  1.00  0.00     0.066 C 
BRANCH   8   9
HETATM    9  N3  UNL     1      -7.383  26.575  -0.462  1.00  0.00    -0.322 N 
HETATM   10  C10 UNL     1      -6.188  26.689  -1.299  1.00  0.00     0.325 C 
HETATM   11  O4  UNL     1      -5.209  27.210  -0.728  1.00  0.00    -0.247 OA
HETATM   12  N4  UNL     1      -6.233  26.228  -2.618  1.00  0.00    -0.298 N 
ATOM     13  H4  UNL     1      -7.137  25.837  -2.883  1.00  0.00     0.172 HD
ATOM     14  H3  UNL     1      -8.241  26.165  -0.833  1.00  0.00     0.169 HD
BRANCH  12  15
HETATM   15  C11 UNL     1      -5.290  26.196  -3.642  1.00  0.00     0.086 C 
HETATM   16  N5  UNL     1      -4.072  25.829  -3.299  1.00  0.00    -0.388 N 
ATOM     17  H52 UNL     1      -3.909  25.600  -2.318  1.00  0.00     0.157 HD
ATOM     18  H51 UNL     1      -3.380  25.806  -4.049  1.00  0.00     0.157 HD
BRANCH  15  19
HETATM   19  C12 UNL     1      -5.520  26.520  -5.033  1.00  0.00     0.007 C 
HETATM   20  C13 UNL     1      -4.770  27.769  -5.494  1.00  0.00     0.022 C 
HETATM   21  C14 UNL     1      -7.021  26.769  -5.314  1.00  0.00     0.022 C 
HETATM   22  C15 UNL     1      -5.162  25.363  -5.939  1.00  0.00     0.022 C 
ENDBRANCH  15  19
ENDBRANCH  12  15
ENDBRANCH   8   9
ENDBRANCH   7   8
ENDBRANCH   4   7
BRANCH   1  23
HETATM   23  S1  UNL     1      -7.030  32.799   0.180  1.00  0.00     0.304 S 
HETATM   24  O2  UNL     1      -7.325  33.799  -0.945  1.00  0.00    -0.188 OA
HETATM   25  O3  UNL     1      -5.504  32.849   0.320  1.00  0.00    -0.188 OA
BRANCH  23  26
HETATM   26  N1  UNL     1      -7.770  33.400   1.569  1.00  0.00    -0.275 N 
HETATM   27  C4  UNL     1      -6.936  33.571   2.702  1.00  0.00     0.144 C 
HETATM   28  C3  UNL     1      -7.458  34.772   3.468  1.00  0.00     0.058 C 
HETATM   29  C2  UNL     1      -8.785  35.108   2.832  1.00  0.00     0.161 C 
HETATM   30  C18 UNL     1      -8.671  34.479   1.461  1.00  0.00     0.109 C 
BRANCH  29  31
HETATM   31  O1  UNL     1      -9.863  34.661   3.549  1.00  0.00    -0.385 OA
HETATM   32  C1  UNL     1     -11.015  34.504   2.808  1.00  0.00     0.202 C 
ENDBRANCH  29  31
ENDBRANCH  23  26
ENDBRANCH   1  23
TORSDOF 8
ENDMDL
