MODEL 1
REMARK VINA RESULT: -7.505545662      0.000      0.000
REMARK  6 active torsions:
REMARK  status: ('A' for Active; 'I' for Inactive)
REMARK    1  A    between atoms: C11_17  and  N4_18 
REMARK    2  A    between atoms: N4_18  and  N5_20 
REMARK    3  A    between atoms: C12_22  and  C13_23 
REMARK    4  A    between atoms: C12_22  and  C15_27 
REMARK    5  A    between atoms: C13_23  and  C14_24 
REMARK    6  A    between atoms: C14_24  and  O2_25 
ROOT
HETATM    1  N4  UNL     1      19.405   5.808  13.088  1.00  0.00    -0.302 N 
ATOM      2  H4  UNL     1      19.207   4.844  13.356  1.00  0.00     0.186 HD
ENDROOT
BRANCH   1   3
HETATM    3  C11 UNL     1      18.382   6.809  13.162  1.00  0.00     0.058 A 
HETATM    4  C4  UNL     1      17.284   6.690  13.894  1.00  0.00     0.044 A 
HETATM    5  C3  UNL     1      16.832   5.667  14.724  1.00  0.00     0.063 A 
HETATM    6  C5  UNL     1      16.486   7.809  13.766  1.00  0.00     0.043 A 
HETATM    7  N2  UNL     1      17.554   4.544  14.898  1.00  0.00    -0.351 N 
HETATM    8  C8  UNL     1      15.637   5.742  15.408  1.00  0.00     0.060 A 
HETATM    9  C2  UNL     1      17.136   3.546  15.696  1.00  0.00     0.186 A 
ATOM     10  H2  UNL     1      18.444   4.448  14.410  1.00  0.00     0.166 HD
HETATM   11  N1  UNL     1      15.977   3.600  16.368  1.00  0.00    -0.314 N 
HETATM   12  C1  UNL     1      15.582   2.489  17.213  1.00  0.00     0.160 C 
HETATM   13  C9  UNL     1      15.226   4.705  16.222  1.00  0.00     0.260 A 
HETATM   14  O1  UNL     1      14.147   4.774  16.838  1.00  0.00    -0.267 OA
HETATM   15  C7  UNL     1      14.886   6.888  15.238  1.00  0.00     0.022 A 
HETATM   16  C6  UNL     1      15.274   7.934  14.433  1.00  0.00     0.031 A 
HETATM   17  N3  UNL     1      17.048   8.652  12.967  1.00  0.00    -0.383 N 
HETATM   18  C10 UNL     1      18.308   8.114  12.497  1.00  0.00     0.179 A 
ATOM     19  H3  UNL     1      16.664   9.559  12.705  1.00  0.00     0.160 HD
ENDBRANCH   1   3
BRANCH   1  20
HETATM   20  N5  UNL     1      20.674   6.171  12.644  1.00  0.00    -0.301 N 
HETATM   21  C12 UNL     1      21.065   5.965  11.416  1.00  0.00     0.074 C 
ATOM     22  H5  UNL     1      21.320   6.612  13.300  1.00  0.00     0.186 HD
BRANCH  21  23
HETATM   23  C13 UNL     1      20.171   5.329  10.422  1.00  0.00     0.088 C 
BRANCH  23  24
HETATM   24  C14 UNL     1      20.185   3.830  10.532  1.00  0.00     0.170 C 
BRANCH  24  25
HETATM   25  O2  UNL     1      19.552   3.381  11.690  1.00  0.00    -0.400 OA
ATOM     26  H2  UNL     1      20.039   3.603  12.475  1.00  0.00     0.209 HD
ENDBRANCH  24  25
ENDBRANCH  23  24
ENDBRANCH  21  23
BRANCH  21  27
HETATM   27  C15 UNL     1      22.415   6.405  11.097  1.00  0.00     0.161 A 
HETATM   28  N6  UNL     1      23.241   7.043  11.923  1.00  0.00    -0.267 N 
HETATM   29  N7  UNL     1      24.356   7.272  11.284  1.00  0.00    -0.227 N 
ATOM     30  H6  UNL     1      23.038   7.308  12.887  1.00  0.00     0.190 HD
HETATM   31  N8  UNL     1      24.290   6.800  10.055  1.00  0.00    -0.227 N 
ATOM     32  H7  UNL     1      25.166   7.749  11.681  1.00  0.00     0.210 HD
HETATM   33  N9  UNL     1      23.092   6.265   9.940  1.00  0.00    -0.267 N 
ATOM     34  H8  UNL     1      25.017   6.841   9.340  1.00  0.00     0.210 HD
ATOM     35  H9  UNL     1      22.730   5.813   9.101  1.00  0.00     0.190 HD
ENDBRANCH  21  27
ENDBRANCH   1  20
TORSDOF 6
ENDMDL
MODEL 2
REMARK VINA RESULT: -7.265788577      2.403      7.313
REMARK  6 active torsions:
REMARK  status: ('A' for Active; 'I' for Inactive)
REMARK    1  A    between atoms: C11_17  and  N4_18 
REMARK    2  A    between atoms: N4_18  and  N5_20 
REMARK    3  A    between atoms: C12_22  and  C13_23 
REMARK    4  A    between atoms: C12_22  and  C15_27 
REMARK    5  A    between atoms: C13_23  and  C14_24 
REMARK    6  A    between atoms: C14_24  and  O2_25 
ROOT
HETATM    1  N4  UNL     1      17.979   3.956  12.674  1.00  0.00    -0.302 N 
ATOM      2  H4  UNL     1      18.958   3.684  12.585  1.00  0.00     0.186 HD
ENDROOT
BRANCH   1   3
HETATM    3  C11 UNL     1      17.360   4.781  11.677  1.00  0.00     0.058 A 
HETATM    4  C4  UNL     1      18.006   5.698  10.973  1.00  0.00     0.044 A 
HETATM    5  C3  UNL     1      19.339   6.102  10.982  1.00  0.00     0.063 A 
HETATM    6  C5  UNL     1      17.152   6.331  10.093  1.00  0.00     0.043 A 
HETATM    7  N2  UNL     1      20.232   5.533  11.812  1.00  0.00    -0.351 N 
HETATM    8  C8  UNL     1      19.817   7.096  10.152  1.00  0.00     0.060 A 
HETATM    9  C2  UNL     1      21.523   5.908  11.836  1.00  0.00     0.186 A 
ATOM     10  H2  UNL     1      19.920   4.795  12.443  1.00  0.00     0.166 HD
HETATM   11  N1  UNL     1      22.006   6.871  11.037  1.00  0.00    -0.314 N 
HETATM   12  C1  UNL     1      23.410   7.231  11.111  1.00  0.00     0.160 C 
HETATM   13  C9  UNL     1      21.146   7.466  10.192  1.00  0.00     0.260 A 
HETATM   14  O1  UNL     1      21.576   8.362   9.444  1.00  0.00    -0.267 OA
HETATM   15  C7  UNL     1      18.912   7.689   9.295  1.00  0.00     0.022 A 
HETATM   16  C6  UNL     1      17.583   7.336   9.237  1.00  0.00     0.031 A 
HETATM   17  N3  UNL     1      15.965   5.840  10.214  1.00  0.00    -0.383 N 
HETATM   18  C10 UNL     1      15.965   4.806  11.228  1.00  0.00     0.179 A 
ATOM     19  H3  UNL     1      15.150   6.135   9.677  1.00  0.00     0.160 HD
ENDBRANCH   1   3
BRANCH   1  20
HETATM   20  N5  UNL     1      17.224   3.534  13.765  1.00  0.00    -0.301 N 
HETATM   21  C12 UNL     1      17.026   4.295  14.807  1.00  0.00     0.074 C 
ATOM     22  H5  UNL     1      16.814   2.601  13.751  1.00  0.00     0.186 HD
BRANCH  21  23
HETATM   23  C13 UNL     1      17.599   5.658  14.883  1.00  0.00     0.088 C 
BRANCH  23  24
HETATM   24  C14 UNL     1      16.595   6.711  14.503  1.00  0.00     0.170 C 
BRANCH  24  25
HETATM   25  O2  UNL     1      15.354   6.163  14.181  1.00  0.00    -0.400 OA
ATOM     26  H2  UNL     1      14.937   6.620  13.460  1.00  0.00     0.209 HD
ENDBRANCH  24  25
ENDBRANCH  23  24
ENDBRANCH  21  23
BRANCH  21  27
HETATM   27  C15 UNL     1      16.210   3.721  15.866  1.00  0.00     0.161 A 
HETATM   28  N6  UNL     1      16.463   2.585  16.514  1.00  0.00    -0.267 N 
HETATM   29  N7  UNL     1      15.512   2.397  17.389  1.00  0.00    -0.227 N 
ATOM     30  H6  UNL     1      17.261   1.970  16.355  1.00  0.00     0.190 HD
HETATM   31  N8  UNL     1      14.635   3.381  17.337  1.00  0.00    -0.227 N 
ATOM     32  H7  UNL     1      15.456   1.602  18.024  1.00  0.00     0.210 HD
HETATM   33  N9  UNL     1      15.067   4.196  16.397  1.00  0.00    -0.267 N 
ATOM     34  H8  UNL     1      13.796   3.487  17.907  1.00  0.00     0.210 HD
ATOM     35  H9  UNL     1      14.604   5.060  16.113  1.00  0.00     0.190 HD
ENDBRANCH  21  27
ENDBRANCH   1  20
TORSDOF 6
ENDMDL
MODEL 3
REMARK VINA RESULT: -7.253759344      3.768      5.811
REMARK  6 active torsions:
REMARK  status: ('A' for Active; 'I' for Inactive)
REMARK    1  A    between atoms: C11_17  and  N4_18 
REMARK    2  A    between atoms: N4_18  and  N5_20 
REMARK    3  A    between atoms: C12_22  and  C13_23 
REMARK    4  A    between atoms: C12_22  and  C15_27 
REMARK    5  A    between atoms: C13_23  and  C14_24 
REMARK    6  A    between atoms: C14_24  and  O2_25 
ROOT
HETATM    1  N4  UNL     1      17.864   7.610  11.185  1.00  0.00    -0.302 N 
ATOM      2  H4  UNL     1      18.867   7.736  11.049  1.00  0.00     0.186 HD
ENDROOT
BRANCH   1   3
HETATM    3  C11 UNL     1      17.322   7.458  12.504  1.00  0.00     0.058 A 
HETATM    4  C4  UNL     1      17.103   6.286  13.082  1.00  0.00     0.044 A 
HETATM    5  C3  UNL     1      17.307   4.982  12.636  1.00  0.00     0.063 A 
HETATM    6  C5  UNL     1      16.578   6.454  14.347  1.00  0.00     0.043 A 
HETATM    7  N2  UNL     1      17.815   4.738  11.413  1.00  0.00    -0.351 N 
HETATM    8  C8  UNL     1      17.006   3.880  13.409  1.00  0.00     0.060 A 
HETATM    9  C2  UNL     1      18.020   3.487  10.964  1.00  0.00     0.186 A 
ATOM     10  H2  UNL     1      18.050   5.525  10.810  1.00  0.00     0.166 HD
HETATM   11  N1  UNL     1      17.733   2.404  11.701  1.00  0.00    -0.314 N 
HETATM   12  C1  UNL     1      17.978   1.080  11.159  1.00  0.00     0.160 C 
HETATM   13  C9  UNL     1      17.224   2.604  12.929  1.00  0.00     0.260 A 
HETATM   14  O1  UNL     1      16.952   1.611  13.626  1.00  0.00    -0.267 OA
HETATM   15  C7  UNL     1      16.485   4.116  14.665  1.00  0.00     0.022 A 
HETATM   16  C6  UNL     1      16.259   5.378  15.164  1.00  0.00     0.031 A 
HETATM   17  N3  UNL     1      16.454   7.714  14.600  1.00  0.00    -0.383 N 
HETATM   18  C10 UNL     1      16.911   8.487  13.464  1.00  0.00     0.179 A 
ATOM     19  H3  UNL     1      16.090   8.105  15.468  1.00  0.00     0.160 HD
ENDBRANCH   1   3
BRANCH   1  20
HETATM   20  N5  UNL     1      17.001   7.583  10.093  1.00  0.00    -0.301 N 
HETATM   21  C12 UNL     1      16.485   8.671   9.590  1.00  0.00     0.074 C 
ATOM     22  H5  UNL     1      16.763   6.684   9.673  1.00  0.00     0.186 HD
BRANCH  21  23
HETATM   23  C13 UNL     1      16.793  10.002  10.159  1.00  0.00     0.088 C 
BRANCH  23  24
HETATM   24  C14 UNL     1      15.584  10.640  10.783  1.00  0.00     0.170 C 
BRANCH  24  25
HETATM   25  O2  UNL     1      14.678   9.694  11.261  1.00  0.00    -0.400 OA
ATOM     26  H2  UNL     1      14.848   9.461  12.166  1.00  0.00     0.209 HD
ENDBRANCH  24  25
ENDBRANCH  23  24
ENDBRANCH  21  23
BRANCH  21  27
HETATM   27  C15 UNL     1      15.606   8.486   8.444  1.00  0.00     0.161 A 
HETATM   28  N6  UNL     1      15.991   8.423   7.171  1.00  0.00    -0.267 N 
HETATM   29  N7  UNL     1      14.928   8.253   6.434  1.00  0.00    -0.227 N 
ATOM     30  H6  UNL     1      16.950   8.495   6.831  1.00  0.00     0.190 HD
HETATM   31  N8  UNL     1      13.846   8.201   7.187  1.00  0.00    -0.227 N 
ATOM     32  H7  UNL     1      14.932   8.171   5.417  1.00  0.00     0.210 HD
HETATM   33  N9  UNL     1      14.267   8.345   8.427  1.00  0.00    -0.267 N 
ATOM     34  H8  UNL     1      12.884   8.076   6.874  1.00  0.00     0.210 HD
ATOM     35  H9  UNL     1      13.667   8.349   9.253  1.00  0.00     0.190 HD
ENDBRANCH  21  27
ENDBRANCH   1  20
TORSDOF 6
ENDMDL
MODEL 4
REMARK VINA RESULT: -7.159797199      2.345      7.202
REMARK  6 active torsions:
REMARK  status: ('A' for Active; 'I' for Inactive)
REMARK    1  A    between atoms: C11_17  and  N4_18 
REMARK    2  A    between atoms: N4_18  and  N5_20 
REMARK    3  A    between atoms: C12_22  and  C13_23 
REMARK    4  A    between atoms: C12_22  and  C15_27 
REMARK    5  A    between atoms: C13_23  and  C14_24 
REMARK    6  A    between atoms: C14_24  and  O2_25 
ROOT
HETATM    1  N4  UNL     1      18.518   6.135  13.804  1.00  0.00    -0.302 N 
ATOM      2  H4  UNL     1      18.851   5.667  12.961  1.00  0.00     0.186 HD
ENDROOT
BRANCH   1   3
HETATM    3  C11 UNL     1      18.760   7.534  14.003  1.00  0.00     0.058 A 
HETATM    4  C4  UNL     1      19.760   8.197  13.443  1.00  0.00     0.044 A 
HETATM    5  C3  UNL     1      20.776   7.787  12.583  1.00  0.00     0.063 A 
HETATM    6  C5  UNL     1      19.739   9.526  13.818  1.00  0.00     0.043 A 
HETATM    7  N2  UNL     1      20.864   6.507  12.174  1.00  0.00    -0.351 N 
HETATM    8  C8  UNL     1      21.738   8.652  12.106  1.00  0.00     0.060 A 
HETATM    9  C2  UNL     1      21.836   6.090  11.343  1.00  0.00     0.186 A 
ATOM     10  H2  UNL     1      20.172   5.834  12.503  1.00  0.00     0.166 HD
HETATM   11  N1  UNL     1      22.780   6.917  10.870  1.00  0.00    -0.314 N 
HETATM   12  C1  UNL     1      23.803   6.406   9.977  1.00  0.00     0.160 C 
HETATM   13  C9  UNL     1      22.728   8.204  11.254  1.00  0.00     0.260 A 
HETATM   14  O1  UNL     1      23.595   8.986  10.825  1.00  0.00    -0.267 OA
HETATM   15  C7  UNL     1      21.660   9.967  12.518  1.00  0.00     0.022 A 
HETATM   16  C6  UNL     1      20.684  10.438  13.366  1.00  0.00     0.031 A 
HETATM   17  N3  UNL     1      18.742   9.735  14.610  1.00  0.00    -0.383 N 
HETATM   18  C10 UNL     1      18.013   8.500  14.815  1.00  0.00     0.179 A 
ATOM     19  H3  UNL     1      18.503  10.634  15.028  1.00  0.00     0.160 HD
ENDBRANCH   1   3
BRANCH   1  20
HETATM   20  N5  UNL     1      17.822   5.425  14.779  1.00  0.00    -0.301 N 
HETATM   21  C12 UNL     1      16.954   4.500  14.475  1.00  0.00     0.074 C 
ATOM     22  H5  UNL     1      17.996   5.634  15.762  1.00  0.00     0.186 HD
BRANCH  21  23
HETATM   23  C13 UNL     1      16.660   4.154  13.066  1.00  0.00     0.088 C 
BRANCH  23  24
HETATM   24  C14 UNL     1      17.685   3.217  12.492  1.00  0.00     0.170 C 
BRANCH  24  25
HETATM   25  O2  UNL     1      18.885   3.863  12.201  1.00  0.00    -0.400 OA
ATOM     26  H2  UNL     1      19.381   4.069  12.985  1.00  0.00     0.209 HD
ENDBRANCH  24  25
ENDBRANCH  23  24
ENDBRANCH  21  23
BRANCH  21  27
HETATM   27  C15 UNL     1      16.311   3.837  15.601  1.00  0.00     0.161 A 
HETATM   28  N6  UNL     1      15.262   4.299  16.278  1.00  0.00    -0.267 N 
HETATM   29  N7  UNL     1      14.972   3.435  17.213  1.00  0.00    -0.227 N 
ATOM     30  H6  UNL     1      14.770   5.174  16.099  1.00  0.00     0.190 HD
HETATM   31  N8  UNL     1      15.803   2.412  17.172  1.00  0.00    -0.227 N 
ATOM     32  H7  UNL     1      14.209   3.536  17.882  1.00  0.00     0.210 HD
HETATM   33  N9  UNL     1      16.629   2.662  16.176  1.00  0.00    -0.267 N 
ATOM     34  H8  UNL     1      15.806   1.596  17.784  1.00  0.00     0.210 HD
ATOM     35  H9  UNL     1      17.395   2.055  15.884  1.00  0.00     0.190 HD
ENDBRANCH  21  27
ENDBRANCH   1  20
TORSDOF 6
ENDMDL
MODEL 5
REMARK VINA RESULT: -7.110506111      3.734      5.340
REMARK  6 active torsions:
REMARK  status: ('A' for Active; 'I' for Inactive)
REMARK    1  A    between atoms: C11_17  and  N4_18 
REMARK    2  A    between atoms: N4_18  and  N5_20 
REMARK    3  A    between atoms: C12_22  and  C13_23 
REMARK    4  A    between atoms: C12_22  and  C15_27 
REMARK    5  A    between atoms: C13_23  and  C14_24 
REMARK    6  A    between atoms: C14_24  and  O2_25 
ROOT
HETATM    1  N4  UNL     1      18.126   7.214  10.838  1.00  0.00    -0.302 N 
ATOM      2  H4  UNL     1      19.079   7.035  10.523  1.00  0.00     0.186 HD
ENDROOT
BRANCH   1   3
HETATM    3  C11 UNL     1      17.831   7.325  12.236  1.00  0.00     0.058 A 
HETATM    4  C4  UNL     1      17.544   6.292  13.014  1.00  0.00     0.044 A 
HETATM    5  C3  UNL     1      17.449   4.929  12.745  1.00  0.00     0.063 A 
HETATM    6  C5  UNL     1      17.305   6.705  14.310  1.00  0.00     0.043 A 
HETATM    7  N2  UNL     1      17.667   4.449  11.506  1.00  0.00    -0.351 N 
HETATM    8  C8  UNL     1      17.132   4.002  13.716  1.00  0.00     0.060 A 
HETATM    9  C2  UNL     1      17.582   3.137  11.225  1.00  0.00     0.186 A 
ATOM     10  H2  UNL     1      17.904   5.101  10.759  1.00  0.00     0.166 HD
HETATM   11  N1  UNL     1      17.275   2.222  12.156  1.00  0.00    -0.314 N 
HETATM   12  C1  UNL     1      17.198   0.820  11.789  1.00  0.00     0.160 C 
HETATM   13  C9  UNL     1      17.049   2.659  13.406  1.00  0.00     0.260 A 
HETATM   14  O1  UNL     1      16.763   1.824  14.283  1.00  0.00    -0.267 OA
HETATM   15  C7  UNL     1      16.905   4.480  14.991  1.00  0.00     0.022 A 
HETATM   16  C6  UNL     1      16.982   5.812  15.324  1.00  0.00     0.031 A 
HETATM   17  N3  UNL     1      17.433   7.987  14.385  1.00  0.00    -0.383 N 
HETATM   18  C10 UNL     1      17.779   8.521  13.084  1.00  0.00     0.179 A 
ATOM     19  H3  UNL     1      17.309   8.541  15.232  1.00  0.00     0.160 HD
ENDBRANCH   1   3
BRANCH   1  20
HETATM   20  N5  UNL     1      17.092   7.355   9.916  1.00  0.00    -0.301 N 
HETATM   21  C12 UNL     1      17.119   8.260   8.976  1.00  0.00     0.074 C 
ATOM     22  H5  UNL     1      16.287   6.732   9.977  1.00  0.00     0.186 HD
BRANCH  21  23
HETATM   23  C13 UNL     1      18.261   9.193   8.841  1.00  0.00     0.088 C 
BRANCH  23  24
HETATM   24  C14 UNL     1      19.322   8.652   7.924  1.00  0.00     0.170 C 
BRANCH  24  25
HETATM   25  O2  UNL     1      19.375   7.259   7.944  1.00  0.00    -0.400 OA
ATOM     26  H2  UNL     1      19.656   6.899   7.112  1.00  0.00     0.209 HD
ENDBRANCH  24  25
ENDBRANCH  23  24
ENDBRANCH  21  23
BRANCH  21  27
HETATM   27  C15 UNL     1      15.971   8.282   8.082  1.00  0.00     0.161 A 
HETATM   28  N6  UNL     1      14.694   8.318   8.457  1.00  0.00    -0.267 N 
HETATM   29  N7  UNL     1      13.956   8.327   7.381  1.00  0.00    -0.227 N 
ATOM     30  H6  UNL     1      14.352   8.335   9.418  1.00  0.00     0.190 HD
HETATM   31  N8  UNL     1      14.712   8.299   6.300  1.00  0.00    -0.227 N 
ATOM     32  H7  UNL     1      12.936   8.352   7.375  1.00  0.00     0.210 HD
HETATM   33  N9  UNL     1      15.956   8.271   6.735  1.00  0.00    -0.267 N 
ATOM     34  H8  UNL     1      14.399   8.298   5.330  1.00  0.00     0.210 HD
ATOM     35  H9  UNL     1      16.784   8.245   6.140  1.00  0.00     0.190 HD
ENDBRANCH  21  27
ENDBRANCH   1  20
TORSDOF 6
ENDMDL
