MODEL 1
REMARK VINA RESULT: -6.967703029      0.000      0.000
REMARK  6 active torsions:
REMARK  status: ('A' for Active; 'I' for Inactive)
REMARK    1  A    between atoms: N1_1  and  C1_4 
REMARK    2  A    between atoms: N4_10  and  C4_12 
REMARK    3  A    between atoms: C4_12  and  C5_13 
REMARK    4  A    between atoms: C5_13  and  O1_14 
REMARK    5  A    between atoms: O1_14  and  C6_15 
REMARK    6  A    between atoms: C6_15  and  C7_16 
ROOT
HETATM    1  C1  UNL     1      14.918   4.456  14.024  1.00  0.00     0.692 A 
HETATM    2  N2  UNL     1      14.778   3.291  14.660  1.00  0.00    -0.170 N 
ATOM      3  H2  UNL     1      13.842   2.962  14.897  1.00  0.00     0.186 HD
HETATM    4  C2  UNL     1      15.841   2.545  14.994  1.00  0.00     0.216 A 
HETATM    5  N3  UNL     1      17.095   2.968  14.687  1.00  0.00    -0.061 N 
HETATM    6  C3  UNL     1      17.287   4.147  14.039  1.00  0.00     0.719 A 
HETATM    7  N4  UNL     1      18.406   4.608  13.720  1.00  0.00    -0.201 N 
ATOM      8  H4  UNL     1      18.321   5.507  13.244  1.00  0.00     0.183 HD
HETATM    9  N7  UNL     1      16.149   4.852  13.732  1.00  0.00    -0.021 N 
ATOM     10  H7  UNL     1      16.258   5.741  13.245  1.00  0.00     0.203 HD
HETATM   11  N8  UNL     1      18.018   2.023  15.136  1.00  0.00    -0.240 N 
ATOM     12  H8  UNL     1      19.030   2.095  15.034  1.00  0.00     0.191 HD
HETATM   13  C10 UNL     1      17.329   0.945  15.762  1.00  0.00     0.315 A 
HETATM   14  O2  UNL     1      17.806  -0.092  16.290  1.00  0.00    -0.262 OA
HETATM   15  C11 UNL     1      15.909   1.241  15.692  1.00  0.00     0.287 A 
HETATM   16  O3  UNL     1      14.933   0.585  16.107  1.00  0.00    -0.278 OA
ENDROOT
BRANCH   7  17
HETATM   17  C4  UNL     1      19.747   4.215  13.845  1.00  0.00     0.105 C 
BRANCH  17  18
HETATM   18  C5  UNL     1      20.372   3.864  12.495  1.00  0.00     0.213 C 
BRANCH  18  19
HETATM   19  O1  UNL     1      20.323   2.535  12.278  1.00  0.00    -0.379 OA
BRANCH  19  20
HETATM   20  C6  UNL     1      19.728   2.113  11.119  1.00  0.00     0.243 C 
BRANCH  20  21
HETATM   21  C7  UNL     1      18.397   1.479  11.482  1.00  0.00     0.097 C 
HETATM   22  N5  UNL     1      17.274   1.971  11.114  1.00  0.00    -0.377 N 
HETATM   23  C8  UNL     1      16.178   1.135  11.619  1.00  0.00     0.140 C 
ATOM     24  H5  UNL     1      17.158   2.816  10.555  1.00  0.00     0.160 HD
HETATM   25  C9  UNL     1      16.845  -0.151  12.056  1.00  0.00     0.140 C 
HETATM   26  N6  UNL     1      18.227   0.298  12.250  1.00  0.00    -0.377 N 
ATOM     27  H6  UNL     1      18.935  -0.154  12.829  1.00  0.00     0.160 HD
ENDBRANCH  20  21
ENDBRANCH  19  20
ENDBRANCH  18  19
ENDBRANCH  17  18
ENDBRANCH   7  17
BRANCH   1  28
HETATM   28  N1  UNL     1      13.893   5.193  13.692  1.00  0.00    -0.234 N 
ATOM     29  H12 UNL     1      12.991   5.054  14.146  1.00  0.00     0.174 HD
ATOM     30  H11 UNL     1      13.957   5.920  12.979  1.00  0.00     0.174 HD
ENDBRANCH   1  28
TORSDOF 6
ENDMDL
MODEL 2
REMARK VINA RESULT: -6.599681186      2.394      5.340
REMARK  6 active torsions:
REMARK  status: ('A' for Active; 'I' for Inactive)
REMARK    1  A    between atoms: N1_1  and  C1_4 
REMARK    2  A    between atoms: N4_10  and  C4_12 
REMARK    3  A    between atoms: C4_12  and  C5_13 
REMARK    4  A    between atoms: C5_13  and  O1_14 
REMARK    5  A    between atoms: O1_14  and  C6_15 
REMARK    6  A    between atoms: C6_15  and  C7_16 
ROOT
HETATM    1  C1  UNL     1      20.884   2.863  11.766  1.00  0.00     0.692 A 
HETATM    2  N2  UNL     1      20.099   3.785  12.326  1.00  0.00    -0.170 N 
ATOM      3  H2  UNL     1      20.495   4.691  12.579  1.00  0.00     0.186 HD
HETATM    4  C2  UNL     1      18.800   3.547  12.563  1.00  0.00     0.216 A 
HETATM    5  N3  UNL     1      18.256   2.347  12.233  1.00  0.00    -0.061 N 
HETATM    6  C3  UNL     1      19.017   1.377  11.660  1.00  0.00     0.719 A 
HETATM    7  N4  UNL     1      18.594   0.247  11.327  1.00  0.00    -0.201 N 
ATOM      8  H4  UNL     1      19.333  -0.325  10.918  1.00  0.00     0.183 HD
HETATM    9  N7  UNL     1      20.335   1.699  11.451  1.00  0.00    -0.021 N 
ATOM     10  H7  UNL     1      20.934   0.993  11.022  1.00  0.00     0.203 HD
HETATM   11  N8  UNL     1      16.904   2.349  12.577  1.00  0.00    -0.240 N 
ATOM     12  H8  UNL     1      16.260   1.571  12.437  1.00  0.00     0.191 HD
HETATM   13  C10 UNL     1      16.562   3.606  13.155  1.00  0.00     0.315 A 
HETATM   14  O2  UNL     1      15.448   3.993  13.590  1.00  0.00    -0.262 OA
HETATM   15  C11 UNL     1      17.766   4.418  13.166  1.00  0.00     0.287 A 
HETATM   16  O3  UNL     1      17.942   5.582  13.576  1.00  0.00    -0.278 OA
ENDROOT
BRANCH   7  17
HETATM   17  C4  UNL     1      17.372  -0.440  11.369  1.00  0.00     0.105 C 
BRANCH  17  18
HETATM   18  C5  UNL     1      17.170  -1.175  12.694  1.00  0.00     0.213 C 
BRANCH  18  19
HETATM   19  O1  UNL     1      16.642  -0.352  13.620  1.00  0.00    -0.379 OA
BRANCH  19  20
HETATM   20  C6  UNL     1      17.079  -0.499  14.910  1.00  0.00     0.243 C 
BRANCH  20  21
HETATM   21  C7  UNL     1      16.073   0.178  15.824  1.00  0.00     0.097 C 
HETATM   22  N5  UNL     1      15.596   1.341  15.585  1.00  0.00    -0.377 N 
HETATM   23  C8  UNL     1      14.654   1.718  16.646  1.00  0.00     0.140 C 
ATOM     24  H5  UNL     1      15.835   1.919  14.780  1.00  0.00     0.160 HD
HETATM   25  C9  UNL     1      14.372   0.427  17.385  1.00  0.00     0.140 C 
HETATM   26  N6  UNL     1      15.546  -0.371  17.022  1.00  0.00    -0.377 N 
ATOM     27  H6  UNL     1      15.916  -1.171  17.535  1.00  0.00     0.160 HD
ENDBRANCH  20  21
ENDBRANCH  19  20
ENDBRANCH  18  19
ENDBRANCH  17  18
ENDBRANCH   7  17
BRANCH   1  28
HETATM   28  N1  UNL     1      22.149   3.081  11.529  1.00  0.00    -0.234 N 
ATOM     29  H12 UNL     1      22.453   3.969  11.129  1.00  0.00     0.174 HD
ATOM     30  H11 UNL     1      22.866   2.384  11.732  1.00  0.00     0.174 HD
ENDBRANCH   1  28
TORSDOF 6
ENDMDL
MODEL 3
REMARK VINA RESULT: -6.486570400      2.219      4.254
REMARK  6 active torsions:
REMARK  status: ('A' for Active; 'I' for Inactive)
REMARK    1  A    between atoms: N1_1  and  C1_4 
REMARK    2  A    between atoms: N4_10  and  C4_12 
REMARK    3  A    between atoms: C4_12  and  C5_13 
REMARK    4  A    between atoms: C5_13  and  O1_14 
REMARK    5  A    between atoms: O1_14  and  C6_15 
REMARK    6  A    between atoms: C6_15  and  C7_16 
ROOT
HETATM    1  C1  UNL     1      16.247   0.266  15.760  1.00  0.00     0.692 A 
HETATM    2  N2  UNL     1      15.948   1.561  15.641  1.00  0.00    -0.170 N 
ATOM      3  H2  UNL     1      15.550   2.057  16.439  1.00  0.00     0.186 HD
HETATM    4  C2  UNL     1      16.159   2.224  14.494  1.00  0.00     0.216 A 
HETATM    5  N3  UNL     1      16.688   1.580  13.422  1.00  0.00    -0.061 N 
HETATM    6  C3  UNL     1      17.009   0.262  13.496  1.00  0.00     0.719 A 
HETATM    7  N4  UNL     1      17.498  -0.405  12.556  1.00  0.00    -0.201 N 
ATOM      8  H4  UNL     1      17.659  -1.375  12.827  1.00  0.00     0.183 HD
HETATM    9  N7  UNL     1      16.762  -0.345  14.703  1.00  0.00    -0.021 N 
ATOM     10  H7  UNL     1      16.992  -1.334  14.792  1.00  0.00     0.203 HD
HETATM   11  N8  UNL     1      16.807   2.481  12.363  1.00  0.00    -0.240 N 
ATOM     12  H8  UNL     1      17.176   2.256  11.438  1.00  0.00     0.191 HD
HETATM   13  C10 UNL     1      16.335   3.761  12.771  1.00  0.00     0.315 A 
HETATM   14  O2  UNL     1      16.279   4.827  12.106  1.00  0.00    -0.262 OA
HETATM   15  C11 UNL     1      15.902   3.642  14.152  1.00  0.00     0.287 A 
HETATM   16  O3  UNL     1      15.422   4.501  14.917  1.00  0.00    -0.278 OA
ENDROOT
BRANCH   7  17
HETATM   17  C4  UNL     1      17.882  -0.168  11.228  1.00  0.00     0.105 C 
BRANCH  17  18
HETATM   18  C5  UNL     1      19.376   0.135  11.107  1.00  0.00     0.213 C 
BRANCH  18  19
HETATM   19  O1  UNL     1      19.713   1.186  11.880  1.00  0.00    -0.379 OA
BRANCH  19  20
HETATM   20  C6  UNL     1      20.220   2.290  11.247  1.00  0.00     0.243 C 
BRANCH  20  21
HETATM   21  C7  UNL     1      20.021   3.485  12.163  1.00  0.00     0.097 C 
HETATM   22  N5  UNL     1      19.700   4.644  11.726  1.00  0.00    -0.377 N 
HETATM   23  C8  UNL     1      19.582   5.582  12.849  1.00  0.00     0.140 C 
ATOM     24  H5  UNL     1      19.549   4.881  10.745  1.00  0.00     0.160 HD
HETATM   25  C9  UNL     1      19.538   4.703  14.080  1.00  0.00     0.140 C 
HETATM   26  N6  UNL     1      20.159   3.475  13.575  1.00  0.00    -0.377 N 
ATOM     27  H6  UNL     1      20.606   2.748  14.134  1.00  0.00     0.160 HD
ENDBRANCH  20  21
ENDBRANCH  19  20
ENDBRANCH  18  19
ENDBRANCH  17  18
ENDBRANCH   7  17
BRANCH   1  28
HETATM   28  N1  UNL     1      16.048  -0.392  16.870  1.00  0.00    -0.234 N 
ATOM     29  H12 UNL     1      15.742   0.097  17.711  1.00  0.00     0.174 HD
ATOM     30  H11 UNL     1      16.186  -1.401  16.934  1.00  0.00     0.174 HD
ENDBRANCH   1  28
TORSDOF 6
ENDMDL
MODEL 4
REMARK VINA RESULT: -6.461503794      1.727      2.893
REMARK  6 active torsions:
REMARK  status: ('A' for Active; 'I' for Inactive)
REMARK    1  A    between atoms: N1_1  and  C1_4 
REMARK    2  A    between atoms: N4_10  and  C4_12 
REMARK    3  A    between atoms: C4_12  and  C5_13 
REMARK    4  A    between atoms: C5_13  and  O1_14 
REMARK    5  A    between atoms: O1_14  and  C6_15 
REMARK    6  A    between atoms: C6_15  and  C7_16 
ROOT
HETATM    1  C1  UNL     1      15.407   3.808  14.328  1.00  0.00     0.692 A 
HETATM    2  N2  UNL     1      15.015   3.215  15.458  1.00  0.00    -0.170 N 
ATOM      3  H2  UNL     1      14.478   3.749  16.141  1.00  0.00     0.186 HD
HETATM    4  C2  UNL     1      15.314   1.933  15.714  1.00  0.00     0.216 A 
HETATM    5  N3  UNL     1      16.028   1.207  14.817  1.00  0.00    -0.061 N 
HETATM    6  C3  UNL     1      16.449   1.767  13.652  1.00  0.00     0.719 A 
HETATM    7  N4  UNL     1      17.111   1.169  12.774  1.00  0.00    -0.201 N 
ATOM      8  H4  UNL     1      17.323   1.778  11.983  1.00  0.00     0.183 HD
HETATM    9  N7  UNL     1      16.104   3.083  13.465  1.00  0.00    -0.021 N 
ATOM     10  H7  UNL     1      16.404   3.534  12.601  1.00  0.00     0.203 HD
HETATM   11  N8  UNL     1      16.205  -0.086  15.312  1.00  0.00    -0.240 N 
ATOM     12  H8  UNL     1      16.707  -0.835  14.836  1.00  0.00     0.191 HD
HETATM   13  C10 UNL     1      15.575  -0.197  16.586  1.00  0.00     0.315 A 
HETATM   14  O2  UNL     1      15.513  -1.196  17.347  1.00  0.00    -0.262 OA
HETATM   15  C11 UNL     1      14.981   1.093  16.889  1.00  0.00     0.287 A 
HETATM   16  O3  UNL     1      14.333   1.462  17.888  1.00  0.00    -0.278 OA
ENDROOT
BRANCH   7  17
HETATM   17  C4  UNL     1      17.640  -0.118  12.592  1.00  0.00     0.105 C 
BRANCH  17  18
HETATM   18  C5  UNL     1      18.470  -0.222  11.313  1.00  0.00     0.213 C 
BRANCH  18  19
HETATM   19  O1  UNL     1      19.699   0.301  11.497  1.00  0.00    -0.379 OA
BRANCH  19  20
HETATM   20  C6  UNL     1      20.062   1.344  10.688  1.00  0.00     0.243 C 
BRANCH  20  21
HETATM   21  C7  UNL     1      19.864   2.631  11.468  1.00  0.00     0.097 C 
HETATM   22  N5  UNL     1      19.074   3.561  11.079  1.00  0.00    -0.377 N 
HETATM   23  C8  UNL     1      19.101   4.669  12.041  1.00  0.00     0.140 C 
ATOM     24  H5  UNL     1      18.512   3.535  10.228  1.00  0.00     0.160 HD
HETATM   25  C9  UNL     1      19.775   4.095  13.269  1.00  0.00     0.140 C 
HETATM   26  N6  UNL     1      20.504   2.964  12.690  1.00  0.00    -0.377 N 
ATOM     27  H6  UNL     1      21.321   2.501  13.090  1.00  0.00     0.160 HD
ENDBRANCH  20  21
ENDBRANCH  19  20
ENDBRANCH  18  19
ENDBRANCH  17  18
ENDBRANCH   7  17
BRANCH   1  28
HETATM   28  N1  UNL     1      15.124   5.054  14.065  1.00  0.00    -0.234 N 
ATOM     29  H12 UNL     1      14.318   5.289  13.486  1.00  0.00     0.174 HD
ATOM     30  H11 UNL     1      15.688   5.825  14.423  1.00  0.00     0.174 HD
ENDBRANCH   1  28
TORSDOF 6
ENDMDL
MODEL 5
REMARK VINA RESULT: -6.446330361      2.436      5.214
REMARK  6 active torsions:
REMARK  status: ('A' for Active; 'I' for Inactive)
REMARK    1  A    between atoms: N1_1  and  C1_4 
REMARK    2  A    between atoms: N4_10  and  C4_12 
REMARK    3  A    between atoms: C4_12  and  C5_13 
REMARK    4  A    between atoms: C5_13  and  O1_14 
REMARK    5  A    between atoms: O1_14  and  C6_15 
REMARK    6  A    between atoms: C6_15  and  C7_16 
ROOT
HETATM    1  C1  UNL     1      20.567   2.651  10.191  1.00  0.00     0.692 A 
HETATM    2  N2  UNL     1      19.893   1.514  10.004  1.00  0.00    -0.170 N 
ATOM      3  H2  UNL     1      20.039   0.982   9.146  1.00  0.00     0.186 HD
HETATM    4  C2  UNL     1      19.027   1.057  10.921  1.00  0.00     0.216 A 
HETATM    5  N3  UNL     1      18.819   1.752  12.069  1.00  0.00    -0.061 N 
HETATM    6  C3  UNL     1      19.484   2.915  12.303  1.00  0.00     0.719 A 
HETATM    7  N4  UNL     1      19.350   3.615  13.332  1.00  0.00    -0.201 N 
ATOM      8  H4  UNL     1      19.941   4.446  13.301  1.00  0.00     0.183 HD
HETATM    9  N7  UNL     1      20.352   3.315  11.317  1.00  0.00    -0.021 N 
ATOM     10  H7  UNL     1      20.866   4.183  11.461  1.00  0.00     0.203 HD
HETATM   11  N8  UNL     1      17.882   1.075  12.850  1.00  0.00    -0.240 N 
ATOM     12  H8  UNL     1      17.546   1.381  13.763  1.00  0.00     0.191 HD
HETATM   13  C10 UNL     1      17.468  -0.109  12.175  1.00  0.00     0.315 A 
HETATM   14  O2  UNL     1      16.641  -0.979  12.550  1.00  0.00    -0.262 OA
HETATM   15  C11 UNL     1      18.187  -0.163  10.914  1.00  0.00     0.287 A 
HETATM   16  O3  UNL     1      18.145  -1.013  10.004  1.00  0.00    -0.278 OA
ENDROOT
BRANCH   7  17
HETATM   17  C4  UNL     1      18.601   3.558  14.517  1.00  0.00     0.105 C 
BRANCH  17  18
HETATM   18  C5  UNL     1      17.211   4.172  14.348  1.00  0.00     0.213 C 
BRANCH  18  19
HETATM   19  O1  UNL     1      16.310   3.228  14.012  1.00  0.00    -0.379 OA
BRANCH  19  20
HETATM   20  C6  UNL     1      15.123   3.224  14.696  1.00  0.00     0.243 C 
BRANCH  20  21
HETATM   21  C7  UNL     1      15.157   2.072  15.684  1.00  0.00     0.097 C 
HETATM   22  N5  UNL     1      15.938   1.067  15.546  1.00  0.00    -0.377 N 
HETATM   23  C8  UNL     1      15.737   0.128  16.657  1.00  0.00     0.140 C 
ATOM     24  H5  UNL     1      16.599   0.938  14.781  1.00  0.00     0.160 HD
HETATM   25  C9  UNL     1      14.950   0.912  17.685  1.00  0.00     0.140 C 
HETATM   26  N6  UNL     1      14.357   1.960  16.850  1.00  0.00    -0.377 N 
ATOM     27  H6  UNL     1      13.524   2.508  17.067  1.00  0.00     0.160 HD
ENDBRANCH  20  21
ENDBRANCH  19  20
ENDBRANCH  18  19
ENDBRANCH  17  18
ENDBRANCH   7  17
BRANCH   1  28
HETATM   28  N1  UNL     1      21.413   3.107   9.308  1.00  0.00    -0.234 N 
ATOM     29  H12 UNL     1      21.487   2.669   8.390  1.00  0.00     0.174 HD
ATOM     30  H11 UNL     1      22.020   3.904   9.501  1.00  0.00     0.174 HD
ENDBRANCH   1  28
TORSDOF 6
ENDMDL
