MODEL 1
REMARK VINA RESULT: -7.847824313      0.000      0.000
REMARK  7 active torsions:
REMARK  status: ('A' for Active; 'I' for Inactive)
REMARK    1  A    between atoms: N1_1  and  C1_4 
REMARK    2  A    between atoms: N2_7  and  S1_8 
REMARK    3  A    between atoms: S1_8  and  N3_9 
REMARK    4  A    between atoms: S1_8  and  C4_13 
REMARK    5  A    between atoms: C4_13  and  C5_14 
REMARK    6  A    between atoms: C5_14  and  C6_15 
REMARK    7  A    between atoms: C6_15  and  C7_16 
ROOT
HETATM    1  S1  UNL     1      17.462   4.577  11.283  1.00  0.00     0.125 S 
HETATM    2  O1  UNL     1      16.181   4.144  10.362  1.00  0.00    -0.227 OA
ENDROOT
BRANCH   1   3
HETATM    3  N2  UNL     1      17.737   2.587  11.414  1.00  0.00    -0.195 N 
HETATM    4  C3  UNL     1      18.753   2.159  10.696  1.00  0.00     0.133 A 
HETATM    5  C2  UNL     1      18.981   0.775  10.713  1.00  0.00     0.069 A 
HETATM    6  C1  UNL     1      18.123   0.017  11.473  1.00  0.00     0.115 A 
HETATM    7  N9  UNL     1      17.109   0.541  12.177  1.00  0.00    -0.270 N 
HETATM    8  N8  UNL     1      16.937   1.874  12.124  1.00  0.00    -0.227 N 
ATOM      9  H9  UNL     1      16.491  -0.050  12.734  1.00  0.00     0.190 HD
ATOM     10  H8  UNL     1      16.178   2.316  12.643  1.00  0.00     0.209 HD
BRANCH   6  11
HETATM   11  N1  UNL     1      18.329  -1.260  11.492  1.00  0.00    -0.384 N 
ATOM     12  H12 UNL     1      19.223  -1.626  11.820  1.00  0.00     0.157 HD
ATOM     13  H11 UNL     1      17.567  -1.856  11.168  1.00  0.00     0.157 HD
ENDBRANCH   6  11
ENDBRANCH   1   3
BRANCH   1  14
HETATM   14  N3  UNL     1      19.082   4.823  11.924  1.00  0.00    -0.343 N 
ATOM     15  H32 UNL     1      19.860   5.441  11.692  1.00  0.00     0.167 HD
ATOM     16  H31 UNL     1      18.907   4.093  12.615  1.00  0.00     0.167 HD
ENDBRANCH   1  14
BRANCH   1  17
HETATM   17  C4  UNL     1      16.539   5.301  12.685  1.00  0.00     0.141 C 
BRANCH  17  18
HETATM   18  C5  UNL     1      17.164   6.282  13.640  1.00  0.00     0.023 C 
BRANCH  18  19
HETATM   19  C6  UNL     1      17.688   5.811  14.925  1.00  0.00     0.079 C 
BRANCH  19  20
HETATM   20  C7  UNL     1      17.226   4.508  15.423  1.00  0.00     0.099 A 
HETATM   21  N4  UNL     1      18.029   3.402  15.343  1.00  0.00    -0.287 N 
HETATM   22  N5  UNL     1      17.433   2.370  15.883  1.00  0.00    -0.279 N 
ATOM     23  H4  UNL     1      18.958   3.385  14.923  1.00  0.00     0.188 HD
HETATM   24  C8  UNL     1      16.234   2.817  16.315  1.00  0.00     0.193 A 
ATOM     25  H5  UNL     1      17.799   1.422  15.961  1.00  0.00     0.189 HD
HETATM   26  N6  UNL     1      16.112   4.135  16.030  1.00  0.00    -0.315 N 
HETATM   27  C11 UNL     1      15.162   2.115  16.983  1.00  0.00     0.287 C 
HETATM   28  C9  UNL     1      14.936   4.883  16.416  1.00  0.00     0.152 C 
HETATM   29  C10 UNL     1      13.704   4.049  16.605  1.00  0.00     0.143 C 
HETATM   30  N7  UNL     1      13.987   2.823  17.331  1.00  0.00    -0.353 N 
ATOM     31  H7  UNL     1      13.363   2.485  18.064  1.00  0.00     0.162 HD
HETATM   32  O2  UNL     1      15.247   0.879  17.264  1.00  0.00    -0.264 OA
ENDBRANCH  19  20
ENDBRANCH  18  19
ENDBRANCH  17  18
ENDBRANCH   1  17
TORSDOF 7
ENDMDL
MODEL 2
REMARK VINA RESULT: -7.581608433      0.879      1.002
REMARK  7 active torsions:
REMARK  status: ('A' for Active; 'I' for Inactive)
REMARK    1  A    between atoms: N1_1  and  C1_4 
REMARK    2  A    between atoms: N2_7  and  S1_8 
REMARK    3  A    between atoms: S1_8  and  N3_9 
REMARK    4  A    between atoms: S1_8  and  C4_13 
REMARK    5  A    between atoms: C4_13  and  C5_14 
REMARK    6  A    between atoms: C5_14  and  C6_15 
REMARK    7  A    between atoms: C6_15  and  C7_16 
ROOT
HETATM    1  S1  UNL     1      18.660   5.430  11.006  1.00  0.00     0.125 S 
HETATM    2  O1  UNL     1      17.655   5.318   9.720  1.00  0.00    -0.227 OA
ENDROOT
BRANCH   1   3
HETATM    3  N2  UNL     1      18.107   3.518  11.303  1.00  0.00    -0.195 N 
HETATM    4  C3  UNL     1      19.086   2.662  11.102  1.00  0.00     0.133 A 
HETATM    5  C2  UNL     1      18.761   1.306  11.258  1.00  0.00     0.069 A 
HETATM    6  C1  UNL     1      17.462   1.017  11.601  1.00  0.00     0.115 A 
HETATM    7  N9  UNL     1      16.525   1.960  11.786  1.00  0.00    -0.270 N 
HETATM    8  N8  UNL     1      16.893   3.243  11.624  1.00  0.00    -0.227 N 
ATOM      9  H9  UNL     1      15.570   1.711  12.042  1.00  0.00     0.190 HD
ATOM     10  H8  UNL     1      16.214   3.993  11.754  1.00  0.00     0.209 HD
BRANCH   6  11
HETATM   11  N1  UNL     1      17.157  -0.232  11.745  1.00  0.00    -0.384 N 
ATOM     12  H12 UNL     1      17.897  -0.932  11.801  1.00  0.00     0.157 HD
ATOM     13  H11 UNL     1      16.165  -0.463  11.796  1.00  0.00     0.157 HD
ENDBRANCH   6  11
ENDBRANCH   1   3
BRANCH   1  14
HETATM   14  N3  UNL     1      19.976   5.208  12.153  1.00  0.00    -0.343 N 
ATOM     15  H32 UNL     1      20.065   4.758  13.064  1.00  0.00     0.167 HD
ATOM     16  H31 UNL     1      20.597   5.714  11.521  1.00  0.00     0.167 HD
ENDBRANCH   1  14
BRANCH   1  17
HETATM   17  C4  UNL     1      17.702   6.648  11.976  1.00  0.00     0.141 C 
BRANCH  17  18
HETATM   18  C5  UNL     1      16.872   6.254  13.168  1.00  0.00     0.023 C 
BRANCH  18  19
HETATM   19  C6  UNL     1      17.534   5.831  14.406  1.00  0.00     0.079 C 
BRANCH  19  20
HETATM   20  C7  UNL     1      17.121   4.556  15.008  1.00  0.00     0.099 A 
HETATM   21  N4  UNL     1      17.900   3.437  14.887  1.00  0.00    -0.287 N 
HETATM   22  N5  UNL     1      17.361   2.437  15.534  1.00  0.00    -0.279 N 
ATOM     23  H4  UNL     1      18.775   3.390  14.365  1.00  0.00     0.188 HD
HETATM   24  C8  UNL     1      16.222   2.918  16.080  1.00  0.00     0.193 A 
ATOM     25  H5  UNL     1      17.725   1.488  15.611  1.00  0.00     0.189 HD
HETATM   26  N6  UNL     1      16.080   4.223  15.753  1.00  0.00    -0.315 N 
HETATM   27  C11 UNL     1      15.228   2.258  16.894  1.00  0.00     0.287 C 
HETATM   28  C9  UNL     1      14.961   5.003  16.238  1.00  0.00     0.152 C 
HETATM   29  C10 UNL     1      13.752   4.194  16.600  1.00  0.00     0.143 C 
HETATM   30  N7  UNL     1      14.105   2.995  17.342  1.00  0.00    -0.353 N 
ATOM     31  H7  UNL     1      13.566   2.697  18.154  1.00  0.00     0.162 HD
HETATM   32  O2  UNL     1      15.334   1.034  17.217  1.00  0.00    -0.264 OA
ENDBRANCH  19  20
ENDBRANCH  18  19
ENDBRANCH  17  18
ENDBRANCH   1  17
TORSDOF 7
ENDMDL
MODEL 3
REMARK VINA RESULT: -7.201211802      3.101      5.770
REMARK  7 active torsions:
REMARK  status: ('A' for Active; 'I' for Inactive)
REMARK    1  A    between atoms: N1_1  and  C1_4 
REMARK    2  A    between atoms: N2_7  and  S1_8 
REMARK    3  A    between atoms: S1_8  and  N3_9 
REMARK    4  A    between atoms: S1_8  and  C4_13 
REMARK    5  A    between atoms: C4_13  and  C5_14 
REMARK    6  A    between atoms: C5_14  and  C6_15 
REMARK    7  A    between atoms: C6_15  and  C7_16 
ROOT
HETATM    1  S1  UNL     1      16.751   5.272  14.781  1.00  0.00     0.125 S 
HETATM    2  O1  UNL     1      18.247   4.931  15.348  1.00  0.00    -0.227 OA
ENDROOT
BRANCH   1   3
HETATM    3  N2  UNL     1      17.081   3.657  13.626  1.00  0.00    -0.195 N 
HETATM    4  C3  UNL     1      17.420   3.966  12.393  1.00  0.00     0.133 A 
HETATM    5  C2  UNL     1      17.631   2.886  11.523  1.00  0.00     0.069 A 
HETATM    6  C1  UNL     1      17.462   1.627  12.046  1.00  0.00     0.115 A 
HETATM    7  N9  UNL     1      17.114   1.405  13.323  1.00  0.00    -0.270 N 
HETATM    8  N8  UNL     1      16.925   2.477  14.113  1.00  0.00    -0.227 N 
ATOM      9  H9  UNL     1      16.999   0.457  13.682  1.00  0.00     0.190 HD
ATOM     10  H8  UNL     1      16.658   2.356  15.090  1.00  0.00     0.209 HD
BRANCH   6  11
HETATM   11  N1  UNL     1      17.656   0.629  11.248  1.00  0.00    -0.384 N 
ATOM     12  H12 UNL     1      18.386   0.679  10.537  1.00  0.00     0.157 HD
ATOM     13  H11 UNL     1      17.051  -0.184  11.369  1.00  0.00     0.157 HD
ENDBRANCH   6  11
ENDBRANCH   1   3
BRANCH   1  14
HETATM   14  N3  UNL     1      15.046   5.207  14.351  1.00  0.00    -0.343 N 
ATOM     15  H32 UNL     1      14.417   4.476  14.018  1.00  0.00     0.167 HD
ATOM     16  H31 UNL     1      14.964   6.199  14.576  1.00  0.00     0.167 HD
ENDBRANCH   1  14
BRANCH   1  17
HETATM   17  C4  UNL     1      17.140   6.865  13.972  1.00  0.00     0.141 C 
BRANCH  17  18
HETATM   18  C5  UNL     1      18.088   7.865  14.577  1.00  0.00     0.023 C 
BRANCH  18  19
HETATM   19  C6  UNL     1      19.402   8.083  13.964  1.00  0.00     0.079 C 
BRANCH  19  20
HETATM   20  C7  UNL     1      19.885   7.090  12.996  1.00  0.00     0.099 A 
HETATM   21  N4  UNL     1      20.432   5.907  13.417  1.00  0.00    -0.287 N 
HETATM   22  N5  UNL     1      20.750   5.164  12.389  1.00  0.00    -0.279 N 
ATOM     23  H4  UNL     1      20.571   5.644  14.392  1.00  0.00     0.188 HD
HETATM   24  C8  UNL     1      20.405   5.875  11.294  1.00  0.00     0.193 A 
ATOM     25  H5  UNL     1      21.174   4.237  12.411  1.00  0.00     0.189 HD
HETATM   26  N6  UNL     1      19.872   7.060  11.674  1.00  0.00    -0.315 N 
HETATM   27  C11 UNL     1      20.530   5.549   9.893  1.00  0.00     0.287 C 
HETATM   28  C9  UNL     1      19.378   8.010  10.701  1.00  0.00     0.152 C 
HETATM   29  C10 UNL     1      19.987   7.875   9.338  1.00  0.00     0.143 C 
HETATM   30  N7  UNL     1      20.090   6.484   8.926  1.00  0.00    -0.353 N 
ATOM     31  H7  UNL     1      19.853   6.194   7.977  1.00  0.00     0.162 HD
HETATM   32  O2  UNL     1      21.026   4.445   9.506  1.00  0.00    -0.264 OA
ENDBRANCH  19  20
ENDBRANCH  18  19
ENDBRANCH  17  18
ENDBRANCH   1  17
TORSDOF 7
ENDMDL
MODEL 4
REMARK VINA RESULT: -7.198936873      2.007      2.803
REMARK  7 active torsions:
REMARK  status: ('A' for Active; 'I' for Inactive)
REMARK    1  A    between atoms: N1_1  and  C1_4 
REMARK    2  A    between atoms: N2_7  and  S1_8 
REMARK    3  A    between atoms: S1_8  and  N3_9 
REMARK    4  A    between atoms: S1_8  and  C4_13 
REMARK    5  A    between atoms: C4_13  and  C5_14 
REMARK    6  A    between atoms: C5_14  and  C6_15 
REMARK    7  A    between atoms: C6_15  and  C7_16 
ROOT
HETATM    1  S1  UNL     1      18.476   6.848  12.384  1.00  0.00     0.125 S 
HETATM    2  O1  UNL     1      18.325   7.372  10.842  1.00  0.00    -0.227 OA
ENDROOT
BRANCH   1   3
HETATM    3  N2  UNL     1      18.251   5.036  11.537  1.00  0.00    -0.195 N 
HETATM    4  C3  UNL     1      19.351   4.314  11.564  1.00  0.00     0.133 A 
HETATM    5  C2  UNL     1      19.275   3.051  10.959  1.00  0.00     0.069 A 
HETATM    6  C1  UNL     1      18.067   2.703  10.404  1.00  0.00     0.115 A 
HETATM    7  N9  UNL     1      16.992   3.506  10.423  1.00  0.00    -0.270 N 
HETATM    8  N8  UNL     1      17.122   4.706  11.017  1.00  0.00    -0.227 N 
ATOM      9  H9  UNL     1      16.109   3.217  10.004  1.00  0.00     0.190 HD
ATOM     10  H8  UNL     1      16.332   5.350  11.054  1.00  0.00     0.209 HD
BRANCH   6  11
HETATM   11  N1  UNL     1      17.992   1.539   9.844  1.00  0.00    -0.384 N 
ATOM     12  H12 UNL     1      18.839   1.082   9.506  1.00  0.00     0.157 HD
ATOM     13  H11 UNL     1      17.064   1.123   9.765  1.00  0.00     0.157 HD
ENDBRANCH   6  11
ENDBRANCH   1   3
BRANCH   1  14
HETATM   14  N3  UNL     1      19.025   6.067  13.862  1.00  0.00    -0.343 N 
ATOM     15  H32 UNL     1      19.732   5.365  14.084  1.00  0.00     0.167 HD
ATOM     16  H31 UNL     1      18.342   6.611  14.390  1.00  0.00     0.167 HD
ENDBRANCH   1  14
BRANCH   1  17
HETATM   17  C4  UNL     1      16.931   7.562  13.052  1.00  0.00     0.141 C 
BRANCH  17  18
HETATM   18  C5  UNL     1      16.432   7.247  14.436  1.00  0.00     0.023 C 
BRANCH  18  19
HETATM   19  C6  UNL     1      15.143   6.570  14.607  1.00  0.00     0.079 C 
BRANCH  19  20
HETATM   20  C7  UNL     1      15.104   5.361  15.441  1.00  0.00     0.099 A 
HETATM   21  N4  UNL     1      14.339   5.315  16.575  1.00  0.00    -0.287 N 
HETATM   22  N5  UNL     1      14.423   4.134  17.131  1.00  0.00    -0.279 N 
ATOM     23  H4  UNL     1      13.784   6.090  16.936  1.00  0.00     0.188 HD
HETATM   24  C8  UNL     1      15.251   3.411  16.345  1.00  0.00     0.193 A 
ATOM     25  H5  UNL     1      13.959   3.822  17.983  1.00  0.00     0.189 HD
HETATM   26  N6  UNL     1      15.667   4.171  15.305  1.00  0.00    -0.315 N 
HETATM   27  C11 UNL     1      15.705   2.046  16.476  1.00  0.00     0.287 C 
HETATM   28  C9  UNL     1      16.536   3.636  14.280  1.00  0.00     0.152 C 
HETATM   29  C10 UNL     1      17.364   2.465  14.720  1.00  0.00     0.143 C 
HETATM   30  N7  UNL     1      16.589   1.518  15.504  1.00  0.00    -0.353 N 
ATOM     31  H7  UNL     1      16.679   0.513  15.360  1.00  0.00     0.162 HD
HETATM   32  O2  UNL     1      15.332   1.308  17.440  1.00  0.00    -0.264 OA
ENDBRANCH  19  20
ENDBRANCH  18  19
ENDBRANCH  17  18
ENDBRANCH   1  17
TORSDOF 7
ENDMDL
MODEL 5
REMARK VINA RESULT: -7.157977442      2.493      3.899
REMARK  7 active torsions:
REMARK  status: ('A' for Active; 'I' for Inactive)
REMARK    1  A    between atoms: N1_1  and  C1_4 
REMARK    2  A    between atoms: N2_7  and  S1_8 
REMARK    3  A    between atoms: S1_8  and  N3_9 
REMARK    4  A    between atoms: S1_8  and  C4_13 
REMARK    5  A    between atoms: C4_13  and  C5_14 
REMARK    6  A    between atoms: C5_14  and  C6_15 
REMARK    7  A    between atoms: C6_15  and  C7_16 
ROOT
HETATM    1  S1  UNL     1      17.506   4.100  10.052  1.00  0.00     0.125 S 
HETATM    2  O1  UNL     1      18.575   2.866   9.942  1.00  0.00    -0.227 OA
ENDROOT
BRANCH   1   3
HETATM    3  N2  UNL     1      19.063   5.057  10.896  1.00  0.00    -0.195 N 
HETATM    4  C3  UNL     1      19.693   5.854  10.060  1.00  0.00     0.133 A 
HETATM    5  C2  UNL     1      20.811   6.527  10.573  1.00  0.00     0.069 A 
HETATM    6  C1  UNL     1      21.129   6.284  11.888  1.00  0.00     0.115 A 
HETATM    7  N9  UNL     1      20.427   5.451  12.671  1.00  0.00    -0.270 N 
HETATM    8  N8  UNL     1      19.364   4.833  12.126  1.00  0.00    -0.227 N 
ATOM      9  H9  UNL     1      20.689   5.294  13.644  1.00  0.00     0.190 HD
ATOM     10  H8  UNL     1      18.801   4.190  12.684  1.00  0.00     0.209 HD
BRANCH   6  11
HETATM   11  N1  UNL     1      22.160   6.902  12.366  1.00  0.00    -0.384 N 
ATOM     12  H12 UNL     1      22.704   6.478  13.118  1.00  0.00     0.157 HD
ATOM     13  H11 UNL     1      22.386   7.810  11.957  1.00  0.00     0.157 HD
ENDBRANCH   6  11
ENDBRANCH   1   3
BRANCH   1  14
HETATM   14  N3  UNL     1      16.674   5.642   9.885  1.00  0.00    -0.343 N 
ATOM     15  H32 UNL     1      16.262   6.309  10.537  1.00  0.00     0.167 HD
ATOM     16  H31 UNL     1      16.783   5.577   8.872  1.00  0.00     0.167 HD
ENDBRANCH   1  14
BRANCH   1  17
HETATM   17  C4  UNL     1      16.354   3.337  11.250  1.00  0.00     0.141 C 
BRANCH  17  18
HETATM   18  C5  UNL     1      16.687   2.070  11.991  1.00  0.00     0.023 C 
BRANCH  18  19
HETATM   19  C6  UNL     1      17.513   2.130  13.200  1.00  0.00     0.079 C 
BRANCH  19  20
HETATM   20  C7  UNL     1      16.840   2.368  14.484  1.00  0.00     0.099 A 
HETATM   21  N4  UNL     1      16.865   1.425  15.475  1.00  0.00    -0.287 N 
HETATM   22  N5  UNL     1      16.242   1.866  16.537  1.00  0.00    -0.279 N 
ATOM     23  H4  UNL     1      17.305   0.508  15.397  1.00  0.00     0.188 HD
HETATM   24  C8  UNL     1      15.813   3.108  16.227  1.00  0.00     0.193 A 
ATOM     25  H5  UNL     1      16.109   1.373  17.419  1.00  0.00     0.189 HD
HETATM   26  N6  UNL     1      16.184   3.413  14.961  1.00  0.00    -0.315 N 
HETATM   27  C11 UNL     1      15.067   4.061  17.016  1.00  0.00     0.287 C 
HETATM   28  C9  UNL     1      15.885   4.703  14.379  1.00  0.00     0.152 C 
HETATM   29  C10 UNL     1      14.714   5.407  14.997  1.00  0.00     0.143 C 
HETATM   30  N7  UNL     1      14.730   5.313  16.448  1.00  0.00    -0.353 N 
ATOM     31  H7  UNL     1      14.509   6.118  17.033  1.00  0.00     0.162 HD
HETATM   32  O2  UNL     1      14.705   3.804  18.207  1.00  0.00    -0.264 OA
ENDBRANCH  19  20
ENDBRANCH  18  19
ENDBRANCH  17  18
ENDBRANCH   1  17
TORSDOF 7
ENDMDL
