MODEL 1
REMARK VINA RESULT: -6.642366708      0.000      0.000
REMARK  6 active torsions:
REMARK  status: ('A' for Active; 'I' for Inactive)
REMARK    1  A    between atoms: N4_7  and  C2_8 
REMARK    2  A    between atoms: C2_8  and  C3_9 
REMARK    3  A    between atoms: C3_9  and  C4_10 
REMARK    4  A    between atoms: C4_10  and  N5_11 
REMARK    5  A    between atoms: N6_14  and  C7_15 
REMARK    6  A    between atoms: C8_18  and  N8_19 
ROOT
HETATM    1  N5  UNL     1      18.155   7.358  12.736  1.00  0.00     0.091 N 
HETATM    2  C5  UNL     1      16.763   7.468  13.082  1.00  0.00     0.292 C 
HETATM    3  C6  UNL     1      16.264   6.108  13.496  1.00  0.00     0.171 C 
HETATM    4  N6  UNL     1      17.157   5.529  14.470  1.00  0.00    -0.214 N 
HETATM    5  C10 UNL     1      18.480   6.015  14.724  1.00  0.00     0.171 C 
HETATM    6  C11 UNL     1      18.951   7.140  13.877  1.00  0.00     0.292 C 
ENDROOT
BRANCH   4   7
HETATM    7  C7  UNL     1      16.711   4.393  15.198  1.00  0.00     0.699 A 
HETATM    8  N7  UNL     1      16.039   4.507  16.375  1.00  0.00    -0.022 N 
HETATM    9  C8  UNL     1      15.642   3.436  17.071  1.00  0.00     0.694 A 
ATOM     10  H7  UNL     1      15.830   5.437  16.737  1.00  0.00     0.203 HD
HETATM   11  N9  UNL     1      15.907   2.202  16.613  1.00  0.00    -0.141 N 
HETATM   12  C9  UNL     1      16.569   2.029  15.452  1.00  0.00     0.352 A 
ATOM     13  H9  UNL     1      15.603   1.388  17.149  1.00  0.00     0.189 HD
HETATM   14  O1  UNL     1      16.809   0.862  15.035  1.00  0.00    -0.246 OA
HETATM   15  N10 UNL     1      16.954   3.131  14.775  1.00  0.00    -0.140 N 
ATOM     16  H10 UNL     1      17.456   3.006  13.896  1.00  0.00     0.189 HD
BRANCH   9  17
HETATM   17  N8  UNL     1      14.976   3.522  18.192  1.00  0.00    -0.234 N 
ATOM     18  H82 UNL     1      15.011   2.714  18.813  1.00  0.00     0.174 HD
ATOM     19  H81 UNL     1      14.425   4.341  18.450  1.00  0.00     0.174 HD
ENDBRANCH   9  17
ENDBRANCH   4   7
BRANCH   1  20
HETATM   20  C4  UNL     1      18.498   8.470  11.899  1.00  0.00     0.274 C 
BRANCH  20  21
HETATM   21  C3  UNL     1      18.684   8.087  10.467  1.00  0.00     0.052 C 
BRANCH  21  22
HETATM   22  C2  UNL     1      19.302   6.746  10.223  1.00  0.00     0.157 C 
BRANCH  22  23
HETATM   23  N4  UNL     1      18.408   5.619  10.338  1.00  0.00    -0.226 N 
HETATM   24  N3  UNL     1      17.172   5.553   9.774  1.00  0.00    -0.222 N 
HETATM   25  N2  UNL     1      16.614   4.400  10.090  1.00  0.00    -0.222 N 
ATOM     26  H3  UNL     1      16.746   6.278   9.199  1.00  0.00     0.210 HD
HETATM   27  N1  UNL     1      17.438   3.698  10.846  1.00  0.00    -0.230 N 
ATOM     28  H2  UNL     1      15.686   4.096   9.794  1.00  0.00     0.210 HD
HETATM   29  C1  UNL     1      17.177   2.378  11.412  1.00  0.00     0.184 C 
HETATM   30  C12 UNL     1      18.546   4.462  10.991  1.00  0.00     0.359 A 
HETATM   31  O2  UNL     1      19.542   4.105  11.652  1.00  0.00    -0.243 OA
ENDBRANCH  22  23
ENDBRANCH  21  22
ENDBRANCH  20  21
ENDBRANCH   1  20
TORSDOF 6
ENDMDL
MODEL 2
REMARK VINA RESULT: -6.563480673      1.998      2.284
REMARK  6 active torsions:
REMARK  status: ('A' for Active; 'I' for Inactive)
REMARK    1  A    between atoms: N4_7  and  C2_8 
REMARK    2  A    between atoms: C2_8  and  C3_9 
REMARK    3  A    between atoms: C3_9  and  C4_10 
REMARK    4  A    between atoms: C4_10  and  N5_11 
REMARK    5  A    between atoms: N6_14  and  C7_15 
REMARK    6  A    between atoms: C8_18  and  N8_19 
ROOT
HETATM    1  N5  UNL     1      18.465   7.974  12.223  1.00  0.00     0.091 N 
HETATM    2  C5  UNL     1      17.369   7.239  11.651  1.00  0.00     0.292 C 
HETATM    3  C6  UNL     1      17.213   5.946  12.408  1.00  0.00     0.171 C 
HETATM    4  N6  UNL     1      17.183   6.204  13.828  1.00  0.00    -0.214 N 
HETATM    5  C10 UNL     1      17.597   7.441  14.419  1.00  0.00     0.171 C 
HETATM    6  C11 UNL     1      18.139   8.473  13.499  1.00  0.00     0.292 C 
ENDROOT
BRANCH   4   7
HETATM    7  C7  UNL     1      16.749   5.163  14.691  1.00  0.00     0.699 A 
HETATM    8  N7  UNL     1      15.525   5.178  15.284  1.00  0.00    -0.022 N 
HETATM    9  C8  UNL     1      15.129   4.209  16.116  1.00  0.00     0.694 A 
ATOM     10  H7  UNL     1      14.891   5.952  15.088  1.00  0.00     0.203 HD
HETATM   11  N9  UNL     1      15.948   3.181  16.389  1.00  0.00    -0.141 N 
HETATM   12  C9  UNL     1      17.172   3.113  15.829  1.00  0.00     0.352 A 
ATOM     13  H9  UNL     1      15.641   2.445  17.026  1.00  0.00     0.189 HD
HETATM   14  O1  UNL     1      17.930   2.139  16.095  1.00  0.00    -0.246 OA
HETATM   15  N10 UNL     1      17.540   4.108  14.994  1.00  0.00    -0.140 N 
ATOM     16  H10 UNL     1      18.465   4.061  14.568  1.00  0.00     0.189 HD
BRANCH   9  17
HETATM   17  N8  UNL     1      13.949   4.192  16.680  1.00  0.00    -0.234 N 
ATOM     18  H82 UNL     1      13.917   3.991  17.679  1.00  0.00     0.174 HD
ATOM     19  H81 UNL     1      13.084   4.353  16.163  1.00  0.00     0.174 HD
ENDBRANCH   9  17
ENDBRANCH   4   7
BRANCH   1  20
HETATM   20  C4  UNL     1      18.930   8.917  11.250  1.00  0.00     0.274 C 
BRANCH  20  21
HETATM   21  C3  UNL     1      20.419   9.041  11.221  1.00  0.00     0.052 C 
BRANCH  21  22
HETATM   22  C2  UNL     1      21.149   7.986  10.451  1.00  0.00     0.157 C 
BRANCH  22  23
HETATM   23  N4  UNL     1      20.950   6.631  10.907  1.00  0.00    -0.226 N 
HETATM   24  N3  UNL     1      21.428   6.133  12.079  1.00  0.00    -0.222 N 
HETATM   25  N2  UNL     1      21.088   4.863  12.180  1.00  0.00    -0.222 N 
ATOM     26  H3  UNL     1      21.964   6.659  12.769  1.00  0.00     0.210 HD
HETATM   27  N1  UNL     1      20.399   4.500  11.113  1.00  0.00    -0.230 N 
ATOM     28  H2  UNL     1      21.320   4.253  12.963  1.00  0.00     0.210 HD
HETATM   29  C1  UNL     1      19.861   3.170  10.844  1.00  0.00     0.184 C 
HETATM   30  C12 UNL     1      20.319   5.604  10.334  1.00  0.00     0.359 A 
HETATM   31  O2  UNL     1      19.728   5.624   9.234  1.00  0.00    -0.243 OA
ENDBRANCH  22  23
ENDBRANCH  21  22
ENDBRANCH  20  21
ENDBRANCH   1  20
TORSDOF 6
ENDMDL
MODEL 3
REMARK VINA RESULT: -6.550319452      2.863      4.277
REMARK  6 active torsions:
REMARK  status: ('A' for Active; 'I' for Inactive)
REMARK    1  A    between atoms: N4_7  and  C2_8 
REMARK    2  A    between atoms: C2_8  and  C3_9 
REMARK    3  A    between atoms: C3_9  and  C4_10 
REMARK    4  A    between atoms: C4_10  and  N5_11 
REMARK    5  A    between atoms: N6_14  and  C7_15 
REMARK    6  A    between atoms: C8_18  and  N8_19 
ROOT
HETATM    1  N5  UNL     1      18.925   3.435  11.680  1.00  0.00     0.091 N 
HETATM    2  C5  UNL     1      17.886   2.444  11.596  1.00  0.00     0.292 C 
HETATM    3  C6  UNL     1      17.351   2.192  12.981  1.00  0.00     0.171 C 
HETATM    4  N6  UNL     1      17.038   3.446  13.626  1.00  0.00    -0.214 N 
HETATM    5  C10 UNL     1      17.499   4.717  13.157  1.00  0.00     0.171 C 
HETATM    6  C11 UNL     1      18.399   4.707  11.976  1.00  0.00     0.292 C 
ENDROOT
BRANCH   4   7
HETATM    7  C7  UNL     1      16.253   3.414  14.809  1.00  0.00     0.699 A 
HETATM    8  N7  UNL     1      15.588   4.509  15.266  1.00  0.00    -0.022 N 
HETATM    9  C8  UNL     1      14.870   4.484  16.394  1.00  0.00     0.694 A 
ATOM     10  H7  UNL     1      15.638   5.376  14.731  1.00  0.00     0.203 HD
HETATM   11  N9  UNL     1      14.790   3.354  17.114  1.00  0.00    -0.141 N 
HETATM   12  C9  UNL     1      15.428   2.237  16.709  1.00  0.00     0.352 A 
ATOM     13  H9  UNL     1      14.242   3.340  17.975  1.00  0.00     0.189 HD
HETATM   14  O1  UNL     1      15.343   1.182  17.397  1.00  0.00    -0.246 OA
HETATM   15  N10 UNL     1      16.143   2.298  15.566  1.00  0.00    -0.140 N 
ATOM     16  H10 UNL     1      16.627   1.456  15.256  1.00  0.00     0.189 HD
BRANCH   9  17
HETATM   17  N8  UNL     1      14.205   5.518  16.839  1.00  0.00    -0.234 N 
ATOM     18  H82 UNL     1      14.666   6.095  17.542  1.00  0.00     0.174 HD
ATOM     19  H81 UNL     1      13.262   5.749  16.526  1.00  0.00     0.174 HD
ENDBRANCH   9  17
ENDBRANCH   4   7
BRANCH   1  20
HETATM   20  C4  UNL     1      19.750   3.321  10.513  1.00  0.00     0.274 C 
BRANCH  20  21
HETATM   21  C3  UNL     1      20.231   4.641  10.007  1.00  0.00     0.052 C 
BRANCH  21  22
HETATM   22  C2  UNL     1      21.709   4.865  10.064  1.00  0.00     0.157 C 
BRANCH  22  23
HETATM   23  N4  UNL     1      22.148   5.903  10.967  1.00  0.00    -0.226 N 
HETATM   24  N3  UNL     1      21.339   6.555  11.844  1.00  0.00    -0.222 N 
HETATM   25  N2  UNL     1      22.048   7.454  12.499  1.00  0.00    -0.222 N 
ATOM     26  H3  UNL     1      20.343   6.378  11.973  1.00  0.00     0.210 HD
HETATM   27  N1  UNL     1      23.302   7.420  12.086  1.00  0.00    -0.230 N 
ATOM     28  H2  UNL     1      21.683   8.080  13.217  1.00  0.00     0.210 HD
HETATM   29  C1  UNL     1      24.389   8.272  12.557  1.00  0.00     0.184 C 
HETATM   30  C12 UNL     1      23.351   6.454  11.139  1.00  0.00     0.359 A 
HETATM   31  O2  UNL     1      24.396   6.148  10.528  1.00  0.00    -0.243 OA
ENDBRANCH  22  23
ENDBRANCH  21  22
ENDBRANCH  20  21
ENDBRANCH   1  20
TORSDOF 6
ENDMDL
MODEL 4
REMARK VINA RESULT: -6.536231464      3.594      6.760
REMARK  6 active torsions:
REMARK  status: ('A' for Active; 'I' for Inactive)
REMARK    1  A    between atoms: N4_7  and  C2_8 
REMARK    2  A    between atoms: C2_8  and  C3_9 
REMARK    3  A    between atoms: C3_9  and  C4_10 
REMARK    4  A    between atoms: C4_10  and  N5_11 
REMARK    5  A    between atoms: N6_14  and  C7_15 
REMARK    6  A    between atoms: C8_18  and  N8_19 
ROOT
HETATM    1  N5  UNL     1      17.092   6.536  12.716  1.00  0.00     0.091 N 
HETATM    2  C5  UNL     1      17.903   6.492  11.529  1.00  0.00     0.292 C 
HETATM    3  C6  UNL     1      16.996   6.543  10.327  1.00  0.00     0.171 C 
HETATM    4  N6  UNL     1      16.057   7.631  10.462  1.00  0.00    -0.214 N 
HETATM    5  C10 UNL     1      15.803   8.313  11.696  1.00  0.00     0.171 C 
HETATM    6  C11 UNL     1      16.516   7.808  12.897  1.00  0.00     0.292 C 
ENDROOT
BRANCH   4   7
HETATM    7  C7  UNL     1      15.320   8.029   9.315  1.00  0.00     0.699 A 
HETATM    8  N7  UNL     1      15.840   7.953   8.060  1.00  0.00    -0.022 N 
HETATM    9  C8  UNL     1      15.154   8.352   6.984  1.00  0.00     0.694 A 
ATOM     10  H7  UNL     1      16.781   7.581   7.936  1.00  0.00     0.203 HD
HETATM   11  N9  UNL     1      13.914   8.846   7.123  1.00  0.00    -0.141 N 
HETATM   12  C9  UNL     1      13.348   8.944   8.342  1.00  0.00     0.352 A 
ATOM     13  H9  UNL     1      13.395   9.150   6.298  1.00  0.00     0.189 HD
HETATM   14  O1  UNL     1      12.180   9.410   8.456  1.00  0.00    -0.246 OA
HETATM   15  N10 UNL     1      14.068   8.532   9.407  1.00  0.00    -0.140 N 
ATOM     16  H10 UNL     1      13.644   8.604  10.332  1.00  0.00     0.189 HD
BRANCH   9  17
HETATM   17  N8  UNL     1      15.625   8.268   5.767  1.00  0.00    -0.234 N 
ATOM     18  H82 UNL     1      16.293   8.983   5.480  1.00  0.00     0.174 HD
ATOM     19  H81 UNL     1      15.342   7.541   5.110  1.00  0.00     0.174 HD
ENDBRANCH   9  17
ENDBRANCH   4   7
BRANCH   1  20
HETATM   20  C4  UNL     1      17.858   6.003  13.803  1.00  0.00     0.274 C 
BRANCH  20  21
HETATM   21  C3  UNL     1      17.090   5.029  14.637  1.00  0.00     0.052 C 
BRANCH  21  22
HETATM   22  C2  UNL     1      16.178   4.106  13.892  1.00  0.00     0.157 C 
BRANCH  22  23
HETATM   23  N4  UNL     1      16.788   3.362  12.815  1.00  0.00    -0.226 N 
HETATM   24  N3  UNL     1      18.005   2.760  12.886  1.00  0.00    -0.222 N 
HETATM   25  N2  UNL     1      18.272   2.187  11.729  1.00  0.00    -0.222 N 
ATOM     26  H3  UNL     1      18.613   2.751  13.705  1.00  0.00     0.210 HD
HETATM   27  N1  UNL     1      17.273   2.391  10.889  1.00  0.00    -0.230 N 
ATOM     28  H2  UNL     1      19.122   1.666  11.513  1.00  0.00     0.210 HD
HETATM   29  C1  UNL     1      17.200   1.931   9.506  1.00  0.00     0.184 C 
HETATM   30  C12 UNL     1      16.360   3.117  11.575  1.00  0.00     0.359 A 
HETATM   31  O2  UNL     1      15.275   3.492  11.083  1.00  0.00    -0.243 OA
ENDBRANCH  22  23
ENDBRANCH  21  22
ENDBRANCH  20  21
ENDBRANCH   1  20
TORSDOF 6
ENDMDL
MODEL 5
REMARK VINA RESULT: -6.518177873      3.499      4.710
REMARK  6 active torsions:
REMARK  status: ('A' for Active; 'I' for Inactive)
REMARK    1  A    between atoms: N4_7  and  C2_8 
REMARK    2  A    between atoms: C2_8  and  C3_9 
REMARK    3  A    between atoms: C3_9  and  C4_10 
REMARK    4  A    between atoms: C4_10  and  N5_11 
REMARK    5  A    between atoms: N6_14  and  C7_15 
REMARK    6  A    between atoms: C8_18  and  N8_19 
ROOT
HETATM    1  N5  UNL     1      16.275   7.778  11.564  1.00  0.00     0.091 N 
HETATM    2  C5  UNL     1      16.734   7.787  12.927  1.00  0.00     0.292 C 
HETATM    3  C6  UNL     1      16.451   6.438  13.536  1.00  0.00     0.171 C 
HETATM    4  N6  UNL     1      16.936   5.392  12.669  1.00  0.00    -0.214 N 
HETATM    5  C10 UNL     1      17.297   5.599  11.298  1.00  0.00     0.171 C 
HETATM    6  C11 UNL     1      17.091   6.965  10.753  1.00  0.00     0.292 C 
ENDROOT
BRANCH   4   7
HETATM    7  C7  UNL     1      17.033   4.076  13.193  1.00  0.00     0.699 A 
HETATM    8  N7  UNL     1      16.931   2.973  12.404  1.00  0.00    -0.022 N 
HETATM    9  C8  UNL     1      16.996   1.734  12.904  1.00  0.00     0.694 A 
ATOM     10  H7  UNL     1      16.801   3.094  11.399  1.00  0.00     0.203 HD
HETATM   11  N9  UNL     1      17.166   1.551  14.223  1.00  0.00    -0.141 N 
HETATM   12  C9  UNL     1      17.274   2.606  15.053  1.00  0.00     0.352 A 
ATOM     13  H9  UNL     1      17.215   0.603  14.599  1.00  0.00     0.189 HD
HETATM   14  O1  UNL     1      17.435   2.417  16.291  1.00  0.00    -0.246 OA
HETATM   15  N10 UNL     1      17.204   3.843  14.515  1.00  0.00    -0.140 N 
ATOM     16  H10 UNL     1      17.285   4.645  15.139  1.00  0.00     0.189 HD
BRANCH   9  17
HETATM   17  N8  UNL     1      16.923   0.661  12.161  1.00  0.00    -0.234 N 
ATOM     18  H82 UNL     1      17.629   0.554  11.433  1.00  0.00     0.174 HD
ATOM     19  H81 UNL     1      16.194  -0.043  12.272  1.00  0.00     0.174 HD
ENDBRANCH   9  17
ENDBRANCH   4   7
BRANCH   1  20
HETATM   20  C4  UNL     1      16.080   9.134  11.146  1.00  0.00     0.274 C 
BRANCH  20  21
HETATM   21  C3  UNL     1      14.672   9.603  11.320  1.00  0.00     0.052 C 
BRANCH  21  22
HETATM   22  C2  UNL     1      13.696   9.140  10.285  1.00  0.00     0.157 C 
BRANCH  22  23
HETATM   23  N4  UNL     1      14.256   8.850   8.986  1.00  0.00    -0.226 N 
HETATM   24  N3  UNL     1      14.392   7.602   8.465  1.00  0.00    -0.222 N 
HETATM   25  N2  UNL     1      14.957   7.689   7.276  1.00  0.00    -0.222 N 
ATOM     26  H3  UNL     1      14.104   6.737   8.921  1.00  0.00     0.210 HD
HETATM   27  N1  UNL     1      15.201   8.955   6.990  1.00  0.00    -0.230 N 
ATOM     28  H2  UNL     1      15.172   6.898   6.669  1.00  0.00     0.210 HD
HETATM   29  C1  UNL     1      15.833   9.459   5.776  1.00  0.00     0.184 C 
HETATM   30  C12 UNL     1      14.760   9.664   8.056  1.00  0.00     0.359 A 
HETATM   31  O2  UNL     1      14.832  10.908   8.127  1.00  0.00    -0.243 OA
ENDBRANCH  22  23
ENDBRANCH  21  22
ENDBRANCH  20  21
ENDBRANCH   1  20
TORSDOF 6
ENDMDL
