MODEL 1
REMARK VINA RESULT: -10.020842677      0.000      0.000
REMARK  9 active torsions:
REMARK  status: ('A' for Active; 'I' for Inactive)
REMARK    1  A    between atoms: N3_7  and  C3_8 
REMARK    2  A    between atoms: N7_16  and  C6_17 
REMARK    3  A    between atoms: C6_17  and  C7_18 
REMARK       I    between atoms: C7_18  and  N8_20 
REMARK    4  A    between atoms: N8_20  and  N9_22 
REMARK    5  A    between atoms: N9_22  and  C8_24 
REMARK    6  A    between atoms: C9_27  and  N11_28 
REMARK    7  A    between atoms: C10_33  and  O2_34 
REMARK    8  A    between atoms: C11_36  and  N13_37 
REMARK    9  A    between atoms: C12_40  and  N14_41 
ROOT
HETATM    1  C3  UNL     1       5.517 -11.449 -16.358  1.00  0.00     0.723 A 
HETATM    2  N4  UNL     1       6.761 -11.284 -16.836  1.00  0.00    -0.170 N 
ATOM      3  H4  UNL     1       7.395 -12.083 -16.827  1.00  0.00     0.186 HD
HETATM    4  C4  UNL     1       7.212 -10.110 -17.326  1.00  0.00     0.168 A 
HETATM    5  C5  UNL     1       6.372  -9.016 -17.345  1.00  0.00     0.136 A 
HETATM    6  N5  UNL     1       7.083  -8.012 -17.881  1.00  0.00    -0.277 N 
ATOM      7  H5  UNL     1       6.750  -7.060 -18.036  1.00  0.00     0.184 HD
HETATM    8  N6  UNL     1       8.295  -8.471 -18.174  1.00  0.00    -0.018 NA
HETATM    9  N7  UNL     1       8.403  -9.749 -17.845  1.00  0.00    -0.249 N 
HETATM   10  C12 UNL     1       5.097  -9.166 -16.860  1.00  0.00     0.146 A 
HETATM   11  N15 UNL     1       4.700 -10.356 -16.385  1.00  0.00    -0.171 N 
ATOM     12  H15 UNL     1       3.749 -10.448 -16.029  1.00  0.00     0.186 HD
ENDROOT
BRANCH   9  13
HETATM   13  C6  UNL     1       9.563 -10.569 -18.015  1.00  0.00     0.253 C 
BRANCH  13  14
HETATM   14  C7  UNL     1       9.450 -11.472 -19.171  1.00  0.00     0.255 C 
HETATM   15  O1  UNL     1       8.489 -12.276 -19.235  1.00  0.00    -0.270 OA
HETATM   16  N8  UNL     1      10.424 -11.431 -20.204  1.00  0.00    -0.267 N 
ATOM     17  H8  UNL     1      11.190 -10.763 -20.119  1.00  0.00     0.190 HD
BRANCH  16  18
HETATM   18  N9  UNL     1      10.389 -12.252 -21.325  1.00  0.00    -0.280 N 
ATOM     19  H9  UNL     1      10.035 -11.849 -22.192  1.00  0.00     0.188 HD
BRANCH  18  20
HETATM   20  C8  UNL     1      10.807 -13.609 -21.355  1.00  0.00     0.173 A 
HETATM   21  N10 UNL     1      11.667 -14.143 -20.481  1.00  0.00    -0.173 N 
HETATM   22  C9  UNL     1      12.056 -15.437 -20.514  1.00  0.00     0.679 A 
ATOM     23  H10 UNL     1      12.050 -13.542 -19.751  1.00  0.00     0.186 HD
HETATM   24  N12 UNL     1      11.554 -16.232 -21.478  1.00  0.00    -0.168 N 
HETATM   25  C10 UNL     1      10.683 -15.756 -22.391  1.00  0.00     0.192 A 
ATOM     26  H12 UNL     1      11.837 -17.212 -21.519  1.00  0.00     0.186 HD
HETATM   27  C11 UNL     1      10.300 -14.448 -22.345  1.00  0.00     0.199 A 
BRANCH  22  28
HETATM   28  N11 UNL     1      12.893 -15.882 -19.630  1.00  0.00    -0.234 N 
ATOM     29 2H11 UNL     1      12.680 -15.863 -18.633  1.00  0.00     0.174 HD
ATOM     30 1H11 UNL     1      13.791 -16.263 -19.927  1.00  0.00     0.174 HD
ENDBRANCH  22  28
BRANCH  25  31
HETATM   31  O2  UNL     1      10.210 -16.643 -23.355  1.00  0.00    -0.344 OA
ATOM     32  H2  UNL     1      10.748 -17.399 -23.560  1.00  0.00     0.219 HD
ENDBRANCH  25  31
BRANCH  27  33
HETATM   33  N13 UNL     1       9.379 -13.946 -23.309  1.00  0.00    -0.107 N 
HETATM   34  O3  UNL     1       9.751 -12.933 -23.954  1.00  0.00    -0.531 OA
HETATM   35  O4  UNL     1       8.165 -14.487 -23.566  1.00  0.00    -0.531 OA
ENDBRANCH  27  33
ENDBRANCH  18  20
ENDBRANCH  16  18
ENDBRANCH  13  14
ENDBRANCH   9  13
BRANCH   1  36
HETATM   36  N3  UNL     1       5.023 -12.679 -15.842  1.00  0.00    -0.004 N 
HETATM   37  N2  UNL     1       4.415 -13.609 -16.535  1.00  0.00    -0.205 N 
HETATM   38  N1  UNL     1       4.086 -14.628 -15.722  1.00  0.00    -0.272 N 
ATOM     39  H2  UNL     1       4.223 -13.568 -17.536  1.00  0.00     0.211 HD
HETATM   40  C2  UNL     1       4.504 -14.321 -14.483  1.00  0.00     0.110 A 
ATOM     41  H1  UNL     1       3.603 -15.484 -15.997  1.00  0.00     0.190 HD
HETATM   42  C1  UNL     1       4.355 -15.154 -13.247  1.00  0.00     0.092 C 
HETATM   43  N16 UNL     1       5.086 -13.099 -14.580  1.00  0.00    -0.251 N 
ATOM     44  H16 UNL     1       5.506 -12.584 -13.807  1.00  0.00     0.191 HD
ENDBRANCH   1  36
BRANCH  10  45
HETATM   45  N14 UNL     1       4.316  -8.139 -16.886  1.00  0.00    -0.383 N 
ATOM     46 2H14 UNL     1       4.618  -7.234 -17.246  1.00  0.00     0.157 HD
ATOM     47 1H14 UNL     1       3.368  -8.251 -16.526  1.00  0.00     0.157 HD
ENDBRANCH  10  45
TORSDOF 9
ENDMDL
MODEL 2
REMARK VINA RESULT: -9.802620783      3.234      7.919
REMARK  9 active torsions:
REMARK  status: ('A' for Active; 'I' for Inactive)
REMARK    1  A    between atoms: N3_7  and  C3_8 
REMARK    2  A    between atoms: N7_16  and  C6_17 
REMARK    3  A    between atoms: C6_17  and  C7_18 
REMARK       I    between atoms: C7_18  and  N8_20 
REMARK    4  A    between atoms: N8_20  and  N9_22 
REMARK    5  A    between atoms: N9_22  and  C8_24 
REMARK    6  A    between atoms: C9_27  and  N11_28 
REMARK    7  A    between atoms: C10_33  and  O2_34 
REMARK    8  A    between atoms: C11_36  and  N13_37 
REMARK    9  A    between atoms: C12_40  and  N14_41 
ROOT
HETATM    1  C3  UNL     1       8.601 -14.638 -21.302  1.00  0.00     0.723 A 
HETATM    2  N4  UNL     1       8.946 -13.673 -20.433  1.00  0.00    -0.170 N 
ATOM      3  H4  UNL     1       8.503 -13.665 -19.515  1.00  0.00     0.186 HD
HETATM    4  C4  UNL     1       9.852 -12.714 -20.721  1.00  0.00     0.168 A 
HETATM    5  C5  UNL     1      10.462 -12.705 -21.957  1.00  0.00     0.136 A 
HETATM    6  N5  UNL     1      11.300 -11.657 -21.951  1.00  0.00    -0.277 N 
ATOM      7  H5  UNL     1      11.905 -11.371 -22.720  1.00  0.00     0.184 HD
HETATM    8  N6  UNL     1      11.205 -11.057 -20.769  1.00  0.00    -0.018 NA
HETATM    9  N7  UNL     1      10.328 -11.680 -19.997  1.00  0.00    -0.249 N 
HETATM   10  C12 UNL     1      10.121 -13.683 -22.858  1.00  0.00     0.146 A 
HETATM   11  N15 UNL     1       9.215 -14.613 -22.520  1.00  0.00    -0.171 N 
ATOM     12  H15 UNL     1       8.975 -15.332 -23.203  1.00  0.00     0.186 HD
ENDROOT
BRANCH   9  13
HETATM   13  C6  UNL     1       9.969 -11.314 -18.661  1.00  0.00     0.253 C 
BRANCH  13  14
HETATM   14  C7  UNL     1       8.680 -10.607 -18.598  1.00  0.00     0.255 C 
HETATM   15  O1  UNL     1       8.653  -9.361 -18.738  1.00  0.00    -0.270 OA
HETATM   16  N8  UNL     1       7.480 -11.334 -18.380  1.00  0.00    -0.267 N 
ATOM     17  H8  UNL     1       7.542 -12.347 -18.273  1.00  0.00     0.190 HD
BRANCH  16  18
HETATM   18  N9  UNL     1       6.226 -10.740 -18.304  1.00  0.00    -0.280 N 
ATOM     19  H9  UNL     1       5.538 -11.002 -19.010  1.00  0.00     0.188 HD
BRANCH  18  20
HETATM   20  C8  UNL     1       5.829  -9.795 -17.321  1.00  0.00     0.173 A 
HETATM   21  N10 UNL     1       6.095  -8.486 -17.395  1.00  0.00    -0.173 N 
HETATM   22  C9  UNL     1       5.708  -7.593 -16.458  1.00  0.00     0.679 A 
ATOM     23  H10 UNL     1       6.616  -8.144 -18.202  1.00  0.00     0.186 HD
HETATM   24  N12 UNL     1       5.020  -8.042 -15.389  1.00  0.00    -0.168 N 
HETATM   25  C10 UNL     1       4.721  -9.350 -15.254  1.00  0.00     0.192 A 
ATOM     26  H12 UNL     1       4.721  -7.382 -14.671  1.00  0.00     0.186 HD
HETATM   27  C11 UNL     1       5.117 -10.239 -16.208  1.00  0.00     0.199 A 
BRANCH  22  28
HETATM   28  N11 UNL     1       6.002  -6.340 -16.601  1.00  0.00    -0.234 N 
ATOM     29 2H11 UNL     1       6.545  -6.003 -17.396  1.00  0.00     0.174 HD
ATOM     30 1H11 UNL     1       5.687  -5.661 -15.907  1.00  0.00     0.174 HD
ENDBRANCH  22  28
BRANCH  25  31
HETATM   31  O2  UNL     1       4.007  -9.734 -14.121  1.00  0.00    -0.344 OA
ATOM     32  H2  UNL     1       4.427 -10.338 -13.520  1.00  0.00     0.219 HD
ENDBRANCH  25  31
BRANCH  27  33
HETATM   33  N13 UNL     1       4.799 -11.621 -16.064  1.00  0.00    -0.107 N 
HETATM   34  O3  UNL     1       5.776 -12.407 -15.977  1.00  0.00    -0.531 OA
HETATM   35  O4  UNL     1       3.541 -12.118 -16.013  1.00  0.00    -0.531 OA
ENDBRANCH  27  33
ENDBRANCH  18  20
ENDBRANCH  16  18
ENDBRANCH  13  14
ENDBRANCH   9  13
BRANCH   1  36
HETATM   36  N3  UNL     1       7.653 -15.659 -21.016  1.00  0.00    -0.004 N 
HETATM   37  N2  UNL     1       6.358 -15.493 -20.916  1.00  0.00    -0.205 N 
HETATM   38  N1  UNL     1       5.777 -16.673 -20.634  1.00  0.00    -0.272 N 
ATOM     39  H2  UNL     1       5.866 -14.607 -21.034  1.00  0.00     0.211 HD
HETATM   40  C2  UNL     1       6.744 -17.602 -20.559  1.00  0.00     0.110 A 
ATOM     41  H1  UNL     1       4.779 -16.833 -20.501  1.00  0.00     0.190 HD
HETATM   42  C1  UNL     1       6.573 -19.061 -20.264  1.00  0.00     0.092 C 
HETATM   43  N16 UNL     1       7.908 -16.948 -20.800  1.00  0.00    -0.251 N 
ATOM     44  H16 UNL     1       8.833 -17.377 -20.813  1.00  0.00     0.191 HD
ENDBRANCH   1  36
BRANCH  10  45
HETATM   45  N14 UNL     1      10.700 -13.672 -24.011  1.00  0.00    -0.383 N 
ATOM     46 2H14 UNL     1      11.697 -13.853 -24.121  1.00  0.00     0.157 HD
ATOM     47 1H14 UNL     1      10.128 -13.468 -24.830  1.00  0.00     0.157 HD
ENDBRANCH  10  45
TORSDOF 9
ENDMDL
MODEL 3
REMARK VINA RESULT: -9.517169715      1.576      1.817
REMARK  9 active torsions:
REMARK  status: ('A' for Active; 'I' for Inactive)
REMARK    1  A    between atoms: N3_7  and  C3_8 
REMARK    2  A    between atoms: N7_16  and  C6_17 
REMARK    3  A    between atoms: C6_17  and  C7_18 
REMARK       I    between atoms: C7_18  and  N8_20 
REMARK    4  A    between atoms: N8_20  and  N9_22 
REMARK    5  A    between atoms: N9_22  and  C8_24 
REMARK    6  A    between atoms: C9_27  and  N11_28 
REMARK    7  A    between atoms: C10_33  and  O2_34 
REMARK    8  A    between atoms: C11_36  and  N13_37 
REMARK    9  A    between atoms: C12_40  and  N14_41 
ROOT
HETATM    1  C3  UNL     1       6.241 -11.067 -17.136  1.00  0.00     0.723 A 
HETATM    2  N4  UNL     1       7.460 -11.344 -17.627  1.00  0.00    -0.170 N 
ATOM      3  H4  UNL     1       7.754 -12.319 -17.677  1.00  0.00     0.186 HD
HETATM    4  C4  UNL     1       8.313 -10.391 -18.058  1.00  0.00     0.168 A 
HETATM    5  C5  UNL     1       7.937  -9.066 -17.998  1.00  0.00     0.136 A 
HETATM    6  N5  UNL     1       8.970  -8.363 -18.488  1.00  0.00    -0.277 N 
ATOM      7  H5  UNL     1       9.012  -7.349 -18.582  1.00  0.00     0.184 HD
HETATM    8  N6  UNL     1       9.928  -9.218 -18.830  1.00  0.00    -0.018 NA
HETATM    9  N7  UNL     1       9.556 -10.463 -18.578  1.00  0.00    -0.249 N 
HETATM   10  C12 UNL     1       6.695  -8.764 -17.498  1.00  0.00     0.146 A 
HETATM   11  N15 UNL     1       5.885  -9.751 -17.085  1.00  0.00    -0.171 N 
ATOM     12  H15 UNL     1       4.966  -9.507 -16.716  1.00  0.00     0.186 HD
ENDROOT
BRANCH   9  13
HETATM   13  C6  UNL     1      10.331 -11.642 -18.817  1.00  0.00     0.253 C 
BRANCH  13  14
HETATM   14  C7  UNL     1       9.909 -12.358 -20.031  1.00  0.00     0.255 C 
HETATM   15  O1  UNL     1       8.919 -13.125 -19.981  1.00  0.00    -0.270 OA
HETATM   16  N8  UNL     1      10.621 -12.178 -21.247  1.00  0.00    -0.267 N 
ATOM     17  H8  UNL     1      11.420 -11.544 -21.249  1.00  0.00     0.190 HD
BRANCH  16  18
HETATM   18  N9  UNL     1      10.287 -12.820 -22.433  1.00  0.00    -0.280 N 
ATOM     19  H9  UNL     1       9.595 -12.370 -23.032  1.00  0.00     0.188 HD
BRANCH  18  20
HETATM   20  C8  UNL     1      10.835 -14.054 -22.875  1.00  0.00     0.173 A 
HETATM   21  N10 UNL     1      12.130 -14.238 -23.152  1.00  0.00    -0.173 N 
HETATM   22  C9  UNL     1      12.644 -15.417 -23.566  1.00  0.00     0.679 A 
ATOM     23  H10 UNL     1      12.764 -13.447 -23.044  1.00  0.00     0.186 HD
HETATM   24  N12 UNL     1      11.808 -16.464 -23.711  1.00  0.00    -0.168 N 
HETATM   25  C10 UNL     1      10.491 -16.345 -23.450  1.00  0.00     0.192 A 
ATOM     26  H12 UNL     1      12.178 -17.362 -24.025  1.00  0.00     0.186 HD
HETATM   27  C11 UNL     1       9.987 -15.149 -23.032  1.00  0.00     0.199 A 
BRANCH  22  28
HETATM   28  N11 UNL     1      13.911 -15.518 -23.813  1.00  0.00    -0.234 N 
ATOM     29 2H11 UNL     1      14.486 -16.242 -23.383  1.00  0.00     0.174 HD
ATOM     30 1H11 UNL     1      14.358 -14.861 -24.453  1.00  0.00     0.174 HD
ENDBRANCH  22  28
BRANCH  25  31
HETATM   31  O2  UNL     1       9.694 -17.474 -23.624  1.00  0.00    -0.344 OA
ATOM     32  H2  UNL     1       8.781 -17.338 -23.849  1.00  0.00     0.219 HD
ENDBRANCH  25  31
BRANCH  27  33
HETATM   33  N13 UNL     1       8.594 -15.025 -22.755  1.00  0.00    -0.107 N 
HETATM   34  O3  UNL     1       7.933 -14.316 -23.554  1.00  0.00    -0.531 OA
HETATM   35  O4  UNL     1       7.963 -15.615 -21.713  1.00  0.00    -0.531 OA
ENDBRANCH  27  33
ENDBRANCH  18  20
ENDBRANCH  16  18
ENDBRANCH  13  14
ENDBRANCH   9  13
BRANCH   1  36
HETATM   36  N3  UNL     1       5.326 -12.057 -16.682  1.00  0.00    -0.004 N 
HETATM   37  N2  UNL     1       4.198 -12.380 -17.265  1.00  0.00    -0.205 N 
HETATM   38  N1  UNL     1       3.592 -13.351 -16.558  1.00  0.00    -0.272 N 
ATOM     39  H2  UNL     1       3.836 -11.961 -18.121  1.00  0.00     0.211 HD
HETATM   40  C2  UNL     1       4.371 -13.641 -15.503  1.00  0.00     0.110 A 
ATOM     41  H1  UNL     1       2.699 -13.789 -16.784  1.00  0.00     0.190 HD
HETATM   42  C1  UNL     1       4.102 -14.658 -14.436  1.00  0.00     0.092 C 
HETATM   43  N16 UNL     1       5.448 -12.822 -15.599  1.00  0.00    -0.251 N 
ATOM     44  H16 UNL     1       6.229 -12.796 -14.943  1.00  0.00     0.191 HD
ENDBRANCH   1  36
BRANCH  10  45
HETATM   45  N14 UNL     1       6.348  -7.522 -17.450  1.00  0.00    -0.383 N 
ATOM     46 2H14 UNL     1       7.031  -6.766 -17.453  1.00  0.00     0.157 HD
ATOM     47 1H14 UNL     1       5.352  -7.306 -17.402  1.00  0.00     0.157 HD
ENDBRANCH  10  45
TORSDOF 9
ENDMDL
MODEL 4
REMARK VINA RESULT: -9.409137201      3.165      4.724
REMARK  9 active torsions:
REMARK  status: ('A' for Active; 'I' for Inactive)
REMARK    1  A    between atoms: N3_7  and  C3_8 
REMARK    2  A    between atoms: N7_16  and  C6_17 
REMARK    3  A    between atoms: C6_17  and  C7_18 
REMARK       I    between atoms: C7_18  and  N8_20 
REMARK    4  A    between atoms: N8_20  and  N9_22 
REMARK    5  A    between atoms: N9_22  and  C8_24 
REMARK    6  A    between atoms: C9_27  and  N11_28 
REMARK    7  A    between atoms: C10_33  and  O2_34 
REMARK    8  A    between atoms: C11_36  and  N13_37 
REMARK    9  A    between atoms: C12_40  and  N14_41 
ROOT
HETATM    1  C3  UNL     1       3.890 -12.011 -15.785  1.00  0.00     0.723 A 
HETATM    2  N4  UNL     1       4.569 -10.886 -15.506  1.00  0.00    -0.170 N 
ATOM      3  H4  UNL     1       5.364 -10.943 -14.869  1.00  0.00     0.186 HD
HETATM    4  C4  UNL     1       4.248  -9.684 -16.030  1.00  0.00     0.168 A 
HETATM    5  C5  UNL     1       3.177  -9.584 -16.892  1.00  0.00     0.136 A 
HETATM    6  N5  UNL     1       3.103  -8.291 -17.245  1.00  0.00    -0.277 N 
ATOM      7  H5  UNL     1       2.416  -7.882 -17.877  1.00  0.00     0.184 HD
HETATM    8  N6  UNL     1       4.082  -7.636 -16.629  1.00  0.00    -0.018 NA
HETATM    9  N7  UNL     1       4.797  -8.461 -15.880  1.00  0.00    -0.249 N 
HETATM   10  C12 UNL     1       2.471 -10.723 -17.188  1.00  0.00     0.146 A 
HETATM   11  N15 UNL     1       2.834 -11.893 -16.640  1.00  0.00    -0.171 N 
ATOM     12  H15 UNL     1       2.297 -12.728 -16.873  1.00  0.00     0.186 HD
ENDROOT
BRANCH   9  13
HETATM   13  C6  UNL     1       5.926  -8.107 -15.075  1.00  0.00     0.253 C 
BRANCH  13  14
HETATM   14  C7  UNL     1       7.130  -8.878 -15.422  1.00  0.00     0.255 C 
HETATM   15  O1  UNL     1       7.997  -9.097 -14.543  1.00  0.00    -0.270 OA
HETATM   16  N8  UNL     1       7.304  -9.369 -16.744  1.00  0.00    -0.267 N 
ATOM     17  H8  UNL     1       6.576  -9.173 -17.431  1.00  0.00     0.190 HD
BRANCH  16  18
HETATM   18  N9  UNL     1       8.412 -10.102 -17.150  1.00  0.00    -0.280 N 
ATOM     19  H9  UNL     1       8.494 -11.059 -16.808  1.00  0.00     0.188 HD
BRANCH  18  20
HETATM   20  C8  UNL     1       9.440  -9.621 -18.003  1.00  0.00     0.173 A 
HETATM   21  N10 UNL     1      10.027  -8.427 -17.864  1.00  0.00    -0.173 N 
HETATM   22  C9  UNL     1      11.009  -7.979 -18.677  1.00  0.00     0.679 A 
ATOM     23  H10 UNL     1       9.718  -7.823 -17.103  1.00  0.00     0.186 HD
HETATM   24  N12 UNL     1      11.418  -8.775 -19.685  1.00  0.00    -0.168 N 
HETATM   25  C10 UNL     1      10.867  -9.989 -19.881  1.00  0.00     0.192 A 
ATOM     26  H12 UNL     1      12.158  -8.453 -20.310  1.00  0.00     0.186 HD
HETATM   27  C11 UNL     1       9.878 -10.428 -19.052  1.00  0.00     0.199 A 
BRANCH  22  28
HETATM   28  N11 UNL     1      11.530  -6.811 -18.477  1.00  0.00    -0.234 N 
ATOM     29 2H11 UNL     1      11.906  -6.252 -19.242  1.00  0.00     0.174 HD
ATOM     30 1H11 UNL     1      11.571  -6.428 -17.532  1.00  0.00     0.174 HD
ENDBRANCH  22  28
BRANCH  25  31
HETATM   31  O2  UNL     1      11.346 -10.751 -20.945  1.00  0.00    -0.344 OA
ATOM     32  H2  UNL     1      11.707 -10.287 -21.691  1.00  0.00     0.219 HD
ENDBRANCH  25  31
BRANCH  27  33
HETATM   33  N13 UNL     1       9.297 -11.713 -19.260  1.00  0.00    -0.107 N 
HETATM   34  O3  UNL     1      10.097 -12.645 -19.524  1.00  0.00    -0.531 OA
HETATM   35  O4  UNL     1       7.971 -11.977 -19.185  1.00  0.00    -0.531 OA
ENDBRANCH  27  33
ENDBRANCH  18  20
ENDBRANCH  16  18
ENDBRANCH  13  14
ENDBRANCH   9  13
BRANCH   1  36
HETATM   36  N3  UNL     1       4.217 -13.287 -15.247  1.00  0.00    -0.004 N 
HETATM   37  N2  UNL     1       4.063 -14.435 -15.857  1.00  0.00    -0.205 N 
HETATM   38  N1  UNL     1       4.472 -15.429 -15.049  1.00  0.00    -0.272 N 
ATOM     39  H2  UNL     1       3.690 -14.558 -16.799  1.00  0.00     0.211 HD
HETATM   40  C2  UNL     1       4.897 -14.878 -13.900  1.00  0.00     0.110 A 
ATOM     41  H1  UNL     1       4.463 -16.424 -15.270  1.00  0.00     0.190 HD
HETATM   42  C1  UNL     1       5.441 -15.595 -12.702  1.00  0.00     0.092 C 
HETATM   43  N16 UNL     1       4.729 -13.539 -14.044  1.00  0.00    -0.251 N 
ATOM     44  H16 UNL     1       4.958 -12.837 -13.341  1.00  0.00     0.191 HD
ENDBRANCH   1  36
BRANCH  10  45
HETATM   45  N14 UNL     1       1.473 -10.622 -17.999  1.00  0.00    -0.383 N 
ATOM     46 2H14 UNL     1       0.815  -9.844 -17.959  1.00  0.00     0.157 HD
ATOM     47 1H14 UNL     1       1.348 -11.356 -18.696  1.00  0.00     0.157 HD
ENDBRANCH  10  45
TORSDOF 9
ENDMDL
MODEL 5
REMARK VINA RESULT: -9.364224408      3.115      7.648
REMARK  9 active torsions:
REMARK  status: ('A' for Active; 'I' for Inactive)
REMARK    1  A    between atoms: N3_7  and  C3_8 
REMARK    2  A    between atoms: N7_16  and  C6_17 
REMARK    3  A    between atoms: C6_17  and  C7_18 
REMARK       I    between atoms: C7_18  and  N8_20 
REMARK    4  A    between atoms: N8_20  and  N9_22 
REMARK    5  A    between atoms: N9_22  and  C8_24 
REMARK    6  A    between atoms: C9_27  and  N11_28 
REMARK    7  A    between atoms: C10_33  and  O2_34 
REMARK    8  A    between atoms: C11_36  and  N13_37 
REMARK    9  A    between atoms: C12_40  and  N14_41 
ROOT
HETATM    1  C3  UNL     1       8.681 -14.028 -20.985  1.00  0.00     0.723 A 
HETATM    2  N4  UNL     1       8.855 -13.128 -20.003  1.00  0.00    -0.170 N 
ATOM      3  H4  UNL     1       8.246 -13.175 -19.187  1.00  0.00     0.186 HD
HETATM    4  C4  UNL     1       9.798 -12.163 -20.049  1.00  0.00     0.168 A 
HETATM    5  C5  UNL     1      10.631 -12.080 -21.144  1.00  0.00     0.136 A 
HETATM    6  N5  UNL     1      11.452 -11.045 -20.909  1.00  0.00    -0.277 N 
ATOM      7  H5  UNL     1      12.192 -10.716 -21.529  1.00  0.00     0.184 HD
HETATM    8  N6  UNL     1      11.135 -10.523 -19.729  1.00  0.00    -0.018 NA
HETATM    9  N7  UNL     1      10.129 -11.185 -19.180  1.00  0.00    -0.249 N 
HETATM   10  C12 UNL     1      10.468 -12.992 -22.157  1.00  0.00     0.146 A 
HETATM   11  N15 UNL     1       9.514 -13.931 -22.060  1.00  0.00    -0.171 N 
ATOM     12  H15 UNL     1       9.408 -14.600 -22.823  1.00  0.00     0.186 HD
ENDROOT
BRANCH   9  13
HETATM   13  C6  UNL     1       9.523 -10.905 -17.915  1.00  0.00     0.253 C 
BRANCH  13  14
HETATM   14  C7  UNL     1       8.415  -9.942 -18.021  1.00  0.00     0.255 C 
HETATM   15  O1  UNL     1       8.524  -8.959 -18.792  1.00  0.00    -0.270 OA
HETATM   16  N8  UNL     1       7.233 -10.130 -17.256  1.00  0.00    -0.267 N 
ATOM     17  H8  UNL     1       7.180 -10.943 -16.642  1.00  0.00     0.190 HD
BRANCH  16  18
HETATM   18  N9  UNL     1       6.146  -9.266 -17.299  1.00  0.00    -0.280 N 
ATOM     19  H9  UNL     1       6.342  -8.267 -17.370  1.00  0.00     0.188 HD
BRANCH  18  20
HETATM   20  C8  UNL     1       4.784  -9.664 -17.250  1.00  0.00     0.173 A 
HETATM   21  N10 UNL     1       3.758  -8.808 -17.209  1.00  0.00    -0.173 N 
HETATM   22  C9  UNL     1       2.464  -9.196 -17.169  1.00  0.00     0.679 A 
ATOM     23  H10 UNL     1       3.962  -7.809 -17.207  1.00  0.00     0.186 HD
HETATM   24  N12 UNL     1       2.191 -10.515 -17.169  1.00  0.00    -0.168 N 
HETATM   25  C10 UNL     1       3.179 -11.431 -17.209  1.00  0.00     0.192 A 
ATOM     26  H12 UNL     1       1.220 -10.827 -17.138  1.00  0.00     0.186 HD
HETATM   27  C11 UNL     1       4.480 -11.025 -17.249  1.00  0.00     0.199 A 
BRANCH  22  28
HETATM   28  N11 UNL     1       1.524  -8.305 -17.132  1.00  0.00    -0.234 N 
ATOM     29 2H11 UNL     1       1.641  -7.384 -17.553  1.00  0.00     0.174 HD
ATOM     30 1H11 UNL     1       0.639  -8.519 -16.672  1.00  0.00     0.174 HD
ENDBRANCH  22  28
BRANCH  25  31
HETATM   31  O2  UNL     1       2.814 -12.775 -17.206  1.00  0.00    -0.344 OA
ATOM     32  H2  UNL     1       3.127 -13.318 -17.920  1.00  0.00     0.219 HD
ENDBRANCH  25  31
BRANCH  27  33
HETATM   33  N13 UNL     1       5.524 -11.994 -17.292  1.00  0.00    -0.107 N 
HETATM   34  O3  UNL     1       5.900 -12.451 -16.184  1.00  0.00    -0.531 OA
HETATM   35  O4  UNL     1       6.112 -12.439 -18.427  1.00  0.00    -0.531 OA
ENDBRANCH  27  33
ENDBRANCH  18  20
ENDBRANCH  16  18
ENDBRANCH  13  14
ENDBRANCH   9  13
BRANCH   1  36
HETATM   36  N3  UNL     1       7.696 -15.054 -20.952  1.00  0.00    -0.004 N 
HETATM   37  N2  UNL     1       6.411 -14.887 -21.142  1.00  0.00    -0.205 N 
HETATM   38  N1  UNL     1       5.786 -16.073 -21.036  1.00  0.00    -0.272 N 
ATOM     39  H2  UNL     1       5.956 -13.996 -21.340  1.00  0.00     0.211 HD
HETATM   40  C2  UNL     1       6.714 -17.007 -20.773  1.00  0.00     0.110 A 
ATOM     41  H1  UNL     1       4.784 -16.233 -21.137  1.00  0.00     0.190 HD
HETATM   42  C1  UNL     1       6.485 -18.474 -20.570  1.00  0.00     0.092 C 
HETATM   43  N16 UNL     1       7.900 -16.351 -20.724  1.00  0.00    -0.251 N 
ATOM     44  H16 UNL     1       8.806 -16.782 -20.542  1.00  0.00     0.191 HD
ENDBRANCH   1  36
BRANCH  10  45
HETATM   45  N14 UNL     1      11.254 -12.911 -23.176  1.00  0.00    -0.383 N 
ATOM     46 2H14 UNL     1      11.837 -12.092 -23.350  1.00  0.00     0.157 HD
ATOM     47 1H14 UNL     1      11.280 -13.698 -23.824  1.00  0.00     0.157 HD
ENDBRANCH  10  45
TORSDOF 9
ENDMDL
