MODEL 1
REMARK VINA RESULT: -7.055877254      0.000      0.000
REMARK  12 active torsions:
REMARK  status: ('A' for Active; 'I' for Inactive)
REMARK    1  A    between atoms: C2_3  and  N2_4 
REMARK    2  A    between atoms: N3_6  and  N4_8 
REMARK    3  A    between atoms: N4_8  and  S1_10 
REMARK    4  A    between atoms: S1_10  and  C3_11 
REMARK    5  A    between atoms: C4_12  and  C5_13 
REMARK    6  A    between atoms: N5_14  and  N6_16 
REMARK    7  A    between atoms: C6_19  and  N7_20 
REMARK    8  A    between atoms: N7_20  and  N8_22 
REMARK    9  A    between atoms: N8_22  and  C7_24 
REMARK   10  A    between atoms: C8_28  and  N10_29 
REMARK   11  A    between atoms: N10_29  and  O2_31 
REMARK   12  A    between atoms: N11_35  and  O4_36 
ROOT
HETATM    1  C3  UNL     1      10.410 -14.527 -22.319  1.00  0.00     0.140 C 
HETATM    2  C4  UNL     1      11.462 -15.304 -21.902  1.00  0.00     0.064 C 
HETATM    3  C6  UNL     1      11.453 -16.000 -20.665  1.00  0.00     0.136 C 
HETATM    4  N9  UNL     1      10.349 -16.490 -20.030  1.00  0.00    -0.321 N 
ATOM      5  H9  UNL     1      10.482 -16.801 -19.067  1.00  0.00     0.169 HD
HETATM    6  C8  UNL     1       9.086 -16.614 -20.532  1.00  0.00     0.198 C 
HETATM    7  C9  UNL     1       8.477 -15.767 -21.466  1.00  0.00     0.318 C 
HETATM    8  O3  UNL     1       7.229 -15.824 -21.518  1.00  0.00    -0.261 OA
HETATM    9  N11 UNL     1       9.084 -14.903 -22.306  1.00  0.00    -0.175 N 
ENDROOT
BRANCH   1  10
HETATM   10  S1  UNL     1      10.761 -12.882 -22.801  1.00  0.00     0.025 SA
BRANCH  10  11
HETATM   11  N4  UNL     1      10.727 -11.684 -21.576  1.00  0.00    -0.253 N 
ATOM     12  H4  UNL     1       9.967 -11.003 -21.599  1.00  0.00     0.197 HD
BRANCH  11  13
HETATM   13  N3  UNL     1      11.687 -11.572 -20.529  1.00  0.00    -0.235 N 
HETATM   14  N2  UNL     1      11.388 -11.105 -19.396  1.00  0.00    -0.267 N 
ATOM     15  H2  UNL     1      12.129 -11.058 -18.698  1.00  0.00     0.190 HD
ATOM     16  H3  UNL     1      12.644 -11.878 -20.702  1.00  0.00     0.209 HD
BRANCH  14  17
HETATM   17  C2  UNL     1      10.100 -10.641 -19.016  1.00  0.00     0.169 A 
HETATM   18  N1  UNL     1       9.795  -9.401 -18.584  1.00  0.00    -0.286 N 
HETATM   19  C1  UNL     1      10.725  -8.277 -18.404  1.00  0.00     0.163 C 
HETATM   20  C11 UNL     1       8.477  -9.402 -18.349  1.00  0.00     0.329 A 
HETATM   21  N13 UNL     1       7.960 -10.611 -18.624  1.00  0.00    -0.293 N 
HETATM   22  O5  UNL     1       7.823  -8.405 -17.928  1.00  0.00    -0.246 OA
HETATM   23  C10 UNL     1       8.954 -11.430 -19.052  1.00  0.00     0.166 A 
ATOM     24  H13 UNL     1       6.979 -10.871 -18.528  1.00  0.00     0.172 HD
HETATM   25  N12 UNL     1       8.858 -12.793 -19.439  1.00  0.00    -0.078 NA
ENDBRANCH  14  17
ENDBRANCH  11  13
ENDBRANCH  10  11
ENDBRANCH   1  10
BRANCH   2  26
HETATM   26  C5  UNL     1      12.572 -15.564 -22.780  1.00  0.00     0.124 C 
HETATM   27  N5  UNL     1      12.606 -16.051 -23.882  1.00  0.00    -0.317 N 
ATOM     28  H5  UNL     1      13.586 -16.059 -24.164  1.00  0.00     0.185 HD
BRANCH  27  29
HETATM   29  N6  UNL     1      11.918 -16.586 -24.893  1.00  0.00    -0.345 N 
ATOM     30  H62 UNL     1      12.344 -17.502 -25.037  1.00  0.00     0.176 HD
ATOM     31  H61 UNL     1      11.163 -16.473 -25.570  1.00  0.00     0.176 HD
ENDBRANCH  27  29
ENDBRANCH   2  26
BRANCH   9  32
HETATM   32  O4  UNL     1       8.285 -14.317 -23.232  1.00  0.00    -0.279 OA
ATOM     33  H4  UNL     1       8.134 -14.810 -24.031  1.00  0.00     0.245 HD
ENDBRANCH   9  32
BRANCH   3  34
HETATM   34  N7  UNL     1      12.613 -16.177 -20.171  1.00  0.00    -0.282 N 
ATOM     35  H7  UNL     1      13.322 -16.673 -20.711  1.00  0.00     0.188 HD
BRANCH  34  36
HETATM   36  N8  UNL     1      12.916 -15.707 -18.921  1.00  0.00    -0.276 N 
ATOM     37  H8  UNL     1      13.083 -16.389 -18.181  1.00  0.00     0.189 HD
BRANCH  36  38
HETATM   38  C7  UNL     1      13.002 -14.481 -18.628  1.00  0.00     0.368 C 
HETATM   39  O1  UNL     1      12.735 -13.393 -18.103  1.00  0.00    -0.282 OA
ENDBRANCH  36  38
ENDBRANCH  34  36
ENDBRANCH   3  34
BRANCH   6  40
HETATM   40  N10 UNL     1       8.376 -17.598 -20.134  1.00  0.00    -0.248 N 
ATOM     41  H10 UNL     1       8.555 -18.545 -20.467  1.00  0.00     0.196 HD
BRANCH  40  42
HETATM   42  O2  UNL     1       7.354 -17.340 -19.236  1.00  0.00    -0.288 OA
ATOM     43  H2  UNL     1       6.594 -17.910 -19.250  1.00  0.00     0.244 HD
ENDBRANCH  40  42
ENDBRANCH   6  40
TORSDOF 12
ENDMDL
MODEL 2
REMARK VINA RESULT: -6.802507295      2.245      3.756
REMARK  12 active torsions:
REMARK  status: ('A' for Active; 'I' for Inactive)
REMARK    1  A    between atoms: C2_3  and  N2_4 
REMARK    2  A    between atoms: N3_6  and  N4_8 
REMARK    3  A    between atoms: N4_8  and  S1_10 
REMARK    4  A    between atoms: S1_10  and  C3_11 
REMARK    5  A    between atoms: C4_12  and  C5_13 
REMARK    6  A    between atoms: N5_14  and  N6_16 
REMARK    7  A    between atoms: C6_19  and  N7_20 
REMARK    8  A    between atoms: N7_20  and  N8_22 
REMARK    9  A    between atoms: N8_22  and  C7_24 
REMARK   10  A    between atoms: C8_28  and  N10_29 
REMARK   11  A    between atoms: N10_29  and  O2_31 
REMARK   12  A    between atoms: N11_35  and  O4_36 
ROOT
HETATM    1  C3  UNL     1      11.245 -13.655 -20.543  1.00  0.00     0.140 C 
HETATM    2  C4  UNL     1      11.557 -14.988 -20.442  1.00  0.00     0.064 C 
HETATM    3  C6  UNL     1      10.681 -16.011 -20.890  1.00  0.00     0.136 C 
HETATM    4  N9  UNL     1       9.789 -15.911 -21.919  1.00  0.00    -0.321 N 
ATOM      5  H9  UNL     1       9.106 -16.664 -22.000  1.00  0.00     0.169 HD
HETATM    6  C8  UNL     1       9.706 -14.919 -22.853  1.00  0.00     0.198 C 
HETATM    7  C9  UNL     1      10.011 -13.566 -22.658  1.00  0.00     0.318 C 
HETATM    8  O3  UNL     1       9.530 -12.775 -23.497  1.00  0.00    -0.261 OA
HETATM    9  N11 UNL     1      10.760 -13.030 -21.672  1.00  0.00    -0.175 N 
ENDROOT
BRANCH   1  10
HETATM   10  S1  UNL     1      11.361 -12.685 -19.091  1.00  0.00     0.025 SA
BRANCH  10  11
HETATM   11  N4  UNL     1      10.106 -11.554 -18.802  1.00  0.00    -0.253 N 
ATOM     12  H4  UNL     1      10.324 -10.740 -18.227  1.00  0.00     0.197 HD
BRANCH  11  13
HETATM   13  N3  UNL     1       8.780 -11.673 -19.310  1.00  0.00    -0.235 N 
HETATM   14  N2  UNL     1       7.809 -11.060 -18.788  1.00  0.00    -0.267 N 
ATOM     15  H2  UNL     1       6.889 -11.195 -19.208  1.00  0.00     0.190 HD
ATOM     16  H3  UNL     1       8.612 -12.270 -20.119  1.00  0.00     0.209 HD
BRANCH  14  17
HETATM   17  C2  UNL     1       7.893 -10.199 -17.662  1.00  0.00     0.169 A 
HETATM   18  N1  UNL     1       7.167 -10.292 -16.530  1.00  0.00    -0.286 N 
HETATM   19  C1  UNL     1       6.132 -11.291 -16.226  1.00  0.00     0.163 C 
HETATM   20  C11 UNL     1       7.577  -9.291 -15.740  1.00  0.00     0.329 A 
HETATM   21  N13 UNL     1       8.537  -8.582 -16.356  1.00  0.00    -0.293 N 
HETATM   22  O5  UNL     1       7.119  -9.055 -14.586  1.00  0.00    -0.246 OA
HETATM   23  C10 UNL     1       8.771  -9.121 -17.579  1.00  0.00     0.166 A 
ATOM     24  H13 UNL     1       9.013  -7.768 -15.967  1.00  0.00     0.172 HD
HETATM   25  N12 UNL     1       9.695  -8.685 -18.566  1.00  0.00    -0.078 NA
ENDBRANCH  14  17
ENDBRANCH  11  13
ENDBRANCH  10  11
ENDBRANCH   1  10
BRANCH   2  26
HETATM   26  C5  UNL     1      12.863 -15.402 -20.005  1.00  0.00     0.124 C 
HETATM   27  N5  UNL     1      13.302 -15.581 -18.898  1.00  0.00    -0.317 N 
ATOM     28  H5  UNL     1      14.272 -15.872 -19.015  1.00  0.00     0.185 HD
BRANCH  27  29
HETATM   29  N6  UNL     1      13.069 -15.563 -17.582  1.00  0.00    -0.345 N 
ATOM     30  H62 UNL     1      12.092 -15.842 -17.492  1.00  0.00     0.176 HD
ATOM     31  H61 UNL     1      13.443 -15.394 -16.649  1.00  0.00     0.176 HD
ENDBRANCH  27  29
ENDBRANCH   2  26
BRANCH   9  32
HETATM   32  O4  UNL     1      11.048 -11.710 -21.798  1.00  0.00    -0.279 OA
ATOM     33  H4  UNL     1      10.879 -11.322 -22.649  1.00  0.00     0.245 HD
ENDBRANCH   9  32
BRANCH   3  34
HETATM   34  N7  UNL     1      10.809 -17.106 -20.253  1.00  0.00    -0.282 N 
ATOM     35  H7  UNL     1      11.541 -17.765 -20.521  1.00  0.00     0.188 HD
BRANCH  34  36
HETATM   36  N8  UNL     1       9.973 -17.407 -19.210  1.00  0.00    -0.276 N 
ATOM     37  H8  UNL     1       8.969 -17.415 -19.390  1.00  0.00     0.189 HD
BRANCH  36  38
HETATM   38  C7  UNL     1      10.369 -17.674 -18.041  1.00  0.00     0.368 C 
HETATM   39  O1  UNL     1      10.855 -17.511 -16.916  1.00  0.00    -0.282 OA
ENDBRANCH  36  38
ENDBRANCH  34  36
ENDBRANCH   3  34
BRANCH   6  40
HETATM   40  N10 UNL     1       9.324 -15.235 -24.030  1.00  0.00    -0.248 N 
ATOM     41  H10 UNL     1       9.972 -15.653 -24.698  1.00  0.00     0.196 HD
BRANCH  40  42
HETATM   42  O2  UNL     1       8.005 -14.992 -24.373  1.00  0.00    -0.288 OA
ATOM     43  H2  UNL     1       7.737 -15.170 -25.266  1.00  0.00     0.244 HD
ENDBRANCH  40  42
ENDBRANCH   6  40
TORSDOF 12
ENDMDL
MODEL 3
REMARK VINA RESULT: -6.781068984      2.251      3.716
REMARK  12 active torsions:
REMARK  status: ('A' for Active; 'I' for Inactive)
REMARK    1  A    between atoms: C2_3  and  N2_4 
REMARK    2  A    between atoms: N3_6  and  N4_8 
REMARK    3  A    between atoms: N4_8  and  S1_10 
REMARK    4  A    between atoms: S1_10  and  C3_11 
REMARK    5  A    between atoms: C4_12  and  C5_13 
REMARK    6  A    between atoms: N5_14  and  N6_16 
REMARK    7  A    between atoms: C6_19  and  N7_20 
REMARK    8  A    between atoms: N7_20  and  N8_22 
REMARK    9  A    between atoms: N8_22  and  C7_24 
REMARK   10  A    between atoms: C8_28  and  N10_29 
REMARK   11  A    between atoms: N10_29  and  O2_31 
REMARK   12  A    between atoms: N11_35  and  O4_36 
ROOT
HETATM    1  C3  UNL     1      10.933 -14.378 -22.228  1.00  0.00     0.140 C 
HETATM    2  C4  UNL     1      11.598 -14.991 -23.262  1.00  0.00     0.064 C 
HETATM    3  C6  UNL     1      12.826 -15.677 -23.078  1.00  0.00     0.136 C 
HETATM    4  N9  UNL     1      13.222 -16.322 -21.942  1.00  0.00    -0.321 N 
ATOM      5  H9  UNL     1      14.201 -16.607 -21.902  1.00  0.00     0.169 HD
HETATM    6  C8  UNL     1      12.460 -16.631 -20.853  1.00  0.00     0.198 C 
HETATM    7  C9  UNL     1      11.387 -15.885 -20.351  1.00  0.00     0.318 C 
HETATM    8  O3  UNL     1      11.065 -16.125 -19.167  1.00  0.00    -0.261 OA
HETATM    9  N11 UNL     1      10.669 -14.943 -21.000  1.00  0.00    -0.175 N 
ENDROOT
BRANCH   1  10
HETATM   10  S1  UNL     1      10.483 -12.700 -22.440  1.00  0.00     0.025 SA
BRANCH  10  11
HETATM   11  N4  UNL     1      10.932 -11.607 -21.199  1.00  0.00    -0.253 N 
ATOM     12  H4  UNL     1      10.769 -10.613 -21.361  1.00  0.00     0.197 HD
BRANCH  11  13
HETATM   13  N3  UNL     1      11.519 -11.990 -19.959  1.00  0.00    -0.235 N 
HETATM   14  N2  UNL     1      11.244 -11.399 -18.879  1.00  0.00    -0.267 N 
ATOM     15  H2  UNL     1      11.704 -11.731 -18.032  1.00  0.00     0.190 HD
ATOM     16  H3  UNL     1      12.182 -12.765 -19.944  1.00  0.00     0.209 HD
BRANCH  14  17
HETATM   17  C2  UNL     1      10.345 -10.307 -18.750  1.00  0.00     0.169 A 
HETATM   18  N1  UNL     1       9.015 -10.389 -18.548  1.00  0.00    -0.286 N 
HETATM   19  C1  UNL     1       8.215 -11.618 -18.431  1.00  0.00     0.163 C 
HETATM   20  C11 UNL     1       8.569  -9.128 -18.478  1.00  0.00     0.329 A 
HETATM   21  N13 UNL     1       9.590  -8.270 -18.633  1.00  0.00    -0.293 N 
HETATM   22  O5  UNL     1       7.361  -8.804 -18.295  1.00  0.00    -0.246 OA
HETATM   23  C10 UNL     1      10.737  -8.972 -18.808  1.00  0.00     0.166 A 
ATOM     24  H13 UNL     1       9.515  -7.252 -18.620  1.00  0.00     0.172 HD
HETATM   25  N12 UNL     1      12.049  -8.469 -19.016  1.00  0.00    -0.078 NA
ENDBRANCH  14  17
ENDBRANCH  11  13
ENDBRANCH  10  11
ENDBRANCH   1  10
BRANCH   2  26
HETATM   26  C5  UNL     1      10.993 -15.088 -24.564  1.00  0.00     0.124 C 
HETATM   27  N5  UNL     1      10.362 -15.979 -25.074  1.00  0.00    -0.317 N 
ATOM     28  H5  UNL     1      10.108 -15.656 -26.007  1.00  0.00     0.185 HD
BRANCH  27  29
HETATM   29  N6  UNL     1       9.851 -17.207 -24.948  1.00  0.00    -0.345 N 
ATOM     30  H62 UNL     1       8.944 -17.156 -25.411  1.00  0.00     0.176 HD
ATOM     31  H61 UNL     1       9.978 -18.155 -24.593  1.00  0.00     0.176 HD
ENDBRANCH  27  29
ENDBRANCH   2  26
BRANCH   9  32
HETATM   32  O4  UNL     1       9.571 -14.483 -20.351  1.00  0.00    -0.279 OA
ATOM     33  H4  UNL     1       8.890 -15.122 -20.172  1.00  0.00     0.245 HD
ENDBRANCH   9  32
BRANCH   3  34
HETATM   34  N7  UNL     1      13.567 -15.681 -24.113  1.00  0.00    -0.282 N 
ATOM     35  H7  UNL     1      13.764 -14.805 -24.599  1.00  0.00     0.188 HD
BRANCH  34  36
HETATM   36  N8  UNL     1      14.103 -16.852 -24.580  1.00  0.00    -0.276 N 
ATOM     37  H8  UNL     1      15.072 -17.064 -24.340  1.00  0.00     0.189 HD
BRANCH  36  38
HETATM   38  C7  UNL     1      13.473 -17.685 -25.290  1.00  0.00     0.368 C 
HETATM   39  O1  UNL     1      12.581 -18.161 -26.002  1.00  0.00    -0.282 OA
ENDBRANCH  36  38
ENDBRANCH  34  36
ENDBRANCH   3  34
BRANCH   6  40
HETATM   40  N10 UNL     1      12.728 -17.707 -20.219  1.00  0.00    -0.248 N 
ATOM     41  H10 UNL     1      12.450 -17.826 -19.245  1.00  0.00     0.196 HD
BRANCH  40  42
HETATM   42  O2  UNL     1      13.407 -18.708 -20.893  1.00  0.00    -0.288 OA
ATOM     43  H2  UNL     1      13.560 -18.593 -21.824  1.00  0.00     0.244 HD
ENDBRANCH  40  42
ENDBRANCH   6  40
TORSDOF 12
ENDMDL
MODEL 4
REMARK VINA RESULT: -6.693040096      3.183      5.848
REMARK  12 active torsions:
REMARK  status: ('A' for Active; 'I' for Inactive)
REMARK    1  A    between atoms: C2_3  and  N2_4 
REMARK    2  A    between atoms: N3_6  and  N4_8 
REMARK    3  A    between atoms: N4_8  and  S1_10 
REMARK    4  A    between atoms: S1_10  and  C3_11 
REMARK    5  A    between atoms: C4_12  and  C5_13 
REMARK    6  A    between atoms: N5_14  and  N6_16 
REMARK    7  A    between atoms: C6_19  and  N7_20 
REMARK    8  A    between atoms: N7_20  and  N8_22 
REMARK    9  A    between atoms: N8_22  and  C7_24 
REMARK   10  A    between atoms: C8_28  and  N10_29 
REMARK   11  A    between atoms: N10_29  and  O2_31 
REMARK   12  A    between atoms: N11_35  and  O4_36 
ROOT
HETATM    1  C3  UNL     1      10.778 -17.443 -18.852  1.00  0.00     0.140 C 
HETATM    2  C4  UNL     1      11.878 -16.690 -19.183  1.00  0.00     0.064 C 
HETATM    3  C6  UNL     1      12.580 -15.908 -18.231  1.00  0.00     0.136 C 
HETATM    4  N9  UNL     1      12.701 -16.183 -16.899  1.00  0.00    -0.321 N 
ATOM      5  H9  UNL     1      13.078 -15.436 -16.316  1.00  0.00     0.169 HD
HETATM    6  C8  UNL     1      12.376 -17.343 -16.257  1.00  0.00     0.198 C 
HETATM    7  C9  UNL     1      11.337 -18.217 -16.596  1.00  0.00     0.318 C 
HETATM    8  O3  UNL     1      10.973 -19.004 -15.695  1.00  0.00    -0.261 OA
HETATM    9  N11 UNL     1      10.691 -18.302 -17.778  1.00  0.00    -0.175 N 
ENDROOT
BRANCH   1  10
HETATM   10  S1  UNL     1       9.325 -17.212 -19.800  1.00  0.00     0.025 SA
BRANCH  10  11
HETATM   11  N4  UNL     1       9.154 -15.716 -20.618  1.00  0.00    -0.253 N 
ATOM     12  H4  UNL     1       9.614 -14.899 -20.215  1.00  0.00     0.197 HD
BRANCH  11  13
HETATM   13  N3  UNL     1       8.412 -15.534 -21.821  1.00  0.00    -0.235 N 
HETATM   14  N2  UNL     1       8.963 -15.175 -22.897  1.00  0.00    -0.267 N 
ATOM     15  H2  UNL     1       8.366 -15.067 -23.717  1.00  0.00     0.190 HD
ATOM     16  H3  UNL     1       7.405 -15.699 -21.810  1.00  0.00     0.209 HD
BRANCH  14  17
HETATM   17  C2  UNL     1      10.349 -14.910 -23.059  1.00  0.00     0.169 A 
HETATM   18  N1  UNL     1      11.224 -15.648 -23.771  1.00  0.00    -0.286 N 
HETATM   19  C1  UNL     1      10.935 -16.881 -24.517  1.00  0.00     0.163 C 
HETATM   20  C11 UNL     1      12.408 -15.032 -23.659  1.00  0.00     0.329 A 
HETATM   21  N13 UNL     1      12.287 -13.935 -22.895  1.00  0.00    -0.293 N 
HETATM   22  O5  UNL     1      13.479 -15.436 -24.196  1.00  0.00    -0.246 OA
HETATM   23  C10 UNL     1      10.997 -13.816 -22.492  1.00  0.00     0.166 A 
ATOM     24  H13 UNL     1      13.043 -13.292 -22.657  1.00  0.00     0.172 HD
HETATM   25  N12 UNL     1      10.427 -12.810 -21.666  1.00  0.00    -0.078 NA
ENDBRANCH  14  17
ENDBRANCH  11  13
ENDBRANCH  10  11
ENDBRANCH   1  10
BRANCH   2  26
HETATM   26  C5  UNL     1      12.456 -16.780 -20.498  1.00  0.00     0.124 C 
HETATM   27  N5  UNL     1      12.995 -17.700 -21.059  1.00  0.00    -0.317 N 
ATOM     28  H5  UNL     1      13.264 -17.358 -21.981  1.00  0.00     0.185 HD
BRANCH  27  29
HETATM   29  N6  UNL     1      13.392 -18.974 -20.997  1.00  0.00    -0.345 N 
ATOM     30  H62 UNL     1      12.687 -19.434 -20.421  1.00  0.00     0.176 HD
ATOM     31  H61 UNL     1      14.085 -19.670 -21.274  1.00  0.00     0.176 HD
ENDBRANCH  27  29
ENDBRANCH   2  26
BRANCH   9  32
HETATM   32  O4  UNL     1       9.834 -19.345 -17.912  1.00  0.00    -0.279 OA
ATOM     33  H4  UNL     1      10.227 -20.210 -17.945  1.00  0.00     0.245 HD
ENDBRANCH   9  32
BRANCH   3  34
HETATM   34  N7  UNL     1      13.154 -14.888 -18.733  1.00  0.00    -0.282 N 
ATOM     35  H7  UNL     1      13.692 -14.983 -19.595  1.00  0.00     0.188 HD
BRANCH  34  36
HETATM   36  N8  UNL     1      13.055 -13.665 -18.125  1.00  0.00    -0.276 N 
ATOM     37  H8  UNL     1      13.694 -13.460 -17.356  1.00  0.00     0.189 HD
BRANCH  36  38
HETATM   38  C7  UNL     1      12.222 -12.775 -18.456  1.00  0.00     0.368 C 
HETATM   39  O1  UNL     1      11.242 -12.024 -18.394  1.00  0.00    -0.282 OA
ENDBRANCH  36  38
ENDBRANCH  34  36
ENDBRANCH   3  34
BRANCH   6  40
HETATM   40  N10 UNL     1      13.083 -17.689 -15.251  1.00  0.00    -0.248 N 
ATOM     41  H10 UNL     1      14.036 -18.032 -15.371  1.00  0.00     0.196 HD
BRANCH  40  42
HETATM   42  O2  UNL     1      12.516 -17.586 -13.992  1.00  0.00    -0.288 OA
ATOM     43  H2  UNL     1      13.099 -17.497 -13.247  1.00  0.00     0.244 HD
ENDBRANCH  40  42
ENDBRANCH   6  40
TORSDOF 12
ENDMDL
MODEL 5
REMARK VINA RESULT: -6.605039007      3.181      5.851
REMARK  12 active torsions:
REMARK  status: ('A' for Active; 'I' for Inactive)
REMARK    1  A    between atoms: C2_3  and  N2_4 
REMARK    2  A    between atoms: N3_6  and  N4_8 
REMARK    3  A    between atoms: N4_8  and  S1_10 
REMARK    4  A    between atoms: S1_10  and  C3_11 
REMARK    5  A    between atoms: C4_12  and  C5_13 
REMARK    6  A    between atoms: N5_14  and  N6_16 
REMARK    7  A    between atoms: C6_19  and  N7_20 
REMARK    8  A    between atoms: N7_20  and  N8_22 
REMARK    9  A    between atoms: N8_22  and  C7_24 
REMARK   10  A    between atoms: C8_28  and  N10_29 
REMARK   11  A    between atoms: N10_29  and  O2_31 
REMARK   12  A    between atoms: N11_35  and  O4_36 
ROOT
HETATM    1  C3  UNL     1      11.268 -16.905 -19.256  1.00  0.00     0.140 C 
HETATM    2  C4  UNL     1      12.350 -16.069 -19.377  1.00  0.00     0.064 C 
HETATM    3  C6  UNL     1      12.869 -15.331 -18.281  1.00  0.00     0.136 C 
HETATM    4  N9  UNL     1      12.831 -15.709 -16.970  1.00  0.00    -0.321 N 
ATOM      5  H9  UNL     1      13.078 -14.993 -16.287  1.00  0.00     0.169 HD
HETATM    6  C8  UNL     1      12.502 -16.934 -16.467  1.00  0.00     0.198 C 
HETATM    7  C9  UNL     1      11.575 -17.833 -17.009  1.00  0.00     0.318 C 
HETATM    8  O3  UNL     1      11.149 -18.711 -16.227  1.00  0.00    -0.261 OA
HETATM    9  N11 UNL     1      11.097 -17.854 -18.271  1.00  0.00    -0.175 N 
ENDROOT
BRANCH   1  10
HETATM   10  S1  UNL     1       9.940 -16.677 -20.372  1.00  0.00     0.025 SA
BRANCH  10  11
HETATM   11  N4  UNL     1       9.655 -15.083 -20.934  1.00  0.00    -0.253 N 
ATOM     12  H4  UNL     1      10.342 -14.673 -21.566  1.00  0.00     0.197 HD
BRANCH  11  13
HETATM   13  N3  UNL     1       8.526 -14.291 -20.577  1.00  0.00    -0.235 N 
HETATM   14  N2  UNL     1       7.430 -14.373 -21.197  1.00  0.00    -0.267 N 
ATOM     15  H2  UNL     1       6.667 -13.774 -20.882  1.00  0.00     0.190 HD
ATOM     16  H3  UNL     1       8.606 -13.638 -19.797  1.00  0.00     0.209 HD
BRANCH  14  17
HETATM   17  C2  UNL     1       7.175 -15.233 -22.298  1.00  0.00     0.169 A 
HETATM   18  N1  UNL     1       6.267 -16.229 -22.339  1.00  0.00    -0.286 N 
HETATM   19  C1  UNL     1       5.363 -16.641 -21.256  1.00  0.00     0.163 C 
HETATM   20  C11 UNL     1       6.358 -16.766 -23.562  1.00  0.00     0.329 A 
HETATM   21  N13 UNL     1       7.299 -16.128 -24.277  1.00  0.00    -0.293 N 
HETATM   22  O5  UNL     1       5.657 -17.734 -23.973  1.00  0.00    -0.246 OA
HETATM   23  C10 UNL     1       7.844 -15.146 -23.516  1.00  0.00     0.166 A 
ATOM     24  H13 UNL     1       7.561 -16.347 -25.239  1.00  0.00     0.172 HD
HETATM   25  N12 UNL     1       8.876 -14.237 -23.869  1.00  0.00    -0.078 NA
ENDBRANCH  14  17
ENDBRANCH  11  13
ENDBRANCH  10  11
ENDBRANCH   1  10
BRANCH   2  26
HETATM   26  C5  UNL     1      13.100 -16.017 -20.604  1.00  0.00     0.124 C 
HETATM   27  N5  UNL     1      13.635 -16.892 -21.236  1.00  0.00    -0.317 N 
ATOM     28  H5  UNL     1      14.061 -16.444 -22.046  1.00  0.00     0.185 HD
BRANCH  27  29
HETATM   29  N6  UNL     1      13.913 -18.195 -21.335  1.00  0.00    -0.345 N 
ATOM     30  H62 UNL     1      14.262 -18.310 -22.287  1.00  0.00     0.176 HD
ATOM     31  H61 UNL     1      13.925 -19.106 -20.876  1.00  0.00     0.176 HD
ENDBRANCH  27  29
ENDBRANCH   2  26
BRANCH   9  32
HETATM   32  O4  UNL     1      10.336 -18.928 -18.598  1.00  0.00    -0.279 OA
ATOM     33  H4  UNL     1       9.456 -18.742 -18.907  1.00  0.00     0.245 HD
ENDBRANCH   9  32
BRANCH   3  34
HETATM   34  N7  UNL     1      13.435 -14.243 -18.623  1.00  0.00    -0.282 N 
ATOM     35  H7  UNL     1      14.325 -14.270 -19.121  1.00  0.00     0.188 HD
BRANCH  34  36
HETATM   36  N8  UNL     1      12.860 -13.036 -18.326  1.00  0.00    -0.276 N 
ATOM     37  H8  UNL     1      13.280 -12.474 -17.586  1.00  0.00     0.189 HD
BRANCH  36  38
HETATM   38  C7  UNL     1      11.840 -12.576 -18.913  1.00  0.00     0.368 C 
HETATM   39  O1  UNL     1      10.728 -12.546 -19.452  1.00  0.00    -0.282 OA
ENDBRANCH  36  38
ENDBRANCH  34  36
ENDBRANCH   3  34
BRANCH   6  40
HETATM   40  N10 UNL     1      13.091 -17.324 -15.403  1.00  0.00    -0.248 N 
ATOM     41  H10 UNL     1      14.063 -17.634 -15.424  1.00  0.00     0.196 HD
BRANCH  40  42
HETATM   42  O2  UNL     1      12.373 -17.312 -14.220  1.00  0.00    -0.288 OA
ATOM     43  H2  UNL     1      12.847 -17.159 -13.412  1.00  0.00     0.244 HD
ENDBRANCH  40  42
ENDBRANCH   6  40
TORSDOF 12
ENDMDL
