MODEL 1
REMARK VINA RESULT: -8.182146592      0.000      0.000
REMARK  11 active torsions:
REMARK  status: ('A' for Active; 'I' for Inactive)
REMARK    1  A    between atoms: O1_2  and  C2_3 
REMARK    2  A    between atoms: C2_3  and  C3_5 
REMARK    3  A    between atoms: C3_5  and  S1_6 
REMARK    4  A    between atoms: S1_6  and  S2_7 
REMARK    5  A    between atoms: S2_7  and  C4_8 
REMARK    6  A    between atoms: C5_10  and  N1_11 
REMARK    7  A    between atoms: C6_18  and  N3_19 
REMARK    8  A    between atoms: C7_23  and  N4_24 
REMARK    9  A    between atoms: N4_24  and  N5_25 
REMARK       I    between atoms: N5_25  and  C8_27 
REMARK   10  A    between atoms: C8_27  and  O5_29 
REMARK   11  A    between atoms: O5_29  and  C9_30 
ROOT
HETATM    1  C4  UNL     1       6.663  -9.636 -16.629  1.00  0.00     0.342 C 
HETATM    2  O3  UNL     1       6.389  -8.660 -15.741  1.00  0.00    -0.298 OA
HETATM    3  C5  UNL     1       5.334  -7.829 -15.977  1.00  0.00     0.526 C 
HETATM    4  N2  UNL     1       4.393  -8.266 -16.970  1.00  0.00     0.010 N 
ATOM      5  H21 UNL     1       4.818  -8.264 -17.898  1.00  0.00     0.285 HD
ATOM      6  H22 UNL     1       3.668  -7.564 -17.114  1.00  0.00     0.285 HD
HETATM    7  C6  UNL     1       3.806  -9.563 -16.673  1.00  0.00     0.431 C 
HETATM    8  C7  UNL     1       4.696 -10.589 -17.380  1.00  0.00     0.296 C 
HETATM    9  O7  UNL     1       5.801 -10.738 -16.548  1.00  0.00    -0.324 OA
ENDROOT
BRANCH   1  10
HETATM   10  S2  UNL     1       8.326 -10.251 -16.739  1.00  0.00    -0.033 SA
BRANCH  10  11
HETATM   11  S1  UNL     1       8.765 -10.749 -18.729  1.00  0.00    -0.024 SA
BRANCH  11  12
HETATM   12  C3  UNL     1      10.404 -10.252 -19.151  1.00  0.00     0.356 C 
HETATM   13  N6  UNL     1      10.569 -10.562 -20.602  1.00  0.00    -0.016 N 
HETATM   14  C11 UNL     1      10.815 -11.975 -20.640  1.00  0.00     0.366 C 
ATOM     15  H62 UNL     1       9.788 -10.259 -21.184  1.00  0.00     0.282 HD
ATOM     16  H61 UNL     1      11.282 -10.002 -21.068  1.00  0.00     0.282 HD
HETATM   17  N7  UNL     1      11.001 -12.370 -19.254  1.00  0.00    -0.117 NA
HETATM   18  N8  UNL     1      11.355 -11.185 -18.578  1.00  0.00    -0.085 NA
BRANCH  12  19
HETATM   19  C2  UNL     1      10.792  -8.865 -19.006  1.00  0.00     0.325 C 
HETATM   20  O2  UNL     1       9.915  -7.981 -18.745  1.00  0.00    -0.260 OA
BRANCH  19  21
HETATM   21  O1  UNL     1      12.092  -8.361 -19.133  1.00  0.00    -0.323 OA
HETATM   22  C1  UNL     1      12.502  -7.175 -18.476  1.00  0.00     0.213 C 
ENDBRANCH  19  21
ENDBRANCH  12  19
ENDBRANCH  11  12
ENDBRANCH  10  11
ENDBRANCH   1  10
BRANCH   3  23
HETATM   23  N1  UNL     1       5.902  -6.569 -16.483  1.00  0.00    -0.027 N 
ATOM     24  H13 UNL     1       5.332  -5.751 -16.265  1.00  0.00     0.279 HD
ATOM     25  H12 UNL     1       6.742  -6.275 -15.985  1.00  0.00     0.279 HD
ATOM     26  H11 UNL     1       6.052  -6.700 -17.483  1.00  0.00     0.279 HD
ENDBRANCH   3  23
BRANCH   8  27
HETATM   27  N4  UNL     1       4.027 -11.817 -17.657  1.00  0.00    -0.100 NA
BRANCH  27  28
HETATM   28  N5  UNL     1       4.462 -12.795 -16.758  1.00  0.00    -0.246 N 
HETATM   29  C8  UNL     1       3.526 -13.680 -16.150  1.00  0.00     0.384 C 
HETATM   30  O4  UNL     1       2.299 -13.587 -16.419  1.00  0.00    -0.237 OA
ATOM     31  H5  UNL     1       5.454 -12.876 -16.537  1.00  0.00     0.188 HD
BRANCH  29  32
HETATM   32  O5  UNL     1       3.937 -14.643 -15.268  1.00  0.00    -0.227 OA
BRANCH  32  33
HETATM   33  C9  UNL     1       4.793 -14.364 -14.188  1.00  0.00     0.263 C 
HETATM   34  C10 UNL     1       4.636 -14.997 -12.856  1.00  0.00     0.127 C 
HETATM   35  O6  UNL     1       5.718 -13.545 -14.388  1.00  0.00    -0.265 OA
ENDBRANCH  32  33
ENDBRANCH  29  32
ENDBRANCH  27  28
ENDBRANCH   8  27
BRANCH   7  36
HETATM   36  N3  UNL     1       3.924  -9.800 -15.257  1.00  0.00    -0.046 N 
ATOM     37  H33 UNL     1       4.766  -9.385 -14.857  1.00  0.00     0.277 HD
ATOM     38  H32 UNL     1       3.239  -9.276 -14.712  1.00  0.00     0.277 HD
ATOM     39  H31 UNL     1       3.867 -10.805 -15.094  1.00  0.00     0.277 HD
ENDBRANCH   7  36
TORSDOF 11
ENDMDL
MODEL 2
REMARK VINA RESULT: -8.092153952      1.916      2.346
REMARK  11 active torsions:
REMARK  status: ('A' for Active; 'I' for Inactive)
REMARK    1  A    between atoms: O1_2  and  C2_3 
REMARK    2  A    between atoms: C2_3  and  C3_5 
REMARK    3  A    between atoms: C3_5  and  S1_6 
REMARK    4  A    between atoms: S1_6  and  S2_7 
REMARK    5  A    between atoms: S2_7  and  C4_8 
REMARK    6  A    between atoms: C5_10  and  N1_11 
REMARK    7  A    between atoms: C6_18  and  N3_19 
REMARK    8  A    between atoms: C7_23  and  N4_24 
REMARK    9  A    between atoms: N4_24  and  N5_25 
REMARK       I    between atoms: N5_25  and  C8_27 
REMARK   10  A    between atoms: C8_27  and  O5_29 
REMARK   11  A    between atoms: O5_29  and  C9_30 
ROOT
HETATM    1  C4  UNL     1       7.240 -10.363 -17.474  1.00  0.00     0.342 C 
HETATM    2  O3  UNL     1       7.046  -9.405 -16.546  1.00  0.00    -0.298 OA
HETATM    3  C5  UNL     1       5.879  -8.700 -16.558  1.00  0.00     0.526 C 
HETATM    4  N2  UNL     1       4.809  -9.260 -17.334  1.00  0.00     0.010 N 
ATOM      5  H21 UNL     1       5.030  -9.231 -18.330  1.00  0.00     0.285 HD
ATOM      6  H22 UNL     1       3.995  -8.646 -17.324  1.00  0.00     0.285 HD
HETATM    7  C6  UNL     1       4.445 -10.607 -16.924  1.00  0.00     0.431 C 
HETATM    8  C7  UNL     1       5.280 -11.544 -17.802  1.00  0.00     0.296 C 
HETATM    9  O7  UNL     1       6.543 -11.552 -17.218  1.00  0.00    -0.324 OA
ENDROOT
BRANCH   1  10
HETATM   10  S2  UNL     1       8.903 -10.792 -17.927  1.00  0.00    -0.033 SA
BRANCH  10  11
HETATM   11  S1  UNL     1       8.879 -12.000 -19.642  1.00  0.00    -0.024 SA
BRANCH  11  12
HETATM   12  C3  UNL     1      10.486 -12.641 -19.979  1.00  0.00     0.356 C 
HETATM   13  N6  UNL     1      10.855 -12.140 -21.335  1.00  0.00    -0.016 N 
HETATM   14  C11 UNL     1      10.147 -12.999 -22.240  1.00  0.00     0.366 C 
ATOM     15  H62 UNL     1      10.673 -11.146 -21.476  1.00  0.00     0.282 HD
ATOM     16  H61 UNL     1      11.860 -12.096 -21.504  1.00  0.00     0.282 HD
HETATM   17  N7  UNL     1       9.601 -14.062 -21.411  1.00  0.00    -0.117 NA
HETATM   18  N8  UNL     1      10.394 -14.064 -20.246  1.00  0.00    -0.085 NA
BRANCH  12  19
HETATM   19  C2  UNL     1      11.596 -12.283 -19.120  1.00  0.00     0.325 C 
HETATM   20  O2  UNL     1      12.087 -11.111 -19.169  1.00  0.00    -0.260 OA
BRANCH  19  21
HETATM   21  O1  UNL     1      12.224 -13.129 -18.199  1.00  0.00    -0.323 OA
HETATM   22  C1  UNL     1      13.270 -14.005 -18.580  1.00  0.00     0.213 C 
ENDBRANCH  19  21
ENDBRANCH  12  19
ENDBRANCH  11  12
ENDBRANCH  10  11
ENDBRANCH   1  10
BRANCH   3  23
HETATM   23  N1  UNL     1       6.184  -7.396 -17.169  1.00  0.00    -0.027 N 
ATOM     24  H13 UNL     1       5.374  -6.779 -17.231  1.00  0.00     0.279 HD
ATOM     25  H12 UNL     1       6.756  -6.795 -16.575  1.00  0.00     0.279 HD
ATOM     26  H11 UNL     1       6.612  -7.594 -18.073  1.00  0.00     0.279 HD
ENDBRANCH   3  23
BRANCH   8  27
HETATM   27  N4  UNL     1       4.711 -12.845 -17.936  1.00  0.00    -0.100 NA
BRANCH  27  28
HETATM   28  N5  UNL     1       4.827 -13.529 -16.723  1.00  0.00    -0.246 N 
HETATM   29  C8  UNL     1       3.661 -13.929 -16.009  1.00  0.00     0.384 C 
HETATM   30  O4  UNL     1       2.517 -13.670 -16.468  1.00  0.00    -0.237 OA
ATOM     31  H5  UNL     1       5.751 -13.742 -16.346  1.00  0.00     0.188 HD
BRANCH  29  32
HETATM   32  O5  UNL     1       3.758 -14.600 -14.819  1.00  0.00    -0.227 OA
BRANCH  32  33
HETATM   33  C9  UNL     1       4.799 -14.368 -13.903  1.00  0.00     0.263 C 
HETATM   34  C10 UNL     1       4.909 -15.094 -12.615  1.00  0.00     0.127 C 
HETATM   35  O6  UNL     1       5.654 -13.508 -14.214  1.00  0.00    -0.265 OA
ENDBRANCH  32  33
ENDBRANCH  29  32
ENDBRANCH  27  28
ENDBRANCH   8  27
BRANCH   7  36
HETATM   36  N3  UNL     1       4.879 -10.799 -15.563  1.00  0.00    -0.046 N 
ATOM     37  H33 UNL     1       4.110 -11.031 -14.935  1.00  0.00     0.277 HD
ATOM     38  H32 UNL     1       5.420 -11.655 -15.441  1.00  0.00     0.277 HD
ATOM     39  H31 UNL     1       5.389  -9.967 -15.268  1.00  0.00     0.277 HD
ENDBRANCH   7  36
TORSDOF 11
ENDMDL
MODEL 3
REMARK VINA RESULT: -8.088403956      3.156      7.285
REMARK  11 active torsions:
REMARK  status: ('A' for Active; 'I' for Inactive)
REMARK    1  A    between atoms: O1_2  and  C2_3 
REMARK    2  A    between atoms: C2_3  and  C3_5 
REMARK    3  A    between atoms: C3_5  and  S1_6 
REMARK    4  A    between atoms: S1_6  and  S2_7 
REMARK    5  A    between atoms: S2_7  and  C4_8 
REMARK    6  A    between atoms: C5_10  and  N1_11 
REMARK    7  A    between atoms: C6_18  and  N3_19 
REMARK    8  A    between atoms: C7_23  and  N4_24 
REMARK    9  A    between atoms: N4_24  and  N5_25 
REMARK       I    between atoms: N5_25  and  C8_27 
REMARK   10  A    between atoms: C8_27  and  O5_29 
REMARK   11  A    between atoms: O5_29  and  C9_30 
ROOT
HETATM    1  C4  UNL     1       8.511 -10.830 -18.555  1.00  0.00     0.342 C 
HETATM    2  O3  UNL     1       8.805  -9.534 -18.776  1.00  0.00    -0.298 OA
HETATM    3  C5  UNL     1      10.066  -9.088 -18.513  1.00  0.00     0.526 C 
HETATM    4  N2  UNL     1      11.074 -10.097 -18.348  1.00  0.00     0.010 N 
ATOM      5  H21 UNL     1      10.909 -10.639 -17.500  1.00  0.00     0.285 HD
ATOM      6  H22 UNL     1      11.971  -9.677 -18.109  1.00  0.00     0.285 HD
HETATM    7  C6  UNL     1      11.205 -10.972 -19.502  1.00  0.00     0.431 C 
HETATM    8  C7  UNL     1      10.279 -12.160 -19.226  1.00  0.00     0.296 C 
HETATM    9  O7  UNL     1       9.003 -11.701 -19.537  1.00  0.00    -0.324 OA
ENDROOT
BRANCH   1  10
HETATM   10  S2  UNL     1       6.826 -11.282 -18.220  1.00  0.00    -0.033 SA
BRANCH  10  11
HETATM   11  S1  UNL     1       6.339 -10.780 -16.242  1.00  0.00    -0.024 SA
BRANCH  11  12
HETATM   12  C3  UNL     1       4.809 -11.518 -15.769  1.00  0.00     0.356 C 
HETATM   13  N6  UNL     1       3.921 -11.434 -16.965  1.00  0.00    -0.016 N 
HETATM   14  C11 UNL     1       3.452 -10.078 -16.969  1.00  0.00     0.366 C 
ATOM     15  H62 UNL     1       4.368 -11.722 -17.836  1.00  0.00     0.282 HD
ATOM     16  H61 UNL     1       3.178 -12.131 -16.982  1.00  0.00     0.282 HD
HETATM   17  N7  UNL     1       3.887  -9.518 -15.699  1.00  0.00    -0.117 NA
HETATM   18  N8  UNL     1       4.105 -10.630 -14.862  1.00  0.00    -0.085 NA
BRANCH  12  19
HETATM   19  C2  UNL     1       4.777 -12.907 -15.362  1.00  0.00     0.325 C 
HETATM   20  O2  UNL     1       5.117 -13.819 -16.181  1.00  0.00    -0.260 OA
BRANCH  19  21
HETATM   21  O1  UNL     1       4.390 -13.383 -14.104  1.00  0.00    -0.323 OA
HETATM   22  C1  UNL     1       4.746 -14.677 -13.652  1.00  0.00     0.213 C 
ENDBRANCH  19  21
ENDBRANCH  12  19
ENDBRANCH  11  12
ENDBRANCH  10  11
ENDBRANCH   1  10
BRANCH   3  23
HETATM   23  N1  UNL     1       9.996  -8.371 -17.229  1.00  0.00    -0.027 N 
ATOM     24  H13 UNL     1       9.270  -8.727 -16.606  1.00  0.00     0.279 HD
ATOM     25  H12 UNL     1      10.790  -8.560 -16.617  1.00  0.00     0.279 HD
ATOM     26  H11 UNL     1       9.885  -7.383 -17.454  1.00  0.00     0.279 HD
ENDBRANCH   3  23
BRANCH   8  27
HETATM   27  N4  UNL     1      10.647 -13.337 -19.941  1.00  0.00    -0.100 NA
BRANCH  27  28
HETATM   28  N5  UNL     1       9.612 -13.695 -20.809  1.00  0.00    -0.246 N 
HETATM   29  C8  UNL     1       9.022 -14.989 -20.730  1.00  0.00     0.384 C 
HETATM   30  O4  UNL     1       9.429 -15.820 -19.876  1.00  0.00    -0.237 OA
ATOM     31  H5  UNL     1       9.277 -13.026 -21.503  1.00  0.00     0.188 HD
BRANCH  29  32
HETATM   32  O5  UNL     1       8.007 -15.354 -21.574  1.00  0.00    -0.227 OA
BRANCH  32  33
HETATM   33  C9  UNL     1       6.681 -14.922 -21.394  1.00  0.00     0.263 C 
HETATM   34  C10 UNL     1       5.560 -15.401 -22.238  1.00  0.00     0.127 C 
HETATM   35  O6  UNL     1       6.467 -14.100 -20.475  1.00  0.00    -0.265 OA
ENDBRANCH  32  33
ENDBRANCH  29  32
ENDBRANCH  27  28
ENDBRANCH   8  27
BRANCH   7  36
HETATM   36  N3  UNL     1      10.680 -10.283 -20.655  1.00  0.00    -0.046 N 
ATOM     37  H33 UNL     1      10.983 -10.702 -21.534  1.00  0.00     0.277 HD
ATOM     38  H32 UNL     1       9.677 -10.423 -20.773  1.00  0.00     0.277 HD
ATOM     39  H31 UNL     1      10.933  -9.298 -20.582  1.00  0.00     0.277 HD
ENDBRANCH   7  36
TORSDOF 11
ENDMDL
MODEL 4
REMARK VINA RESULT: -8.072915640      3.129      7.824
REMARK  11 active torsions:
REMARK  status: ('A' for Active; 'I' for Inactive)
REMARK    1  A    between atoms: O1_2  and  C2_3 
REMARK    2  A    between atoms: C2_3  and  C3_5 
REMARK    3  A    between atoms: C3_5  and  S1_6 
REMARK    4  A    between atoms: S1_6  and  S2_7 
REMARK    5  A    between atoms: S2_7  and  C4_8 
REMARK    6  A    between atoms: C5_10  and  N1_11 
REMARK    7  A    between atoms: C6_18  and  N3_19 
REMARK    8  A    between atoms: C7_23  and  N4_24 
REMARK    9  A    between atoms: N4_24  and  N5_25 
REMARK       I    between atoms: N5_25  and  C8_27 
REMARK   10  A    between atoms: C8_27  and  O5_29 
REMARK   11  A    between atoms: O5_29  and  C9_30 
ROOT
HETATM    1  C4  UNL     1       8.651 -10.837 -18.570  1.00  0.00     0.342 C 
HETATM    2  O3  UNL     1       8.844  -9.567 -18.975  1.00  0.00    -0.298 OA
HETATM    3  C5  UNL     1      10.059  -8.984 -18.768  1.00  0.00     0.526 C 
HETATM    4  N2  UNL     1      11.141  -9.873 -18.449  1.00  0.00     0.010 N 
ATOM      5  H21 UNL     1      11.002 -10.299 -17.532  1.00  0.00     0.285 HD
ATOM      6  H22 UNL     1      11.996  -9.350 -18.265  1.00  0.00     0.285 HD
HETATM    7  C6  UNL     1      11.366 -10.891 -19.462  1.00  0.00     0.431 C 
HETATM    8  C7  UNL     1      10.533 -12.099 -19.024  1.00  0.00     0.296 C 
HETATM    9  O7  UNL     1       9.231 -11.797 -19.411  1.00  0.00    -0.324 OA
ENDROOT
BRANCH   1  10
HETATM   10  S2  UNL     1       7.001 -11.374 -18.189  1.00  0.00    -0.033 SA
BRANCH  10  11
HETATM   11  S1  UNL     1       6.501 -10.792 -16.236  1.00  0.00    -0.024 SA
BRANCH  11  12
HETATM   12  C3  UNL     1       4.931 -11.445 -15.771  1.00  0.00     0.356 C 
HETATM   13  N6  UNL     1       4.049 -11.289 -16.964  1.00  0.00    -0.016 N 
HETATM   14  C11 UNL     1       3.661  -9.908 -16.945  1.00  0.00     0.366 C 
ATOM     15  H62 UNL     1       4.476 -11.590 -17.841  1.00  0.00     0.282 HD
ATOM     16  H61 UNL     1       3.265 -11.941 -16.991  1.00  0.00     0.282 HD
HETATM   17  N7  UNL     1       4.129  -9.396 -15.668  1.00  0.00    -0.117 NA
HETATM   18  N8  UNL     1       4.281 -10.532 -14.849  1.00  0.00    -0.085 NA
BRANCH  12  19
HETATM   19  C2  UNL     1       4.817 -12.836 -15.386  1.00  0.00     0.325 C 
HETATM   20  O2  UNL     1       5.118 -13.753 -16.215  1.00  0.00    -0.260 OA
BRANCH  19  21
HETATM   21  O1  UNL     1       4.387 -13.308 -14.141  1.00  0.00    -0.323 OA
HETATM   22  C1  UNL     1       4.609 -14.646 -13.731  1.00  0.00     0.213 C 
ENDBRANCH  19  21
ENDBRANCH  12  19
ENDBRANCH  11  12
ENDBRANCH  10  11
ENDBRANCH   1  10
BRANCH   3  23
HETATM   23  N1  UNL     1       9.904  -8.099 -17.602  1.00  0.00    -0.027 N 
ATOM     24  H13 UNL     1      10.494  -7.268 -17.644  1.00  0.00     0.279 HD
ATOM     25  H12 UNL     1       9.006  -7.616 -17.578  1.00  0.00     0.279 HD
ATOM     26  H11 UNL     1      10.075  -8.674 -16.777  1.00  0.00     0.279 HD
ENDBRANCH   3  23
BRANCH   8  27
HETATM   27  N4  UNL     1      11.009 -13.333 -19.558  1.00  0.00    -0.100 NA
BRANCH  27  28
HETATM   28  N5  UNL     1      10.462 -13.531 -20.828  1.00  0.00    -0.246 N 
HETATM   29  C8  UNL     1       9.561 -14.609 -21.063  1.00  0.00     0.384 C 
HETATM   30  O4  UNL     1       9.251 -15.391 -20.126  1.00  0.00    -0.237 OA
ATOM     31  H5  UNL     1      10.709 -12.901 -21.591  1.00  0.00     0.188 HD
BRANCH  29  32
HETATM   32  O5  UNL     1       9.017 -14.816 -22.302  1.00  0.00    -0.227 OA
BRANCH  32  33
HETATM   33  C9  UNL     1       9.604 -14.318 -23.479  1.00  0.00     0.263 C 
HETATM   34  C10 UNL     1      10.398 -15.168 -24.399  1.00  0.00     0.127 C 
HETATM   35  O6  UNL     1       9.433 -13.106 -23.735  1.00  0.00    -0.265 OA
ENDBRANCH  32  33
ENDBRANCH  29  32
ENDBRANCH  27  28
ENDBRANCH   8  27
BRANCH   7  36
HETATM   36  N3  UNL     1      10.812 -10.421 -20.707  1.00  0.00    -0.046 N 
ATOM     37  H33 UNL     1      10.020  -9.793 -20.573  1.00  0.00     0.277 HD
ATOM     38  H32 UNL     1      11.428  -9.765 -21.188  1.00  0.00     0.277 HD
ATOM     39  H31 UNL     1      10.578 -11.231 -21.281  1.00  0.00     0.277 HD
ENDBRANCH   7  36
TORSDOF 11
ENDMDL
MODEL 5
REMARK VINA RESULT: -8.043417873      3.149      7.920
REMARK  11 active torsions:
REMARK  status: ('A' for Active; 'I' for Inactive)
REMARK    1  A    between atoms: O1_2  and  C2_3 
REMARK    2  A    between atoms: C2_3  and  C3_5 
REMARK    3  A    between atoms: C3_5  and  S1_6 
REMARK    4  A    between atoms: S1_6  and  S2_7 
REMARK    5  A    between atoms: S2_7  and  C4_8 
REMARK    6  A    between atoms: C5_10  and  N1_11 
REMARK    7  A    between atoms: C6_18  and  N3_19 
REMARK    8  A    between atoms: C7_23  and  N4_24 
REMARK    9  A    between atoms: N4_24  and  N5_25 
REMARK       I    between atoms: N5_25  and  C8_27 
REMARK   10  A    between atoms: C8_27  and  O5_29 
REMARK   11  A    between atoms: O5_29  and  C9_30 
ROOT
HETATM    1  C4  UNL     1       8.536 -10.854 -18.574  1.00  0.00     0.342 C 
HETATM    2  O3  UNL     1       8.801  -9.552 -18.798  1.00  0.00    -0.298 OA
HETATM    3  C5  UNL     1      10.053  -9.078 -18.540  1.00  0.00     0.526 C 
HETATM    4  N2  UNL     1      11.083 -10.065 -18.379  1.00  0.00     0.010 N 
ATOM      5  H21 UNL     1      10.933 -10.610 -17.530  1.00  0.00     0.285 HD
ATOM      6  H22 UNL     1      11.972  -9.626 -18.144  1.00  0.00     0.285 HD
HETATM    7  C6  UNL     1      11.228 -10.938 -19.534  1.00  0.00     0.431 C 
HETATM    8  C7  UNL     1      10.329 -12.146 -19.252  1.00  0.00     0.296 C 
HETATM    9  O7  UNL     1       9.042 -11.715 -19.558  1.00  0.00    -0.324 OA
ENDROOT
BRANCH   1  10
HETATM   10  S2  UNL     1       6.863 -11.342 -18.232  1.00  0.00    -0.033 SA
BRANCH  10  11
HETATM   11  S1  UNL     1       6.359 -10.810 -16.266  1.00  0.00    -0.024 SA
BRANCH  11  12
HETATM   12  C3  UNL     1       4.821 -11.534 -15.797  1.00  0.00     0.356 C 
HETATM   13  N6  UNL     1       3.938 -11.443 -16.997  1.00  0.00    -0.016 N 
HETATM   14  C11 UNL     1       3.481 -10.083 -17.002  1.00  0.00     0.366 C 
ATOM     15  H62 UNL     1       4.385 -11.736 -17.866  1.00  0.00     0.282 HD
ATOM     16  H61 UNL     1       3.189 -12.134 -17.016  1.00  0.00     0.282 HD
HETATM   17  N7  UNL     1       3.916  -9.526 -15.732  1.00  0.00    -0.117 NA
HETATM   18  N8  UNL     1       4.122 -10.639 -14.893  1.00  0.00    -0.085 NA
BRANCH  12  19
HETATM   19  C2  UNL     1       4.776 -12.922 -15.389  1.00  0.00     0.325 C 
HETATM   20  O2  UNL     1       5.104 -13.838 -16.209  1.00  0.00    -0.260 OA
BRANCH  19  21
HETATM   21  O1  UNL     1       4.386 -13.393 -14.130  1.00  0.00    -0.323 OA
HETATM   22  C1  UNL     1       4.723 -14.694 -13.681  1.00  0.00     0.213 C 
ENDBRANCH  19  21
ENDBRANCH  12  19
ENDBRANCH  11  12
ENDBRANCH  10  11
ENDBRANCH   1  10
BRANCH   3  23
HETATM   23  N1  UNL     1       9.973  -8.363 -17.256  1.00  0.00    -0.027 N 
ATOM     24  H13 UNL     1       9.036  -8.361 -16.852  1.00  0.00     0.279 HD
ATOM     25  H12 UNL     1      10.440  -8.851 -16.492  1.00  0.00     0.279 HD
ATOM     26  H11 UNL     1      10.342  -7.427 -17.423  1.00  0.00     0.279 HD
ENDBRANCH   3  23
BRANCH   8  27
HETATM   27  N4  UNL     1      10.719 -13.316 -19.968  1.00  0.00    -0.100 NA
BRANCH  27  28
HETATM   28  N5  UNL     1       9.787 -13.574 -20.977  1.00  0.00    -0.246 N 
HETATM   29  C8  UNL     1      10.100 -13.283 -22.336  1.00  0.00     0.384 C 
HETATM   30  O4  UNL     1      11.219 -12.791 -22.637  1.00  0.00    -0.237 OA
ATOM     31  H5  UNL     1       8.879 -13.972 -20.740  1.00  0.00     0.188 HD
BRANCH  29  32
HETATM   32  O5  UNL     1       9.197 -13.530 -23.336  1.00  0.00    -0.227 OA
BRANCH  32  33
HETATM   33  C9  UNL     1       8.614 -14.794 -23.533  1.00  0.00     0.263 C 
HETATM   34  C10 UNL     1       9.418 -16.025 -23.732  1.00  0.00     0.127 C 
HETATM   35  O6  UNL     1       7.365 -14.854 -23.535  1.00  0.00    -0.265 OA
ENDBRANCH  32  33
ENDBRANCH  29  32
ENDBRANCH  27  28
ENDBRANCH   8  27
BRANCH   7  36
HETATM   36  N3  UNL     1      10.683 -10.262 -20.684  1.00  0.00    -0.046 N 
ATOM     37  H33 UNL     1      10.750 -10.819 -21.536  1.00  0.00     0.277 HD
ATOM     38  H32 UNL     1       9.667 -10.184 -20.650  1.00  0.00     0.277 HD
ATOM     39  H31 UNL     1      11.143  -9.356 -20.771  1.00  0.00     0.277 HD
ENDBRANCH   7  36
TORSDOF 11
ENDMDL
