MODEL 1
REMARK VINA RESULT: -6.447105701      0.000      0.000
REMARK  6 active torsions:
REMARK  status: ('A' for Active; 'I' for Inactive)
REMARK       I    between atoms: N1_1  and  C1_5 
REMARK       I    between atoms: C1_5  and  N2_6 
REMARK       I    between atoms: C1_5  and  N3_10 
REMARK    1  A    between atoms: N3_10  and  N4_11 
REMARK       I    between atoms: N4_11  and  C2_13 
REMARK    2  A    between atoms: C2_13  and  C3_15 
REMARK    3  A    between atoms: C3_15  and  S1_16 
REMARK    4  A    between atoms: S1_16  and  C4_17 
REMARK    5  A    between atoms: C4_17  and  C5_18 
REMARK    6  A    between atoms: C5_18  and  N5_19 
ROOT
HETATM    1  C4  UNL     1     -29.799  40.778  22.534  1.00  0.00     0.095 C 
ENDROOT
BRANCH   1   2
HETATM    2  S1  UNL     1     -29.081  40.063  21.075  1.00  0.00    -0.158 SA
BRANCH   2   3
HETATM    3  C3  UNL     1     -27.886  41.126  20.290  1.00  0.00     0.177 C 
BRANCH   3   4
HETATM    4  C2  UNL     1     -26.523  40.604  20.417  1.00  0.00     0.242 C 
HETATM    5  N4  UNL     1     -25.633  40.639  19.311  1.00  0.00    -0.270 N 
ATOM      6  H4  UNL     1     -25.951  41.031  18.425  1.00  0.00     0.185 HD
HETATM    7  O1  UNL     1     -26.118  40.118  21.497  1.00  0.00    -0.271 OA
BRANCH   5   8
HETATM    8  N3  UNL     1     -24.358  40.156  19.412  1.00  0.00    -0.078 NA
HETATM    9  C1  UNL     1     -23.550  40.494  18.246  1.00  0.00     0.490 C 
HETATM   10  N1  UNL     1     -22.261  39.870  18.416  1.00  0.00    -0.035 N 
HETATM   11  N2  UNL     1     -24.202  40.112  17.019  1.00  0.00    -0.035 N 
ATOM     12  H13 UNL     1     -22.334  38.855  18.343  1.00  0.00     0.278 HD
ATOM     13  H12 UNL     1     -21.660  40.052  17.612  1.00  0.00     0.278 HD
ATOM     14  H11 UNL     1     -21.799  40.141  19.284  1.00  0.00     0.278 HD
ATOM     15  H23 UNL     1     -23.601  40.293  16.215  1.00  0.00     0.278 HD
ATOM     16  H22 UNL     1     -24.275  39.097  16.947  1.00  0.00     0.278 HD
ATOM     17  H21 UNL     1     -25.114  40.552  16.899  1.00  0.00     0.278 HD
ENDBRANCH   5   8
ENDBRANCH   3   4
ENDBRANCH   2   3
ENDBRANCH   1   2
BRANCH   1  18
HETATM   18  C5  UNL     1     -30.104  42.243  22.484  1.00  0.00     0.147 C 
BRANCH  18  19
HETATM   19  N5  UNL     1     -30.646  42.613  23.800  1.00  0.00    -0.264 N 
HETATM   20  C6  UNL     1     -31.971  42.475  23.911  1.00  0.00     0.332 C 
HETATM   21  O2  UNL     1     -32.677  42.588  22.878  1.00  0.00    -0.246 OA
HETATM   22  N6  UNL     1     -32.694  42.218  25.036  1.00  0.00    -0.273 N 
HETATM   23  C7  UNL     1     -32.353  42.369  26.322  1.00  0.00     0.278 C 
ATOM     24  H6  UNL     1     -33.634  41.857  24.876  1.00  0.00     0.173 HD
HETATM   25  O3  UNL     1     -33.247  42.191  27.195  1.00  0.00    -0.265 OA
HETATM   26  C8  UNL     1     -31.103  42.704  26.800  1.00  0.00     0.134 A 
HETATM   27  N7  UNL     1     -30.839  42.796  28.108  1.00  0.00    -0.346 N 
HETATM   28  C10 UNL     1     -29.958  42.996  26.094  1.00  0.00     0.135 A 
HETATM   29  C9  UNL     1     -29.553  43.138  28.238  1.00  0.00     0.181 A 
ATOM     30  H7  UNL     1     -31.499  42.635  28.868  1.00  0.00     0.167 HD
HETATM   31  N8  UNL     1     -29.024  43.258  27.019  1.00  0.00    -0.346 N 
ATOM     32  H8  UNL     1     -28.056  43.511  26.821  1.00  0.00     0.167 HD
HETATM   33  C11 UNL     1     -29.776  43.019  24.725  1.00  0.00     0.281 C 
HETATM   34  O4  UNL     1     -28.685  43.468  24.331  1.00  0.00    -0.265 OA
ENDBRANCH  18  19
ENDBRANCH   1  18
TORSDOF 6
ENDMDL
MODEL 2
REMARK VINA RESULT: -6.441309945      2.496      8.009
REMARK  6 active torsions:
REMARK  status: ('A' for Active; 'I' for Inactive)
REMARK       I    between atoms: N1_1  and  C1_5 
REMARK       I    between atoms: C1_5  and  N2_6 
REMARK       I    between atoms: C1_5  and  N3_10 
REMARK    1  A    between atoms: N3_10  and  N4_11 
REMARK       I    between atoms: N4_11  and  C2_13 
REMARK    2  A    between atoms: C2_13  and  C3_15 
REMARK    3  A    between atoms: C3_15  and  S1_16 
REMARK    4  A    between atoms: S1_16  and  C4_17 
REMARK    5  A    between atoms: C4_17  and  C5_18 
REMARK    6  A    between atoms: C5_18  and  N5_19 
ROOT
HETATM    1  C4  UNL     1     -31.856  41.384  22.989  1.00  0.00     0.095 C 
ENDROOT
BRANCH   1   2
HETATM    2  S1  UNL     1     -33.464  41.590  23.713  1.00  0.00    -0.158 SA
BRANCH   2   3
HETATM    3  C3  UNL     1     -33.509  42.851  24.973  1.00  0.00     0.177 C 
BRANCH   3   4
HETATM    4  C2  UNL     1     -32.902  42.394  26.225  1.00  0.00     0.242 C 
HETATM    5  N4  UNL     1     -31.494  42.427  26.397  1.00  0.00    -0.270 N 
ATOM      6  H4  UNL     1     -30.905  42.772  25.638  1.00  0.00     0.185 HD
HETATM    7  O1  UNL     1     -33.611  41.967  27.166  1.00  0.00    -0.271 OA
BRANCH   5   8
HETATM    8  N3  UNL     1     -30.911  42.005  27.560  1.00  0.00    -0.078 NA
HETATM    9  C1  UNL     1     -29.883  42.929  28.024  1.00  0.00     0.490 C 
HETATM   10  N1  UNL     1     -29.280  42.351  29.200  1.00  0.00    -0.035 N 
HETATM   11  N2  UNL     1     -28.925  43.222  26.988  1.00  0.00    -0.035 N 
ATOM     12  H13 UNL     1     -28.736  41.522  28.961  1.00  0.00     0.278 HD
ATOM     13  H12 UNL     1     -28.530  42.946  29.554  1.00  0.00     0.278 HD
ATOM     14  H11 UNL     1     -29.957  42.144  29.934  1.00  0.00     0.278 HD
ATOM     15  H23 UNL     1     -28.175  43.816  27.341  1.00  0.00     0.278 HD
ATOM     16  H22 UNL     1     -28.381  42.392  26.749  1.00  0.00     0.278 HD
ATOM     17  H21 UNL     1     -29.351  43.630  26.156  1.00  0.00     0.278 HD
ENDBRANCH   5   8
ENDBRANCH   3   4
ENDBRANCH   2   3
ENDBRANCH   1   2
BRANCH   1  18
HETATM   18  C5  UNL     1     -31.099  42.634  22.666  1.00  0.00     0.147 C 
BRANCH  18  19
HETATM   19  N5  UNL     1     -29.879  42.225  21.955  1.00  0.00    -0.264 N 
HETATM   20  C6  UNL     1     -28.809  42.064  22.741  1.00  0.00     0.332 C 
HETATM   21  O2  UNL     1     -28.734  42.735  23.800  1.00  0.00    -0.246 OA
HETATM   22  N6  UNL     1     -27.744  41.238  22.545  1.00  0.00    -0.273 N 
HETATM   23  C7  UNL     1     -27.315  40.653  21.420  1.00  0.00     0.278 C 
ATOM     24  H6  UNL     1     -27.191  41.036  23.378  1.00  0.00     0.173 HD
HETATM   25  O3  UNL     1     -26.215  40.034  21.459  1.00  0.00    -0.265 OA
HETATM   26  C8  UNL     1     -27.961  40.655  20.202  1.00  0.00     0.134 A 
HETATM   27  N7  UNL     1     -27.478  40.009  19.135  1.00  0.00    -0.346 N 
HETATM   28  C10 UNL     1     -29.139  41.275  19.850  1.00  0.00     0.135 A 
HETATM   29  C9  UNL     1     -28.328  40.208  18.122  1.00  0.00     0.181 A 
ATOM     30  H7  UNL     1     -26.617  39.463  19.101  1.00  0.00     0.167 HD
HETATM   31  N8  UNL     1     -29.331  40.973  18.558  1.00  0.00    -0.346 N 
ATOM     32  H8  UNL     1     -30.122  41.282  17.994  1.00  0.00     0.167 HD
HETATM   33  C11 UNL     1     -29.972  42.045  20.638  1.00  0.00     0.281 C 
HETATM   34  O4  UNL     1     -30.897  42.624  20.042  1.00  0.00    -0.265 OA
ENDBRANCH  18  19
ENDBRANCH   1  18
TORSDOF 6
ENDMDL
MODEL 3
REMARK VINA RESULT: -6.380913108      1.174      1.322
REMARK  6 active torsions:
REMARK  status: ('A' for Active; 'I' for Inactive)
REMARK       I    between atoms: N1_1  and  C1_5 
REMARK       I    between atoms: C1_5  and  N2_6 
REMARK       I    between atoms: C1_5  and  N3_10 
REMARK    1  A    between atoms: N3_10  and  N4_11 
REMARK       I    between atoms: N4_11  and  C2_13 
REMARK    2  A    between atoms: C2_13  and  C3_15 
REMARK    3  A    between atoms: C3_15  and  S1_16 
REMARK    4  A    between atoms: S1_16  and  C4_17 
REMARK    5  A    between atoms: C4_17  and  C5_18 
REMARK    6  A    between atoms: C5_18  and  N5_19 
ROOT
HETATM    1  C4  UNL     1     -30.211  40.641  22.488  1.00  0.00     0.095 C 
ENDROOT
BRANCH   1   2
HETATM    2  S1  UNL     1     -30.643  39.902  20.932  1.00  0.00    -0.158 SA
BRANCH   2   3
HETATM    3  C3  UNL     1     -29.648  40.493  19.577  1.00  0.00     0.177 C 
BRANCH   3   4
HETATM    4  C2  UNL     1     -28.314  39.888  19.573  1.00  0.00     0.242 C 
HETATM    5  N4  UNL     1     -27.261  40.464  20.332  1.00  0.00    -0.270 N 
ATOM      6  H4  UNL     1     -27.441  41.304  20.880  1.00  0.00     0.185 HD
HETATM    7  O1  UNL     1     -28.077  38.857  18.903  1.00  0.00    -0.271 OA
BRANCH   5   8
HETATM    8  N3  UNL     1     -26.010  39.911  20.340  1.00  0.00    -0.078 NA
HETATM    9  C1  UNL     1     -25.092  40.622  19.458  1.00  0.00     0.490 C 
HETATM   10  N1  UNL     1     -23.836  39.914  19.477  1.00  0.00    -0.035 N 
HETATM   11  N2  UNL     1     -25.635  40.768  18.131  1.00  0.00    -0.035 N 
ATOM     12  H13 UNL     1     -23.922  39.007  19.017  1.00  0.00     0.278 HD
ATOM     13  H12 UNL     1     -23.160  40.354  18.853  1.00  0.00     0.278 HD
ATOM     14  H11 UNL     1     -23.451  39.811  20.416  1.00  0.00     0.278 HD
ATOM     15  H23 UNL     1     -24.959  41.208  17.507  1.00  0.00     0.278 HD
ATOM     16  H22 UNL     1     -25.721  39.861  17.672  1.00  0.00     0.278 HD
ATOM     17  H21 UNL     1     -26.523  41.269  18.118  1.00  0.00     0.278 HD
ENDBRANCH   5   8
ENDBRANCH   3   4
ENDBRANCH   2   3
ENDBRANCH   1   2
BRANCH   1  18
HETATM   18  C5  UNL     1     -30.170  42.137  22.534  1.00  0.00     0.147 C 
BRANCH  18  19
HETATM   19  N5  UNL     1     -30.699  42.541  23.845  1.00  0.00    -0.264 N 
HETATM   20  C6  UNL     1     -32.027  42.439  23.960  1.00  0.00     0.332 C 
HETATM   21  O2  UNL     1     -32.732  42.555  22.927  1.00  0.00    -0.246 OA
HETATM   22  N6  UNL     1     -32.754  42.218  25.090  1.00  0.00    -0.273 N 
HETATM   23  C7  UNL     1     -32.406  42.380  26.373  1.00  0.00     0.278 C 
ATOM     24  H6  UNL     1     -33.704  41.879  24.937  1.00  0.00     0.173 HD
HETATM   25  O3  UNL     1     -33.303  42.238  27.250  1.00  0.00    -0.265 OA
HETATM   26  C8  UNL     1     -31.147  42.689  26.844  1.00  0.00     0.134 A 
HETATM   27  N7  UNL     1     -30.878  42.793  28.150  1.00  0.00    -0.346 N 
HETATM   28  C10 UNL     1     -29.997  42.940  26.131  1.00  0.00     0.135 A 
HETATM   29  C9  UNL     1     -29.583  43.103  28.273  1.00  0.00     0.181 A 
ATOM     30  H7  UNL     1     -31.541  42.661  28.914  1.00  0.00     0.167 HD
HETATM   31  N8  UNL     1     -29.054  43.191  27.051  1.00  0.00    -0.346 N 
ATOM     32  H8  UNL     1     -28.080  43.416  26.848  1.00  0.00     0.167 HD
HETATM   33  C11 UNL     1     -29.817  42.938  24.762  1.00  0.00     0.281 C 
HETATM   34  O4  UNL     1     -28.716  43.352  24.360  1.00  0.00    -0.265 OA
ENDBRANCH  18  19
ENDBRANCH   1  18
TORSDOF 6
ENDMDL
MODEL 4
REMARK VINA RESULT: -6.338713739      3.021      4.707
REMARK  6 active torsions:
REMARK  status: ('A' for Active; 'I' for Inactive)
REMARK       I    between atoms: N1_1  and  C1_5 
REMARK       I    between atoms: C1_5  and  N2_6 
REMARK       I    between atoms: C1_5  and  N3_10 
REMARK    1  A    between atoms: N3_10  and  N4_11 
REMARK       I    between atoms: N4_11  and  C2_13 
REMARK    2  A    between atoms: C2_13  and  C3_15 
REMARK    3  A    between atoms: C3_15  and  S1_16 
REMARK    4  A    between atoms: S1_16  and  C4_17 
REMARK    5  A    between atoms: C4_17  and  C5_18 
REMARK    6  A    between atoms: C5_18  and  N5_19 
ROOT
HETATM    1  C4  UNL     1     -28.849  40.841  18.019  1.00  0.00     0.095 C 
ENDROOT
BRANCH   1   2
HETATM    2  S1  UNL     1     -27.604  41.852  17.256  1.00  0.00    -0.158 SA
BRANCH   2   3
HETATM    3  C3  UNL     1     -26.818  42.973  18.397  1.00  0.00     0.177 C 
BRANCH   3   4
HETATM    4  C2  UNL     1     -25.365  42.788  18.431  1.00  0.00     0.242 C 
HETATM    5  N4  UNL     1     -24.764  41.690  17.762  1.00  0.00    -0.270 N 
ATOM      6  H4  UNL     1     -25.353  41.029  17.256  1.00  0.00     0.185 HD
HETATM    7  O1  UNL     1     -24.628  43.590  19.049  1.00  0.00    -0.271 OA
BRANCH   5   8
HETATM    8  N3  UNL     1     -23.409  41.502  17.783  1.00  0.00    -0.078 NA
HETATM    9  C1  UNL     1     -23.050  40.156  18.213  1.00  0.00     0.490 C 
HETATM   10  N1  UNL     1     -21.611  40.092  18.281  1.00  0.00    -0.035 N 
HETATM   11  N2  UNL     1     -23.687  39.809  19.458  1.00  0.00    -0.035 N 
ATOM     12  H13 UNL     1     -21.256  40.668  19.045  1.00  0.00     0.278 HD
ATOM     13  H12 UNL     1     -21.302  39.176  18.606  1.00  0.00     0.278 HD
ATOM     14  H11 UNL     1     -21.159  40.338  17.401  1.00  0.00     0.278 HD
ATOM     15  H23 UNL     1     -23.378  38.892  19.783  1.00  0.00     0.278 HD
ATOM     16  H22 UNL     1     -23.332  40.384  20.222  1.00  0.00     0.278 HD
ATOM     17  H21 UNL     1     -24.705  39.854  19.411  1.00  0.00     0.278 HD
ENDBRANCH   5   8
ENDBRANCH   3   4
ENDBRANCH   2   3
ENDBRANCH   1   2
BRANCH   1  18
HETATM   18  C5  UNL     1     -28.366  39.712  18.875  1.00  0.00     0.147 C 
BRANCH  18  19
HETATM   19  N5  UNL     1     -28.716  40.046  20.263  1.00  0.00    -0.264 N 
HETATM   20  C6  UNL     1     -27.718  40.586  20.971  1.00  0.00     0.332 C 
HETATM   21  O2  UNL     1     -26.536  40.290  20.666  1.00  0.00    -0.246 OA
HETATM   22  N6  UNL     1     -27.807  41.449  22.020  1.00  0.00    -0.273 N 
HETATM   23  C7  UNL     1     -28.848  41.714  22.820  1.00  0.00     0.278 C 
ATOM     24  H6  UNL     1     -26.956  41.972  22.227  1.00  0.00     0.173 HD
HETATM   25  O3  UNL     1     -28.650  42.460  23.819  1.00  0.00    -0.265 OA
HETATM   26  C8  UNL     1     -30.137  41.249  22.662  1.00  0.00     0.134 A 
HETATM   27  N7  UNL     1     -31.128  41.597  23.490  1.00  0.00    -0.346 N 
HETATM   28  C10 UNL     1     -30.636  40.396  21.704  1.00  0.00     0.135 A 
HETATM   29  C9  UNL     1     -32.239  40.981  23.071  1.00  0.00     0.181 A 
ATOM     30  H7  UNL     1     -31.051  42.218  24.295  1.00  0.00     0.167 HD
HETATM   31  N8  UNL     1     -31.938  40.257  21.992  1.00  0.00    -0.346 N 
ATOM     32  H8  UNL     1     -32.598  39.684  21.466  1.00  0.00     0.167 HD
HETATM   33  C11 UNL     1     -29.966  39.798  20.654  1.00  0.00     0.281 C 
HETATM   34  O4  UNL     1     -30.608  38.943  20.019  1.00  0.00    -0.265 OA
ENDBRANCH  18  19
ENDBRANCH   1  18
TORSDOF 6
ENDMDL
MODEL 5
REMARK VINA RESULT: -6.107049049      3.825      7.451
REMARK  6 active torsions:
REMARK  status: ('A' for Active; 'I' for Inactive)
REMARK       I    between atoms: N1_1  and  C1_5 
REMARK       I    between atoms: C1_5  and  N2_6 
REMARK       I    between atoms: C1_5  and  N3_10 
REMARK    1  A    between atoms: N3_10  and  N4_11 
REMARK       I    between atoms: N4_11  and  C2_13 
REMARK    2  A    between atoms: C2_13  and  C3_15 
REMARK    3  A    between atoms: C3_15  and  S1_16 
REMARK    4  A    between atoms: S1_16  and  C4_17 
REMARK    5  A    between atoms: C4_17  and  C5_18 
REMARK    6  A    between atoms: C5_18  and  N5_19 
ROOT
HETATM    1  C4  UNL     1     -30.581  44.043  22.378  1.00  0.00     0.095 C 
ENDROOT
BRANCH   1   2
HETATM    2  S1  UNL     1     -30.823  45.039  23.829  1.00  0.00    -0.158 SA
BRANCH   2   3
HETATM    3  C3  UNL     1     -29.320  45.797  24.416  1.00  0.00     0.177 C 
BRANCH   3   4
HETATM    4  C2  UNL     1     -28.826  45.157  25.638  1.00  0.00     0.242 C 
HETATM    5  N4  UNL     1     -29.329  43.893  26.041  1.00  0.00    -0.270 N 
ATOM      6  H4  UNL     1     -30.040  43.432  25.473  1.00  0.00     0.185 HD
HETATM    7  O1  UNL     1     -27.955  45.710  26.346  1.00  0.00    -0.271 OA
BRANCH   5   8
HETATM    8  N3  UNL     1     -28.879  43.281  27.179  1.00  0.00    -0.078 NA
HETATM    9  C1  UNL     1     -29.971  42.740  27.979  1.00  0.00     0.490 C 
HETATM   10  N1  UNL     1     -29.396  42.197  29.185  1.00  0.00    -0.035 N 
HETATM   11  N2  UNL     1     -30.983  43.733  28.236  1.00  0.00    -0.035 N 
ATOM     12  H13 UNL     1     -29.034  42.940  29.784  1.00  0.00     0.278 HD
ATOM     13  H12 UNL     1     -30.122  41.828  29.800  1.00  0.00     0.278 HD
ATOM     14  H11 UNL     1     -28.680  41.494  29.004  1.00  0.00     0.278 HD
ATOM     15  H23 UNL     1     -31.709  43.364  28.851  1.00  0.00     0.278 HD
ATOM     16  H22 UNL     1     -30.621  44.476  28.835  1.00  0.00     0.278 HD
ATOM     17  H21 UNL     1     -31.389  44.118  27.384  1.00  0.00     0.278 HD
ENDBRANCH   5   8
ENDBRANCH   3   4
ENDBRANCH   2   3
ENDBRANCH   1   2
BRANCH   1  18
HETATM   18  C5  UNL     1     -29.395  43.130  22.379  1.00  0.00     0.147 C 
BRANCH  18  19
HETATM   19  N5  UNL     1     -29.904  41.766  22.177  1.00  0.00    -0.264 N 
HETATM   20  C6  UNL     1     -30.505  41.235  23.248  1.00  0.00     0.332 C 
HETATM   21  O2  UNL     1     -30.148  41.619  24.390  1.00  0.00    -0.246 OA
HETATM   22  N6  UNL     1     -31.492  40.297  23.274  1.00  0.00    -0.273 N 
HETATM   23  C7  UNL     1     -31.874  39.435  22.324  1.00  0.00     0.278 C 
ATOM     24  H6  UNL     1     -32.018  40.244  24.146  1.00  0.00     0.173 HD
HETATM   25  O3  UNL     1     -32.732  38.562  22.630  1.00  0.00    -0.265 OA
HETATM   26  C8  UNL     1     -31.421  39.403  21.021  1.00  0.00     0.134 A 
HETATM   27  N7  UNL     1     -31.888  38.529  20.123  1.00  0.00    -0.346 N 
HETATM   28  C10 UNL     1     -30.468  40.193  20.419  1.00  0.00     0.135 A 
HETATM   29  C9  UNL     1     -31.250  38.754  18.970  1.00  0.00     0.181 A 
ATOM     30  H7  UNL     1     -32.601  37.819  20.289  1.00  0.00     0.167 HD
HETATM   31  N8  UNL     1     -30.392  39.760  19.153  1.00  0.00    -0.346 N 
ATOM     32  H8  UNL     1     -29.774  40.142  18.437  1.00  0.00     0.167 HD
HETATM   33  C11 UNL     1     -29.732  41.223  20.972  1.00  0.00     0.281 C 
HETATM   34  O4  UNL     1     -28.820  41.679  20.261  1.00  0.00    -0.265 OA
ENDBRANCH  18  19
ENDBRANCH   1  18
TORSDOF 6
ENDMDL
