MODEL 1
REMARK VINA RESULT: -8.941490146      0.000      0.000
REMARK  7 active torsions:
REMARK  status: ('A' for Active; 'I' for Inactive)
REMARK    1  A    between atoms: C2_2  and  C3_3 
REMARK    2  A    between atoms: C3_3  and  N2_7 
REMARK    3  A    between atoms: N2_7  and  C4_9 
REMARK    4  A    between atoms: N3_13  and  S1_14 
REMARK    5  A    between atoms: S1_14  and  C8_17 
REMARK    6  A    between atoms: C11_20  and  N4_21 
REMARK    7  A    between atoms: C14_24  and  N5_25 
ROOT
HETATM    1  C8  UNL     1       9.495  25.208   6.900  1.00  0.00     0.074 A 
HETATM    2  C9  UNL     1       9.377  23.851   7.106  1.00  0.00     0.027 A 
HETATM    3  C10 UNL     1      10.372  23.012   6.614  1.00  0.00     0.031 A 
HETATM    4  C11 UNL     1      11.474  23.462   5.930  1.00  0.00     0.030 A 
HETATM    5  C22 UNL     1      11.536  24.848   5.752  1.00  0.00     0.031 A 
HETATM    6  C23 UNL     1      10.578  25.715   6.221  1.00  0.00     0.027 A 
ENDROOT
BRANCH   1   7
HETATM    7  S1  UNL     1       8.267  26.284   7.496  1.00  0.00     0.245 S 
HETATM    8  O1  UNL     1       7.834  25.930   8.883  1.00  0.00    -0.206 OA
HETATM    9  O2  UNL     1       8.904  27.663   7.595  1.00  0.00    -0.206 OA
BRANCH   7  10
HETATM   10  N3  UNL     1       6.909  26.432   6.487  1.00  0.00    -0.186 NA
HETATM   11  C7  UNL     1       6.260  27.720   6.578  1.00  0.00     0.109 C 
HETATM   12  C6  UNL     1       4.796  27.498   6.256  1.00  0.00     0.018 C 
HETATM   13  C5  UNL     1       4.615  26.224   5.481  1.00  0.00     0.029 C 
HETATM   14  C4  UNL     1       5.731  26.019   4.477  1.00  0.00     0.116 C 
HETATM   15  C24 UNL     1       7.109  26.103   5.113  1.00  0.00     0.193 C 
HETATM   16 CL1  UNL     1       7.984  27.416   4.247  1.00  0.00    -0.105 Cl
BRANCH  14  17
HETATM   17  N2  UNL     1       5.596  24.738   3.848  1.00  0.00    -0.373 N 
ATOM     18  H2  UNL     1       4.864  24.115   4.189  1.00  0.00     0.161 HD
BRANCH  17  19
HETATM   19  C3  UNL     1       6.413  24.275   2.780  1.00  0.00     0.070 C 
HETATM   20  N1  UNL     1       6.531  24.916   1.668  1.00  0.00    -0.389 N 
ATOM     21  H12 UNL     1       7.116  24.584   0.901  1.00  0.00     0.157 HD
ATOM     22  H11 UNL     1       6.010  25.787   1.564  1.00  0.00     0.157 HD
BRANCH  19  23
HETATM   23  C2  UNL     1       7.170  23.009   2.931  1.00  0.00     0.071 C 
HETATM   24  C1  UNL     1       8.631  23.370   3.163  1.00  0.00     0.013 C 
ENDBRANCH  19  23
ENDBRANCH  17  19
ENDBRANCH  14  17
ENDBRANCH   7  10
ENDBRANCH   1   7
BRANCH   4  25
HETATM   25  N4  UNL     1      12.505  22.618   5.430  1.00  0.00    -0.381 N 
HETATM   26  C12 UNL     1      13.272  21.773   6.294  1.00  0.00     0.125 C 
HETATM   27  C13 UNL     1      13.305  20.391   5.621  1.00  0.00     0.045 C 
HETATM   28  C14 UNL     1      14.122  20.608   4.358  1.00  0.00     0.086 C 
HETATM   29  C20 UNL     1      13.476  21.542   3.410  1.00  0.00     0.045 C 
HETATM   30  C21 UNL     1      12.725  22.668   3.999  1.00  0.00     0.125 C 
BRANCH  28  31
HETATM   31  N5  UNL     1      14.361  19.344   3.764  1.00  0.00    -0.389 N 
HETATM   32  C15 UNL     1      14.255  18.229   4.622  1.00  0.00     0.122 C 
HETATM   33  C16 UNL     1      14.919  16.978   4.211  1.00  0.00     0.020 C 
HETATM   34  C17 UNL     1      16.232  17.301   3.527  1.00  0.00     0.007 C 
HETATM   35  C18 UNL     1      15.815  18.032   2.244  1.00  0.00     0.044 C 
HETATM   36  C19 UNL     1      15.036  19.275   2.563  1.00  0.00     0.058 C 
ENDBRANCH  28  31
ENDBRANCH   4  25
TORSDOF 7
ENDMDL
MODEL 2
REMARK VINA RESULT: -8.924326206      0.954      1.083
REMARK  7 active torsions:
REMARK  status: ('A' for Active; 'I' for Inactive)
REMARK    1  A    between atoms: C2_2  and  C3_3 
REMARK    2  A    between atoms: C3_3  and  N2_7 
REMARK    3  A    between atoms: N2_7  and  C4_9 
REMARK    4  A    between atoms: N3_13  and  S1_14 
REMARK    5  A    between atoms: S1_14  and  C8_17 
REMARK    6  A    between atoms: C11_20  and  N4_21 
REMARK    7  A    between atoms: C14_24  and  N5_25 
ROOT
HETATM    1  C8  UNL     1       9.848  24.889   6.796  1.00  0.00     0.074 A 
HETATM    2  C9  UNL     1       9.671  23.524   6.734  1.00  0.00     0.027 A 
HETATM    3  C10 UNL     1      10.627  22.756   6.078  1.00  0.00     0.031 A 
HETATM    4  C11 UNL     1      11.747  23.283   5.484  1.00  0.00     0.030 A 
HETATM    5  C22 UNL     1      11.870  24.673   5.580  1.00  0.00     0.031 A 
HETATM    6  C23 UNL     1      10.951  25.473   6.218  1.00  0.00     0.027 A 
ENDROOT
BRANCH   1   7
HETATM    7  S1  UNL     1       8.669  25.879   7.602  1.00  0.00     0.245 S 
HETATM    8  O1  UNL     1       8.236  25.289   8.906  1.00  0.00    -0.206 OA
HETATM    9  O2  UNL     1       9.360  27.191   7.946  1.00  0.00    -0.206 OA
BRANCH   7  10
HETATM   10  N3  UNL     1       7.309  26.262   6.662  1.00  0.00    -0.186 NA
HETATM   11  C7  UNL     1       6.811  27.602   6.885  1.00  0.00     0.109 C 
HETATM   12  C6  UNL     1       5.322  27.569   6.602  1.00  0.00     0.018 C 
HETATM   13  C5  UNL     1       4.977  26.396   5.730  1.00  0.00     0.029 C 
HETATM   14  C4  UNL     1       6.035  26.159   4.670  1.00  0.00     0.116 C 
HETATM   15  C24 UNL     1       7.431  26.036   5.258  1.00  0.00     0.193 C 
HETATM   16 CL1  UNL     1       8.423  27.316   4.473  1.00  0.00    -0.105 Cl
BRANCH  14  17
HETATM   17  N2  UNL     1       5.739  24.961   3.941  1.00  0.00    -0.373 N 
ATOM     18  H2  UNL     1       4.928  24.415   4.233  1.00  0.00     0.161 HD
BRANCH  17  19
HETATM   19  C3  UNL     1       6.498  24.481   2.839  1.00  0.00     0.070 C 
HETATM   20  N1  UNL     1       6.639  25.152   1.748  1.00  0.00    -0.389 N 
ATOM     21  H12 UNL     1       7.183  24.808   0.957  1.00  0.00     0.157 HD
ATOM     22  H11 UNL     1       6.180  26.061   1.687  1.00  0.00     0.157 HD
BRANCH  19  23
HETATM   23  C2  UNL     1       7.165  23.159   2.928  1.00  0.00     0.071 C 
HETATM   24  C1  UNL     1       8.669  23.400   2.923  1.00  0.00     0.013 C 
ENDBRANCH  19  23
ENDBRANCH  17  19
ENDBRANCH  14  17
ENDBRANCH   7  10
ENDBRANCH   1   7
BRANCH   4  25
HETATM   25  N4  UNL     1      12.739  22.510   4.819  1.00  0.00    -0.381 N 
HETATM   26  C12 UNL     1      14.137  22.770   4.990  1.00  0.00     0.125 C 
HETATM   27  C13 UNL     1      14.797  21.406   5.250  1.00  0.00     0.045 C 
HETATM   28  C14 UNL     1      14.633  20.653   3.940  1.00  0.00     0.086 C 
HETATM   29  C20 UNL     1      13.217  20.397   3.598  1.00  0.00     0.045 C 
HETATM   30  C21 UNL     1      12.247  21.448   3.966  1.00  0.00     0.125 C 
BRANCH  28  31
HETATM   31  N5  UNL     1      15.375  19.449   4.027  1.00  0.00    -0.389 N 
HETATM   32  C15 UNL     1      16.628  19.542   4.668  1.00  0.00     0.122 C 
HETATM   33  C16 UNL     1      17.621  18.486   4.395  1.00  0.00     0.020 C 
HETATM   34  C17 UNL     1      17.529  18.066   2.942  1.00  0.00     0.007 C 
HETATM   35  C18 UNL     1      16.141  17.420   2.826  1.00  0.00     0.044 C 
HETATM   36  C19 UNL     1      15.062  18.398   3.190  1.00  0.00     0.058 C 
ENDBRANCH  28  31
ENDBRANCH   4  25
TORSDOF 7
ENDMDL
MODEL 3
REMARK VINA RESULT: -8.889856076      1.692      2.062
REMARK  7 active torsions:
REMARK  status: ('A' for Active; 'I' for Inactive)
REMARK    1  A    between atoms: C2_2  and  C3_3 
REMARK    2  A    between atoms: C3_3  and  N2_7 
REMARK    3  A    between atoms: N2_7  and  C4_9 
REMARK    4  A    between atoms: N3_13  and  S1_14 
REMARK    5  A    between atoms: S1_14  and  C8_17 
REMARK    6  A    between atoms: C11_20  and  N4_21 
REMARK    7  A    between atoms: C14_24  and  N5_25 
ROOT
HETATM    1  C8  UNL     1      10.041  24.135   7.702  1.00  0.00     0.074 A 
HETATM    2  C9  UNL     1      11.318  24.455   8.109  1.00  0.00     0.027 A 
HETATM    3  C10 UNL     1      12.394  23.838   7.479  1.00  0.00     0.031 A 
HETATM    4  C11 UNL     1      12.255  22.922   6.466  1.00  0.00     0.030 A 
HETATM    5  C22 UNL     1      10.935  22.639   6.098  1.00  0.00     0.031 A 
HETATM    6  C23 UNL     1       9.842  23.224   6.692  1.00  0.00     0.027 A 
ENDROOT
BRANCH   1   7
HETATM    7  S1  UNL     1       8.675  24.883   8.474  1.00  0.00     0.245 S 
HETATM    8  O1  UNL     1       7.811  23.886   9.179  1.00  0.00    -0.206 OA
HETATM    9  O2  UNL     1       9.230  25.797   9.557  1.00  0.00    -0.206 OA
BRANCH   7  10
HETATM   10  N3  UNL     1       7.725  25.845   7.447  1.00  0.00    -0.186 NA
HETATM   11  C7  UNL     1       6.570  26.421   8.100  1.00  0.00     0.109 C 
HETATM   12  C6  UNL     1       5.509  26.604   7.033  1.00  0.00     0.018 C 
HETATM   13  C5  UNL     1       6.135  26.637   5.668  1.00  0.00     0.029 C 
HETATM   14  C4  UNL     1       7.450  27.390   5.675  1.00  0.00     0.116 C 
HETATM   15  C24 UNL     1       8.414  26.866   6.727  1.00  0.00     0.193 C 
HETATM   16 CL1  UNL     1       8.808  28.264   7.790  1.00  0.00    -0.105 Cl
BRANCH  14  17
HETATM   17  N2  UNL     1       8.079  27.293   4.391  1.00  0.00    -0.373 N 
ATOM     18  H2  UNL     1       8.751  28.015   4.135  1.00  0.00     0.161 HD
BRANCH  17  19
HETATM   19  C3  UNL     1       7.829  26.257   3.448  1.00  0.00     0.070 C 
HETATM   20  N1  UNL     1       7.154  26.450   2.367  1.00  0.00    -0.389 N 
ATOM     21  H12 UNL     1       6.975  25.708   1.692  1.00  0.00     0.157 HD
ATOM     22  H11 UNL     1       6.790  27.388   2.196  1.00  0.00     0.157 HD
BRANCH  19  23
HETATM   23  C2  UNL     1       8.359  24.895   3.698  1.00  0.00     0.071 C 
HETATM   24  C1  UNL     1       9.171  24.485   2.477  1.00  0.00     0.013 C 
ENDBRANCH  19  23
ENDBRANCH  17  19
ENDBRANCH  14  17
ENDBRANCH   7  10
ENDBRANCH   1   7
BRANCH   4  25
HETATM   25  N4  UNL     1      13.345  22.290   5.803  1.00  0.00    -0.381 N 
HETATM   26  C12 UNL     1      14.576  22.007   6.478  1.00  0.00     0.125 C 
HETATM   27  C13 UNL     1      14.930  20.553   6.129  1.00  0.00     0.045 C 
HETATM   28  C14 UNL     1      15.228  20.586   4.638  1.00  0.00     0.086 C 
HETATM   29  C20 UNL     1      14.049  20.957   3.825  1.00  0.00     0.045 C 
HETATM   30  C21 UNL     1      13.129  21.952   4.411  1.00  0.00     0.125 C 
BRANCH  28  31
HETATM   31  N5  UNL     1      15.743  19.321   4.262  1.00  0.00    -0.389 N 
HETATM   32  C15 UNL     1      17.100  19.090   4.575  1.00  0.00     0.122 C 
HETATM   33  C16 UNL     1      17.807  18.031   3.831  1.00  0.00     0.020 C 
HETATM   34  C17 UNL     1      17.337  18.022   2.391  1.00  0.00     0.007 C 
HETATM   35  C18 UNL     1      15.864  17.602   2.480  1.00  0.00     0.044 C 
HETATM   36  C19 UNL     1      15.078  18.572   3.313  1.00  0.00     0.058 C 
ENDBRANCH  28  31
ENDBRANCH   4  25
TORSDOF 7
ENDMDL
MODEL 4
REMARK VINA RESULT: -8.845374347      1.005      1.440
REMARK  7 active torsions:
REMARK  status: ('A' for Active; 'I' for Inactive)
REMARK    1  A    between atoms: C2_2  and  C3_3 
REMARK    2  A    between atoms: C3_3  and  N2_7 
REMARK    3  A    between atoms: N2_7  and  C4_9 
REMARK    4  A    between atoms: N3_13  and  S1_14 
REMARK    5  A    between atoms: S1_14  and  C8_17 
REMARK    6  A    between atoms: C11_20  and  N4_21 
REMARK    7  A    between atoms: C14_24  and  N5_25 
ROOT
HETATM    1  C8  UNL     1       9.560  25.284   7.349  1.00  0.00     0.074 A 
HETATM    2  C9  UNL     1      10.869  25.461   7.739  1.00  0.00     0.027 A 
HETATM    3  C10 UNL     1      11.801  24.480   7.414  1.00  0.00     0.031 A 
HETATM    4  C11 UNL     1      11.489  23.338   6.720  1.00  0.00     0.030 A 
HETATM    5  C22 UNL     1      10.145  23.216   6.352  1.00  0.00     0.031 A 
HETATM    6  C23 UNL     1       9.189  24.158   6.651  1.00  0.00     0.027 A 
ENDROOT
BRANCH   1   7
HETATM    7  S1  UNL     1       8.369  26.486   7.745  1.00  0.00     0.245 S 
HETATM    8  O1  UNL     1       7.875  26.348   9.149  1.00  0.00    -0.206 OA
HETATM    9  O2  UNL     1       9.070  27.836   7.678  1.00  0.00    -0.206 OA
BRANCH   7  10
HETATM   10  N3  UNL     1       7.053  26.554   6.674  1.00  0.00    -0.186 NA
HETATM   11  C7  UNL     1       6.353  27.819   6.699  1.00  0.00     0.109 C 
HETATM   12  C6  UNL     1       4.914  27.532   6.321  1.00  0.00     0.018 C 
HETATM   13  C5  UNL     1       4.814  26.231   5.576  1.00  0.00     0.029 C 
HETATM   14  C4  UNL     1       5.981  26.041   4.628  1.00  0.00     0.116 C 
HETATM   15  C24 UNL     1       7.325  26.196   5.320  1.00  0.00     0.193 C 
HETATM   16 CL1  UNL     1       8.189  27.516   4.454  1.00  0.00    -0.105 Cl
BRANCH  14  17
HETATM   17  N2  UNL     1       5.921  24.739   4.031  1.00  0.00    -0.373 N 
ATOM     18  H2  UNL     1       5.298  24.051   4.454  1.00  0.00     0.161 HD
BRANCH  17  19
HETATM   19  C3  UNL     1       6.671  24.341   2.890  1.00  0.00     0.070 C 
HETATM   20  N1  UNL     1       6.460  24.829   1.716  1.00  0.00    -0.389 N 
ATOM     21  H12 UNL     1       6.997  24.543   0.898  1.00  0.00     0.157 HD
ATOM     22  H11 UNL     1       5.722  25.526   1.616  1.00  0.00     0.157 HD
BRANCH  19  23
HETATM   23  C2  UNL     1       7.744  23.328   3.035  1.00  0.00     0.071 C 
HETATM   24  C1  UNL     1       9.073  24.023   2.767  1.00  0.00     0.013 C 
ENDBRANCH  19  23
ENDBRANCH  17  19
ENDBRANCH  14  17
ENDBRANCH   7  10
ENDBRANCH   1   7
BRANCH   4  25
HETATM   25  N4  UNL     1      12.432  22.331   6.370  1.00  0.00    -0.381 N 
HETATM   26  C12 UNL     1      12.021  21.024   5.955  1.00  0.00     0.125 C 
HETATM   27  C13 UNL     1      12.836  20.701   4.692  1.00  0.00     0.045 C 
HETATM   28  C14 UNL     1      14.268  20.588   5.188  1.00  0.00     0.086 C 
HETATM   29  C20 UNL     1      14.789  21.862   5.731  1.00  0.00     0.045 C 
HETATM   30  C21 UNL     1      13.827  22.713   6.459  1.00  0.00     0.125 C 
BRANCH  28  31
HETATM   31  N5  UNL     1      15.069  20.111   4.121  1.00  0.00    -0.389 N 
HETATM   32  C15 UNL     1      14.418  19.967   2.877  1.00  0.00     0.122 C 
HETATM   33  C16 UNL     1      15.031  19.072   1.879  1.00  0.00     0.020 C 
HETATM   34  C17 UNL     1      15.631  17.869   2.576  1.00  0.00     0.007 C 
HETATM   35  C18 UNL     1      16.774  18.454   3.417  1.00  0.00     0.044 C 
HETATM   36  C19 UNL     1      16.255  19.463   4.400  1.00  0.00     0.058 C 
ENDBRANCH  28  31
ENDBRANCH   4  25
TORSDOF 7
ENDMDL
MODEL 5
REMARK VINA RESULT: -8.830792964      1.294      1.649
REMARK  7 active torsions:
REMARK  status: ('A' for Active; 'I' for Inactive)
REMARK    1  A    between atoms: C2_2  and  C3_3 
REMARK    2  A    between atoms: C3_3  and  N2_7 
REMARK    3  A    between atoms: N2_7  and  C4_9 
REMARK    4  A    between atoms: N3_13  and  S1_14 
REMARK    5  A    between atoms: S1_14  and  C8_17 
REMARK    6  A    between atoms: C11_20  and  N4_21 
REMARK    7  A    between atoms: C14_24  and  N5_25 
ROOT
HETATM    1  C8  UNL     1       9.927  24.483   7.576  1.00  0.00     0.074 A 
HETATM    2  C9  UNL     1      11.191  24.973   7.821  1.00  0.00     0.027 A 
HETATM    3  C10 UNL     1      12.280  24.329   7.243  1.00  0.00     0.031 A 
HETATM    4  C11 UNL     1      12.166  23.226   6.433  1.00  0.00     0.030 A 
HETATM    5  C22 UNL     1      10.859  22.777   6.223  1.00  0.00     0.031 A 
HETATM    6  C23 UNL     1       9.753  23.380   6.773  1.00  0.00     0.027 A 
ENDROOT
BRANCH   1   7
HETATM    7  S1  UNL     1       8.545  25.260   8.289  1.00  0.00     0.245 S 
HETATM    8  O1  UNL     1       7.743  24.319   9.132  1.00  0.00    -0.206 OA
HETATM    9  O2  UNL     1       9.081  26.320   9.241  1.00  0.00    -0.206 OA
BRANCH   7  10
HETATM   10  N3  UNL     1       7.530  26.050   7.181  1.00  0.00    -0.186 NA
HETATM   11  C7  UNL     1       7.422  27.473   7.411  1.00  0.00     0.109 C 
HETATM   12  C6  UNL     1       6.057  27.897   6.906  1.00  0.00     0.018 C 
HETATM   13  C5  UNL     1       5.527  26.895   5.919  1.00  0.00     0.029 C 
HETATM   14  C4  UNL     1       6.624  26.366   5.018  1.00  0.00     0.116 C 
HETATM   15  C24 UNL     1       7.807  25.819   5.801  1.00  0.00     0.193 C 
HETATM   16 CL1  UNL     1       9.247  26.751   5.256  1.00  0.00    -0.105 Cl
BRANCH  14  17
HETATM   17  N2  UNL     1       6.111  25.324   4.178  1.00  0.00    -0.373 N 
ATOM     18  H2  UNL     1       5.104  25.158   4.190  1.00  0.00     0.161 HD
BRANCH  17  19
HETATM   19  C3  UNL     1       6.907  24.507   3.330  1.00  0.00     0.070 C 
HETATM   20  N1  UNL     1       6.886  23.220   3.387  1.00  0.00    -0.389 N 
ATOM     21  H12 UNL     1       7.458  22.633   2.779  1.00  0.00     0.157 HD
ATOM     22  H11 UNL     1       6.270  22.784   4.074  1.00  0.00     0.157 HD
BRANCH  19  23
HETATM   23  C2  UNL     1       7.803  25.140   2.332  1.00  0.00     0.071 C 
HETATM   24  C1  UNL     1       9.167  24.473   2.448  1.00  0.00     0.013 C 
ENDBRANCH  19  23
ENDBRANCH  17  19
ENDBRANCH  14  17
ENDBRANCH   7  10
ENDBRANCH   1   7
BRANCH   4  25
HETATM   25  N4  UNL     1      13.269  22.563   5.825  1.00  0.00    -0.381 N 
HETATM   26  C12 UNL     1      14.417  22.161   6.580  1.00  0.00     0.125 C 
HETATM   27  C13 UNL     1      14.711  20.709   6.170  1.00  0.00     0.045 C 
HETATM   28  C14 UNL     1      15.139  20.808   4.715  1.00  0.00     0.086 C 
HETATM   29  C20 UNL     1      14.059  21.303   3.832  1.00  0.00     0.045 C 
HETATM   30  C21 UNL     1      13.154  22.321   4.401  1.00  0.00     0.125 C 
BRANCH  28  31
HETATM   31  N5  UNL     1      15.607  19.535   4.303  1.00  0.00    -0.389 N 
HETATM   32  C15 UNL     1      16.954  19.246   4.608  1.00  0.00     0.122 C 
HETATM   33  C16 UNL     1      17.621  18.182   3.835  1.00  0.00     0.020 C 
HETATM   34  C17 UNL     1      17.150  18.230   2.395  1.00  0.00     0.007 C 
HETATM   35  C18 UNL     1      15.662  17.862   2.475  1.00  0.00     0.044 C 
HETATM   36  C19 UNL     1      14.914  18.838   3.335  1.00  0.00     0.058 C 
ENDBRANCH  28  31
ENDBRANCH   4  25
TORSDOF 7
ENDMDL
