MODEL 1
REMARK VINA RESULT: -9.771117586      0.000      0.000
REMARK  7 active torsions:
REMARK  status: ('A' for Active; 'I' for Inactive)
REMARK       I    between atoms: C1_2  and  N1_3 
REMARK       I    between atoms: C1_2  and  N6_33 
REMARK    1  A    between atoms: N1_3  and  C2_5 
REMARK    2  A    between atoms: C7_13  and  N3_14 
REMARK    3  A    between atoms: C10_17  and  C11_18 
REMARK    4  A    between atoms: C11_18  and  C12_19 
REMARK    5  A    between atoms: C12_19  and  N4_20 
REMARK    6  A    between atoms: N5_23  and  C15_24 
REMARK    7  A    between atoms: N6_33  and  C23_35 
ROOT
HETATM    1  C2  UNL     1       7.317  25.895   4.434  1.00  0.00     0.153 A 
HETATM    2  N2  UNL     1       7.144  24.901   3.564  1.00  0.00    -0.335 N 
ATOM      3  H2  UNL     1       6.336  24.886   2.943  1.00  0.00     0.168 HD
HETATM    4  C3  UNL     1       8.044  23.936   3.524  1.00  0.00     0.053 A 
HETATM    5  C4  UNL     1       8.023  22.814   2.673  1.00  0.00     0.034 A 
HETATM    6  C5  UNL     1       9.030  21.889   2.743  1.00  0.00     0.047 A 
HETATM    7  C6  UNL     1      10.100  21.965   3.606  1.00  0.00     0.144 A 
HETATM    8  F1  UNL     1      11.101  21.075   3.695  1.00  0.00    -0.204 F 
HETATM    9  C7  UNL     1      10.119  23.061   4.437  1.00  0.00     0.089 A 
HETATM   10  C22 UNL     1       9.099  24.021   4.384  1.00  0.00     0.064 A 
HETATM   11  S1  UNL     1       8.774  25.472   5.218  1.00  0.00    -0.049 SA
ENDROOT
BRANCH   9  12
HETATM   12  N3  UNL     1      11.141  23.313   5.386  1.00  0.00    -0.377 N 
HETATM   13  C8  UNL     1      10.935  22.796   6.728  1.00  0.00     0.123 C 
HETATM   14  C9  UNL     1      12.098  23.137   7.611  1.00  0.00     0.024 C 
HETATM   15  C10 UNL     1      13.377  22.735   6.907  1.00  0.00    -0.010 C 
HETATM   16  C20 UNL     1      13.597  23.455   5.619  1.00  0.00     0.024 C 
HETATM   17  C21 UNL     1      12.340  24.052   5.043  1.00  0.00     0.123 C 
BRANCH  15  18
HETATM   18  C11 UNL     1      13.405  21.245   6.825  1.00  0.00     0.035 C 
BRANCH  18  19
HETATM   19  C12 UNL     1      14.766  20.630   7.001  1.00  0.00     0.273 C 
BRANCH  19  20
HETATM   20  N4  UNL     1      15.536  20.511   5.804  1.00  0.00     0.091 N 
HETATM   21  C13 UNL     1      16.675  19.651   5.877  1.00  0.00     0.302 C 
HETATM   22  C14 UNL     1      16.855  18.981   4.521  1.00  0.00     0.303 C 
HETATM   23  N5  UNL     1      15.823  18.020   4.288  1.00  0.00     0.096 N 
HETATM   24  C18 UNL     1      14.571  18.543   4.790  1.00  0.00     0.303 C 
HETATM   25  C19 UNL     1      14.653  20.051   4.752  1.00  0.00     0.302 C 
BRANCH  23  26
HETATM   26  C15 UNL     1      15.711  17.582   2.932  1.00  0.00     0.223 A 
HETATM   27  C16 UNL     1      16.246  18.417   1.826  1.00  0.00     0.038 A 
HETATM   28  C17 UNL     1      16.867  17.076   2.148  1.00  0.00     0.038 A 
ENDBRANCH  23  26
ENDBRANCH  19  20
ENDBRANCH  18  19
ENDBRANCH  15  18
ENDBRANCH   9  12
BRANCH   1  29
HETATM   29  N1  UNL     1       6.547  26.943   4.625  1.00  0.00    -0.289 N 
HETATM   30  C1  UNL     1       5.875  27.095   5.867  1.00  0.00     0.322 C 
HETATM   31  O1  UNL     1       6.439  27.754   6.792  1.00  0.00    -0.247 OA
HETATM   32  N6  UNL     1       4.603  26.548   6.125  1.00  0.00    -0.338 N 
ATOM     33  H6  UNL     1       4.127  26.017   5.396  1.00  0.00     0.164 HD
ATOM     34  H1  UNL     1       6.434  27.640   3.889  1.00  0.00     0.172 HD
BRANCH  32  35
HETATM   35  C23 UNL     1       3.968  26.728   7.399  1.00  0.00     0.086 A 
HETATM   36  C24 UNL     1       2.534  26.338   7.584  1.00  0.00     0.027 A 
HETATM   37  C25 UNL     1       2.842  27.772   7.480  1.00  0.00     0.027 A 
ENDBRANCH  32  35
ENDBRANCH   1  29
TORSDOF 7
ENDMDL
MODEL 2
REMARK VINA RESULT: -9.561676753      2.710      3.604
REMARK  7 active torsions:
REMARK  status: ('A' for Active; 'I' for Inactive)
REMARK       I    between atoms: C1_2  and  N1_3 
REMARK       I    between atoms: C1_2  and  N6_33 
REMARK    1  A    between atoms: N1_3  and  C2_5 
REMARK    2  A    between atoms: C7_13  and  N3_14 
REMARK    3  A    between atoms: C10_17  and  C11_18 
REMARK    4  A    between atoms: C11_18  and  C12_19 
REMARK    5  A    between atoms: C12_19  and  N4_20 
REMARK    6  A    between atoms: N5_23  and  C15_24 
REMARK    7  A    between atoms: N6_33  and  C23_35 
ROOT
HETATM    1  C2  UNL     1       7.667  25.334   4.262  1.00  0.00     0.153 A 
HETATM    2  N2  UNL     1       7.295  26.062   5.314  1.00  0.00    -0.335 N 
ATOM      3  H2  UNL     1       6.399  26.548   5.320  1.00  0.00     0.168 HD
HETATM    4  C3  UNL     1       8.113  26.138   6.347  1.00  0.00     0.053 A 
HETATM    5  C4  UNL     1       7.884  26.858   7.536  1.00  0.00     0.034 A 
HETATM    6  C5  UNL     1       8.827  26.845   8.529  1.00  0.00     0.047 A 
HETATM    7  C6  UNL     1      10.022  26.166   8.461  1.00  0.00     0.144 A 
HETATM    8  F1  UNL     1      10.963  26.135   9.418  1.00  0.00    -0.204 F 
HETATM    9  C7  UNL     1      10.245  25.465   7.299  1.00  0.00     0.089 A 
HETATM   10  C22 UNL     1       9.294  25.463   6.268  1.00  0.00     0.064 A 
HETATM   11  S1  UNL     1       9.200  24.740   4.727  1.00  0.00    -0.049 SA
ENDROOT
BRANCH   9  12
HETATM   12  N3  UNL     1      11.412  24.702   7.050  1.00  0.00    -0.377 N 
HETATM   13  C8  UNL     1      11.529  23.432   7.745  1.00  0.00     0.123 C 
HETATM   14  C9  UNL     1      12.810  22.743   7.378  1.00  0.00     0.024 C 
HETATM   15  C10 UNL     1      12.929  22.715   5.869  1.00  0.00    -0.010 C 
HETATM   16  C20 UNL     1      12.987  24.072   5.253  1.00  0.00     0.024 C 
HETATM   17  C21 UNL     1      12.448  25.159   6.145  1.00  0.00     0.123 C 
BRANCH  15  18
HETATM   18  C11 UNL     1      11.864  21.813   5.341  1.00  0.00     0.035 C 
BRANCH  18  19
HETATM   19  C12 UNL     1      12.346  20.771   4.369  1.00  0.00     0.273 C 
BRANCH  19  20
HETATM   20  N4  UNL     1      13.657  20.265   4.624  1.00  0.00     0.091 N 
HETATM   21  C13 UNL     1      13.756  18.851   4.802  1.00  0.00     0.302 C 
HETATM   22  C14 UNL     1      15.093  18.391   4.236  1.00  0.00     0.303 C 
HETATM   23  N5  UNL     1      15.095  18.469   2.808  1.00  0.00     0.096 N 
HETATM   24  C18 UNL     1      14.396  19.668   2.403  1.00  0.00     0.303 C 
HETATM   25  C19 UNL     1      14.511  20.672   3.525  1.00  0.00     0.302 C 
BRANCH  23  26
HETATM   26  C15 UNL     1      16.388  18.377   2.207  1.00  0.00     0.223 A 
HETATM   27  C16 UNL     1      17.558  17.932   3.006  1.00  0.00     0.038 A 
HETATM   28  C17 UNL     1      17.033  17.082   1.870  1.00  0.00     0.038 A 
ENDBRANCH  23  26
ENDBRANCH  19  20
ENDBRANCH  18  19
ENDBRANCH  15  18
ENDBRANCH   9  12
BRANCH   1  29
HETATM   29  N1  UNL     1       7.002  25.127   3.147  1.00  0.00    -0.289 N 
HETATM   30  C1  UNL     1       5.599  24.911   3.204  1.00  0.00     0.322 C 
HETATM   31  O1  UNL     1       4.821  25.906   3.095  1.00  0.00    -0.247 OA
HETATM   32  N6  UNL     1       5.025  23.636   3.375  1.00  0.00    -0.338 N 
ATOM     33  H6  UNL     1       5.629  22.819   3.461  1.00  0.00     0.164 HD
ATOM     34  H1  UNL     1       7.488  25.123   2.251  1.00  0.00     0.172 HD
BRANCH  32  35
HETATM   35  C23 UNL     1       3.600  23.471   3.429  1.00  0.00     0.086 A 
HETATM   36  C24 UNL     1       2.900  23.425   4.753  1.00  0.00     0.027 A 
HETATM   37  C25 UNL     1       3.069  22.158   4.027  1.00  0.00     0.027 A 
ENDBRANCH  32  35
ENDBRANCH   1  29
TORSDOF 7
ENDMDL
MODEL 3
REMARK VINA RESULT: -9.556943565      3.705     10.695
REMARK  7 active torsions:
REMARK  status: ('A' for Active; 'I' for Inactive)
REMARK       I    between atoms: C1_2  and  N1_3 
REMARK       I    between atoms: C1_2  and  N6_33 
REMARK    1  A    between atoms: N1_3  and  C2_5 
REMARK    2  A    between atoms: C7_13  and  N3_14 
REMARK    3  A    between atoms: C10_17  and  C11_18 
REMARK    4  A    between atoms: C11_18  and  C12_19 
REMARK    5  A    between atoms: C12_19  and  N4_20 
REMARK    6  A    between atoms: N5_23  and  C15_24 
REMARK    7  A    between atoms: N6_33  and  C23_35 
ROOT
HETATM    1  C2  UNL     1      16.409  19.465   6.993  1.00  0.00     0.153 A 
HETATM    2  N2  UNL     1      16.032  19.903   8.193  1.00  0.00    -0.335 N 
ATOM      3  H2  UNL     1      16.543  19.631   9.032  1.00  0.00     0.168 HD
HETATM    4  C3  UNL     1      14.982  20.699   8.271  1.00  0.00     0.053 A 
HETATM    5  C4  UNL     1      14.444  21.254   9.449  1.00  0.00     0.034 A 
HETATM    6  C5  UNL     1      13.346  22.067   9.376  1.00  0.00     0.047 A 
HETATM    7  C6  UNL     1      12.697  22.400   8.208  1.00  0.00     0.144 A 
HETATM    8  F1  UNL     1      11.621  23.196   8.108  1.00  0.00    -0.204 F 
HETATM    9  C7  UNL     1      13.223  21.857   7.059  1.00  0.00     0.089 A 
HETATM   10  C22 UNL     1      14.347  21.021   7.108  1.00  0.00     0.064 A 
HETATM   11  S1  UNL     1      15.268  20.182   5.944  1.00  0.00    -0.049 SA
ENDROOT
BRANCH   9  12
HETATM   12  N3  UNL     1      12.696  22.091   5.765  1.00  0.00    -0.377 N 
HETATM   13  C8  UNL     1      11.610  21.229   5.330  1.00  0.00     0.123 C 
HETATM   14  C9  UNL     1      11.160  21.601   3.949  1.00  0.00     0.024 C 
HETATM   15  C10 UNL     1      10.913  23.094   3.904  1.00  0.00    -0.010 C 
HETATM   16  C20 UNL     1      12.133  23.906   4.184  1.00  0.00     0.024 C 
HETATM   17  C21 UNL     1      13.211  23.140   4.906  1.00  0.00     0.123 C 
BRANCH  15  18
HETATM   18  C11 UNL     1       9.731  23.389   4.766  1.00  0.00     0.035 C 
BRANCH  18  19
HETATM   19  C12 UNL     1       8.620  24.133   4.078  1.00  0.00     0.273 C 
BRANCH  19  20
HETATM   20  N4  UNL     1       8.569  25.534   4.349  1.00  0.00     0.091 N 
HETATM   21  C13 UNL     1       7.264  26.088   4.526  1.00  0.00     0.302 C 
HETATM   22  C14 UNL     1       7.357  27.206   5.557  1.00  0.00     0.303 C 
HETATM   23  N5  UNL     1       7.587  26.675   6.864  1.00  0.00     0.096 N 
HETATM   24  C18 UNL     1       8.512  25.567   6.764  1.00  0.00     0.303 C 
HETATM   25  C19 UNL     1       9.363  25.785   5.536  1.00  0.00     0.302 C 
BRANCH  23  26
HETATM   26  C15 UNL     1       8.012  27.636   7.833  1.00  0.00     0.223 A 
HETATM   27  C16 UNL     1       7.878  27.351   9.284  1.00  0.00     0.038 A 
HETATM   28  C17 UNL     1       9.244  27.474   8.647  1.00  0.00     0.038 A 
ENDBRANCH  23  26
ENDBRANCH  19  20
ENDBRANCH  18  19
ENDBRANCH  15  18
ENDBRANCH   9  12
BRANCH   1  29
HETATM   29  N1  UNL     1      17.421  18.678   6.703  1.00  0.00    -0.289 N 
HETATM   30  C1  UNL     1      17.847  18.561   5.352  1.00  0.00     0.322 C 
HETATM   31  O1  UNL     1      18.756  19.336   4.928  1.00  0.00    -0.247 OA
HETATM   32  N6  UNL     1      17.306  17.619   4.455  1.00  0.00    -0.338 N 
ATOM     33  H6  UNL     1      16.577  16.982   4.774  1.00  0.00     0.164 HD
ATOM     34  H1  UNL     1      17.896  18.156   7.440  1.00  0.00     0.172 HD
BRANCH  32  35
HETATM   35  C23 UNL     1      17.769  17.544   3.099  1.00  0.00     0.086 A 
HETATM   36  C24 UNL     1      17.070  18.318   2.024  1.00  0.00     0.027 A 
HETATM   37  C25 UNL     1      16.840  16.868   2.077  1.00  0.00     0.027 A 
ENDBRANCH  32  35
ENDBRANCH   1  29
TORSDOF 7
ENDMDL
MODEL 4
REMARK VINA RESULT: -9.478221703      4.493     10.868
REMARK  7 active torsions:
REMARK  status: ('A' for Active; 'I' for Inactive)
REMARK       I    between atoms: C1_2  and  N1_3 
REMARK       I    between atoms: C1_2  and  N6_33 
REMARK    1  A    between atoms: N1_3  and  C2_5 
REMARK    2  A    between atoms: C7_13  and  N3_14 
REMARK    3  A    between atoms: C10_17  and  C11_18 
REMARK    4  A    between atoms: C11_18  and  C12_19 
REMARK    5  A    between atoms: C12_19  and  N4_20 
REMARK    6  A    between atoms: N5_23  and  C15_24 
REMARK    7  A    between atoms: N6_33  and  C23_35 
ROOT
HETATM    1  C2  UNL     1      17.455  19.239   7.052  1.00  0.00     0.153 A 
HETATM    2  N2  UNL     1      17.834  18.437   6.058  1.00  0.00    -0.335 N 
ATOM      3  H2  UNL     1      18.615  17.793   6.177  1.00  0.00     0.168 HD
HETATM    4  C3  UNL     1      17.173  18.494   4.917  1.00  0.00     0.053 A 
HETATM    5  C4  UNL     1      17.434  17.724   3.766  1.00  0.00     0.034 A 
HETATM    6  C5  UNL     1      16.661  17.890   2.648  1.00  0.00     0.047 A 
HETATM    7  C6  UNL     1      15.614  18.779   2.549  1.00  0.00     0.144 A 
HETATM    8  F1  UNL     1      14.840  18.962   1.468  1.00  0.00    -0.204 F 
HETATM    9  C7  UNL     1      15.362  19.531   3.673  1.00  0.00     0.089 A 
HETATM   10  C22 UNL     1      16.139  19.378   4.829  1.00  0.00     0.064 A 
HETATM   11  S1  UNL     1      16.141  20.097   6.375  1.00  0.00    -0.049 SA
ENDROOT
BRANCH   9  12
HETATM   12  N3  UNL     1      14.323  20.490   3.762  1.00  0.00    -0.377 N 
HETATM   13  C8  UNL     1      13.011  20.006   4.155  1.00  0.00     0.123 C 
HETATM   14  C9  UNL     1      12.024  21.134   4.208  1.00  0.00     0.024 C 
HETATM   15  C10 UNL     1      12.617  22.259   5.030  1.00  0.00    -0.010 C 
HETATM   16  C20 UNL     1      13.871  22.821   4.449  1.00  0.00     0.024 C 
HETATM   17  C21 UNL     1      14.549  21.893   3.475  1.00  0.00     0.123 C 
BRANCH  15  18
HETATM   18  C11 UNL     1      12.715  21.792   6.444  1.00  0.00     0.035 C 
BRANCH  18  19
HETATM   19  C12 UNL     1      12.033  22.680   7.449  1.00  0.00     0.273 C 
BRANCH  19  20
HETATM   20  N4  UNL     1      11.239  23.728   6.891  1.00  0.00     0.091 N 
HETATM   21  C13 UNL     1       9.825  23.574   7.018  1.00  0.00     0.302 C 
HETATM   22  C14 UNL     1       9.208  24.957   7.191  1.00  0.00     0.303 C 
HETATM   23  N5  UNL     1       9.523  25.497   8.477  1.00  0.00     0.096 N 
HETATM   24  C18 UNL     1      10.889  25.155   8.808  1.00  0.00     0.303 C 
HETATM   25  C19 UNL     1      11.646  24.972   7.514  1.00  0.00     0.302 C 
BRANCH  23  26
HETATM   26  C15 UNL     1       9.277  26.898   8.612  1.00  0.00     0.223 A 
HETATM   27  C16 UNL     1       8.289  27.575   7.735  1.00  0.00     0.038 A 
HETATM   28  C17 UNL     1       8.038  27.447   9.221  1.00  0.00     0.038 A 
ENDBRANCH  23  26
ENDBRANCH  19  20
ENDBRANCH  18  19
ENDBRANCH  15  18
ENDBRANCH   9  12
BRANCH   1  29
HETATM   29  N1  UNL     1      17.972  19.331   8.257  1.00  0.00    -0.289 N 
HETATM   30  C1  UNL     1      18.400  18.151   8.923  1.00  0.00     0.322 C 
HETATM   31  O1  UNL     1      19.604  17.778   8.793  1.00  0.00    -0.247 OA
HETATM   32  N6  UNL     1      17.546  17.370   9.726  1.00  0.00    -0.338 N 
ATOM     33  H6  UNL     1      16.574  17.652   9.849  1.00  0.00     0.164 HD
ATOM     34  H1  UNL     1      18.066  20.241   8.709  1.00  0.00     0.172 HD
BRANCH  32  35
HETATM   35  C23 UNL     1      18.027  16.184  10.375  1.00  0.00     0.086 A 
HETATM   36  C24 UNL     1      17.812  14.844   9.743  1.00  0.00     0.027 A 
HETATM   37  C25 UNL     1      16.972  15.194  10.897  1.00  0.00     0.027 A 
ENDBRANCH  32  35
ENDBRANCH   1  29
TORSDOF 7
ENDMDL
MODEL 5
REMARK VINA RESULT: -9.386858605      2.948      5.541
REMARK  7 active torsions:
REMARK  status: ('A' for Active; 'I' for Inactive)
REMARK       I    between atoms: C1_2  and  N1_3 
REMARK       I    between atoms: C1_2  and  N6_33 
REMARK    1  A    between atoms: N1_3  and  C2_5 
REMARK    2  A    between atoms: C7_13  and  N3_14 
REMARK    3  A    between atoms: C10_17  and  C11_18 
REMARK    4  A    between atoms: C11_18  and  C12_19 
REMARK    5  A    between atoms: C12_19  and  N4_20 
REMARK    6  A    between atoms: N5_23  and  C15_24 
REMARK    7  A    between atoms: N6_33  and  C23_35 
ROOT
HETATM    1  C2  UNL     1      10.327  23.127   5.887  1.00  0.00     0.153 A 
HETATM    2  N2  UNL     1      10.972  23.221   7.049  1.00  0.00    -0.335 N 
ATOM      3  H2  UNL     1      10.619  23.822   7.793  1.00  0.00     0.168 HD
HETATM    4  C3  UNL     1      12.077  22.519   7.214  1.00  0.00     0.053 A 
HETATM    5  C4  UNL     1      12.883  22.497   8.369  1.00  0.00     0.034 A 
HETATM    6  C5  UNL     1      14.007  21.716   8.398  1.00  0.00     0.047 A 
HETATM    7  C6  UNL     1      14.433  20.923   7.356  1.00  0.00     0.144 A 
HETATM    8  F1  UNL     1      15.528  20.147   7.358  1.00  0.00    -0.204 F 
HETATM    9  C7  UNL     1      13.646  20.947   6.229  1.00  0.00     0.089 A 
HETATM   10  C22 UNL     1      12.490  21.738   6.176  1.00  0.00     0.064 A 
HETATM   11  S1  UNL     1      11.290  22.029   5.000  1.00  0.00    -0.049 SA
ENDROOT
BRANCH   9  12
HETATM   12  N3  UNL     1      13.920  20.193   5.061  1.00  0.00    -0.377 N 
HETATM   13  C8  UNL     1      14.642  20.867   3.996  1.00  0.00     0.123 C 
HETATM   14  C9  UNL     1      14.859  19.943   2.835  1.00  0.00     0.024 C 
HETATM   15  C10 UNL     1      15.445  18.646   3.351  1.00  0.00    -0.010 C 
HETATM   16  C20 UNL     1      14.550  17.927   4.303  1.00  0.00     0.024 C 
HETATM   17  C21 UNL     1      13.502  18.811   4.925  1.00  0.00     0.123 C 
BRANCH  15  18
HETATM   18  C11 UNL     1      16.821  18.932   3.851  1.00  0.00     0.035 C 
BRANCH  18  19
HETATM   19  C12 UNL     1      17.190  18.220   5.124  1.00  0.00     0.273 C 
BRANCH  19  20
HETATM   20  N4  UNL     1      18.461  18.574   5.670  1.00  0.00     0.091 N 
HETATM   21  C13 UNL     1      18.630  19.950   6.016  1.00  0.00     0.302 C 
HETATM   22  C14 UNL     1      19.530  20.027   7.242  1.00  0.00     0.303 C 
HETATM   23  N5  UNL     1      18.847  19.553   8.405  1.00  0.00     0.096 N 
HETATM   24  C18 UNL     1      18.042  18.407   8.043  1.00  0.00     0.303 C 
HETATM   25  C19 UNL     1      18.684  17.753   6.843  1.00  0.00     0.302 C 
BRANCH  23  26
HETATM   26  C15 UNL     1      19.693  19.277   9.523  1.00  0.00     0.223 A 
HETATM   27  C16 UNL     1      20.104  20.370  10.442  1.00  0.00     0.038 A 
HETATM   28  C17 UNL     1      19.201  19.257  10.925  1.00  0.00     0.038 A 
ENDBRANCH  23  26
ENDBRANCH  19  20
ENDBRANCH  18  19
ENDBRANCH  15  18
ENDBRANCH   9  12
BRANCH   1  29
HETATM   29  N1  UNL     1       9.217  23.733   5.527  1.00  0.00    -0.289 N 
HETATM   30  C1  UNL     1       8.995  25.076   5.932  1.00  0.00     0.322 C 
HETATM   31  O1  UNL     1       9.366  26.015   5.166  1.00  0.00    -0.247 OA
HETATM   32  N6  UNL     1       8.379  25.419   7.151  1.00  0.00    -0.338 N 
ATOM     33  H6  UNL     1       8.068  24.682   7.783  1.00  0.00     0.164 HD
ATOM     34  H1  UNL     1       8.523  23.243   4.964  1.00  0.00     0.172 HD
BRANCH  32  35
HETATM   35  C23 UNL     1       8.181  26.793   7.515  1.00  0.00     0.086 A 
HETATM   36  C24 UNL     1       9.130  27.463   8.461  1.00  0.00     0.027 A 
HETATM   37  C25 UNL     1       7.807  27.084   8.979  1.00  0.00     0.027 A 
ENDBRANCH  32  35
ENDBRANCH   1  29
TORSDOF 7
ENDMDL
