MODEL 1
REMARK VINA RESULT: -8.986723251      0.000      0.000
REMARK  13 active torsions:
REMARK  status: ('A' for Active; 'I' for Inactive)
REMARK    1  A    between atoms: C2_2  and  O1_3 
REMARK    2  A    between atoms: O1_3  and  C3_4 
REMARK    3  A    between atoms: C3_4  and  C4_5 
REMARK    4  A    between atoms: C4_5  and  O2_6 
REMARK    5  A    between atoms: O2_6  and  C5_7 
REMARK    6  A    between atoms: C5_7  and  C6_8 
REMARK    7  A    between atoms: C6_8  and  O3_9 
REMARK    8  A    between atoms: O3_9  and  C7_10 
REMARK    9  A    between atoms: C9_12  and  N1_13 
REMARK   10  A    between atoms: C17_22  and  N3_23 
REMARK   11  A    between atoms: N3_23  and  C18_25 
REMARK   12  A    between atoms: C22_32  and  N6_33 
REMARK   13  A    between atoms: N6_33  and  C23_35 
ROOT
HETATM    1  C18 UNL     1     -12.986  19.270 -17.569  1.00  0.00     0.684 A 
HETATM    2  N4  UNL     1     -12.888  19.427 -16.237  1.00  0.00    -0.200 N 
ATOM      3  H4  UNL     1     -12.320  18.770 -15.702  1.00  0.00     0.183 HD
HETATM    4  C19 UNL     1     -13.518  20.429 -15.586  1.00  0.00     0.132 A 
HETATM    5  C20 UNL     1     -14.297  21.343 -16.260  1.00  0.00     0.104 A 
HETATM    6  C21 UNL     1     -14.978  22.417 -15.596  1.00  0.00     0.104 C 
HETATM    7  N5  UNL     1     -15.519  23.302 -15.068  1.00  0.00    -0.191 NA
HETATM    8  C22 UNL     1     -14.395  21.175 -17.639  1.00  0.00     0.139 A 
HETATM    9  N8  UNL     1     -13.746  20.160 -18.238  1.00  0.00    -0.175 N 
ATOM     10  H8  UNL     1     -13.834  20.059 -19.249  1.00  0.00     0.186 HD
ENDROOT
BRANCH   8  11
HETATM   11  N6  UNL     1     -15.124  22.031 -18.270  1.00  0.00    -0.366 N 
ATOM     12  H6  UNL     1     -16.140  22.006 -18.183  1.00  0.00     0.161 HD
BRANCH  11  13
HETATM   13  C23 UNL     1     -14.493  23.014 -19.094  1.00  0.00     0.118 C 
HETATM   14  C24 UNL     1     -14.059  22.434 -20.441  1.00  0.00     0.036 C 
HETATM   15  C25 UNL     1     -14.006  23.705 -21.292  1.00  0.00     0.060 C 
HETATM   16  C26 UNL     1     -15.252  24.386 -20.861  1.00  0.00     0.017 A 
HETATM   17  N7  UNL     1     -16.205  25.249 -21.257  1.00  0.00    -0.369 N 
HETATM   18  C29 UNL     1     -15.542  23.981 -19.565  1.00  0.00    -0.012 A 
HETATM   19  C27 UNL     1     -17.101  25.422 -20.274  1.00  0.00     0.089 A 
ATOM     20  H7  UNL     1     -16.241  25.704 -22.169  1.00  0.00     0.165 HD
HETATM   21  C28 UNL     1     -16.691  24.639 -19.230  1.00  0.00     0.028 A 
ENDBRANCH  11  13
ENDBRANCH   8  11
BRANCH   1  22
HETATM   22  N3  UNL     1     -12.392  18.320 -18.214  1.00  0.00    -0.189 N 
ATOM     23  H3  UNL     1     -12.907  17.454 -18.370  1.00  0.00     0.184 HD
BRANCH  22  24
HETATM   24  C17 UNL     1     -11.080  18.409 -18.715  1.00  0.00     0.082 A 
HETATM   25  C7  UNL     1     -10.006  18.114 -17.914  1.00  0.00     0.098 A 
HETATM   26  C8  UNL     1      -8.719  18.207 -18.429  1.00  0.00     0.068 A 
HETATM   27  C9  UNL     1      -8.466  18.593 -19.746  1.00  0.00     0.033 A 
HETATM   28  C15 UNL     1      -9.552  18.883 -20.526  1.00  0.00     0.032 A 
HETATM   29  C16 UNL     1     -10.851  18.791 -20.012  1.00  0.00     0.035 A 
BRANCH  25  30
HETATM   30  O3  UNL     1     -10.243  17.729 -16.605  1.00  0.00    -0.347 OA
BRANCH  30  31
HETATM   31  C6  UNL     1      -9.500  18.390 -15.568  1.00  0.00     0.201 C 
BRANCH  31  32
HETATM   32  C5  UNL     1      -9.048  17.305 -14.637  1.00  0.00     0.194 C 
BRANCH  32  33
HETATM   33  O2  UNL     1      -9.081  16.091 -15.243  1.00  0.00    -0.387 OA
BRANCH  33  34
HETATM   34  C4  UNL     1      -8.267  15.148 -14.652  1.00  0.00     0.193 C 
BRANCH  34  35
HETATM   35  C3  UNL     1      -7.191  14.825 -15.708  1.00  0.00     0.193 C 
BRANCH  35  36
HETATM   36  O1  UNL     1      -7.783  15.052 -16.946  1.00  0.00    -0.389 OA
BRANCH  36  37
HETATM   37  C2  UNL     1      -6.795  15.382 -17.857  1.00  0.00     0.163 C 
HETATM   38  C1  UNL     1      -5.740  16.184 -17.144  1.00  0.00     0.033 C 
ENDBRANCH  36  37
ENDBRANCH  35  36
ENDBRANCH  34  35
ENDBRANCH  33  34
ENDBRANCH  32  33
ENDBRANCH  31  32
ENDBRANCH  30  31
ENDBRANCH  25  30
BRANCH  27  39
HETATM   39  N1  UNL     1      -7.119  18.661 -20.184  1.00  0.00    -0.377 N 
HETATM   40  C10 UNL     1      -6.223  19.660 -19.627  1.00  0.00     0.153 C 
HETATM   41  C11 UNL     1      -4.891  19.605 -20.310  1.00  0.00     0.291 C 
HETATM   42  N2  UNL     1      -4.365  18.282 -20.178  1.00  0.00     0.087 N 
HETATM   43  C12 UNL     1      -3.011  18.255 -20.640  1.00  0.00     0.310 C 
HETATM   44  C13 UNL     1      -5.210  17.256 -20.690  1.00  0.00     0.291 C 
HETATM   45  C14 UNL     1      -6.569  17.773 -21.179  1.00  0.00     0.153 C 
ENDBRANCH  27  39
ENDBRANCH  22  24
ENDBRANCH   1  22
TORSDOF 13
ENDMDL
MODEL 2
REMARK VINA RESULT: -8.968977229      3.207     10.857
REMARK  13 active torsions:
REMARK  status: ('A' for Active; 'I' for Inactive)
REMARK    1  A    between atoms: C2_2  and  O1_3 
REMARK    2  A    between atoms: O1_3  and  C3_4 
REMARK    3  A    between atoms: C3_4  and  C4_5 
REMARK    4  A    between atoms: C4_5  and  O2_6 
REMARK    5  A    between atoms: O2_6  and  C5_7 
REMARK    6  A    between atoms: C5_7  and  C6_8 
REMARK    7  A    between atoms: C6_8  and  O3_9 
REMARK    8  A    between atoms: O3_9  and  C7_10 
REMARK    9  A    between atoms: C9_12  and  N1_13 
REMARK   10  A    between atoms: C17_22  and  N3_23 
REMARK   11  A    between atoms: N3_23  and  C18_25 
REMARK   12  A    between atoms: C22_32  and  N6_33 
REMARK   13  A    between atoms: N6_33  and  C23_35 
ROOT
HETATM    1  C18 UNL     1     -12.641  19.322 -18.283  1.00  0.00     0.684 A 
HETATM    2  N4  UNL     1     -12.035  20.202 -19.101  1.00  0.00    -0.200 N 
ATOM      3  H4  UNL     1     -12.582  20.969 -19.494  1.00  0.00     0.183 HD
HETATM    4  C19 UNL     1     -10.726  20.101 -19.416  1.00  0.00     0.132 A 
HETATM    5  C20 UNL     1      -9.943  19.086 -18.914  1.00  0.00     0.104 A 
HETATM    6  C21 UNL     1      -8.550  18.954 -19.232  1.00  0.00     0.104 C 
HETATM    7  N5  UNL     1      -7.416  18.849 -19.469  1.00  0.00    -0.191 NA
HETATM    8  C22 UNL     1     -10.576  18.178 -18.067  1.00  0.00     0.139 A 
HETATM    9  N8  UNL     1     -11.883  18.325 -17.785  1.00  0.00    -0.175 N 
ATOM     10  H8  UNL     1     -12.323  17.647 -17.163  1.00  0.00     0.186 HD
ENDROOT
BRANCH   8  11
HETATM   11  N6  UNL     1      -9.843  17.228 -17.596  1.00  0.00    -0.366 N 
ATOM     12  H6  UNL     1      -9.873  16.298 -18.015  1.00  0.00     0.161 HD
BRANCH  11  13
HETATM   13  C23 UNL     1      -8.990  17.490 -16.480  1.00  0.00     0.118 C 
HETATM   14  C24 UNL     1      -9.701  17.239 -15.150  1.00  0.00     0.036 C 
HETATM   15  C25 UNL     1      -8.502  16.993 -14.230  1.00  0.00     0.060 C 
HETATM   16  C26 UNL     1      -7.663  16.119 -15.088  1.00  0.00     0.017 A 
HETATM   17  N7  UNL     1      -6.731  15.150 -15.059  1.00  0.00    -0.369 N 
HETATM   18  C29 UNL     1      -7.949  16.409 -16.416  1.00  0.00    -0.012 A 
HETATM   19  C27 UNL     1      -6.398  14.799 -16.310  1.00  0.00     0.089 A 
ATOM     20  H7  UNL     1      -6.335  14.743 -14.211  1.00  0.00     0.165 HD
HETATM   21  C28 UNL     1      -7.150  15.577 -17.146  1.00  0.00     0.028 A 
ENDBRANCH  11  13
ENDBRANCH   8  11
BRANCH   1  22
HETATM   22  N3  UNL     1     -13.892  19.398 -17.966  1.00  0.00    -0.189 N 
ATOM     23  H3  UNL     1     -14.527  18.704 -18.360  1.00  0.00     0.184 HD
BRANCH  22  24
HETATM   24  C17 UNL     1     -14.429  20.377 -17.111  1.00  0.00     0.082 A 
HETATM   25  C7  UNL     1     -14.783  21.611 -17.597  1.00  0.00     0.098 A 
HETATM   26  C8  UNL     1     -15.313  22.562 -16.735  1.00  0.00     0.068 A 
HETATM   27  C9  UNL     1     -15.505  22.316 -15.374  1.00  0.00     0.033 A 
HETATM   28  C15 UNL     1     -15.145  21.080 -14.912  1.00  0.00     0.032 A 
HETATM   29  C16 UNL     1     -14.610  20.117 -15.776  1.00  0.00     0.035 A 
BRANCH  25  30
HETATM   30  O3  UNL     1     -14.597  21.868 -18.944  1.00  0.00    -0.347 OA
BRANCH  30  31
HETATM   31  C6  UNL     1     -13.951  23.099 -19.307  1.00  0.00     0.201 C 
BRANCH  31  32
HETATM   32  C5  UNL     1     -13.907  23.108 -20.807  1.00  0.00     0.194 C 
BRANCH  32  33
HETATM   33  O2  UNL     1     -14.685  24.096 -21.316  1.00  0.00    -0.387 OA
BRANCH  33  34
HETATM   34  C4  UNL     1     -15.101  25.019 -20.381  1.00  0.00     0.193 C 
BRANCH  34  35
HETATM   35  C3  UNL     1     -16.428  25.582 -20.930  1.00  0.00     0.193 C 
BRANCH  35  36
HETATM   36  O1  UNL     1     -17.441  24.863 -20.304  1.00  0.00    -0.389 OA
BRANCH  36  37
HETATM   37  C2  UNL     1     -17.202  24.855 -18.941  1.00  0.00     0.163 C 
HETATM   38  C1  UNL     1     -18.063  25.911 -18.302  1.00  0.00     0.033 C 
ENDBRANCH  36  37
ENDBRANCH  35  36
ENDBRANCH  34  35
ENDBRANCH  33  34
ENDBRANCH  32  33
ENDBRANCH  31  32
ENDBRANCH  30  31
ENDBRANCH  25  30
BRANCH  27  39
HETATM   39  N1  UNL     1     -16.052  23.348 -14.570  1.00  0.00    -0.377 N 
HETATM   40  C10 UNL     1     -15.272  23.910 -13.479  1.00  0.00     0.153 C 
HETATM   41  C11 UNL     1     -16.089  24.905 -12.714  1.00  0.00     0.291 C 
HETATM   42  N2  UNL     1     -16.543  25.914 -13.620  1.00  0.00     0.087 N 
HETATM   43  C12 UNL     1     -17.149  26.982 -12.885  1.00  0.00     0.310 C 
HETATM   44  C13 UNL     1     -17.298  25.421 -14.723  1.00  0.00     0.291 C 
HETATM   45  C14 UNL     1     -17.372  23.890 -14.775  1.00  0.00     0.153 C 
ENDBRANCH  27  39
ENDBRANCH  22  24
ENDBRANCH   1  22
TORSDOF 13
ENDMDL
MODEL 3
REMARK VINA RESULT: -8.838289236      3.184     10.744
REMARK  13 active torsions:
REMARK  status: ('A' for Active; 'I' for Inactive)
REMARK    1  A    between atoms: C2_2  and  O1_3 
REMARK    2  A    between atoms: O1_3  and  C3_4 
REMARK    3  A    between atoms: C3_4  and  C4_5 
REMARK    4  A    between atoms: C4_5  and  O2_6 
REMARK    5  A    between atoms: O2_6  and  C5_7 
REMARK    6  A    between atoms: C5_7  and  C6_8 
REMARK    7  A    between atoms: C6_8  and  O3_9 
REMARK    8  A    between atoms: O3_9  and  C7_10 
REMARK    9  A    between atoms: C9_12  and  N1_13 
REMARK   10  A    between atoms: C17_22  and  N3_23 
REMARK   11  A    between atoms: N3_23  and  C18_25 
REMARK   12  A    between atoms: C22_32  and  N6_33 
REMARK   13  A    between atoms: N6_33  and  C23_35 
ROOT
HETATM    1  C18 UNL     1     -12.023  19.482 -18.301  1.00  0.00     0.684 A 
HETATM    2  N4  UNL     1     -11.710  20.198 -19.395  1.00  0.00    -0.200 N 
ATOM      3  H4  UNL     1     -12.457  20.656 -19.917  1.00  0.00     0.183 HD
HETATM    4  C19 UNL     1     -10.435  20.330 -19.823  1.00  0.00     0.132 A 
HETATM    5  C20 UNL     1      -9.389  19.732 -19.157  1.00  0.00     0.104 A 
HETATM    6  C21 UNL     1      -8.026  19.854 -19.588  1.00  0.00     0.104 C 
HETATM    7  N5  UNL     1      -6.917  19.963 -19.920  1.00  0.00    -0.191 NA
HETATM    8  C22 UNL     1      -9.720  18.992 -18.024  1.00  0.00     0.139 A 
HETATM    9  N8  UNL     1     -11.006  18.893 -17.640  1.00  0.00    -0.175 N 
ATOM     10  H8  UNL     1     -11.222  18.345 -16.808  1.00  0.00     0.186 HD
ENDROOT
BRANCH   8  11
HETATM   11  N6  UNL     1      -8.741  18.432 -17.399  1.00  0.00    -0.366 N 
ATOM     12  H6  UNL     1      -8.162  18.975 -16.758  1.00  0.00     0.161 HD
BRANCH  11  13
HETATM   13  C23 UNL     1      -8.476  17.045 -17.614  1.00  0.00     0.118 C 
HETATM   14  C24 UNL     1      -7.039  16.805 -18.079  1.00  0.00     0.036 C 
HETATM   15  C25 UNL     1      -6.844  15.347 -17.656  1.00  0.00     0.060 C 
HETATM   16  C26 UNL     1      -7.461  15.359 -16.307  1.00  0.00     0.017 A 
HETATM   17  N7  UNL     1      -7.436  14.764 -15.101  1.00  0.00    -0.369 N 
HETATM   18  C29 UNL     1      -8.425  16.359 -16.278  1.00  0.00    -0.012 A 
HETATM   19  C27 UNL     1      -8.340  15.334 -14.291  1.00  0.00     0.089 A 
ATOM     20  H7  UNL     1      -6.820  13.994 -14.841  1.00  0.00     0.165 HD
HETATM   21  C28 UNL     1      -8.950  16.318 -15.019  1.00  0.00     0.028 A 
ENDBRANCH  11  13
ENDBRANCH   8  11
BRANCH   1  22
HETATM   22  N3  UNL     1     -13.234  19.341 -17.871  1.00  0.00    -0.189 N 
ATOM     23  H3  UNL     1     -13.744  18.501 -18.143  1.00  0.00     0.184 HD
BRANCH  22  24
HETATM   24  C17 UNL     1     -13.891  20.277 -17.051  1.00  0.00     0.082 A 
HETATM   25  C7  UNL     1     -14.401  21.435 -17.581  1.00  0.00     0.098 A 
HETATM   26  C8  UNL     1     -15.047  22.344 -16.754  1.00  0.00     0.068 A 
HETATM   27  C9  UNL     1     -15.204  22.128 -15.383  1.00  0.00     0.033 A 
HETATM   28  C15 UNL     1     -14.688  20.967 -14.876  1.00  0.00     0.032 A 
HETATM   29  C16 UNL     1     -14.035  20.048 -15.705  1.00  0.00     0.035 A 
BRANCH  25  30
HETATM   30  O3  UNL     1     -14.252  21.661 -18.939  1.00  0.00    -0.347 OA
BRANCH  30  31
HETATM   31  C6  UNL     1     -13.838  22.971 -19.358  1.00  0.00     0.201 C 
BRANCH  31  32
HETATM   32  C5  UNL     1     -13.856  22.944 -20.858  1.00  0.00     0.194 C 
BRANCH  32  33
HETATM   33  O2  UNL     1     -14.620  23.948 -21.358  1.00  0.00    -0.387 OA
BRANCH  33  34
HETATM   34  C4  UNL     1     -15.054  24.848 -20.409  1.00  0.00     0.193 C 
BRANCH  34  35
HETATM   35  C3  UNL     1     -16.363  25.434 -20.976  1.00  0.00     0.193 C 
BRANCH  35  36
HETATM   36  O1  UNL     1     -17.397  24.758 -20.337  1.00  0.00    -0.389 OA
BRANCH  36  37
HETATM   37  C2  UNL     1     -17.148  24.749 -18.976  1.00  0.00     0.163 C 
HETATM   38  C1  UNL     1     -17.982  25.822 -18.332  1.00  0.00     0.033 C 
ENDBRANCH  36  37
ENDBRANCH  35  36
ENDBRANCH  34  35
ENDBRANCH  33  34
ENDBRANCH  32  33
ENDBRANCH  31  32
ENDBRANCH  30  31
ENDBRANCH  25  30
BRANCH  27  39
HETATM   39  N1  UNL     1     -15.878  23.112 -14.616  1.00  0.00    -0.377 N 
HETATM   40  C10 UNL     1     -15.188  23.780 -13.524  1.00  0.00     0.153 C 
HETATM   41  C11 UNL     1     -16.125  24.698 -12.801  1.00  0.00     0.291 C 
HETATM   42  N2  UNL     1     -16.666  25.630 -13.740  1.00  0.00     0.087 N 
HETATM   43  C12 UNL     1     -17.400  26.643 -13.044  1.00  0.00     0.310 C 
HETATM   44  C13 UNL     1     -17.338  25.033 -14.845  1.00  0.00     0.291 C 
HETATM   45  C14 UNL     1     -17.244  23.502 -14.860  1.00  0.00     0.153 C 
ENDBRANCH  27  39
ENDBRANCH  22  24
ENDBRANCH   1  22
TORSDOF 13
ENDMDL
MODEL 4
REMARK VINA RESULT: -8.824248930      0.793      1.412
REMARK  13 active torsions:
REMARK  status: ('A' for Active; 'I' for Inactive)
REMARK    1  A    between atoms: C2_2  and  O1_3 
REMARK    2  A    between atoms: O1_3  and  C3_4 
REMARK    3  A    between atoms: C3_4  and  C4_5 
REMARK    4  A    between atoms: C4_5  and  O2_6 
REMARK    5  A    between atoms: O2_6  and  C5_7 
REMARK    6  A    between atoms: C5_7  and  C6_8 
REMARK    7  A    between atoms: C6_8  and  O3_9 
REMARK    8  A    between atoms: O3_9  and  C7_10 
REMARK    9  A    between atoms: C9_12  and  N1_13 
REMARK   10  A    between atoms: C17_22  and  N3_23 
REMARK   11  A    between atoms: N3_23  and  C18_25 
REMARK   12  A    between atoms: C22_32  and  N6_33 
REMARK   13  A    between atoms: N6_33  and  C23_35 
ROOT
HETATM    1  C18 UNL     1     -13.146  19.564 -17.299  1.00  0.00     0.684 A 
HETATM    2  N4  UNL     1     -13.243  19.275 -15.989  1.00  0.00    -0.200 N 
ATOM      3  H4  UNL     1     -12.974  18.345 -15.666  1.00  0.00     0.183 HD
HETATM    4  C19 UNL     1     -13.685  20.178 -15.087  1.00  0.00     0.132 A 
HETATM    5  C20 UNL     1     -14.062  21.446 -15.468  1.00  0.00     0.104 A 
HETATM    6  C21 UNL     1     -14.535  22.427 -14.534  1.00  0.00     0.104 C 
HETATM    7  N5  UNL     1     -14.903  23.234 -13.781  1.00  0.00    -0.191 NA
HETATM    8  C22 UNL     1     -13.958  21.741 -16.826  1.00  0.00     0.139 A 
HETATM    9  N8  UNL     1     -13.511  20.804 -17.682  1.00  0.00    -0.175 N 
ATOM     10  H8  UNL     1     -13.445  21.043 -18.671  1.00  0.00     0.186 HD
ENDROOT
BRANCH   8  11
HETATM   11  N6  UNL     1     -14.310  22.928 -17.184  1.00  0.00    -0.366 N 
ATOM     12  H6  UNL     1     -13.765  23.738 -16.889  1.00  0.00     0.161 HD
BRANCH  11  13
HETATM   13  C23 UNL     1     -15.473  23.097 -17.997  1.00  0.00     0.118 C 
HETATM   14  C24 UNL     1     -16.206  24.401 -17.677  1.00  0.00     0.036 C 
HETATM   15  C25 UNL     1     -16.962  24.630 -18.988  1.00  0.00     0.060 C 
HETATM   16  C26 UNL     1     -15.910  24.302 -19.981  1.00  0.00     0.017 A 
HETATM   17  N7  UNL     1     -15.489  24.554 -21.235  1.00  0.00    -0.369 N 
HETATM   18  C29 UNL     1     -15.029  23.399 -19.401  1.00  0.00    -0.012 A 
HETATM   19  C27 UNL     1     -14.375  23.854 -21.492  1.00  0.00     0.089 A 
ATOM     20  H7  UNL     1     -15.950  25.185 -21.891  1.00  0.00     0.165 HD
HETATM   21  C28 UNL     1     -14.093  23.141 -20.360  1.00  0.00     0.028 A 
ENDBRANCH  11  13
ENDBRANCH   8  11
BRANCH   1  22
HETATM   22  N3  UNL     1     -12.725  18.717 -18.180  1.00  0.00    -0.189 N 
ATOM     23  H3  UNL     1     -13.380  18.012 -18.517  1.00  0.00     0.184 HD
BRANCH  22  24
HETATM   24  C17 UNL     1     -11.419  18.709 -18.703  1.00  0.00     0.082 A 
HETATM   25  C7  UNL     1     -10.347  18.409 -17.901  1.00  0.00     0.098 A 
HETATM   26  C8  UNL     1      -9.066  18.406 -18.439  1.00  0.00     0.068 A 
HETATM   27  C9  UNL     1      -8.816  18.699 -19.780  1.00  0.00     0.033 A 
HETATM   28  C15 UNL     1      -9.900  18.995 -20.561  1.00  0.00     0.032 A 
HETATM   29  C16 UNL     1     -11.193  19.000 -20.025  1.00  0.00     0.035 A 
BRANCH  25  30
HETATM   30  O3  UNL     1     -10.580  18.117 -16.568  1.00  0.00    -0.347 OA
BRANCH  30  31
HETATM   31  C6  UNL     1      -9.815  18.830 -15.583  1.00  0.00     0.201 C 
BRANCH  31  32
HETATM   32  C5  UNL     1      -9.043  17.785 -14.833  1.00  0.00     0.194 C 
BRANCH  32  33
HETATM   33  O2  UNL     1      -9.292  16.544 -15.322  1.00  0.00    -0.387 OA
BRANCH  33  34
HETATM   34  C4  UNL     1      -9.067  15.530 -14.416  1.00  0.00     0.193 C 
BRANCH  34  35
HETATM   35  C3  UNL     1      -7.580  15.159 -14.586  1.00  0.00     0.193 C 
BRANCH  35  36
HETATM   36  O1  UNL     1      -7.508  14.358 -15.720  1.00  0.00    -0.389 OA
BRANCH  36  37
HETATM   37  C2  UNL     1      -6.416  14.753 -16.474  1.00  0.00     0.163 C 
HETATM   38  C1  UNL     1      -6.918  15.426 -17.722  1.00  0.00     0.033 C 
ENDBRANCH  36  37
ENDBRANCH  35  36
ENDBRANCH  34  35
ENDBRANCH  33  34
ENDBRANCH  32  33
ENDBRANCH  31  32
ENDBRANCH  30  31
ENDBRANCH  25  30
BRANCH  27  39
HETATM   39  N1  UNL     1      -7.476  18.672 -20.241  1.00  0.00    -0.377 N 
HETATM   40  C10 UNL     1      -6.515  19.641 -19.740  1.00  0.00     0.153 C 
HETATM   41  C11 UNL     1      -5.201  19.482 -20.440  1.00  0.00     0.291 C 
HETATM   42  N2  UNL     1      -4.747  18.139 -20.259  1.00  0.00     0.087 N 
HETATM   43  C12 UNL     1      -3.405  18.015 -20.738  1.00  0.00     0.310 C 
HETATM   44  C13 UNL     1      -5.657  17.141 -20.714  1.00  0.00     0.291 C 
HETATM   45  C14 UNL     1      -6.993  17.713 -21.204  1.00  0.00     0.153 C 
ENDBRANCH  27  39
ENDBRANCH  22  24
ENDBRANCH   1  22
TORSDOF 13
ENDMDL
MODEL 5
REMARK VINA RESULT: -8.788548498      1.396      3.759
REMARK  13 active torsions:
REMARK  status: ('A' for Active; 'I' for Inactive)
REMARK    1  A    between atoms: C2_2  and  O1_3 
REMARK    2  A    between atoms: O1_3  and  C3_4 
REMARK    3  A    between atoms: C3_4  and  C4_5 
REMARK    4  A    between atoms: C4_5  and  O2_6 
REMARK    5  A    between atoms: O2_6  and  C5_7 
REMARK    6  A    between atoms: C5_7  and  C6_8 
REMARK    7  A    between atoms: C6_8  and  O3_9 
REMARK    8  A    between atoms: O3_9  and  C7_10 
REMARK    9  A    between atoms: C9_12  and  N1_13 
REMARK   10  A    between atoms: C17_22  and  N3_23 
REMARK   11  A    between atoms: N3_23  and  C18_25 
REMARK   12  A    between atoms: C22_32  and  N6_33 
REMARK   13  A    between atoms: N6_33  and  C23_35 
ROOT
HETATM    1  C18 UNL     1     -12.993  20.011 -18.712  1.00  0.00     0.684 A 
HETATM    2  N4  UNL     1     -12.969  20.968 -19.657  1.00  0.00    -0.200 N 
ATOM      3  H4  UNL     1     -12.403  20.824 -20.494  1.00  0.00     0.183 HD
HETATM    4  C19 UNL     1     -13.673  22.115 -19.532  1.00  0.00     0.132 A 
HETATM    5  C20 UNL     1     -14.451  22.361 -18.424  1.00  0.00     0.104 A 
HETATM    6  C21 UNL     1     -15.209  23.569 -18.264  1.00  0.00     0.104 C 
HETATM    7  N5  UNL     1     -15.840  24.537 -18.134  1.00  0.00    -0.191 NA
HETATM    8  C22 UNL     1     -14.473  21.366 -17.449  1.00  0.00     0.139 A 
HETATM    9  N8  UNL     1     -13.754  20.242 -17.624  1.00  0.00    -0.175 N 
ATOM     10  H8  UNL     1     -13.785  19.529 -16.895  1.00  0.00     0.186 HD
ENDROOT
BRANCH   8  11
HETATM   11  N6  UNL     1     -15.202  21.596 -16.412  1.00  0.00    -0.366 N 
ATOM     12  H6  UNL     1     -16.141  21.203 -16.344  1.00  0.00     0.161 HD
BRANCH  11  13
HETATM   13  C23 UNL     1     -14.682  22.409 -15.357  1.00  0.00     0.118 C 
HETATM   14  C24 UNL     1     -15.797  23.023 -14.510  1.00  0.00     0.036 C 
HETATM   15  C25 UNL     1     -15.045  23.288 -13.203  1.00  0.00     0.060 C 
HETATM   16  C26 UNL     1     -14.270  22.031 -13.062  1.00  0.00     0.017 A 
HETATM   17  N7  UNL     1     -13.699  21.206 -12.165  1.00  0.00    -0.369 N 
HETATM   18  C29 UNL     1     -14.054  21.509 -14.331  1.00  0.00    -0.012 A 
HETATM   19  C27 UNL     1     -13.122  20.173 -12.796  1.00  0.00     0.089 A 
ATOM     20  H7  UNL     1     -13.705  21.347 -11.155  1.00  0.00     0.165 HD
HETATM   21  C28 UNL     1     -13.342  20.362 -14.133  1.00  0.00     0.028 A 
ENDBRANCH  11  13
ENDBRANCH   8  11
BRANCH   1  22
HETATM   22  N3  UNL     1     -12.330  18.906 -18.809  1.00  0.00    -0.189 N 
ATOM     23  H3  UNL     1     -12.812  18.038 -18.578  1.00  0.00     0.184 HD
BRANCH  22  24
HETATM   24  C17 UNL     1     -10.985  18.828 -19.214  1.00  0.00     0.082 A 
HETATM   25  C7  UNL     1      -9.979  18.748 -18.285  1.00  0.00     0.098 A 
HETATM   26  C8  UNL     1      -8.658  18.671 -18.707  1.00  0.00     0.068 A 
HETATM   27  C9  UNL     1      -8.302  18.671 -20.057  1.00  0.00     0.033 A 
HETATM   28  C15 UNL     1      -9.321  18.751 -20.966  1.00  0.00     0.032 A 
HETATM   29  C16 UNL     1     -10.654  18.830 -20.546  1.00  0.00     0.035 A 
BRANCH  25  30
HETATM   30  O3  UNL     1     -10.318  18.748 -16.943  1.00  0.00    -0.347 OA
BRANCH  30  31
HETATM   31  C6  UNL     1      -9.964  17.594 -16.163  1.00  0.00     0.201 C 
BRANCH  31  32
HETATM   32  C5  UNL     1      -9.066  18.098 -15.073  1.00  0.00     0.194 C 
BRANCH  32  33
HETATM   33  O2  UNL     1      -8.815  17.131 -14.154  1.00  0.00    -0.387 OA
BRANCH  33  34
HETATM   34  C4  UNL     1      -9.087  15.855 -14.598  1.00  0.00     0.193 C 
BRANCH  34  35
HETATM   35  C3  UNL     1      -7.736  15.113 -14.549  1.00  0.00     0.193 C 
BRANCH  35  36
HETATM   36  O1  UNL     1      -7.658  14.373 -15.724  1.00  0.00    -0.389 OA
BRANCH  36  37
HETATM   37  C2  UNL     1      -6.544  14.784 -16.435  1.00  0.00     0.163 C 
HETATM   38  C1  UNL     1      -7.008  15.513 -17.666  1.00  0.00     0.033 C 
ENDBRANCH  36  37
ENDBRANCH  35  36
ENDBRANCH  34  35
ENDBRANCH  33  34
ENDBRANCH  32  33
ENDBRANCH  31  32
ENDBRANCH  30  31
ENDBRANCH  25  30
BRANCH  27  39
HETATM   39  N1  UNL     1      -6.927  18.589 -20.394  1.00  0.00    -0.377 N 
HETATM   40  C10 UNL     1      -5.992  19.574 -19.877  1.00  0.00     0.153 C 
HETATM   41  C11 UNL     1      -4.626  19.345 -20.446  1.00  0.00     0.291 C 
HETATM   42  N2  UNL     1      -4.220  18.010 -20.135  1.00  0.00     0.087 N 
HETATM   43  C12 UNL     1      -2.844  17.831 -20.485  1.00  0.00     0.310 C 
HETATM   44  C13 UNL     1      -5.110  16.999 -20.601  1.00  0.00     0.291 C 
HETATM   45  C14 UNL     1      -6.384  17.559 -21.245  1.00  0.00     0.153 C 
ENDBRANCH  27  39
ENDBRANCH  22  24
ENDBRANCH   1  22
TORSDOF 13
ENDMDL
