MODEL 1
REMARK VINA RESULT: -8.126679769      0.000      0.000
REMARK  16 active torsions:
REMARK  status: ('A' for Active; 'I' for Inactive)
REMARK    1  A    between atoms: C2_2  and  C3_3 
REMARK    2  A    between atoms: C3_3  and  C4_5 
REMARK    3  A    between atoms: C4_5  and  C5_6 
REMARK    4  A    between atoms: C5_6  and  C6_7 
REMARK    5  A    between atoms: C6_7  and  C7_8 
REMARK    6  A    between atoms: C7_8  and  C8_9 
REMARK    7  A    between atoms: C8_9  and  C9_10 
REMARK    8  A    between atoms: C12_15  and  C13_16 
REMARK    9  A    between atoms: C16_19  and  C17_20 
REMARK   10  A    between atoms: C17_20  and  C18_21 
REMARK   11  A    between atoms: C23_31  and  C24_32 
REMARK   12  A    between atoms: C24_32  and  C25_33 
REMARK   13  A    between atoms: C25_33  and  C26_34 
REMARK   14  A    between atoms: C26_34  and  C27_35 
REMARK   15  A    between atoms: C27_35  and  C28_36 
REMARK   16  A    between atoms: C28_36  and  C29_37 
ROOT
HETATM    1  C9  UNL     1       9.641  25.551  -1.849  1.00  0.00     0.223 C 
HETATM    2  O2  UNL     1       9.452  26.721  -2.549  1.00  0.00    -0.306 OA
HETATM    3  C10 UNL     1       8.877  27.908  -2.323  1.00  0.00     0.260 C 
HETATM    4  O3  UNL     1       7.806  28.191  -2.982  1.00  0.00    -0.265 OA
HETATM    5  C11 UNL     1       9.310  28.982  -1.391  1.00  0.00     0.118 C 
HETATM    6  C12 UNL     1       9.381  28.605   0.042  1.00  0.00     0.021 C 
HETATM    7  C16 UNL     1       8.253  28.941   0.920  1.00  0.00     0.095 C 
HETATM    8  N2  UNL     1       7.539  27.860   1.550  1.00  0.00    -0.354 N 
ATOM      9  H2  UNL     1       7.017  28.145   2.379  1.00  0.00     0.162 HD
HETATM   10  C22 UNL     1       7.419  26.525   1.260  1.00  0.00     0.240 C 
HETATM   11  O4  UNL     1       6.239  26.112   0.925  1.00  0.00    -0.271 OA
HETATM   12  C23 UNL     1       8.387  25.407   1.249  1.00  0.00     0.176 C 
HETATM   13  N5  UNL     1       8.232  24.556   0.080  1.00  0.00    -0.346 N 
ATOM     14  H5  UNL     1       7.957  23.589   0.250  1.00  0.00     0.163 HD
HETATM   15  C30 UNL     1       8.425  24.933  -1.267  1.00  0.00     0.248 C 
HETATM   16  O5  UNL     1       7.471  24.731  -2.075  1.00  0.00    -0.271 OA
ENDROOT
BRANCH  12  17
HETATM   17  C24 UNL     1       7.986  24.565   2.484  1.00  0.00     0.035 C 
BRANCH  17  18
HETATM   18  C25 UNL     1       8.635  25.089   3.741  1.00  0.00     0.002 C 
BRANCH  18  19
HETATM   19  C26 UNL     1       8.278  24.166   4.883  1.00  0.00     0.000 C 
BRANCH  19  20
HETATM   20  C27 UNL     1       6.916  23.551   4.724  1.00  0.00     0.007 C 
BRANCH  20  21
HETATM   21  C28 UNL     1       5.882  24.140   5.637  1.00  0.00     0.072 C 
BRANCH  21  22
HETATM   22  C29 UNL     1       4.792  24.695   4.779  1.00  0.00     0.086 C 
HETATM   23  N3  UNL     1       5.038  25.548   3.844  1.00  0.00    -0.391 N 
ATOM     24  H32 UNL     1       6.011  25.828   3.715  1.00  0.00     0.157 HD
ATOM     25  H31 UNL     1       4.295  25.927   3.259  1.00  0.00     0.157 HD
HETATM   26  N4  UNL     1       3.429  24.302   4.961  1.00  0.00    -0.088 NA
ENDBRANCH  21  22
ENDBRANCH  20  21
ENDBRANCH  19  20
ENDBRANCH  18  19
ENDBRANCH  17  18
ENDBRANCH  12  17
BRANCH   7  27
HETATM   27  C17 UNL     1       7.260  29.930   0.275  1.00  0.00     0.082 C 
BRANCH  27  28
HETATM   28  C18 UNL     1       6.691  30.803   1.309  1.00  0.00     0.011 A 
HETATM   29  C19 UNL     1       7.302  31.410   2.370  1.00  0.00     0.026 A 
HETATM   30  C20 UNL     1       6.374  32.135   3.068  1.00  0.00     0.019 A 
HETATM   31  C21 UNL     1       5.172  31.963   2.412  1.00  0.00     0.088 A 
HETATM   32  N1  UNL     1       5.404  31.171   1.381  1.00  0.00    -0.369 N 
ATOM     33  H1  UNL     1       4.688  30.873   0.717  1.00  0.00     0.165 HD
ENDBRANCH  27  28
ENDBRANCH   7  27
BRANCH   1  34
HETATM   34  C8  UNL     1      10.373  24.584  -2.777  1.00  0.00     0.042 C 
BRANCH  34  35
HETATM   35  C7  UNL     1      11.006  25.254  -3.965  1.00  0.00     0.003 C 
BRANCH  35  36
HETATM   36  C6  UNL     1      12.499  25.424  -3.741  1.00  0.00     0.001 C 
BRANCH  36  37
HETATM   37  C5  UNL     1      12.873  26.810  -3.330  1.00  0.00     0.007 C 
BRANCH  37  38
HETATM   38  C4  UNL     1      13.213  26.934  -1.854  1.00  0.00     0.078 C 
BRANCH  38  39
HETATM   39  C3  UNL     1      14.625  27.454  -1.766  1.00  0.00     0.126 C 
HETATM   40  O1  UNL     1      15.453  26.905  -1.078  1.00  0.00    -0.298 OA
BRANCH  39  41
HETATM   41  C2  UNL     1      15.028  28.664  -2.536  1.00  0.00     0.074 C 
HETATM   42  C1  UNL     1      16.507  28.954  -2.245  1.00  0.00     0.013 C 
ENDBRANCH  39  41
ENDBRANCH  38  39
ENDBRANCH  37  38
ENDBRANCH  36  37
ENDBRANCH  35  36
ENDBRANCH  34  35
ENDBRANCH   1  34
BRANCH   6  43
HETATM   43  C13 UNL     1      10.681  29.200   0.626  1.00  0.00    -0.016 C 
HETATM   44  C14 UNL     1      10.450  29.831   1.958  1.00  0.00     0.010 C 
HETATM   45  C15 UNL     1      11.295  30.222  -0.273  1.00  0.00     0.010 C 
ENDBRANCH   6  43
TORSDOF 16
ENDMDL
MODEL 2
REMARK VINA RESULT: -7.937602196      1.891      2.944
REMARK  16 active torsions:
REMARK  status: ('A' for Active; 'I' for Inactive)
REMARK    1  A    between atoms: C2_2  and  C3_3 
REMARK    2  A    between atoms: C3_3  and  C4_5 
REMARK    3  A    between atoms: C4_5  and  C5_6 
REMARK    4  A    between atoms: C5_6  and  C6_7 
REMARK    5  A    between atoms: C6_7  and  C7_8 
REMARK    6  A    between atoms: C7_8  and  C8_9 
REMARK    7  A    between atoms: C8_9  and  C9_10 
REMARK    8  A    between atoms: C12_15  and  C13_16 
REMARK    9  A    between atoms: C16_19  and  C17_20 
REMARK   10  A    between atoms: C17_20  and  C18_21 
REMARK   11  A    between atoms: C23_31  and  C24_32 
REMARK   12  A    between atoms: C24_32  and  C25_33 
REMARK   13  A    between atoms: C25_33  and  C26_34 
REMARK   14  A    between atoms: C26_34  and  C27_35 
REMARK   15  A    between atoms: C27_35  and  C28_36 
REMARK   16  A    between atoms: C28_36  and  C29_37 
ROOT
HETATM    1  C9  UNL     1       9.668  25.741  -1.849  1.00  0.00     0.223 C 
HETATM    2  O2  UNL     1       9.427  26.931  -2.497  1.00  0.00    -0.306 OA
HETATM    3  C10 UNL     1       8.802  28.082  -2.218  1.00  0.00     0.260 C 
HETATM    4  O3  UNL     1       7.718  28.347  -2.861  1.00  0.00    -0.265 OA
HETATM    5  C11 UNL     1       9.193  29.132  -1.241  1.00  0.00     0.118 C 
HETATM    6  C12 UNL     1       9.287  28.696   0.175  1.00  0.00     0.021 C 
HETATM    7  C16 UNL     1       8.149  28.944   1.069  1.00  0.00     0.095 C 
HETATM    8  N2  UNL     1       7.485  27.807   1.652  1.00  0.00    -0.354 N 
ATOM      9  H2  UNL     1       6.955  28.033   2.494  1.00  0.00     0.162 HD
HETATM   10  C22 UNL     1       7.420  26.482   1.304  1.00  0.00     0.240 C 
HETATM   11  O4  UNL     1       6.258  26.034   0.954  1.00  0.00    -0.271 OA
HETATM   12  C23 UNL     1       8.435  25.408   1.242  1.00  0.00     0.176 C 
HETATM   13  N5  UNL     1       8.312  24.603   0.037  1.00  0.00    -0.346 N 
ATOM     14  H5  UNL     1       8.079  23.618   0.165  1.00  0.00     0.163 HD
HETATM   15  C30 UNL     1       8.483  25.047  -1.292  1.00  0.00     0.248 C 
HETATM   16  O5  UNL     1       7.535  24.840  -2.106  1.00  0.00    -0.271 OA
ENDROOT
BRANCH  12  17
HETATM   17  C24 UNL     1       8.076  24.496   2.440  1.00  0.00     0.035 C 
BRANCH  17  18
HETATM   18  C25 UNL     1       8.529  25.100   3.746  1.00  0.00     0.002 C 
BRANCH  18  19
HETATM   19  C26 UNL     1       8.283  24.095   4.847  1.00  0.00     0.000 C 
BRANCH  19  20
HETATM   20  C27 UNL     1       6.897  23.517   4.803  1.00  0.00     0.007 C 
BRANCH  20  21
HETATM   21  C28 UNL     1       5.911  24.258   5.657  1.00  0.00     0.072 C 
BRANCH  21  22
HETATM   22  C29 UNL     1       4.811  24.730   4.763  1.00  0.00     0.086 C 
HETATM   23  N3  UNL     1       5.033  25.560   3.802  1.00  0.00    -0.391 N 
ATOM     24  H32 UNL     1       5.993  25.882   3.678  1.00  0.00     0.157 HD
ATOM     25  H31 UNL     1       4.282  25.883   3.193  1.00  0.00     0.157 HD
HETATM   26  N4  UNL     1       3.465  24.278   4.938  1.00  0.00    -0.088 NA
ENDBRANCH  21  22
ENDBRANCH  20  21
ENDBRANCH  19  20
ENDBRANCH  18  19
ENDBRANCH  17  18
ENDBRANCH  12  17
BRANCH   7  27
HETATM   27  C17 UNL     1       7.112  29.917   0.470  1.00  0.00     0.082 C 
BRANCH  27  28
HETATM   28  C18 UNL     1       6.919  31.053   1.379  1.00  0.00     0.011 A 
HETATM   29  C19 UNL     1       7.400  32.330   1.293  1.00  0.00     0.026 A 
HETATM   30  C20 UNL     1       6.959  33.050   2.369  1.00  0.00     0.019 A 
HETATM   31  C21 UNL     1       6.189  32.188   3.126  1.00  0.00     0.088 A 
HETATM   32  N1  UNL     1       6.193  31.022   2.506  1.00  0.00    -0.369 N 
ATOM     33  H1  UNL     1       5.702  30.194   2.844  1.00  0.00     0.165 HD
ENDBRANCH  27  28
ENDBRANCH   7  27
BRANCH   1  34
HETATM   34  C8  UNL     1      10.438  24.848  -2.821  1.00  0.00     0.042 C 
BRANCH  34  35
HETATM   35  C7  UNL     1      11.217  25.614  -3.854  1.00  0.00     0.003 C 
BRANCH  35  36
HETATM   36  C6  UNL     1      12.442  24.825  -4.282  1.00  0.00     0.001 C 
BRANCH  36  37
HETATM   37  C5  UNL     1      12.235  23.347  -4.224  1.00  0.00     0.007 C 
BRANCH  37  38
HETATM   38  C4  UNL     1      13.275  22.558  -4.999  1.00  0.00     0.078 C 
BRANCH  38  39
HETATM   39  C3  UNL     1      12.883  22.616  -6.454  1.00  0.00     0.126 C 
HETATM   40  O1  UNL     1      13.678  22.939  -7.305  1.00  0.00    -0.298 OA
BRANCH  39  41
HETATM   41  C2  UNL     1      11.495  22.271  -6.870  1.00  0.00     0.074 C 
HETATM   42  C1  UNL     1      11.569  21.193  -7.961  1.00  0.00     0.013 C 
ENDBRANCH  39  41
ENDBRANCH  38  39
ENDBRANCH  37  38
ENDBRANCH  36  37
ENDBRANCH  35  36
ENDBRANCH  34  35
ENDBRANCH   1  34
BRANCH   6  43
HETATM   43  C13 UNL     1      10.563  29.319   0.781  1.00  0.00    -0.016 C 
HETATM   44  C14 UNL     1      10.324  29.832   2.161  1.00  0.00     0.010 C 
HETATM   45  C15 UNL     1      11.098  30.441  -0.047  1.00  0.00     0.010 C 
ENDBRANCH   6  43
TORSDOF 16
ENDMDL
MODEL 3
REMARK VINA RESULT: -7.894852615      4.029      8.389
REMARK  16 active torsions:
REMARK  status: ('A' for Active; 'I' for Inactive)
REMARK    1  A    between atoms: C2_2  and  C3_3 
REMARK    2  A    between atoms: C3_3  and  C4_5 
REMARK    3  A    between atoms: C4_5  and  C5_6 
REMARK    4  A    between atoms: C5_6  and  C6_7 
REMARK    5  A    between atoms: C6_7  and  C7_8 
REMARK    6  A    between atoms: C7_8  and  C8_9 
REMARK    7  A    between atoms: C8_9  and  C9_10 
REMARK    8  A    between atoms: C12_15  and  C13_16 
REMARK    9  A    between atoms: C16_19  and  C17_20 
REMARK   10  A    between atoms: C17_20  and  C18_21 
REMARK   11  A    between atoms: C23_31  and  C24_32 
REMARK   12  A    between atoms: C24_32  and  C25_33 
REMARK   13  A    between atoms: C25_33  and  C26_34 
REMARK   14  A    between atoms: C26_34  and  C27_35 
REMARK   15  A    between atoms: C27_35  and  C28_36 
REMARK   16  A    between atoms: C28_36  and  C29_37 
ROOT
HETATM    1  C9  UNL     1       7.900  25.491   4.007  1.00  0.00     0.223 C 
HETATM    2  O2  UNL     1       7.535  25.158   2.722  1.00  0.00    -0.306 OA
HETATM    3  C10 UNL     1       7.316  25.810   1.574  1.00  0.00     0.260 C 
HETATM    4  O3  UNL     1       6.107  25.856   1.131  1.00  0.00    -0.265 OA
HETATM    5  C11 UNL     1       8.300  26.509   0.706  1.00  0.00     0.118 C 
HETATM    6  C12 UNL     1       9.043  27.626   1.342  1.00  0.00     0.021 C 
HETATM    7  C16 UNL     1       8.576  29.001   1.126  1.00  0.00     0.095 C 
HETATM    8  N2  UNL     1       8.149  29.760   2.273  1.00  0.00    -0.354 N 
ATOM      9  H2  UNL     1       8.166  30.769   2.123  1.00  0.00     0.162 HD
HETATM   10  C22 UNL     1       7.725  29.401   3.526  1.00  0.00     0.240 C 
HETATM   11  O4  UNL     1       6.497  29.683   3.822  1.00  0.00    -0.271 OA
HETATM   12  C23 UNL     1       8.396  28.733   4.662  1.00  0.00     0.176 C 
HETATM   13  N5  UNL     1       7.557  27.717   5.278  1.00  0.00    -0.346 N 
ATOM     14  H5  UNL     1       7.284  27.875   6.249  1.00  0.00     0.163 HD
HETATM   15  C30 UNL     1       7.083  26.535   4.670  1.00  0.00     0.248 C 
HETATM   16  O5  UNL     1       5.833  26.330   4.681  1.00  0.00    -0.271 OA
ENDROOT
BRANCH  12  17
HETATM   17  C24 UNL     1       8.576  29.868   5.699  1.00  0.00     0.035 C 
BRANCH  17  18
HETATM   18  C25 UNL     1       7.962  29.502   7.028  1.00  0.00     0.002 C 
BRANCH  18  19
HETATM   19  C26 UNL     1       8.391  30.528   8.051  1.00  0.00     0.000 C 
BRANCH  19  20
HETATM   20  C27 UNL     1       9.021  29.904   9.264  1.00  0.00     0.007 C 
BRANCH  20  21
HETATM   21  C28 UNL     1       8.073  29.066  10.068  1.00  0.00     0.072 C 
BRANCH  21  22
HETATM   22  C29 UNL     1       8.863  28.417  11.158  1.00  0.00     0.086 C 
HETATM   23  N3  UNL     1       8.535  27.265  11.633  1.00  0.00    -0.391 N 
ATOM     24  H32 UNL     1       7.712  26.813  11.233  1.00  0.00     0.157 HD
ATOM     25  H31 UNL     1       9.074  26.822  12.377  1.00  0.00     0.157 HD
HETATM   26  N4  UNL     1      10.017  29.050  11.718  1.00  0.00    -0.088 NA
ENDBRANCH  21  22
ENDBRANCH  20  21
ENDBRANCH  19  20
ENDBRANCH  18  19
ENDBRANCH  17  18
ENDBRANCH  12  17
BRANCH   7  27
HETATM   27  C17 UNL     1       7.531  29.113  -0.005  1.00  0.00     0.082 C 
BRANCH  27  28
HETATM   28  C18 UNL     1       8.195  29.514  -1.252  1.00  0.00     0.011 A 
HETATM   29  C19 UNL     1       8.465  28.778  -2.371  1.00  0.00     0.026 A 
HETATM   30  C20 UNL     1       9.098  29.572  -3.289  1.00  0.00     0.019 A 
HETATM   31  C21 UNL     1       9.212  30.820  -2.711  1.00  0.00     0.088 A 
HETATM   32  N1  UNL     1       8.667  30.742  -1.510  1.00  0.00    -0.369 N 
ATOM     33  H1  UNL     1       8.612  31.523  -0.857  1.00  0.00     0.165 HD
ENDBRANCH  27  28
ENDBRANCH   7  27
BRANCH   1  34
HETATM   34  C8  UNL     1       7.922  24.196   4.817  1.00  0.00     0.042 C 
BRANCH  34  35
HETATM   35  C7  UNL     1       6.589  23.504   4.883  1.00  0.00     0.003 C 
BRANCH  35  36
HETATM   36  C6  UNL     1       6.094  23.448   6.318  1.00  0.00     0.001 C 
BRANCH  36  37
HETATM   37  C5  UNL     1       4.699  22.929   6.434  1.00  0.00     0.007 C 
BRANCH  37  38
HETATM   38  C4  UNL     1       3.673  23.778   5.701  1.00  0.00     0.078 C 
BRANCH  38  39
HETATM   39  C3  UNL     1       2.394  23.712   6.496  1.00  0.00     0.126 C 
HETATM   40  O1  UNL     1       1.347  24.096   6.030  1.00  0.00    -0.298 OA
BRANCH  39  41
HETATM   41  C2  UNL     1       2.399  23.166   7.882  1.00  0.00     0.074 C 
HETATM   42  C1  UNL     1       1.126  22.330   8.079  1.00  0.00     0.013 C 
ENDBRANCH  39  41
ENDBRANCH  38  39
ENDBRANCH  37  38
ENDBRANCH  36  37
ENDBRANCH  35  36
ENDBRANCH  34  35
ENDBRANCH   1  34
BRANCH   6  43
HETATM   43  C13 UNL     1      10.524  27.513   0.918  1.00  0.00    -0.016 C 
HETATM   44  C14 UNL     1      11.105  28.847   0.588  1.00  0.00     0.010 C 
HETATM   45  C15 UNL     1      10.713  26.618  -0.262  1.00  0.00     0.010 C 
ENDBRANCH   6  43
TORSDOF 16
ENDMDL
MODEL 4
REMARK VINA RESULT: -7.891673585      3.982      8.184
REMARK  16 active torsions:
REMARK  status: ('A' for Active; 'I' for Inactive)
REMARK    1  A    between atoms: C2_2  and  C3_3 
REMARK    2  A    between atoms: C3_3  and  C4_5 
REMARK    3  A    between atoms: C4_5  and  C5_6 
REMARK    4  A    between atoms: C5_6  and  C6_7 
REMARK    5  A    between atoms: C6_7  and  C7_8 
REMARK    6  A    between atoms: C7_8  and  C8_9 
REMARK    7  A    between atoms: C8_9  and  C9_10 
REMARK    8  A    between atoms: C12_15  and  C13_16 
REMARK    9  A    between atoms: C16_19  and  C17_20 
REMARK   10  A    between atoms: C17_20  and  C18_21 
REMARK   11  A    between atoms: C23_31  and  C24_32 
REMARK   12  A    between atoms: C24_32  and  C25_33 
REMARK   13  A    between atoms: C25_33  and  C26_34 
REMARK   14  A    between atoms: C26_34  and  C27_35 
REMARK   15  A    between atoms: C27_35  and  C28_36 
REMARK   16  A    between atoms: C28_36  and  C29_37 
ROOT
HETATM    1  C9  UNL     1       7.886  25.479   3.972  1.00  0.00     0.223 C 
HETATM    2  O2  UNL     1       7.524  25.174   2.680  1.00  0.00    -0.306 OA
HETATM    3  C10 UNL     1       7.315  25.849   1.543  1.00  0.00     0.260 C 
HETATM    4  O3  UNL     1       6.108  25.914   1.097  1.00  0.00    -0.265 OA
HETATM    5  C11 UNL     1       8.308  26.558   0.694  1.00  0.00     0.118 C 
HETATM    6  C12 UNL     1       9.057  27.656   1.353  1.00  0.00     0.021 C 
HETATM    7  C16 UNL     1       8.602  29.039   1.162  1.00  0.00     0.095 C 
HETATM    8  N2  UNL     1       8.176  29.779   2.323  1.00  0.00    -0.354 N 
ATOM      9  H2  UNL     1       8.202  30.790   2.192  1.00  0.00     0.162 HD
HETATM   10  C22 UNL     1       7.744  29.398   3.567  1.00  0.00     0.240 C 
HETATM   11  O4  UNL     1       6.517  29.685   3.864  1.00  0.00    -0.271 OA
HETATM   12  C23 UNL     1       8.405  28.703   4.692  1.00  0.00     0.176 C 
HETATM   13  N5  UNL     1       7.556  27.683   5.285  1.00  0.00    -0.346 N 
ATOM     14  H5  UNL     1       7.280  27.824   6.257  1.00  0.00     0.163 HD
HETATM   15  C30 UNL     1       7.075  26.516   4.652  1.00  0.00     0.248 C 
HETATM   16  O5  UNL     1       5.823  26.321   4.655  1.00  0.00    -0.271 OA
ENDROOT
BRANCH  12  17
HETATM   17  C24 UNL     1       8.590  29.817   5.752  1.00  0.00     0.035 C 
BRANCH  17  18
HETATM   18  C25 UNL     1       7.974  29.427   7.073  1.00  0.00     0.002 C 
BRANCH  18  19
HETATM   19  C26 UNL     1       8.308  30.495   8.088  1.00  0.00     0.000 C 
BRANCH  19  20
HETATM   20  C27 UNL     1       8.946  29.934   9.327  1.00  0.00     0.007 C 
BRANCH  20  21
HETATM   21  C28 UNL     1       8.042  29.030  10.111  1.00  0.00     0.072 C 
BRANCH  21  22
HETATM   22  C29 UNL     1       8.867  28.389  11.179  1.00  0.00     0.086 C 
HETATM   23  N3  UNL     1       8.530  27.262  11.706  1.00  0.00    -0.391 N 
ATOM     24  H32 UNL     1       7.675  26.824  11.362  1.00  0.00     0.157 HD
ATOM     25  H31 UNL     1       9.093  26.824  12.435  1.00  0.00     0.157 HD
HETATM   26  N4  UNL     1      10.066  29.002  11.661  1.00  0.00    -0.088 NA
ENDBRANCH  21  22
ENDBRANCH  20  21
ENDBRANCH  19  20
ENDBRANCH  18  19
ENDBRANCH  17  18
ENDBRANCH  12  17
BRANCH   7  27
HETATM   27  C17 UNL     1       7.563  29.181   0.030  1.00  0.00     0.082 C 
BRANCH  27  28
HETATM   28  C18 UNL     1       6.910  30.493   0.122  1.00  0.00     0.011 A 
HETATM   29  C19 UNL     1       7.265  31.686  -0.443  1.00  0.00     0.026 A 
HETATM   30  C20 UNL     1       6.355  32.642  -0.084  1.00  0.00     0.019 A 
HETATM   31  C21 UNL     1       5.424  32.012   0.718  1.00  0.00     0.088 A 
HETATM   32  N1  UNL     1       5.789  30.746   0.814  1.00  0.00    -0.369 N 
ATOM     33  H1  UNL     1       5.280  30.044   1.350  1.00  0.00     0.165 HD
ENDBRANCH  27  28
ENDBRANCH   7  27
BRANCH   1  34
HETATM   34  C8  UNL     1       7.895  24.168   4.757  1.00  0.00     0.042 C 
BRANCH  34  35
HETATM   35  C7  UNL     1       6.544  23.517   4.857  1.00  0.00     0.003 C 
BRANCH  35  36
HETATM   36  C6  UNL     1       6.099  23.445   6.308  1.00  0.00     0.001 C 
BRANCH  36  37
HETATM   37  C5  UNL     1       4.698  22.951   6.465  1.00  0.00     0.007 C 
BRANCH  37  38
HETATM   38  C4  UNL     1       3.676  23.779   5.704  1.00  0.00     0.078 C 
BRANCH  38  39
HETATM   39  C3  UNL     1       2.378  23.690   6.466  1.00  0.00     0.126 C 
HETATM   40  O1  UNL     1       1.332  24.029   5.964  1.00  0.00    -0.298 OA
BRANCH  39  41
HETATM   41  C2  UNL     1       2.364  23.177   7.865  1.00  0.00     0.074 C 
HETATM   42  C1  UNL     1       1.087  22.348   8.064  1.00  0.00     0.013 C 
ENDBRANCH  39  41
ENDBRANCH  38  39
ENDBRANCH  37  38
ENDBRANCH  36  37
ENDBRANCH  35  36
ENDBRANCH  34  35
ENDBRANCH   1  34
BRANCH   6  43
HETATM   43  C13 UNL     1      10.538  27.540   0.933  1.00  0.00    -0.016 C 
HETATM   44  C14 UNL     1      11.094  28.855   0.501  1.00  0.00     0.010 C 
HETATM   45  C15 UNL     1      10.742  26.562  -0.177  1.00  0.00     0.010 C 
ENDBRANCH   6  43
TORSDOF 16
ENDMDL
MODEL 5
REMARK VINA RESULT: -7.836411346      2.026      4.004
REMARK  16 active torsions:
REMARK  status: ('A' for Active; 'I' for Inactive)
REMARK    1  A    between atoms: C2_2  and  C3_3 
REMARK    2  A    between atoms: C3_3  and  C4_5 
REMARK    3  A    between atoms: C4_5  and  C5_6 
REMARK    4  A    between atoms: C5_6  and  C6_7 
REMARK    5  A    between atoms: C6_7  and  C7_8 
REMARK    6  A    between atoms: C7_8  and  C8_9 
REMARK    7  A    between atoms: C8_9  and  C9_10 
REMARK    8  A    between atoms: C12_15  and  C13_16 
REMARK    9  A    between atoms: C16_19  and  C17_20 
REMARK   10  A    between atoms: C17_20  and  C18_21 
REMARK   11  A    between atoms: C23_31  and  C24_32 
REMARK   12  A    between atoms: C24_32  and  C25_33 
REMARK   13  A    between atoms: C25_33  and  C26_34 
REMARK   14  A    between atoms: C26_34  and  C27_35 
REMARK   15  A    between atoms: C27_35  and  C28_36 
REMARK   16  A    between atoms: C28_36  and  C29_37 
ROOT
HETATM    1  C9  UNL     1       9.689  25.682  -1.729  1.00  0.00     0.223 C 
HETATM    2  O2  UNL     1       9.460  26.855  -2.412  1.00  0.00    -0.306 OA
HETATM    3  C10 UNL     1       8.822  28.008  -2.177  1.00  0.00     0.260 C 
HETATM    4  O3  UNL     1       7.755  28.253  -2.856  1.00  0.00    -0.265 OA
HETATM    5  C11 UNL     1       9.182  29.083  -1.215  1.00  0.00     0.118 C 
HETATM    6  C12 UNL     1       9.238  28.682   0.212  1.00  0.00     0.021 C 
HETATM    7  C16 UNL     1       8.076  28.945   1.069  1.00  0.00     0.095 C 
HETATM    8  N2  UNL     1       7.400  27.819   1.661  1.00  0.00    -0.354 N 
ATOM      9  H2  UNL     1       6.847  28.062   2.483  1.00  0.00     0.162 HD
HETATM   10  C22 UNL     1       7.352  26.486   1.344  1.00  0.00     0.240 C 
HETATM   11  O4  UNL     1       6.201  26.023   0.972  1.00  0.00    -0.271 OA
HETATM   12  C23 UNL     1       8.373  25.416   1.334  1.00  0.00     0.176 C 
HETATM   13  N5  UNL     1       8.286  24.583   0.146  1.00  0.00    -0.346 N 
ATOM     14  H5  UNL     1       8.055  23.600   0.292  1.00  0.00     0.163 HD
HETATM   15  C30 UNL     1       8.491  24.995  -1.188  1.00  0.00     0.248 C 
HETATM   16  O5  UNL     1       7.567  24.764  -2.023  1.00  0.00    -0.271 OA
ENDROOT
BRANCH  12  17
HETATM   17  C24 UNL     1       7.985  24.531   2.543  1.00  0.00     0.035 C 
BRANCH  17  18
HETATM   18  C25 UNL     1       8.617  25.033   3.818  1.00  0.00     0.002 C 
BRANCH  18  19
HETATM   19  C26 UNL     1       8.210  24.115   4.947  1.00  0.00     0.000 C 
BRANCH  19  20
HETATM   20  C27 UNL     1       6.852  23.509   4.737  1.00  0.00     0.007 C 
BRANCH  20  21
HETATM   21  C28 UNL     1       5.801  24.058   5.656  1.00  0.00     0.072 C 
BRANCH  21  22
HETATM   22  C29 UNL     1       4.723  24.644   4.804  1.00  0.00     0.086 C 
HETATM   23  N3  UNL     1       4.985  25.510   3.885  1.00  0.00    -0.391 N 
ATOM     24  H32 UNL     1       5.962  25.779   3.765  1.00  0.00     0.157 HD
ATOM     25  H31 UNL     1       4.249  25.910   3.304  1.00  0.00     0.157 HD
HETATM   26  N4  UNL     1       3.354  24.267   4.974  1.00  0.00    -0.088 NA
ENDBRANCH  21  22
ENDBRANCH  20  21
ENDBRANCH  19  20
ENDBRANCH  18  19
ENDBRANCH  17  18
ENDBRANCH  12  17
BRANCH   7  27
HETATM   27  C17 UNL     1       7.050  29.898   0.419  1.00  0.00     0.082 C 
BRANCH  27  28
HETATM   28  C18 UNL     1       6.810  31.043   1.306  1.00  0.00     0.011 A 
HETATM   29  C19 UNL     1       7.526  32.199   1.452  1.00  0.00     0.026 A 
HETATM   30  C20 UNL     1       6.924  32.984   2.397  1.00  0.00     0.019 A 
HETATM   31  C21 UNL     1       5.814  32.287   2.833  1.00  0.00     0.088 A 
HETATM   32  N1  UNL     1       5.785  31.148   2.164  1.00  0.00    -0.369 N 
ATOM     33  H1  UNL     1       5.069  30.433   2.286  1.00  0.00     0.165 HD
ENDBRANCH  27  28
ENDBRANCH   7  27
BRANCH   1  34
HETATM   34  C8  UNL     1      10.488  24.770  -2.658  1.00  0.00     0.042 C 
BRANCH  34  35
HETATM   35  C7  UNL     1      10.536  25.253  -4.081  1.00  0.00     0.003 C 
BRANCH  35  36
HETATM   36  C6  UNL     1      10.479  24.076  -5.039  1.00  0.00     0.001 C 
BRANCH  36  37
HETATM   37  C5  UNL     1       9.116  23.849  -5.605  1.00  0.00     0.007 C 
BRANCH  37  38
HETATM   38  C4  UNL     1       8.339  22.753  -4.895  1.00  0.00     0.078 C 
BRANCH  38  39
HETATM   39  C3  UNL     1       7.528  22.035  -5.943  1.00  0.00     0.126 C 
HETATM   40  O1  UNL     1       6.454  22.458  -6.303  1.00  0.00    -0.298 OA
BRANCH  39  41
HETATM   41  C2  UNL     1       8.042  20.780  -6.560  1.00  0.00     0.074 C 
HETATM   42  C1  UNL     1       6.870  20.056  -7.237  1.00  0.00     0.013 C 
ENDBRANCH  39  41
ENDBRANCH  38  39
ENDBRANCH  37  38
ENDBRANCH  36  37
ENDBRANCH  35  36
ENDBRANCH  34  35
ENDBRANCH   1  34
BRANCH   6  43
HETATM   43  C13 UNL     1      10.494  29.326   0.838  1.00  0.00    -0.016 C 
HETATM   44  C14 UNL     1      10.263  29.719   2.258  1.00  0.00     0.010 C 
HETATM   45  C15 UNL     1      10.949  30.535   0.088  1.00  0.00     0.010 C 
ENDBRANCH   6  43
TORSDOF 16
ENDMDL
