MODEL 1
REMARK VINA RESULT: -5.916033877      0.000      0.000
REMARK  2 active torsions:
REMARK  status: ('A' for Active; 'I' for Inactive)
REMARK    1  A    between atoms: N2_4  and  C1_6 
REMARK    2  A    between atoms: C1_6  and  C2_7 
ROOT
HETATM    1  N1  UNL     1      19.758  13.488  24.987  1.00  0.00    -0.349 N 
ATOM      2  H11 UNL     1      20.144  12.544  25.008  1.00  0.00     0.176 HD
ATOM      3  H12 UNL     1      19.982  14.097  24.199  1.00  0.00     0.176 HD
HETATM    4  N2  UNL     1      19.018  13.957  25.871  1.00  0.00    -0.343 N 
ATOM      5  H2  UNL     1      18.784  13.362  26.665  1.00  0.00     0.179 HD
ENDROOT
BRANCH   4   6
HETATM    6  C1  UNL     1      18.475  15.286  25.840  1.00  0.00     0.143 C 
BRANCH   6   7
HETATM    7  C2  UNL     1      17.631  15.480  27.065  1.00  0.00     0.005 A 
HETATM    8  C3  UNL     1      17.787  16.876  27.680  1.00  0.00     0.007 A 
HETATM    9  C4  UNL     1      16.495  16.389  27.125  1.00  0.00     0.007 A 
ENDBRANCH   6   7
ENDBRANCH   4   6
TORSDOF 2
ENDMDL
MODEL 2
REMARK VINA RESULT: -5.829894806      0.897      1.107
REMARK  2 active torsions:
REMARK  status: ('A' for Active; 'I' for Inactive)
REMARK    1  A    between atoms: N2_4  and  C1_6 
REMARK    2  A    between atoms: C1_6  and  C2_7 
ROOT
HETATM    1  N1  UNL     1      19.386  13.534  25.695  1.00  0.00    -0.349 N 
ATOM      2  H11 UNL     1      20.169  12.880  25.715  1.00  0.00     0.176 HD
ATOM      3  H12 UNL     1      19.201  14.058  24.839  1.00  0.00     0.176 HD
HETATM    4  N2  UNL     1      18.628  13.741  26.659  1.00  0.00    -0.343 N 
ATOM      5  H2  UNL     1      18.798  13.226  27.523  1.00  0.00     0.179 HD
ENDROOT
BRANCH   4   6
HETATM    6  C1  UNL     1      17.527  14.662  26.631  1.00  0.00     0.143 C 
BRANCH   6   7
HETATM    7  C2  UNL     1      18.030  16.015  27.040  1.00  0.00     0.005 A 
HETATM    8  C3  UNL     1      17.089  17.151  26.624  1.00  0.00     0.007 A 
HETATM    9  C4  UNL     1      17.385  16.843  28.048  1.00  0.00     0.007 A 
ENDBRANCH   6   7
ENDBRANCH   4   6
TORSDOF 2
ENDMDL
MODEL 3
REMARK VINA RESULT: -5.383103387      0.903      1.146
REMARK  2 active torsions:
REMARK  status: ('A' for Active; 'I' for Inactive)
REMARK    1  A    between atoms: N2_4  and  C1_6 
REMARK    2  A    between atoms: C1_6  and  C2_7 
ROOT
HETATM    1  N1  UNL     1      18.402  13.695  26.859  1.00  0.00    -0.349 N 
ATOM      2  H11 UNL     1      18.605  12.696  26.871  1.00  0.00     0.176 HD
ATOM      3  H12 UNL     1      17.845  14.096  27.614  1.00  0.00     0.176 HD
HETATM    4  N2  UNL     1      18.795  14.474  25.971  1.00  0.00    -0.343 N 
ATOM      5  H2  UNL     1      19.353  14.090  25.209  1.00  0.00     0.179 HD
ENDROOT
BRANCH   4   6
HETATM    6  C1  UNL     1      18.509  15.881  25.955  1.00  0.00     0.143 C 
BRANCH   6   7
HETATM    7  C2  UNL     1      17.837  16.243  27.246  1.00  0.00     0.005 A 
HETATM    8  C3  UNL     1      17.299  17.679  27.256  1.00  0.00     0.007 A 
HETATM    9  C4  UNL     1      16.409  16.493  27.370  1.00  0.00     0.007 A 
ENDBRANCH   6   7
ENDBRANCH   4   6
TORSDOF 2
ENDMDL
MODEL 4
REMARK VINA RESULT: -5.369802186      3.134      3.797
REMARK  2 active torsions:
REMARK  status: ('A' for Active; 'I' for Inactive)
REMARK    1  A    between atoms: N2_4  and  C1_6 
REMARK    2  A    between atoms: C1_6  and  C2_7 
ROOT
HETATM    1  N1  UNL     1      16.152  18.827  26.532  1.00  0.00    -0.349 N 
ATOM      2  H11 UNL     1      15.293  19.338  26.332  1.00  0.00     0.176 HD
ATOM      3  H12 UNL     1      17.049  19.283  26.362  1.00  0.00     0.176 HD
HETATM    4  N2  UNL     1      16.185  17.665  26.976  1.00  0.00    -0.343 N 
ATOM      5  H2  UNL     1      15.298  17.195  27.151  1.00  0.00     0.179 HD
ENDROOT
BRANCH   4   6
HETATM    6  C1  UNL     1      17.396  16.947  27.257  1.00  0.00     0.143 C 
BRANCH   6   7
HETATM    7  C2  UNL     1      17.244  15.544  26.749  1.00  0.00     0.005 A 
HETATM    8  C3  UNL     1      18.364  15.134  25.787  1.00  0.00     0.007 A 
HETATM    9  C4  UNL     1      18.150  14.459  27.095  1.00  0.00     0.007 A 
ENDBRANCH   6   7
ENDBRANCH   4   6
TORSDOF 2
ENDMDL
MODEL 5
REMARK VINA RESULT: -5.365462453      1.115      1.194
REMARK  2 active torsions:
REMARK  status: ('A' for Active; 'I' for Inactive)
REMARK    1  A    between atoms: N2_4  and  C1_6 
REMARK    2  A    between atoms: C1_6  and  C2_7 
ROOT
HETATM    1  N1  UNL     1      19.624  15.138  24.236  1.00  0.00    -0.349 N 
ATOM      2  H11 UNL     1      20.526  14.873  23.842  1.00  0.00     0.176 HD
ATOM      3  H12 UNL     1      19.007  15.746  23.697  1.00  0.00     0.176 HD
HETATM    4  N2  UNL     1      19.213  14.762  25.349  1.00  0.00    -0.343 N 
ATOM      5  H2  UNL     1      19.816  14.153  25.901  1.00  0.00     0.179 HD
ENDROOT
BRANCH   4   6
HETATM    6  C1  UNL     1      17.942  15.135  25.903  1.00  0.00     0.143 C 
BRANCH   6   7
HETATM    7  C2  UNL     1      18.154  16.284  26.844  1.00  0.00     0.005 A 
HETATM    8  C3  UNL     1      17.085  17.374  26.703  1.00  0.00     0.007 A 
HETATM    9  C4  UNL     1      17.266  16.591  27.955  1.00  0.00     0.007 A 
ENDBRANCH   6   7
ENDBRANCH   4   6
TORSDOF 2
ENDMDL
