MODEL 1
REMARK VINA RESULT: -6.084435527      0.000      0.000
REMARK  3 active torsions:
REMARK  status: ('A' for Active; 'I' for Inactive)
REMARK    1  A    between atoms: C2_2  and  C3_3 
REMARK    2  A    between atoms: C3_3  and  N1_4 
REMARK    3  A    between atoms: N2_6  and  N3_8 
ROOT
HETATM    1  N1  UNL     1      18.538  14.199  26.573  1.00  0.00    -0.319 N 
ATOM      2  H1  UNL     1      18.998  13.682  27.322  1.00  0.00     0.181 HD
HETATM    3  N2  UNL     1      18.943  14.094  25.384  1.00  0.00    -0.252 N 
ATOM      4  H2  UNL     1      18.491  14.607  24.627  1.00  0.00     0.207 HD
ENDROOT
BRANCH   1   5
HETATM    5  C3  UNL     1      17.426  15.053  26.861  1.00  0.00     0.167 C 
BRANCH   5   6
HETATM    6  C2  UNL     1      17.823  16.406  27.301  1.00  0.00    -0.016 C 
HETATM    7  C1  UNL     1      17.066  17.438  26.957  1.00  0.00     0.008 C 
ENDBRANCH   5   6
ENDBRANCH   1   5
BRANCH   3   8
HETATM    8  N3  UNL     1      20.034  13.249  25.133  1.00  0.00    -0.327 N 
HETATM    9  C4  UNL     1      20.710  13.325  23.848  1.00  0.00     0.169 C 
ATOM     10  H3  UNL     1      20.350  12.589  25.844  1.00  0.00     0.181 HD
ENDBRANCH   3   8
TORSDOF 3
ENDMDL
MODEL 2
REMARK VINA RESULT: -6.047726449      0.955      1.051
REMARK  3 active torsions:
REMARK  status: ('A' for Active; 'I' for Inactive)
REMARK    1  A    between atoms: C2_2  and  C3_3 
REMARK    2  A    between atoms: C3_3  and  N1_4 
REMARK    3  A    between atoms: N2_6  and  N3_8 
ROOT
HETATM    1  N1  UNL     1      18.794  15.352  26.339  1.00  0.00    -0.319 N 
ATOM      2  H1  UNL     1      19.269  16.012  25.723  1.00  0.00     0.181 HD
HETATM    3  N2  UNL     1      18.860  14.113  26.117  1.00  0.00    -0.252 N 
ATOM      4  H2  UNL     1      18.389  13.444  26.726  1.00  0.00     0.207 HD
ENDROOT
BRANCH   1   5
HETATM    5  C3  UNL     1      18.046  15.823  27.464  1.00  0.00     0.167 C 
BRANCH   5   6
HETATM    6  C2  UNL     1      16.811  16.540  27.089  1.00  0.00    -0.016 C 
HETATM    7  C1  UNL     1      16.887  17.826  26.776  1.00  0.00     0.008 C 
ENDBRANCH   5   6
ENDBRANCH   1   5
BRANCH   3   8
HETATM    8  N3  UNL     1      19.601  13.682  25.007  1.00  0.00    -0.327 N 
HETATM    9  C4  UNL     1      19.452  14.380  23.739  1.00  0.00     0.169 C 
ATOM     10  H3  UNL     1      20.238  12.889  25.088  1.00  0.00     0.181 HD
ENDBRANCH   3   8
TORSDOF 3
ENDMDL
MODEL 3
REMARK VINA RESULT: -5.846171888      0.945      1.057
REMARK  3 active torsions:
REMARK  status: ('A' for Active; 'I' for Inactive)
REMARK    1  A    between atoms: C2_2  and  C3_3 
REMARK    2  A    between atoms: C3_3  and  N1_4 
REMARK    3  A    between atoms: N2_6  and  N3_8 
ROOT
HETATM    1  N1  UNL     1      18.911  14.122  25.856  1.00  0.00    -0.319 N 
ATOM      2  H1  UNL     1      19.161  13.142  25.721  1.00  0.00     0.181 HD
HETATM    3  N2  UNL     1      19.303  14.998  25.039  1.00  0.00    -0.252 N 
ATOM      4  H2  UNL     1      19.059  15.980  25.165  1.00  0.00     0.207 HD
ENDROOT
BRANCH   1   5
HETATM    5  C3  UNL     1      18.110  14.515  26.974  1.00  0.00     0.167 C 
BRANCH   5   6
HETATM    6  C2  UNL     1      17.364  15.770  26.750  1.00  0.00    -0.016 C 
HETATM    7  C1  UNL     1      17.348  16.685  27.708  1.00  0.00     0.008 C 
ENDBRANCH   5   6
ENDBRANCH   1   5
BRANCH   3   8
HETATM    8  N3  UNL     1      20.086  14.581  23.953  1.00  0.00    -0.327 N 
HETATM    9  C4  UNL     1      20.650  13.240  23.957  1.00  0.00     0.169 C 
ATOM     10  H3  UNL     1      20.258  15.211  23.169  1.00  0.00     0.181 HD
ENDBRANCH   3   8
TORSDOF 3
ENDMDL
MODEL 4
REMARK VINA RESULT: -5.633779208      0.827      1.003
REMARK  3 active torsions:
REMARK  status: ('A' for Active; 'I' for Inactive)
REMARK    1  A    between atoms: C2_2  and  C3_3 
REMARK    2  A    between atoms: C3_3  and  N1_4 
REMARK    3  A    between atoms: N2_6  and  N3_8 
ROOT
HETATM    1  N1  UNL     1      19.141  14.934  25.208  1.00  0.00    -0.319 N 
ATOM      2  H1  UNL     1      19.848  15.337  24.592  1.00  0.00     0.181 HD
HETATM    3  N2  UNL     1      19.199  13.718  25.533  1.00  0.00    -0.252 N 
ATOM      4  H2  UNL     1      18.498  13.304  26.148  1.00  0.00     0.207 HD
ENDROOT
BRANCH   1   5
HETATM    5  C3  UNL     1      18.073  15.743  25.710  1.00  0.00     0.167 C 
BRANCH   5   6
HETATM    6  C2  UNL     1      18.008  15.779  27.185  1.00  0.00    -0.016 C 
HETATM    7  C1  UNL     1      17.300  16.734  27.771  1.00  0.00     0.008 C 
ENDBRANCH   5   6
ENDBRANCH   1   5
BRANCH   3   8
HETATM    8  N3  UNL     1      20.258  12.951  25.025  1.00  0.00    -0.327 N 
HETATM    9  C4  UNL     1      20.854  13.319  23.750  1.00  0.00     0.169 C 
ATOM     10  H3  UNL     1      20.606  12.144  25.544  1.00  0.00     0.181 HD
ENDBRANCH   3   8
TORSDOF 3
ENDMDL
MODEL 5
REMARK VINA RESULT: -4.891038383      3.343      5.148
REMARK  3 active torsions:
REMARK  status: ('A' for Active; 'I' for Inactive)
REMARK    1  A    between atoms: C2_2  and  C3_3 
REMARK    2  A    between atoms: C3_3  and  N1_4 
REMARK    3  A    between atoms: N2_6  and  N3_8 
ROOT
HETATM    1  N1  UNL     1      16.456  17.053  27.279  1.00  0.00    -0.319 N 
ATOM      2  H1  UNL     1      15.503  16.719  27.420  1.00  0.00     0.181 HD
HETATM    3  N2  UNL     1      16.665  18.204  26.810  1.00  0.00    -0.252 N 
ATOM      4  H2  UNL     1      17.614  18.548  26.665  1.00  0.00     0.207 HD
ENDROOT
BRANCH   1   5
HETATM    5  C3  UNL     1      17.571  16.221  27.614  1.00  0.00     0.167 C 
BRANCH   5   6
HETATM    6  C2  UNL     1      17.658  14.998  26.791  1.00  0.00    -0.016 C 
HETATM    7  C1  UNL     1      18.376  15.026  25.677  1.00  0.00     0.008 C 
ENDBRANCH   5   6
ENDBRANCH   1   5
BRANCH   3   8
HETATM    8  N3  UNL     1      15.552  18.996  26.492  1.00  0.00    -0.327 N 
HETATM    9  C4  UNL     1      15.749  20.401  26.167  1.00  0.00     0.169 C 
ATOM     10  H3  UNL     1      14.615  18.593  26.489  1.00  0.00     0.181 HD
ENDBRANCH   3   8
TORSDOF 3
ENDMDL
