MODEL 1
REMARK VINA RESULT: -8.985895600      0.000      0.000
REMARK  11 active torsions:
REMARK  status: ('A' for Active; 'I' for Inactive)
REMARK    1  A    between atoms: N1_3  and  C3_5 
REMARK    2  A    between atoms: C3_5  and  C4_6 
REMARK    3  A    between atoms: C4_6  and  N2_7 
REMARK       I    between atoms: C5_9  and  N3_10 
REMARK       I    between atoms: C5_9  and  N5_20 
REMARK    4  A    between atoms: N3_10  and  C6_12 
REMARK    5  A    between atoms: C6_12  and  C7_13 
REMARK    6  A    between atoms: C7_13  and  C8_14 
REMARK    7  A    between atoms: C8_14  and  N4_15 
REMARK    8  A    between atoms: N4_15  and  C9_16 
REMARK    9  A    between atoms: N4_15  and  C11_18 
REMARK   10  A    between atoms: C14_22  and  O1_23 
REMARK   11  A    between atoms: C20_29  and  N6_30 
REMARK       I    between atoms: N6_30  and  C21_32 
REMARK       I    between atoms: C21_32  and  N7_34 
ROOT
HETATM    1  N2  UNL     1      -9.726  15.341  28.960  1.00  0.00    -0.224 N 
ATOM      2  H2  UNL     1      -9.052  15.977  29.386  1.00  0.00     0.177 HD
HETATM    3  C5  UNL     1      -9.666  15.121  27.689  1.00  0.00     0.683 C 
HETATM    4  N3  UNL     1     -10.597  14.246  27.101  1.00  0.00    -0.226 N 
ATOM      5  H3  UNL     1     -10.333  13.263  27.026  1.00  0.00     0.177 HD
HETATM    6  N5  UNL     1      -8.671  15.736  26.896  1.00  0.00    -0.119 N 
HETATM    7  C13 UNL     1      -7.747  16.599  27.594  1.00  0.00     0.156 C 
HETATM    8  C14 UNL     1      -6.831  17.418  27.122  1.00  0.00     0.100 C 
HETATM    9  C16 UNL     1      -6.437  17.735  25.743  1.00  0.00     0.065 A 
HETATM   10  C17 UNL     1      -6.900  17.259  24.599  1.00  0.00     0.011 A 
HETATM   11  C18 UNL     1      -6.192  17.883  23.491  1.00  0.00     0.033 A 
HETATM   12  C19 UNL     1      -6.354  17.741  22.160  1.00  0.00     0.046 A 
HETATM   13  C20 UNL     1      -7.307  16.908  21.462  1.00  0.00     0.037 A 
HETATM   14  C23 UNL     1      -8.211  16.059  21.976  1.00  0.00     0.030 A 
HETATM   15  C24 UNL     1      -8.504  15.721  23.351  1.00  0.00     0.020 A 
HETATM   16  C25 UNL     1      -7.951  16.227  24.446  1.00  0.00     0.045 A 
HETATM   17  C26 UNL     1      -8.633  15.465  25.503  1.00  0.00     0.277 C 
HETATM   18  O3  UNL     1      -9.251  14.451  25.119  1.00  0.00    -0.266 OA
HETATM   19  C27 UNL     1      -5.227  18.803  24.063  1.00  0.00     0.233 A 
HETATM   20  O4  UNL     1      -4.424  19.527  23.402  1.00  0.00    -0.283 OA
HETATM   21  C28 UNL     1      -5.380  18.712  25.503  1.00  0.00     0.236 A 
HETATM   22  O5  UNL     1      -4.716  19.362  26.360  1.00  0.00    -0.283 OA
ENDROOT
BRANCH   1  23
HETATM   23  C4  UNL     1     -10.723  14.708  29.792  1.00  0.00     0.157 C 
BRANCH  23  24
HETATM   24  C3  UNL     1     -10.584  15.106  31.215  1.00  0.00     0.139 C 
BRANCH  24  25
HETATM   25  N1  UNL     1      -9.974  14.130  32.060  1.00  0.00    -0.401 N 
HETATM   26  C2  UNL     1      -9.307  14.460  33.091  1.00  0.00     0.051 C 
HETATM   27  C1  UNL     1      -9.068  15.832  33.559  1.00  0.00     0.054 C 
ATOM     28  H1  UNL     1     -10.075  13.141  31.831  1.00  0.00     0.158 HD
ENDBRANCH  24  25
ENDBRANCH  23  24
ENDBRANCH   1  23
BRANCH   4  29
HETATM   29  C6  UNL     1     -11.903  14.628  26.592  1.00  0.00     0.140 C 
BRANCH  29  30
HETATM   30  C7  UNL     1     -12.734  13.390  26.282  1.00  0.00     0.050 C 
BRANCH  30  31
HETATM   31  C8  UNL     1     -13.954  13.397  27.131  1.00  0.00     0.274 C 
BRANCH  31  32
HETATM   32  N4  UNL     1     -13.657  13.216  28.547  1.00  0.00     0.087 N 
BRANCH  32  33
HETATM   33  C9  UNL     1     -13.782  11.877  28.976  1.00  0.00     0.268 C 
HETATM   34  C10 UNL     1     -12.451  11.307  29.388  1.00  0.00     0.037 C 
ENDBRANCH  32  33
BRANCH  32  35
HETATM   35  C11 UNL     1     -14.405  14.206  29.240  1.00  0.00     0.268 C 
HETATM   36  C12 UNL     1     -14.427  14.084  30.738  1.00  0.00     0.037 C 
ENDBRANCH  32  35
ENDBRANCH  31  32
ENDBRANCH  30  31
ENDBRANCH  29  30
ENDBRANCH   4  29
BRANCH   8  37
HETATM   37  O1  UNL     1      -6.125  18.092  28.122  1.00  0.00    -0.354 OA
HETATM   38  C15 UNL     1      -5.322  17.284  28.964  1.00  0.00     0.210 C 
ENDBRANCH   8  37
BRANCH  13  39
HETATM   39  N6  UNL     1      -7.315  16.992  20.039  1.00  0.00    -0.309 N 
HETATM   40  C21 UNL     1      -6.417  16.234  19.233  1.00  0.00     0.320 C 
HETATM   41  O2  UNL     1      -5.603  15.475  19.808  1.00  0.00    -0.247 OA
HETATM   42  N7  UNL     1      -6.413  16.306  17.829  1.00  0.00    -0.347 N 
HETATM   43  C22 UNL     1      -5.499  15.518  17.048  1.00  0.00     0.151 C 
ATOM     44  H7  UNL     1      -7.070  16.927  17.356  1.00  0.00     0.163 HD
ATOM     45  H6  UNL     1      -7.985  17.614  19.584  1.00  0.00     0.170 HD
ENDBRANCH  13  39
TORSDOF 11
ENDMDL
MODEL 2
REMARK VINA RESULT: -8.967130052      3.119     10.700
REMARK  11 active torsions:
REMARK  status: ('A' for Active; 'I' for Inactive)
REMARK    1  A    between atoms: N1_3  and  C3_5 
REMARK    2  A    between atoms: C3_5  and  C4_6 
REMARK    3  A    between atoms: C4_6  and  N2_7 
REMARK       I    between atoms: C5_9  and  N3_10 
REMARK       I    between atoms: C5_9  and  N5_20 
REMARK    4  A    between atoms: N3_10  and  C6_12 
REMARK    5  A    between atoms: C6_12  and  C7_13 
REMARK    6  A    between atoms: C7_13  and  C8_14 
REMARK    7  A    between atoms: C8_14  and  N4_15 
REMARK    8  A    between atoms: N4_15  and  C9_16 
REMARK    9  A    between atoms: N4_15  and  C11_18 
REMARK   10  A    between atoms: C14_22  and  O1_23 
REMARK   11  A    between atoms: C20_29  and  N6_30 
REMARK       I    between atoms: N6_30  and  C21_32 
REMARK       I    between atoms: C21_32  and  N7_34 
ROOT
HETATM    1  N2  UNL     1      -8.543  16.093  25.518  1.00  0.00    -0.224 N 
ATOM      2  H2  UNL     1      -9.434  15.838  25.091  1.00  0.00     0.177 HD
HETATM    3  C5  UNL     1      -8.374  15.901  26.783  1.00  0.00     0.683 C 
HETATM    4  N3  UNL     1      -7.147  16.255  27.372  1.00  0.00    -0.226 N 
ATOM      5  H3  UNL     1      -6.428  15.534  27.425  1.00  0.00     0.177 HD
HETATM    6  N5  UNL     1      -9.399  15.327  27.569  1.00  0.00    -0.119 N 
HETATM    7  C13 UNL     1     -10.613  14.976  26.871  1.00  0.00     0.156 C 
HETATM    8  C14 UNL     1     -11.778  14.580  27.341  1.00  0.00     0.100 C 
HETATM    9  C16 UNL     1     -12.239  14.364  28.719  1.00  0.00     0.065 A 
HETATM   10  C17 UNL     1     -11.589  14.499  29.862  1.00  0.00     0.011 A 
HETATM   11  C18 UNL     1     -12.475  14.171  30.968  1.00  0.00     0.033 A 
HETATM   12  C19 UNL     1     -12.263  14.208  32.299  1.00  0.00     0.046 A 
HETATM   13  C20 UNL     1     -11.060  14.600  32.999  1.00  0.00     0.037 A 
HETATM   14  C23 UNL     1      -9.876  14.971  32.485  1.00  0.00     0.030 A 
HETATM   15  C24 UNL     1      -9.446  15.088  31.110  1.00  0.00     0.020 A 
HETATM   16  C25 UNL     1     -10.168  14.889  30.015  1.00  0.00     0.045 A 
HETATM   17  C26 UNL     1      -9.174  15.125  28.957  1.00  0.00     0.277 C 
HETATM   18  O3  UNL     1      -7.985  15.144  29.333  1.00  0.00    -0.266 OA
HETATM   19  C27 UNL     1     -13.758  13.809  30.396  1.00  0.00     0.233 A 
HETATM   20  O4  UNL     1     -14.783  13.460  31.055  1.00  0.00    -0.283 OA
HETATM   21  C28 UNL     1     -13.612  13.931  28.957  1.00  0.00     0.236 A 
HETATM   22  O5  UNL     1     -14.513  13.702  28.101  1.00  0.00    -0.283 OA
ENDROOT
BRANCH   1  23
HETATM   23  C4  UNL     1      -7.503  16.661  24.693  1.00  0.00     0.157 C 
BRANCH  23  24
HETATM   24  C3  UNL     1      -8.012  17.043  23.352  1.00  0.00     0.139 C 
BRANCH  24  25
HETATM   25  N1  UNL     1      -9.008  16.173  22.812  1.00  0.00    -0.401 N 
HETATM   26  C2  UNL     1      -9.292  16.168  21.572  1.00  0.00     0.051 C 
HETATM   27  C1  UNL     1      -8.671  17.014  20.544  1.00  0.00     0.054 C 
ATOM     28  H1  UNL     1      -9.505  15.538  23.437  1.00  0.00     0.158 HD
ENDBRANCH  24  25
ENDBRANCH  23  24
ENDBRANCH   1  23
BRANCH   4  29
HETATM   29  C6  UNL     1      -6.822  17.565  27.911  1.00  0.00     0.140 C 
BRANCH  29  30
HETATM   30  C7  UNL     1      -5.335  17.652  28.230  1.00  0.00     0.050 C 
BRANCH  30  31
HETATM   31  C8  UNL     1      -4.715  18.698  27.375  1.00  0.00     0.274 C 
BRANCH  31  32
HETATM   32  N4  UNL     1      -4.742  18.358  25.957  1.00  0.00     0.087 N 
BRANCH  32  33
HETATM   33  C9  UNL     1      -3.534  17.790  25.497  1.00  0.00     0.268 C 
HETATM   34  C10 UNL     1      -3.732  16.366  25.054  1.00  0.00     0.037 C 
ENDBRANCH  32  33
BRANCH  32  35
HETATM   35  C11 UNL     1      -5.233  19.508  25.281  1.00  0.00     0.268 C 
HETATM   36  C12 UNL     1      -5.030  19.532  23.792  1.00  0.00     0.037 C 
ENDBRANCH  32  35
ENDBRANCH  31  32
ENDBRANCH  30  31
ENDBRANCH  29  30
ENDBRANCH   4  29
BRANCH   8  37
HETATM   37  O1  UNL     1     -12.721  14.330  26.341  1.00  0.00    -0.354 OA
HETATM   38  C15 UNL     1     -12.376  13.327  25.402  1.00  0.00     0.210 C 
ENDBRANCH   8  37
BRANCH  13  39
HETATM   39  N6  UNL     1     -11.119  14.614  34.423  1.00  0.00    -0.309 N 
HETATM   40  C21 UNL     1     -11.060  13.416  35.193  1.00  0.00     0.320 C 
HETATM   41  O2  UNL     1     -10.952  12.327  34.585  1.00  0.00    -0.247 OA
HETATM   42  N7  UNL     1     -11.117  13.415  36.598  1.00  0.00    -0.347 N 
HETATM   43  C22 UNL     1     -11.044  12.187  37.341  1.00  0.00     0.151 C 
ATOM     44  H7  UNL     1     -11.211  14.299  37.097  1.00  0.00     0.163 HD
ATOM     45  H6  UNL     1     -11.206  15.510  34.905  1.00  0.00     0.170 HD
ENDBRANCH  13  39
TORSDOF 11
ENDMDL
MODEL 3
REMARK VINA RESULT: -8.956446723      0.569      1.173
REMARK  11 active torsions:
REMARK  status: ('A' for Active; 'I' for Inactive)
REMARK    1  A    between atoms: N1_3  and  C3_5 
REMARK    2  A    between atoms: C3_5  and  C4_6 
REMARK    3  A    between atoms: C4_6  and  N2_7 
REMARK       I    between atoms: C5_9  and  N3_10 
REMARK       I    between atoms: C5_9  and  N5_20 
REMARK    4  A    between atoms: N3_10  and  C6_12 
REMARK    5  A    between atoms: C6_12  and  C7_13 
REMARK    6  A    between atoms: C7_13  and  C8_14 
REMARK    7  A    between atoms: C8_14  and  N4_15 
REMARK    8  A    between atoms: N4_15  and  C9_16 
REMARK    9  A    between atoms: N4_15  and  C11_18 
REMARK   10  A    between atoms: C14_22  and  O1_23 
REMARK   11  A    between atoms: C20_29  and  N6_30 
REMARK       I    between atoms: N6_30  and  C21_32 
REMARK       I    between atoms: C21_32  and  N7_34 
ROOT
HETATM    1  N2  UNL     1      -9.869  15.581  29.084  1.00  0.00    -0.224 N 
ATOM      2  H2  UNL     1      -9.151  16.183  29.489  1.00  0.00     0.177 HD
HETATM    3  C5  UNL     1      -9.850  15.346  27.815  1.00  0.00     0.683 C 
HETATM    4  N3  UNL     1     -10.841  14.519  27.257  1.00  0.00    -0.226 N 
ATOM      5  H3  UNL     1     -10.635  13.522  27.187  1.00  0.00     0.177 HD
HETATM    6  N5  UNL     1      -8.839  15.895  26.995  1.00  0.00    -0.119 N 
HETATM    7  C13 UNL     1      -7.852  16.712  27.662  1.00  0.00     0.156 C 
HETATM    8  C14 UNL     1      -6.901  17.472  27.162  1.00  0.00     0.100 C 
HETATM    9  C16 UNL     1      -6.521  17.752  25.771  1.00  0.00     0.065 A 
HETATM   10  C17 UNL     1      -7.034  17.292  24.643  1.00  0.00     0.011 A 
HETATM   11  C18 UNL     1      -6.316  17.863  23.513  1.00  0.00     0.033 A 
HETATM   12  C19 UNL     1      -6.515  17.717  22.188  1.00  0.00     0.046 A 
HETATM   13  C20 UNL     1      -7.529  16.933  21.519  1.00  0.00     0.037 A 
HETATM   14  C23 UNL     1      -8.468  16.142  22.063  1.00  0.00     0.030 A 
HETATM   15  C24 UNL     1      -8.749  15.834  23.447  1.00  0.00     0.020 A 
HETATM   16  C25 UNL     1      -8.145  16.319  24.524  1.00  0.00     0.045 A 
HETATM   17  C26 UNL     1      -8.846  15.608  25.603  1.00  0.00     0.277 C 
HETATM   18  O3  UNL     1      -9.528  14.627  25.244  1.00  0.00    -0.266 OA
HETATM   19  C27 UNL     1      -5.289  18.733  24.054  1.00  0.00     0.233 A 
HETATM   20  O4  UNL     1      -4.461  19.403  23.368  1.00  0.00    -0.283 OA
HETATM   21  C28 UNL     1      -5.415  18.665  25.498  1.00  0.00     0.236 A 
HETATM   22  O5  UNL     1      -4.697  19.285  26.333  1.00  0.00    -0.283 OA
ENDROOT
BRANCH   1  23
HETATM   23  C4  UNL     1     -10.882  15.016  29.944  1.00  0.00     0.157 C 
BRANCH  23  24
HETATM   24  C3  UNL     1     -10.783  15.540  31.329  1.00  0.00     0.139 C 
BRANCH  24  25
HETATM   25  N1  UNL     1      -9.462  15.877  31.756  1.00  0.00    -0.401 N 
HETATM   26  C2  UNL     1      -9.192  16.106  32.978  1.00  0.00     0.051 C 
HETATM   27  C1  UNL     1     -10.146  16.064  34.093  1.00  0.00     0.054 C 
ATOM     28  H1  UNL     1      -8.715  15.934  31.063  1.00  0.00     0.158 HD
ENDBRANCH  24  25
ENDBRANCH  23  24
ENDBRANCH   1  23
BRANCH   4  29
HETATM   29  C6  UNL     1     -12.134  14.970  26.771  1.00  0.00     0.140 C 
BRANCH  29  30
HETATM   30  C7  UNL     1     -13.183  13.883  26.969  1.00  0.00     0.050 C 
BRANCH  30  31
HETATM   31  C8  UNL     1     -13.953  14.170  28.207  1.00  0.00     0.274 C 
BRANCH  31  32
HETATM   32  N4  UNL     1     -14.129  12.991  29.048  1.00  0.00     0.087 N 
BRANCH  32  33
HETATM   33  C9  UNL     1     -14.051  13.275  30.429  1.00  0.00     0.268 C 
HETATM   34  C10 UNL     1     -14.858  14.495  30.785  1.00  0.00     0.037 C 
ENDBRANCH  32  33
BRANCH  32  35
HETATM   35  C11 UNL     1     -13.259  11.996  28.527  1.00  0.00     0.268 C 
HETATM   36  C12 UNL     1     -12.496  11.193  29.542  1.00  0.00     0.037 C 
ENDBRANCH  32  35
ENDBRANCH  31  32
ENDBRANCH  30  31
ENDBRANCH  29  30
ENDBRANCH   4  29
BRANCH   8  37
HETATM   37  O1  UNL     1      -6.137  18.115  28.139  1.00  0.00    -0.354 OA
HETATM   38  C15 UNL     1      -5.340  17.274  28.954  1.00  0.00     0.210 C 
ENDBRANCH   8  37
BRANCH  13  39
HETATM   39  N6  UNL     1      -7.563  17.002  20.096  1.00  0.00    -0.309 N 
HETATM   40  C21 UNL     1      -6.651  16.269  19.282  1.00  0.00     0.320 C 
HETATM   41  O2  UNL     1      -5.800  15.546  19.850  1.00  0.00    -0.247 OA
HETATM   42  N7  UNL     1      -6.673  16.327  17.878  1.00  0.00    -0.347 N 
HETATM   43  C22 UNL     1      -5.744  15.565  17.089  1.00  0.00     0.151 C 
ATOM     44  H7  UNL     1      -7.359  16.920  17.411  1.00  0.00     0.163 HD
ATOM     45  H6  UNL     1      -8.262  17.595  19.647  1.00  0.00     0.170 HD
ENDBRANCH  13  39
TORSDOF 11
ENDMDL
MODEL 4
REMARK VINA RESULT: -8.853942879      3.107     10.722
REMARK  11 active torsions:
REMARK  status: ('A' for Active; 'I' for Inactive)
REMARK    1  A    between atoms: N1_3  and  C3_5 
REMARK    2  A    between atoms: C3_5  and  C4_6 
REMARK    3  A    between atoms: C4_6  and  N2_7 
REMARK       I    between atoms: C5_9  and  N3_10 
REMARK       I    between atoms: C5_9  and  N5_20 
REMARK    4  A    between atoms: N3_10  and  C6_12 
REMARK    5  A    between atoms: C6_12  and  C7_13 
REMARK    6  A    between atoms: C7_13  and  C8_14 
REMARK    7  A    between atoms: C8_14  and  N4_15 
REMARK    8  A    between atoms: N4_15  and  C9_16 
REMARK    9  A    between atoms: N4_15  and  C11_18 
REMARK   10  A    between atoms: C14_22  and  O1_23 
REMARK   11  A    between atoms: C20_29  and  N6_30 
REMARK       I    between atoms: N6_30  and  C21_32 
REMARK       I    between atoms: C21_32  and  N7_34 
ROOT
HETATM    1  N2  UNL     1      -8.610  16.248  25.450  1.00  0.00    -0.224 N 
ATOM      2  H2  UNL     1      -9.485  15.941  25.023  1.00  0.00     0.177 HD
HETATM    3  C5  UNL     1      -8.433  16.074  26.716  1.00  0.00     0.683 C 
HETATM    4  N3  UNL     1      -7.228  16.499  27.304  1.00  0.00    -0.226 N 
ATOM      5  H3  UNL     1      -6.471  15.818  27.364  1.00  0.00     0.177 HD
HETATM    6  N5  UNL     1      -9.427  15.452  27.505  1.00  0.00    -0.119 N 
HETATM    7  C13 UNL     1     -10.619  15.030  26.808  1.00  0.00     0.156 C 
HETATM    8  C14 UNL     1     -11.761  14.576  27.279  1.00  0.00     0.100 C 
HETATM    9  C16 UNL     1     -12.213  14.345  28.658  1.00  0.00     0.065 A 
HETATM   10  C17 UNL     1     -11.573  14.524  29.801  1.00  0.00     0.011 A 
HETATM   11  C18 UNL     1     -12.442  14.156  30.908  1.00  0.00     0.033 A 
HETATM   12  C19 UNL     1     -12.235  14.215  32.239  1.00  0.00     0.046 A 
HETATM   13  C20 UNL     1     -11.056  14.677  32.938  1.00  0.00     0.037 A 
HETATM   14  C23 UNL     1      -9.893  15.107  32.423  1.00  0.00     0.030 A 
HETATM   15  C24 UNL     1      -9.468  15.237  31.048  1.00  0.00     0.020 A 
HETATM   16  C25 UNL     1     -10.175  14.991  29.953  1.00  0.00     0.045 A 
HETATM   17  C26 UNL     1      -9.194  15.273  28.895  1.00  0.00     0.277 C 
HETATM   18  O3  UNL     1      -8.008  15.359  29.273  1.00  0.00    -0.266 OA
HETATM   19  C27 UNL     1     -13.703  13.722  30.337  1.00  0.00     0.233 A 
HETATM   20  O4  UNL     1     -14.708  13.322  30.997  1.00  0.00    -0.283 OA
HETATM   21  C28 UNL     1     -13.561  13.841  28.897  1.00  0.00     0.236 A 
HETATM   22  O5  UNL     1     -14.447  13.557  28.041  1.00  0.00    -0.283 OA
ENDROOT
BRANCH   1  23
HETATM   23  C4  UNL     1      -7.600  16.865  24.622  1.00  0.00     0.157 C 
BRANCH  23  24
HETATM   24  C3  UNL     1      -8.089  17.098  23.240  1.00  0.00     0.139 C 
BRANCH  24  25
HETATM   25  N1  UNL     1      -9.040  16.142  22.765  1.00  0.00    -0.401 N 
HETATM   26  C2  UNL     1      -9.373  16.083  21.539  1.00  0.00     0.051 C 
HETATM   27  C1  UNL     1      -8.860  16.943  20.464  1.00  0.00     0.054 C 
ATOM     28  H1  UNL     1      -9.462  15.491  23.427  1.00  0.00     0.158 HD
ENDBRANCH  24  25
ENDBRANCH  23  24
ENDBRANCH   1  23
BRANCH   4  29
HETATM   29  C6  UNL     1      -6.975  17.828  27.834  1.00  0.00     0.140 C 
BRANCH  29  30
HETATM   30  C7  UNL     1      -5.522  18.224  27.601  1.00  0.00     0.050 C 
BRANCH  30  31
HETATM   31  C8  UNL     1      -5.430  19.024  26.352  1.00  0.00     0.274 C 
BRANCH  31  32
HETATM   32  N4  UNL     1      -4.326  18.609  25.495  1.00  0.00     0.087 N 
BRANCH  32  33
HETATM   33  C9  UNL     1      -4.614  18.726  24.118  1.00  0.00     0.268 C 
HETATM   34  C10 UNL     1      -5.243  20.056  23.801  1.00  0.00     0.037 C 
ENDBRANCH  32  33
BRANCH  32  35
HETATM   35  C11 UNL     1      -3.902  17.341  25.978  1.00  0.00     0.268 C 
HETATM   36  C12 UNL     1      -3.637  16.295  24.932  1.00  0.00     0.037 C 
ENDBRANCH  32  35
ENDBRANCH  31  32
ENDBRANCH  30  31
ENDBRANCH  29  30
ENDBRANCH   4  29
BRANCH   8  37
HETATM   37  O1  UNL     1     -12.688  14.268  26.280  1.00  0.00    -0.354 OA
HETATM   38  C15 UNL     1     -12.269  13.312  25.322  1.00  0.00     0.210 C 
ENDBRANCH   8  37
BRANCH  13  39
HETATM   39  N6  UNL     1     -11.118  14.698  34.361  1.00  0.00    -0.309 N 
HETATM   40  C21 UNL     1     -11.037  13.506  35.139  1.00  0.00     0.320 C 
HETATM   41  O2  UNL     1     -10.905  12.416  34.538  1.00  0.00    -0.247 OA
HETATM   42  N7  UNL     1     -11.096  13.512  36.544  1.00  0.00    -0.347 N 
HETATM   43  C22 UNL     1     -10.999  12.291  37.295  1.00  0.00     0.151 C 
ATOM     44  H7  UNL     1     -11.210  14.397  37.038  1.00  0.00     0.163 HD
ATOM     45  H6  UNL     1     -11.225  15.594  34.838  1.00  0.00     0.170 HD
ENDBRANCH  13  39
TORSDOF 11
ENDMDL
MODEL 5
REMARK VINA RESULT: -8.836687338      1.002      1.387
REMARK  11 active torsions:
REMARK  status: ('A' for Active; 'I' for Inactive)
REMARK    1  A    between atoms: N1_3  and  C3_5 
REMARK    2  A    between atoms: C3_5  and  C4_6 
REMARK    3  A    between atoms: C4_6  and  N2_7 
REMARK       I    between atoms: C5_9  and  N3_10 
REMARK       I    between atoms: C5_9  and  N5_20 
REMARK    4  A    between atoms: N3_10  and  C6_12 
REMARK    5  A    between atoms: C6_12  and  C7_13 
REMARK    6  A    between atoms: C7_13  and  C8_14 
REMARK    7  A    between atoms: C8_14  and  N4_15 
REMARK    8  A    between atoms: N4_15  and  C9_16 
REMARK    9  A    between atoms: N4_15  and  C11_18 
REMARK   10  A    between atoms: C14_22  and  O1_23 
REMARK   11  A    between atoms: C20_29  and  N6_30 
REMARK       I    between atoms: N6_30  and  C21_32 
REMARK       I    between atoms: C21_32  and  N7_34 
ROOT
HETATM    1  N2  UNL     1      -8.835  15.018  28.982  1.00  0.00    -0.224 N 
ATOM      2  H2  UNL     1      -7.989  15.410  29.396  1.00  0.00     0.177 HD
HETATM    3  C5  UNL     1      -8.931  14.942  27.697  1.00  0.00     0.683 C 
HETATM    4  N3  UNL     1     -10.098  14.403  27.128  1.00  0.00    -0.226 N 
ATOM      5  H3  UNL     1     -10.105  13.402  26.932  1.00  0.00     0.177 HD
HETATM    6  N5  UNL     1      -7.873  15.379  26.868  1.00  0.00    -0.119 N 
HETATM    7  C13 UNL     1      -6.707  15.895  27.545  1.00  0.00     0.156 C 
HETATM    8  C14 UNL     1      -5.648  16.510  27.062  1.00  0.00     0.100 C 
HETATM    9  C16 UNL     1      -5.291  16.880  25.685  1.00  0.00     0.065 A 
HETATM   10  C17 UNL     1      -5.946  16.674  24.556  1.00  0.00     0.011 A 
HETATM   11  C18 UNL     1      -5.186  17.228  23.445  1.00  0.00     0.033 A 
HETATM   12  C19 UNL     1      -5.479  17.290  22.131  1.00  0.00     0.046 A 
HETATM   13  C20 UNL     1      -6.666  16.810  21.458  1.00  0.00     0.037 A 
HETATM   14  C23 UNL     1      -7.718  16.159  21.980  1.00  0.00     0.030 A 
HETATM   15  C24 UNL     1      -7.983  15.743  23.339  1.00  0.00     0.020 A 
HETATM   16  C25 UNL     1      -7.237  15.962  24.414  1.00  0.00     0.045 A 
HETATM   17  C26 UNL     1      -8.012  15.274  25.458  1.00  0.00     0.277 C 
HETATM   18  O3  UNL     1      -8.898  14.500  25.046  1.00  0.00    -0.266 OA
HETATM   19  C27 UNL     1      -3.976  17.804  23.999  1.00  0.00     0.233 A 
HETATM   20  O4  UNL     1      -3.064  18.377  23.331  1.00  0.00    -0.283 OA
HETATM   21  C28 UNL     1      -4.038  17.583  25.432  1.00  0.00     0.236 A 
HETATM   22  O5  UNL     1      -3.165  17.941  26.274  1.00  0.00    -0.283 OA
ENDROOT
BRANCH   1  23
HETATM   23  C4  UNL     1      -9.896  14.560  29.849  1.00  0.00     0.157 C 
BRANCH  23  24
HETATM   24  C3  UNL     1      -9.782  15.139  31.211  1.00  0.00     0.139 C 
BRANCH  24  25
HETATM   25  N1  UNL     1      -9.519  14.195  32.250  1.00  0.00    -0.401 N 
HETATM   26  C2  UNL     1      -9.179  14.564  33.419  1.00  0.00     0.051 C 
HETATM   27  C1  UNL     1      -9.010  15.953  33.869  1.00  0.00     0.054 C 
ATOM     28  H1  UNL     1      -9.606  13.199  32.050  1.00  0.00     0.158 HD
ENDBRANCH  24  25
ENDBRANCH  23  24
ENDBRANCH   1  23
BRANCH   4  29
HETATM   29  C6  UNL     1     -11.295  15.157  26.796  1.00  0.00     0.140 C 
BRANCH  29  30
HETATM   30  C7  UNL     1     -12.491  14.223  26.668  1.00  0.00     0.050 C 
BRANCH  30  31
HETATM   31  C8  UNL     1     -13.538  14.637  27.638  1.00  0.00     0.274 C 
BRANCH  31  32
HETATM   32  N4  UNL     1     -13.825  13.609  28.632  1.00  0.00     0.087 N 
BRANCH  32  33
HETATM   33  C9  UNL     1     -13.517  14.008  29.951  1.00  0.00     0.268 C 
HETATM   34  C10 UNL     1     -14.764  14.217  30.766  1.00  0.00     0.037 C 
ENDBRANCH  32  33
BRANCH  32  35
HETATM   35  C11 UNL     1     -13.235  12.411  28.147  1.00  0.00     0.268 C 
HETATM   36  C12 UNL     1     -12.513  11.575  29.166  1.00  0.00     0.037 C 
ENDBRANCH  32  35
ENDBRANCH  31  32
ENDBRANCH  30  31
ENDBRANCH  29  30
ENDBRANCH   4  29
BRANCH   8  37
HETATM   37  O1  UNL     1      -4.717  16.863  28.043  1.00  0.00    -0.354 OA
HETATM   38  C15 UNL     1      -5.232  17.570  29.157  1.00  0.00     0.210 C 
ENDBRANCH   8  37
BRANCH  13  39
HETATM   39  N6  UNL     1      -6.760  17.061  20.059  1.00  0.00    -0.309 N 
HETATM   40  C21 UNL     1      -6.047  16.281  19.102  1.00  0.00     0.320 C 
HETATM   41  O2  UNL     1      -5.323  15.349  19.521  1.00  0.00    -0.247 OA
HETATM   42  N7  UNL     1      -6.130  16.517  17.719  1.00  0.00    -0.347 N 
HETATM   43  C22 UNL     1      -5.406  15.701  16.783  1.00  0.00     0.151 C 
ATOM     44  H7  UNL     1      -6.714  17.278  17.373  1.00  0.00     0.163 HD
ATOM     45  H6  UNL     1      -7.355  17.823  19.732  1.00  0.00     0.170 HD
ENDBRANCH  13  39
TORSDOF 11
ENDMDL
