MODEL 1
REMARK VINA RESULT: -7.646773170      0.000      0.000
REMARK  15 active torsions:
REMARK  status: ('A' for Active; 'I' for Inactive)
REMARK    1  A    between atoms: N1_2  and  C2_3 
REMARK    2  A    between atoms: N1_2  and  C16_27 
REMARK    3  A    between atoms: C2_3  and  O1_4 
REMARK    4  A    between atoms: C3_6  and  N2_8 
REMARK    5  A    between atoms: N2_8  and  C4_10 
REMARK    6  A    between atoms: C4_10  and  C5_11 
REMARK    7  A    between atoms: C5_11  and  C6_12 
REMARK    8  A    between atoms: C6_12  and  C7_13 
REMARK    9  A    between atoms: C7_13  and  C8_14 
REMARK   10  A    between atoms: C8_14  and  C9_15 
REMARK   11  A    between atoms: C9_15  and  C10_16 
REMARK   12  A    between atoms: C10_16  and  N3_17 
REMARK   13  A    between atoms: N3_17  and  C11_19 
REMARK   14  A    between atoms: C11_19  and  N4_21 
REMARK   15  A    between atoms: N4_21  and  C12_23 
ROOT
HETATM    1  C4  UNL     1     -10.302 -21.979   2.648  1.00  0.00     0.121 C 
ENDROOT
BRANCH   1   2
HETATM    2  N2  UNL     1      -9.981 -20.941   3.566  1.00  0.00    -0.378 N 
ATOM      3  H2  UNL     1      -8.978 -20.771   3.636  1.00  0.00     0.160 HD
BRANCH   2   4
HETATM    4  C3  UNL     1     -10.722 -20.112   4.382  1.00  0.00     0.147 C 
HETATM    5  C2  UNL     1     -10.583 -18.797   4.817  1.00  0.00     0.176 C 
HETATM    6  S1  UNL     1     -12.147 -20.930   4.962  1.00  0.00    -0.056 SA
BRANCH   5   7
HETATM    7  N1  UNL     1      -9.674 -17.780   4.655  1.00  0.00    -0.359 N 
HETATM    8  C1  UNL     1      -8.525 -17.639   3.809  1.00  0.00     0.152 C 
BRANCH   7   9
HETATM    9  C16 UNL     1      -9.893 -16.565   5.501  1.00  0.00     0.086 C 
HETATM   10  C17 UNL     1      -9.106 -16.620   6.765  1.00  0.00     0.025 C 
HETATM   11  C18 UNL     1      -9.390 -15.348   7.535  1.00  0.00     0.002 C 
HETATM   12  C19 UNL     1      -9.172 -14.119   6.682  1.00  0.00     0.000 C 
HETATM   13  C20 UNL     1      -9.971 -14.140   5.409  1.00  0.00     0.002 C 
HETATM   14  C21 UNL     1      -9.574 -15.384   4.631  1.00  0.00     0.025 C 
ENDBRANCH   7   9
ENDBRANCH   5   7
BRANCH   5  15
HETATM   15  O1  UNL     1     -11.609 -18.419   5.608  1.00  0.00    -0.344 OA
ATOM     16  H1  UNL     1     -11.859 -19.114   6.206  1.00  0.00     0.219 HD
ENDBRANCH   5  15
ENDBRANCH   2   4
ENDBRANCH   1   2
BRANCH   1  17
HETATM   17  C5  UNL     1      -9.580 -21.707   1.308  1.00  0.00     0.020 C 
BRANCH  17  18
HETATM   18  C6  UNL     1      -9.199 -23.043   0.720  1.00  0.00     0.002 C 
BRANCH  18  19
HETATM   19  C7  UNL     1     -10.391 -23.972   0.804  1.00  0.00     0.000 C 
BRANCH  19  20
HETATM   20  C8  UNL     1     -10.697 -24.512  -0.557  1.00  0.00     0.002 C 
BRANCH  20  21
HETATM   21  C9  UNL     1      -9.838 -25.724  -0.887  1.00  0.00     0.020 C 
BRANCH  21  22
HETATM   22  C10 UNL     1     -10.762 -26.834  -1.324  1.00  0.00     0.122 C 
BRANCH  22  23
HETATM   23  N3  UNL     1     -10.256 -28.091  -0.838  1.00  0.00    -0.367 N 
ATOM     24  H3  UNL     1      -9.343 -28.409  -1.166  1.00  0.00     0.161 HD
BRANCH  23  25
HETATM   25  C11 UNL     1     -10.972 -28.910   0.078  1.00  0.00     0.168 C 
HETATM   26  S2  UNL     1     -11.777 -28.162   1.287  1.00  0.00    -0.041 SA
BRANCH  25  27
HETATM   27  N4  UNL     1     -10.969 -30.315  -0.078  1.00  0.00    -0.359 N 
ATOM     28  H4  UNL     1     -10.164 -30.868   0.215  1.00  0.00     0.162 HD
BRANCH  27  29
HETATM   29  C12 UNL     1     -12.135 -30.959  -0.665  1.00  0.00     0.021 C 
HETATM   30  C13 UNL     1     -11.624 -32.118  -1.527  1.00  0.00     0.037 C 
HETATM   31  C14 UNL     1     -12.855 -29.974  -1.554  1.00  0.00     0.037 C 
HETATM   32  C15 UNL     1     -13.079 -31.465   0.413  1.00  0.00     0.037 C 
ENDBRANCH  27  29
ENDBRANCH  25  27
ENDBRANCH  23  25
ENDBRANCH  22  23
ENDBRANCH  21  22
ENDBRANCH  20  21
ENDBRANCH  19  20
ENDBRANCH  18  19
ENDBRANCH  17  18
ENDBRANCH   1  17
TORSDOF 15
ENDMDL
MODEL 2
REMARK VINA RESULT: -7.636727197      1.766      2.315
REMARK  15 active torsions:
REMARK  status: ('A' for Active; 'I' for Inactive)
REMARK    1  A    between atoms: N1_2  and  C2_3 
REMARK    2  A    between atoms: N1_2  and  C16_27 
REMARK    3  A    between atoms: C2_3  and  O1_4 
REMARK    4  A    between atoms: C3_6  and  N2_8 
REMARK    5  A    between atoms: N2_8  and  C4_10 
REMARK    6  A    between atoms: C4_10  and  C5_11 
REMARK    7  A    between atoms: C5_11  and  C6_12 
REMARK    8  A    between atoms: C6_12  and  C7_13 
REMARK    9  A    between atoms: C7_13  and  C8_14 
REMARK   10  A    between atoms: C8_14  and  C9_15 
REMARK   11  A    between atoms: C9_15  and  C10_16 
REMARK   12  A    between atoms: C10_16  and  N3_17 
REMARK   13  A    between atoms: N3_17  and  C11_19 
REMARK   14  A    between atoms: C11_19  and  N4_21 
REMARK   15  A    between atoms: N4_21  and  C12_23 
ROOT
HETATM    1  C4  UNL     1      -9.540 -20.170   2.251  1.00  0.00     0.121 C 
ENDROOT
BRANCH   1   2
HETATM    2  N2  UNL     1     -10.004 -20.423   3.572  1.00  0.00    -0.378 N 
ATOM      3  H2  UNL     1      -9.725 -21.340   3.921  1.00  0.00     0.160 HD
BRANCH   2   4
HETATM    4  C3  UNL     1     -10.748 -19.707   4.487  1.00  0.00     0.147 C 
HETATM    5  C2  UNL     1     -10.656 -18.428   5.027  1.00  0.00     0.176 C 
HETATM    6  S1  UNL     1     -12.101 -20.648   5.054  1.00  0.00    -0.056 SA
BRANCH   5   7
HETATM    7  N1  UNL     1      -9.809 -17.352   4.916  1.00  0.00    -0.359 N 
HETATM    8  C1  UNL     1      -8.625 -17.134   4.135  1.00  0.00     0.152 C 
BRANCH   7   9
HETATM    9  C16 UNL     1     -10.155 -16.157   5.746  1.00  0.00     0.086 C 
HETATM   10  C17 UNL     1      -9.201 -15.971   6.875  1.00  0.00     0.025 C 
HETATM   11  C18 UNL     1      -9.633 -14.737   7.639  1.00  0.00     0.002 C 
HETATM   12  C19 UNL     1      -9.804 -13.546   6.725  1.00  0.00     0.000 C 
HETATM   13  C20 UNL     1     -10.756 -13.809   5.591  1.00  0.00     0.002 C 
HETATM   14  C21 UNL     1     -10.221 -14.993   4.800  1.00  0.00     0.025 C 
ENDBRANCH   7   9
ENDBRANCH   5   7
BRANCH   5  15
HETATM   15  O1  UNL     1     -11.663 -18.174   5.890  1.00  0.00    -0.344 OA
ATOM     16  H1  UNL     1     -12.503 -18.165   5.447  1.00  0.00     0.219 HD
ENDBRANCH   5  15
ENDBRANCH   2   4
ENDBRANCH   1   2
BRANCH   1  17
HETATM   17  C5  UNL     1      -9.653 -21.469   1.421  1.00  0.00     0.020 C 
BRANCH  17  18
HETATM   18  C6  UNL     1     -10.353 -22.494   2.278  1.00  0.00     0.002 C 
BRANCH  18  19
HETATM   19  C7  UNL     1     -10.767 -23.660   1.406  1.00  0.00     0.000 C 
BRANCH  19  20
HETATM   20  C8  UNL     1      -9.938 -23.666   0.161  1.00  0.00     0.002 C 
BRANCH  20  21
HETATM   21  C9  UNL     1      -9.180 -24.976  -0.004  1.00  0.00     0.020 C 
BRANCH  21  22
HETATM   22  C10 UNL     1     -10.049 -25.909  -0.810  1.00  0.00     0.122 C 
BRANCH  22  23
HETATM   23  N3  UNL     1     -10.453 -27.015   0.017  1.00  0.00    -0.367 N 
ATOM     24  H3  UNL     1      -9.745 -27.688   0.313  1.00  0.00     0.161 HD
BRANCH  23  25
HETATM   25  C11 UNL     1     -11.796 -27.212   0.441  1.00  0.00     0.168 C 
HETATM   26  S2  UNL     1     -12.108 -28.511   1.382  1.00  0.00    -0.041 SA
BRANCH  25  27
HETATM   27  N4  UNL     1     -12.803 -26.300   0.047  1.00  0.00    -0.359 N 
ATOM     28  H4  UNL     1     -12.956 -25.439   0.570  1.00  0.00     0.162 HD
BRANCH  27  29
HETATM   29  C12 UNL     1     -13.618 -26.614  -1.118  1.00  0.00     0.021 C 
HETATM   30  C13 UNL     1     -13.774 -25.318  -1.920  1.00  0.00     0.037 C 
HETATM   31  C14 UNL     1     -14.983 -27.071  -0.665  1.00  0.00     0.037 C 
HETATM   32  C15 UNL     1     -12.967 -27.695  -1.963  1.00  0.00     0.037 C 
ENDBRANCH  27  29
ENDBRANCH  25  27
ENDBRANCH  23  25
ENDBRANCH  22  23
ENDBRANCH  21  22
ENDBRANCH  20  21
ENDBRANCH  19  20
ENDBRANCH  18  19
ENDBRANCH  17  18
ENDBRANCH   1  17
TORSDOF 15
ENDMDL
MODEL 3
REMARK VINA RESULT: -7.615036823      1.434      1.915
REMARK  15 active torsions:
REMARK  status: ('A' for Active; 'I' for Inactive)
REMARK    1  A    between atoms: N1_2  and  C2_3 
REMARK    2  A    between atoms: N1_2  and  C16_27 
REMARK    3  A    between atoms: C2_3  and  O1_4 
REMARK    4  A    between atoms: C3_6  and  N2_8 
REMARK    5  A    between atoms: N2_8  and  C4_10 
REMARK    6  A    between atoms: C4_10  and  C5_11 
REMARK    7  A    between atoms: C5_11  and  C6_12 
REMARK    8  A    between atoms: C6_12  and  C7_13 
REMARK    9  A    between atoms: C7_13  and  C8_14 
REMARK   10  A    between atoms: C8_14  and  C9_15 
REMARK   11  A    between atoms: C9_15  and  C10_16 
REMARK   12  A    between atoms: C10_16  and  N3_17 
REMARK   13  A    between atoms: N3_17  and  C11_19 
REMARK   14  A    between atoms: C11_19  and  N4_21 
REMARK   15  A    between atoms: N4_21  and  C12_23 
ROOT
HETATM    1  C4  UNL     1      -9.041 -20.168   2.537  1.00  0.00     0.121 C 
ENDROOT
BRANCH   1   2
HETATM    2  N2  UNL     1      -9.918 -19.157   3.019  1.00  0.00    -0.378 N 
ATOM      3  H2  UNL     1     -10.138 -18.454   2.313  1.00  0.00     0.160 HD
BRANCH   2   4
HETATM    4  C3  UNL     1     -10.540 -18.914   4.226  1.00  0.00     0.147 C 
HETATM    5  C2  UNL     1     -10.626 -17.812   5.071  1.00  0.00     0.176 C 
HETATM    6  S1  UNL     1     -11.410 -20.323   4.766  1.00  0.00    -0.056 SA
BRANCH   5   7
HETATM    7  N1  UNL     1     -10.136 -16.528   5.096  1.00  0.00    -0.359 N 
HETATM    8  C1  UNL     1      -9.272 -15.808   4.206  1.00  0.00     0.152 C 
BRANCH   7   9
HETATM    9  C16 UNL     1     -10.568 -15.685   6.254  1.00  0.00     0.086 C 
HETATM   10  C17 UNL     1      -9.411 -15.260   7.093  1.00  0.00     0.025 C 
HETATM   11  C18 UNL     1      -9.954 -14.410   8.221  1.00  0.00     0.002 C 
HETATM   12  C19 UNL     1     -10.833 -13.293   7.706  1.00  0.00     0.000 C 
HETATM   13  C20 UNL     1     -11.962 -13.786   6.844  1.00  0.00     0.002 C 
HETATM   14  C21 UNL     1     -11.356 -14.546   5.675  1.00  0.00     0.025 C 
ENDBRANCH   7   9
ENDBRANCH   5   7
BRANCH   5  15
HETATM   15  O1  UNL     1     -11.391 -18.067   6.153  1.00  0.00    -0.344 OA
ATOM     16  H1  UNL     1     -11.935 -18.834   6.019  1.00  0.00     0.219 HD
ENDBRANCH   5  15
ENDBRANCH   2   4
ENDBRANCH   1   2
BRANCH   1  17
HETATM   17  C5  UNL     1      -9.523 -20.630   1.143  1.00  0.00     0.020 C 
BRANCH  17  18
HETATM   18  C6  UNL     1      -9.284 -22.118   1.052  1.00  0.00     0.002 C 
BRANCH  18  19
HETATM   19  C7  UNL     1     -10.354 -22.834   1.847  1.00  0.00     0.000 C 
BRANCH  19  20
HETATM   20  C8  UNL     1     -10.727 -24.103   1.147  1.00  0.00     0.002 C 
BRANCH  20  21
HETATM   21  C9  UNL     1     -10.250 -24.108  -0.298  1.00  0.00     0.020 C 
BRANCH  21  22
HETATM   22  C10 UNL     1      -9.548 -25.421  -0.544  1.00  0.00     0.122 C 
BRANCH  22  23
HETATM   23  N3  UNL     1     -10.244 -26.469   0.155  1.00  0.00    -0.367 N 
ATOM     24  H3  UNL     1     -10.326 -26.408   1.170  1.00  0.00     0.161 HD
BRANCH  23  25
HETATM   25  C11 UNL     1     -10.821 -27.587  -0.507  1.00  0.00     0.168 C 
HETATM   26  S2  UNL     1     -12.091 -27.304  -1.496  1.00  0.00    -0.041 SA
BRANCH  25  27
HETATM   27  N4  UNL     1     -10.294 -28.883  -0.299  1.00  0.00    -0.359 N 
ATOM     28  H4  UNL     1      -9.453 -29.185  -0.789  1.00  0.00     0.162 HD
BRANCH  27  29
HETATM   29  C12 UNL     1     -10.974 -29.776   0.627  1.00  0.00     0.021 C 
HETATM   30  C13 UNL     1      -9.890 -30.486   1.446  1.00  0.00     0.037 C 
HETATM   31  C14 UNL     1     -11.747 -30.812  -0.153  1.00  0.00     0.037 C 
HETATM   32  C15 UNL     1     -11.917 -29.006   1.536  1.00  0.00     0.037 C 
ENDBRANCH  27  29
ENDBRANCH  25  27
ENDBRANCH  23  25
ENDBRANCH  22  23
ENDBRANCH  21  22
ENDBRANCH  20  21
ENDBRANCH  19  20
ENDBRANCH  18  19
ENDBRANCH  17  18
ENDBRANCH   1  17
TORSDOF 15
ENDMDL
MODEL 4
REMARK VINA RESULT: -7.596603568      1.239      1.382
REMARK  15 active torsions:
REMARK  status: ('A' for Active; 'I' for Inactive)
REMARK    1  A    between atoms: N1_2  and  C2_3 
REMARK    2  A    between atoms: N1_2  and  C16_27 
REMARK    3  A    between atoms: C2_3  and  O1_4 
REMARK    4  A    between atoms: C3_6  and  N2_8 
REMARK    5  A    between atoms: N2_8  and  C4_10 
REMARK    6  A    between atoms: C4_10  and  C5_11 
REMARK    7  A    between atoms: C5_11  and  C6_12 
REMARK    8  A    between atoms: C6_12  and  C7_13 
REMARK    9  A    between atoms: C7_13  and  C8_14 
REMARK   10  A    between atoms: C8_14  and  C9_15 
REMARK   11  A    between atoms: C9_15  and  C10_16 
REMARK   12  A    between atoms: C10_16  and  N3_17 
REMARK   13  A    between atoms: N3_17  and  C11_19 
REMARK   14  A    between atoms: C11_19  and  N4_21 
REMARK   15  A    between atoms: N4_21  and  C12_23 
ROOT
HETATM    1  C4  UNL     1     -10.309 -21.971   2.719  1.00  0.00     0.121 C 
ENDROOT
BRANCH   1   2
HETATM    2  N2  UNL     1      -9.995 -20.903   3.606  1.00  0.00    -0.378 N 
ATOM      3  H2  UNL     1      -8.995 -20.709   3.653  1.00  0.00     0.160 HD
BRANCH   2   4
HETATM    4  C3  UNL     1     -10.740 -20.071   4.416  1.00  0.00     0.147 C 
HETATM    5  C2  UNL     1     -10.592 -18.762   4.863  1.00  0.00     0.176 C 
HETATM    6  S1  UNL     1     -12.184 -20.876   4.964  1.00  0.00    -0.056 SA
BRANCH   5   7
HETATM    7  N1  UNL     1      -9.669 -17.754   4.724  1.00  0.00    -0.359 N 
HETATM    8  C1  UNL     1      -8.505 -17.620   3.896  1.00  0.00     0.152 C 
BRANCH   7   9
HETATM    9  C16 UNL     1      -9.884 -16.546   5.580  1.00  0.00     0.086 C 
HETATM   10  C17 UNL     1      -9.093 -16.610   6.841  1.00  0.00     0.025 C 
HETATM   11  C18 UNL     1      -9.374 -15.344   7.620  1.00  0.00     0.002 C 
HETATM   12  C19 UNL     1      -9.158 -14.108   6.776  1.00  0.00     0.000 C 
HETATM   13  C20 UNL     1      -9.962 -14.119   5.505  1.00  0.00     0.002 C 
HETATM   14  C21 UNL     1      -9.567 -15.358   4.717  1.00  0.00     0.025 C 
ENDBRANCH   7   9
ENDBRANCH   5   7
BRANCH   5  15
HETATM   15  O1  UNL     1     -11.628 -18.376   5.639  1.00  0.00    -0.344 OA
ATOM     16  H1  UNL     1     -11.531 -18.696   6.528  1.00  0.00     0.219 HD
ENDBRANCH   5  15
ENDBRANCH   2   4
ENDBRANCH   1   2
BRANCH   1  17
HETATM   17  C5  UNL     1      -9.553 -21.758   1.388  1.00  0.00     0.020 C 
BRANCH  17  18
HETATM   18  C6  UNL     1      -9.526 -23.082   0.666  1.00  0.00     0.002 C 
BRANCH  18  19
HETATM   19  C7  UNL     1     -10.686 -23.926   1.149  1.00  0.00     0.000 C 
BRANCH  19  20
HETATM   20  C8  UNL     1     -11.069 -24.900   0.080  1.00  0.00     0.002 C 
BRANCH  20  21
HETATM   21  C9  UNL     1      -9.936 -25.122  -0.911  1.00  0.00     0.020 C 
BRANCH  21  22
HETATM   22  C10 UNL     1      -9.901 -26.593  -1.245  1.00  0.00     0.122 C 
BRANCH  22  23
HETATM   23  N3  UNL     1     -10.299 -27.352  -0.088  1.00  0.00    -0.367 N 
ATOM     24  H3  UNL     1     -10.086 -26.978   0.837  1.00  0.00     0.161 HD
BRANCH  23  25
HETATM   25  C11 UNL     1     -10.975 -28.599  -0.179  1.00  0.00     0.168 C 
HETATM   26  S2  UNL     1     -10.725 -29.682   1.019  1.00  0.00    -0.041 SA
BRANCH  25  27
HETATM   27  N4  UNL     1     -11.826 -28.864  -1.277  1.00  0.00    -0.359 N 
ATOM     28  H4  UNL     1     -11.488 -29.393  -2.079  1.00  0.00     0.162 HD
BRANCH  27  29
HETATM   29  C12 UNL     1     -13.194 -28.368  -1.240  1.00  0.00     0.021 C 
HETATM   30  C13 UNL     1     -14.095 -29.493  -1.761  1.00  0.00     0.037 C 
HETATM   31  C14 UNL     1     -13.320 -27.179  -2.162  1.00  0.00     0.037 C 
HETATM   32  C15 UNL     1     -13.592 -27.969   0.170  1.00  0.00     0.037 C 
ENDBRANCH  27  29
ENDBRANCH  25  27
ENDBRANCH  23  25
ENDBRANCH  22  23
ENDBRANCH  21  22
ENDBRANCH  20  21
ENDBRANCH  19  20
ENDBRANCH  18  19
ENDBRANCH  17  18
ENDBRANCH   1  17
TORSDOF 15
ENDMDL
MODEL 5
REMARK VINA RESULT: -7.554139437      1.113      1.380
REMARK  15 active torsions:
REMARK  status: ('A' for Active; 'I' for Inactive)
REMARK    1  A    between atoms: N1_2  and  C2_3 
REMARK    2  A    between atoms: N1_2  and  C16_27 
REMARK    3  A    between atoms: C2_3  and  O1_4 
REMARK    4  A    between atoms: C3_6  and  N2_8 
REMARK    5  A    between atoms: N2_8  and  C4_10 
REMARK    6  A    between atoms: C4_10  and  C5_11 
REMARK    7  A    between atoms: C5_11  and  C6_12 
REMARK    8  A    between atoms: C6_12  and  C7_13 
REMARK    9  A    between atoms: C7_13  and  C8_14 
REMARK   10  A    between atoms: C8_14  and  C9_15 
REMARK   11  A    between atoms: C9_15  and  C10_16 
REMARK   12  A    between atoms: C10_16  and  N3_17 
REMARK   13  A    between atoms: N3_17  and  C11_19 
REMARK   14  A    between atoms: C11_19  and  N4_21 
REMARK   15  A    between atoms: N4_21  and  C12_23 
ROOT
HETATM    1  C4  UNL     1     -10.290 -21.901   2.727  1.00  0.00     0.121 C 
ENDROOT
BRANCH   1   2
HETATM    2  N2  UNL     1     -10.001 -20.793   3.573  1.00  0.00    -0.378 N 
ATOM      3  H2  UNL     1      -9.021 -20.514   3.538  1.00  0.00     0.160 HD
BRANCH   2   4
HETATM    4  C3  UNL     1     -10.750 -20.012   4.429  1.00  0.00     0.147 C 
HETATM    5  C2  UNL     1     -10.632 -18.714   4.915  1.00  0.00     0.176 C 
HETATM    6  S1  UNL     1     -12.153 -20.881   4.987  1.00  0.00    -0.056 SA
BRANCH   5   7
HETATM    7  N1  UNL     1      -9.746 -17.673   4.785  1.00  0.00    -0.359 N 
HETATM    8  C1  UNL     1      -8.558 -17.510   3.998  1.00  0.00     0.152 C 
BRANCH   7   9
HETATM    9  C16 UNL     1     -10.042 -16.454   5.601  1.00  0.00     0.086 C 
HETATM   10  C17 UNL     1      -9.170 -16.367   6.806  1.00  0.00     0.025 C 
HETATM   11  C18 UNL     1      -9.543 -15.102   7.549  1.00  0.00     0.002 C 
HETATM   12  C19 UNL     1      -9.524 -13.895   6.640  1.00  0.00     0.000 C 
HETATM   13  C20 UNL     1     -10.400 -14.058   5.429  1.00  0.00     0.002 C 
HETATM   14  C21 UNL     1      -9.918 -15.284   4.669  1.00  0.00     0.025 C 
ENDBRANCH   7   9
ENDBRANCH   5   7
BRANCH   5  15
HETATM   15  O1  UNL     1     -11.658 -18.387   5.729  1.00  0.00    -0.344 OA
ATOM     16  H1  UNL     1     -12.469 -18.294   5.243  1.00  0.00     0.219 HD
ENDBRANCH   5  15
ENDBRANCH   2   4
ENDBRANCH   1   2
BRANCH   1  17
HETATM   17  C5  UNL     1      -9.503 -21.743   1.406  1.00  0.00     0.020 C 
BRANCH  17  18
HETATM   18  C6  UNL     1      -9.591 -23.056   0.667  1.00  0.00     0.002 C 
BRANCH  18  19
HETATM   19  C7  UNL     1     -10.678 -23.900   1.298  1.00  0.00     0.000 C 
BRANCH  19  20
HETATM   20  C8  UNL     1     -10.846 -25.161   0.512  1.00  0.00     0.002 C 
BRANCH  20  21
HETATM   21  C9  UNL     1      -9.569 -25.538  -0.225  1.00  0.00     0.020 C 
BRANCH  21  22
HETATM   22  C10 UNL     1      -9.962 -26.333  -1.446  1.00  0.00     0.122 C 
BRANCH  22  23
HETATM   23  N3  UNL     1     -10.019 -27.730  -1.106  1.00  0.00    -0.367 N 
ATOM     24  H3  UNL     1      -9.151 -28.208  -0.863  1.00  0.00     0.161 HD
BRANCH  23  25
HETATM   25  C11 UNL     1     -11.231 -28.473  -1.093  1.00  0.00     0.168 C 
HETATM   26  S2  UNL     1     -12.569 -27.742  -1.680  1.00  0.00    -0.041 SA
BRANCH  25  27
HETATM   27  N4  UNL     1     -11.247 -29.793  -0.587  1.00  0.00    -0.359 N 
ATOM     28  H4  UNL     1     -11.227 -30.591  -1.220  1.00  0.00     0.162 HD
BRANCH  27  29
HETATM   29  C12 UNL     1     -11.292 -29.991   0.854  1.00  0.00     0.021 C 
HETATM   30  C13 UNL     1     -12.318 -31.097   1.125  1.00  0.00     0.037 C 
HETATM   31  C14 UNL     1     -11.762 -28.720   1.520  1.00  0.00     0.037 C 
HETATM   32  C15 UNL     1      -9.927 -30.381   1.394  1.00  0.00     0.037 C 
ENDBRANCH  27  29
ENDBRANCH  25  27
ENDBRANCH  23  25
ENDBRANCH  22  23
ENDBRANCH  21  22
ENDBRANCH  20  21
ENDBRANCH  19  20
ENDBRANCH  18  19
ENDBRANCH  17  18
ENDBRANCH   1  17
TORSDOF 15
ENDMDL
