MODEL 1
REMARK VINA RESULT: -9.887076425      0.000      0.000
REMARK  9 active torsions:
REMARK  status: ('A' for Active; 'I' for Inactive)
REMARK    1  A    between atoms: N1_9  and  C8_10 
REMARK    2  A    between atoms: C8_10  and  C9_11 
REMARK    3  A    between atoms: C9_11  and  C10_12 
REMARK    4  A    between atoms: C10_12  and  C11_13 
REMARK    5  A    between atoms: C11_13  and  C12_14 
REMARK    6  A    between atoms: C12_14  and  C13_15 
REMARK    7  A    between atoms: C13_15  and  C14_16 
REMARK    8  A    between atoms: C14_16  and  N2_17 
REMARK    9  A    between atoms: N2_17  and  C15_19 
ROOT
HETATM    1  C13 UNL     1      -9.556 -21.712   1.108  1.00  0.00     0.044 C 
ENDROOT
BRANCH   1   2
HETATM    2  C12 UNL     1      -9.584 -21.422   2.605  1.00  0.00     0.005 C 
BRANCH   2   3
HETATM    3  C11 UNL     1     -10.023 -20.031   2.945  1.00  0.00     0.000 C 
BRANCH   3   4
HETATM    4  C10 UNL     1      -8.889 -19.035   2.762  1.00  0.00     0.002 C 
BRANCH   4   5
HETATM    5  C9  UNL     1      -8.923 -17.910   3.769  1.00  0.00     0.022 C 
BRANCH   5   6
HETATM    6  C8  UNL     1      -9.682 -18.321   4.982  1.00  0.00     0.152 C 
BRANCH   6   7
HETATM    7  N1  UNL     1     -10.727 -17.278   5.346  1.00  0.00    -0.264 N 
HETATM    8  C7  UNL     1     -11.867 -17.966   5.799  1.00  0.00     0.238 C 
HETATM    9  C6  UNL     1     -12.942 -17.447   6.942  1.00  0.00     0.116 C 
HETATM   10  O1  UNL     1     -12.190 -19.037   5.393  1.00  0.00    -0.272 OA
HETATM   11  C5  UNL     1     -12.280 -16.209   6.973  1.00  0.00     0.092 C 
HETATM   12  C4  UNL     1     -11.601 -15.531   6.727  1.00  0.00    -0.151 C 
HETATM   13  C2  UNL     1     -10.521 -14.934   6.086  1.00  0.00     0.089 C 
HETATM   14  C1  UNL     1     -10.882 -13.679   5.374  1.00  0.00     0.053 C 
HETATM   15  C3  UNL     1      -9.276 -14.833   6.911  1.00  0.00     0.053 C 
HETATM   16  N4  UNL     1     -10.228 -16.046   5.076  1.00  0.00    -0.311 N 
ATOM     17  H4  UNL     1      -9.680 -15.868   4.235  1.00  0.00     0.182 HD
ENDBRANCH   6   7
ENDBRANCH   5   6
ENDBRANCH   4   5
ENDBRANCH   3   4
ENDBRANCH   2   3
ENDBRANCH   1   2
BRANCH   1  18
HETATM   18  C14 UNL     1      -9.669 -23.179   0.864  1.00  0.00     0.057 C 
BRANCH  18  19
HETATM   19  N2  UNL     1     -10.687 -23.941   1.379  1.00  0.00    -0.381 N 
ATOM     20  H2  UNL     1     -10.880 -23.896   2.379  1.00  0.00     0.160 HD
BRANCH  19  21
HETATM   21  C15 UNL     1     -11.481 -24.789   0.563  1.00  0.00     0.183 C 
HETATM   22  C16 UNL     1     -10.820 -25.122  -0.688  1.00  0.00     0.051 C 
HETATM   23  C17 UNL     1     -11.222 -26.424  -1.390  1.00  0.00    -0.010 C 
HETATM   24  C18 UNL     1     -12.633 -26.422  -1.825  1.00  0.00     0.009 C 
HETATM   25  C22 UNL     1     -10.661 -27.626  -0.752  1.00  0.00     0.010 C 
HETATM   26  C19 UNL     1     -13.395 -27.685  -1.598  1.00  0.00    -0.013 C 
HETATM   27  C20 UNL     1     -12.502 -28.907  -1.689  1.00  0.00     0.010 C 
HETATM   28  C24 UNL     1     -13.895 -27.779  -0.169  1.00  0.00     0.019 C 
HETATM   29  C21 UNL     1     -11.659 -28.709  -0.446  1.00  0.00    -0.001 C 
HETATM   30  C23 UNL     1     -12.689 -28.258   0.561  1.00  0.00     0.082 C 
HETATM   31  C25 UNL     1     -12.126 -27.254   1.452  1.00  0.00     0.223 C 
HETATM   32  O2  UNL     1     -11.760 -27.813   2.551  1.00  0.00    -0.273 OA
HETATM   33  N3  UNL     1     -11.879 -25.876   1.441  1.00  0.00    -0.340 N 
ATOM     34  H3  UNL     1     -12.034 -25.504   2.378  1.00  0.00     0.164 HD
ENDBRANCH  19  21
ENDBRANCH  18  19
ENDBRANCH   1  18
TORSDOF 9
ENDMDL
MODEL 2
REMARK VINA RESULT: -9.859692260      1.195      1.985
REMARK  9 active torsions:
REMARK  status: ('A' for Active; 'I' for Inactive)
REMARK    1  A    between atoms: N1_9  and  C8_10 
REMARK    2  A    between atoms: C8_10  and  C9_11 
REMARK    3  A    between atoms: C9_11  and  C10_12 
REMARK    4  A    between atoms: C10_12  and  C11_13 
REMARK    5  A    between atoms: C11_13  and  C12_14 
REMARK    6  A    between atoms: C12_14  and  C13_15 
REMARK    7  A    between atoms: C13_15  and  C14_16 
REMARK    8  A    between atoms: C14_16  and  N2_17 
REMARK    9  A    between atoms: N2_17  and  C15_19 
ROOT
HETATM    1  C13 UNL     1      -9.523 -22.103   1.204  1.00  0.00     0.044 C 
ENDROOT
BRANCH   1   2
HETATM    2  C12 UNL     1      -9.882 -21.849   2.664  1.00  0.00     0.005 C 
BRANCH   2   3
HETATM    3  C11 UNL     1     -10.567 -20.539   2.900  1.00  0.00     0.000 C 
BRANCH   3   4
HETATM    4  C10 UNL     1     -11.452 -20.594   4.136  1.00  0.00     0.002 C 
BRANCH   4   5
HETATM    5  C9  UNL     1     -11.384 -19.334   4.967  1.00  0.00     0.022 C 
BRANCH   5   6
HETATM    6  C8  UNL     1      -9.982 -19.063   5.385  1.00  0.00     0.152 C 
BRANCH   6   7
HETATM    7  N1  UNL     1      -9.729 -17.566   5.490  1.00  0.00    -0.264 N 
HETATM    8  C7  UNL     1      -9.089 -17.165   4.303  1.00  0.00     0.238 C 
HETATM    9  C6  UNL     1      -9.230 -15.698   3.555  1.00  0.00     0.116 C 
HETATM   10  O1  UNL     1      -8.352 -17.868   3.686  1.00  0.00    -0.272 OA
HETATM   11  C5  UNL     1      -9.986 -15.238   4.645  1.00  0.00     0.092 C 
HETATM   12  C4  UNL     1     -10.442 -15.283   5.524  1.00  0.00    -0.151 C 
HETATM   13  C2  UNL     1     -10.891 -15.786   6.740  1.00  0.00     0.089 C 
HETATM   14  C1  UNL     1     -10.430 -14.991   7.909  1.00  0.00     0.053 C 
HETATM   15  C3  UNL     1     -12.345 -16.140   6.776  1.00  0.00     0.053 C 
HETATM   16  N4  UNL     1     -10.164 -17.132   6.698  1.00  0.00    -0.311 N 
ATOM     17  H4  UNL     1     -10.014 -17.681   7.545  1.00  0.00     0.182 HD
ENDBRANCH   6   7
ENDBRANCH   5   6
ENDBRANCH   4   5
ENDBRANCH   3   4
ENDBRANCH   2   3
ENDBRANCH   1   2
BRANCH   1  18
HETATM   18  C14 UNL     1      -9.888 -23.497   0.817  1.00  0.00     0.057 C 
BRANCH  18  19
HETATM   19  N2  UNL     1     -11.004 -24.132   1.298  1.00  0.00    -0.381 N 
ATOM     20  H2  UNL     1     -11.306 -23.944   2.254  1.00  0.00     0.160 HD
BRANCH  19  21
HETATM   21  C15 UNL     1     -11.754 -25.042   0.507  1.00  0.00     0.183 C 
HETATM   22  C16 UNL     1     -11.124 -25.301  -0.776  1.00  0.00     0.051 C 
HETATM   23  C17 UNL     1     -11.436 -26.627  -1.477  1.00  0.00    -0.010 C 
HETATM   24  C18 UNL     1     -12.860 -26.751  -1.848  1.00  0.00     0.009 C 
HETATM   25  C22 UNL     1     -10.738 -27.779  -0.882  1.00  0.00     0.010 C 
HETATM   26  C19 UNL     1     -13.492 -28.082  -1.604  1.00  0.00    -0.013 C 
HETATM   27  C20 UNL     1     -12.496 -29.215  -1.753  1.00  0.00     0.010 C 
HETATM   28  C24 UNL     1     -13.914 -28.236  -0.156  1.00  0.00     0.019 C 
HETATM   29  C21 UNL     1     -11.617 -28.952  -0.547  1.00  0.00    -0.001 C 
HETATM   30  C23 UNL     1     -12.636 -28.607   0.512  1.00  0.00     0.082 C 
HETATM   31  C25 UNL     1     -12.128 -27.565   1.391  1.00  0.00     0.223 C 
HETATM   32  O2  UNL     1     -11.662 -28.098   2.464  1.00  0.00    -0.273 OA
HETATM   33  N3  UNL     1     -12.010 -26.169   1.388  1.00  0.00    -0.340 N 
ATOM     34  H3  UNL     1     -12.154 -25.822   2.336  1.00  0.00     0.164 HD
ENDBRANCH  19  21
ENDBRANCH  18  19
ENDBRANCH   1  18
TORSDOF 9
ENDMDL
MODEL 3
REMARK VINA RESULT: -9.623614695      1.733     11.215
REMARK  9 active torsions:
REMARK  status: ('A' for Active; 'I' for Inactive)
REMARK    1  A    between atoms: N1_9  and  C8_10 
REMARK    2  A    between atoms: C8_10  and  C9_11 
REMARK    3  A    between atoms: C9_11  and  C10_12 
REMARK    4  A    between atoms: C10_12  and  C11_13 
REMARK    5  A    between atoms: C11_13  and  C12_14 
REMARK    6  A    between atoms: C12_14  and  C13_15 
REMARK    7  A    between atoms: C13_15  and  C14_16 
REMARK    8  A    between atoms: C14_16  and  N2_17 
REMARK    9  A    between atoms: N2_17  and  C15_19 
ROOT
HETATM    1  C13 UNL     1      -9.548 -21.666   2.733  1.00  0.00     0.044 C 
ENDROOT
BRANCH   1   2
HETATM    2  C12 UNL     1      -9.674 -21.754   1.216  1.00  0.00     0.005 C 
BRANCH   2   3
HETATM    3  C11 UNL     1      -9.082 -22.999   0.630  1.00  0.00     0.000 C 
BRANCH   3   4
HETATM    4  C10 UNL     1     -10.130 -23.809  -0.116  1.00  0.00     0.002 C 
BRANCH   4   5
HETATM    5  C9  UNL     1     -10.391 -25.158   0.511  1.00  0.00     0.022 C 
BRANCH   5   6
HETATM    6  C8  UNL     1     -11.784 -25.230   1.029  1.00  0.00     0.152 C 
BRANCH   6   7
HETATM    7  N1  UNL     1     -12.519 -26.424   0.441  1.00  0.00    -0.264 N 
HETATM    8  C7  UNL     1     -13.076 -26.012  -0.783  1.00  0.00     0.238 C 
HETATM    9  C6  UNL     1     -13.311 -26.949  -2.124  1.00  0.00     0.116 C 
HETATM   10  O1  UNL     1     -13.450 -24.901  -0.992  1.00  0.00    -0.272 OA
HETATM   11  C5  UNL     1     -12.910 -28.073  -1.384  1.00  0.00     0.092 C 
HETATM   12  C4  UNL     1     -12.596 -28.580  -0.593  1.00  0.00    -0.151 C 
HETATM   13  C2  UNL     1     -12.189 -28.853   0.708  1.00  0.00     0.089 C 
HETATM   14  C1  UNL     1     -13.046 -29.858   1.392  1.00  0.00     0.053 C 
HETATM   15  C3  UNL     1     -10.720 -29.090   0.872  1.00  0.00     0.053 C 
HETATM   16  N4  UNL     1     -12.427 -27.465   1.305  1.00  0.00    -0.311 N 
ATOM     17  H4  UNL     1     -12.513 -27.327   2.312  1.00  0.00     0.182 HD
ENDBRANCH   6   7
ENDBRANCH   5   6
ENDBRANCH   4   5
ENDBRANCH   3   4
ENDBRANCH   2   3
ENDBRANCH   1   2
BRANCH   1  18
HETATM   18  C14 UNL     1     -10.901 -21.628   3.362  1.00  0.00     0.057 C 
BRANCH  18  19
HETATM   19  N2  UNL     1     -11.469 -20.470   3.828  1.00  0.00    -0.381 N 
ATOM     20  H2  UNL     1     -12.429 -20.249   3.562  1.00  0.00     0.160 HD
BRANCH  19  21
HETATM   21  C15 UNL     1     -10.765 -19.569   4.669  1.00  0.00     0.183 C 
HETATM   22  C16 UNL     1      -9.890 -18.686   3.917  1.00  0.00     0.051 C 
HETATM   23  C17 UNL     1      -9.528 -17.332   4.536  1.00  0.00    -0.010 C 
HETATM   24  C18 UNL     1      -8.757 -17.469   5.789  1.00  0.00     0.009 C 
HETATM   25  C22 UNL     1     -10.619 -16.346   4.460  1.00  0.00     0.010 C 
HETATM   26  C19 UNL     1      -9.142 -16.553   6.904  1.00  0.00    -0.013 C 
HETATM   27  C20 UNL     1      -9.657 -15.224   6.389  1.00  0.00     0.010 C 
HETATM   28  C24 UNL     1     -10.350 -17.077   7.656  1.00  0.00     0.019 C 
HETATM   29  C21 UNL     1     -10.960 -15.672   5.760  1.00  0.00    -0.001 C 
HETATM   30  C23 UNL     1     -11.480 -16.652   6.784  1.00  0.00     0.082 C 
HETATM   31  C25 UNL     1     -12.147 -17.769   6.130  1.00  0.00     0.223 C 
HETATM   32  O2  UNL     1     -13.417 -17.574   6.138  1.00  0.00    -0.273 OA
HETATM   33  N3  UNL     1     -11.790 -18.972   5.507  1.00  0.00    -0.340 N 
ATOM     34  H3  UNL     1     -12.499 -19.675   5.716  1.00  0.00     0.164 HD
ENDBRANCH  19  21
ENDBRANCH  18  19
ENDBRANCH   1  18
TORSDOF 9
ENDMDL
MODEL 4
REMARK VINA RESULT: -9.602076983      1.610     11.119
REMARK  9 active torsions:
REMARK  status: ('A' for Active; 'I' for Inactive)
REMARK    1  A    between atoms: N1_9  and  C8_10 
REMARK    2  A    between atoms: C8_10  and  C9_11 
REMARK    3  A    between atoms: C9_11  and  C10_12 
REMARK    4  A    between atoms: C10_12  and  C11_13 
REMARK    5  A    between atoms: C11_13  and  C12_14 
REMARK    6  A    between atoms: C12_14  and  C13_15 
REMARK    7  A    between atoms: C13_15  and  C14_16 
REMARK    8  A    between atoms: C14_16  and  N2_17 
REMARK    9  A    between atoms: N2_17  and  C15_19 
ROOT
HETATM    1  C13 UNL     1      -9.917 -21.213   1.742  1.00  0.00     0.044 C 
ENDROOT
BRANCH   1   2
HETATM    2  C12 UNL     1      -9.290 -22.483   1.176  1.00  0.00     0.005 C 
BRANCH   2   3
HETATM    3  C11 UNL     1     -10.275 -23.581   0.917  1.00  0.00     0.000 C 
BRANCH   3   4
HETATM    4  C10 UNL     1     -10.285 -23.980  -0.550  1.00  0.00     0.002 C 
BRANCH   4   5
HETATM    5  C9  UNL     1      -9.961 -25.439  -0.768  1.00  0.00     0.022 C 
BRANCH   5   6
HETATM    6  C8  UNL     1     -10.334 -26.238   0.432  1.00  0.00     0.152 C 
BRANCH   6   7
HETATM    7  N1  UNL     1     -11.455 -27.212   0.105  1.00  0.00    -0.264 N 
HETATM    8  C7  UNL     1     -11.477 -28.183   1.123  1.00  0.00     0.238 C 
HETATM    9  C6  UNL     1     -12.806 -28.981   1.695  1.00  0.00     0.116 C 
HETATM   10  O1  UNL     1     -10.502 -28.545   1.703  1.00  0.00    -0.272 OA
HETATM   11  C5  UNL     1     -13.575 -28.385   0.683  1.00  0.00     0.092 C 
HETATM   12  C4  UNL     1     -13.761 -27.813  -0.105  1.00  0.00    -0.151 C 
HETATM   13  C2  UNL     1     -13.550 -26.941  -1.167  1.00  0.00     0.089 C 
HETATM   14  C1  UNL     1     -13.943 -27.514  -2.482  1.00  0.00     0.053 C 
HETATM   15  C3  UNL     1     -14.034 -25.543  -0.940  1.00  0.00     0.053 C 
HETATM   16  N4  UNL     1     -12.026 -26.845  -1.068  1.00  0.00    -0.311 N 
ATOM     17  H4  UNL     1     -11.463 -26.518  -1.853  1.00  0.00     0.182 HD
ENDBRANCH   6   7
ENDBRANCH   5   6
ENDBRANCH   4   5
ENDBRANCH   3   4
ENDBRANCH   2   3
ENDBRANCH   1   2
BRANCH   1  18
HETATM   18  C14 UNL     1     -10.655 -21.519   3.002  1.00  0.00     0.057 C 
BRANCH  18  19
HETATM   19  N2  UNL     1     -11.312 -20.559   3.728  1.00  0.00    -0.381 N 
ATOM     20  H2  UNL     1     -12.327 -20.492   3.654  1.00  0.00     0.160 HD
BRANCH  19  21
HETATM   21  C15 UNL     1     -10.624 -19.656   4.581  1.00  0.00     0.183 C 
HETATM   22  C16 UNL     1      -9.770 -18.745   3.839  1.00  0.00     0.051 C 
HETATM   23  C17 UNL     1      -9.434 -17.392   4.477  1.00  0.00    -0.010 C 
HETATM   24  C18 UNL     1      -8.658 -17.530   5.726  1.00  0.00     0.009 C 
HETATM   25  C22 UNL     1     -10.545 -16.428   4.416  1.00  0.00     0.010 C 
HETATM   26  C19 UNL     1      -9.059 -16.638   6.854  1.00  0.00    -0.013 C 
HETATM   27  C20 UNL     1      -9.602 -15.313   6.358  1.00  0.00     0.010 C 
HETATM   28  C24 UNL     1     -10.254 -17.197   7.601  1.00  0.00     0.019 C 
HETATM   29  C21 UNL     1     -10.897 -15.779   5.726  1.00  0.00    -0.001 C 
HETATM   30  C23 UNL     1     -11.394 -16.784   6.737  1.00  0.00     0.082 C 
HETATM   31  C25 UNL     1     -12.040 -17.905   6.069  1.00  0.00     0.223 C 
HETATM   32  O2  UNL     1     -13.314 -17.736   6.083  1.00  0.00    -0.273 OA
HETATM   33  N3  UNL     1     -11.660 -19.091   5.429  1.00  0.00    -0.340 N 
ATOM     34  H3  UNL     1     -12.353 -19.811   5.629  1.00  0.00     0.164 HD
ENDBRANCH  19  21
ENDBRANCH  18  19
ENDBRANCH   1  18
TORSDOF 9
ENDMDL
MODEL 5
REMARK VINA RESULT: -9.557299415      1.880     11.680
REMARK  9 active torsions:
REMARK  status: ('A' for Active; 'I' for Inactive)
REMARK    1  A    between atoms: N1_9  and  C8_10 
REMARK    2  A    between atoms: C8_10  and  C9_11 
REMARK    3  A    between atoms: C9_11  and  C10_12 
REMARK    4  A    between atoms: C10_12  and  C11_13 
REMARK    5  A    between atoms: C11_13  and  C12_14 
REMARK    6  A    between atoms: C12_14  and  C13_15 
REMARK    7  A    between atoms: C13_15  and  C14_16 
REMARK    8  A    between atoms: C14_16  and  N2_17 
REMARK    9  A    between atoms: N2_17  and  C15_19 
ROOT
HETATM    1  C13 UNL     1     -10.224 -21.950   2.089  1.00  0.00     0.044 C 
ENDROOT
BRANCH   1   2
HETATM    2  C12 UNL     1     -10.507 -23.337   1.524  1.00  0.00     0.005 C 
BRANCH   2   3
HETATM    3  C11 UNL     1      -9.863 -23.594   0.196  1.00  0.00     0.000 C 
BRANCH   3   4
HETATM    4  C10 UNL     1     -10.525 -24.760  -0.521  1.00  0.00     0.002 C 
BRANCH   4   5
HETATM    5  C9  UNL     1     -11.557 -25.466   0.327  1.00  0.00     0.022 C 
BRANCH   5   6
HETATM    6  C8  UNL     1     -11.239 -26.917   0.428  1.00  0.00     0.152 C 
BRANCH   6   7
HETATM    7  N1  UNL     1     -12.286 -27.751  -0.294  1.00  0.00    -0.264 N 
HETATM    8  C7  UNL     1     -11.626 -28.460  -1.314  1.00  0.00     0.238 C 
HETATM    9  C6  UNL     1     -12.024 -29.958  -1.889  1.00  0.00     0.116 C 
HETATM   10  O1  UNL     1     -10.673 -28.041  -1.892  1.00  0.00    -0.272 OA
HETATM   11  C5  UNL     1     -13.177 -29.937  -1.089  1.00  0.00     0.092 C 
HETATM   12  C4  UNL     1     -13.830 -29.573  -0.438  1.00  0.00    -0.151 C 
HETATM   13  C2  UNL     1     -14.438 -28.696   0.454  1.00  0.00     0.089 C 
HETATM   14  C1  UNL     1     -15.824 -28.328   0.060  1.00  0.00     0.053 C 
HETATM   15  C3  UNL     1     -14.289 -29.062   1.897  1.00  0.00     0.053 C 
HETATM   16  N4  UNL     1     -13.500 -27.503   0.256  1.00  0.00    -0.311 N 
ATOM     17  H4  UNL     1     -13.777 -26.560   0.528  1.00  0.00     0.182 HD
ENDBRANCH   6   7
ENDBRANCH   5   6
ENDBRANCH   4   5
ENDBRANCH   3   4
ENDBRANCH   2   3
ENDBRANCH   1   2
BRANCH   1  18
HETATM   18  C14 UNL     1     -10.916 -21.774   3.398  1.00  0.00     0.057 C 
BRANCH  18  19
HETATM   19  N2  UNL     1     -11.452 -20.576   3.799  1.00  0.00    -0.381 N 
ATOM     20  H2  UNL     1     -12.390 -20.325   3.488  1.00  0.00     0.160 HD
BRANCH  19  21
HETATM   21  C15 UNL     1     -10.741 -19.675   4.634  1.00  0.00     0.183 C 
HETATM   22  C16 UNL     1      -9.859 -18.804   3.876  1.00  0.00     0.051 C 
HETATM   23  C17 UNL     1      -9.487 -17.448   4.486  1.00  0.00    -0.010 C 
HETATM   24  C18 UNL     1      -8.718 -17.581   5.740  1.00  0.00     0.009 C 
HETATM   25  C22 UNL     1     -10.571 -16.455   4.400  1.00  0.00     0.010 C 
HETATM   26  C19 UNL     1      -9.098 -16.654   6.847  1.00  0.00    -0.013 C 
HETATM   27  C20 UNL     1      -9.602 -15.325   6.322  1.00  0.00     0.010 C 
HETATM   28  C24 UNL     1     -10.310 -17.163   7.603  1.00  0.00     0.019 C 
HETATM   29  C21 UNL     1     -10.908 -15.768   5.695  1.00  0.00    -0.001 C 
HETATM   30  C23 UNL     1     -11.435 -16.737   6.726  1.00  0.00     0.082 C 
HETATM   31  C25 UNL     1     -12.110 -17.853   6.080  1.00  0.00     0.223 C 
HETATM   32  O2  UNL     1     -13.380 -17.648   6.086  1.00  0.00    -0.273 OA
HETATM   33  N3  UNL     1     -11.762 -19.063   5.467  1.00  0.00    -0.340 N 
ATOM     34  H3  UNL     1     -12.476 -19.759   5.680  1.00  0.00     0.164 HD
ENDBRANCH  19  21
ENDBRANCH  18  19
ENDBRANCH   1  18
TORSDOF 9
ENDMDL
