MODEL 1
REMARK VINA RESULT: -7.041138925      0.000      0.000
REMARK  10 active torsions:
REMARK  status: ('A' for Active; 'I' for Inactive)
REMARK    1  A    between atoms: C3_5  and  C4_6 
REMARK    2  A    between atoms: C4_6  and  C5_7 
REMARK    3  A    between atoms: C9_14  and  C10_15 
REMARK    4  A    between atoms: C10_15  and  C11_16 
REMARK    5  A    between atoms: C11_16  and  C12_17 
REMARK    6  A    between atoms: C15_23  and  C16_24 
REMARK    7  A    between atoms: C16_24  and  C17_25 
REMARK    8  A    between atoms: N4_30  and  C21_31 
REMARK    9  A    between atoms: C21_31  and  C22_32 
REMARK   10  A    between atoms: C22_32  and  C23_33 
ROOT
HETATM    1  C1  UNL     1      -9.177 -31.080   0.884  1.00  0.00     0.064 C 
HETATM    2  C2  UNL     1     -10.366 -30.475   0.933  1.00  0.00     0.100 C 
HETATM    3  N1  UNL     1     -10.518 -29.269   0.185  1.00  0.00    -0.342 N 
ATOM      4  H1  UNL     1      -9.981 -29.259  -0.681  1.00  0.00     0.167 HD
HETATM    5  C3  UNL     1     -11.264 -28.081   0.401  1.00  0.00     0.079 C 
HETATM    6  C8  UNL     1     -12.401 -28.142   1.326  1.00  0.00     0.264 C 
HETATM    7  O1  UNL     1     -12.255 -28.098   2.599  1.00  0.00    -0.266 OA
HETATM    8  N2  UNL     1     -13.756 -28.250   0.914  1.00  0.00    -0.343 N 
ATOM      9  H2  UNL     1     -14.479 -27.877   1.528  1.00  0.00     0.163 HD
HETATM   10  C9  UNL     1     -14.163 -28.862  -0.335  1.00  0.00     0.177 C 
HETATM   11  C14 UNL     1     -14.952 -30.066  -0.005  1.00  0.00     0.241 C 
HETATM   12  O2  UNL     1     -16.053 -29.939   0.571  1.00  0.00    -0.271 OA
HETATM   13  N3  UNL     1     -14.483 -31.391  -0.332  1.00  0.00    -0.346 N 
ATOM     14  H3  UNL     1     -15.126 -32.080  -0.723  1.00  0.00     0.163 HD
HETATM   15  C15 UNL     1     -13.102 -31.737  -0.104  1.00  0.00     0.177 C 
HETATM   16  C20 UNL     1     -12.687 -31.436   1.294  1.00  0.00     0.248 C 
HETATM   17  O3  UNL     1     -13.585 -31.471   2.173  1.00  0.00    -0.271 OA
HETATM   18  N4  UNL     1     -11.358 -31.117   1.716  1.00  0.00    -0.303 N 
ENDROOT
BRANCH   5  19
HETATM   19  C4  UNL     1     -10.503 -26.794   0.517  1.00  0.00     0.067 C 
BRANCH  19  20
HETATM   20  C5  UNL     1     -11.157 -25.513   0.249  1.00  0.00    -0.017 C 
HETATM   21  C6  UNL     1     -10.145 -24.683  -0.592  1.00  0.00     0.010 C 
HETATM   22  C7  UNL     1     -11.348 -24.666   1.486  1.00  0.00     0.010 C 
ENDBRANCH  19  20
ENDBRANCH   5  19
BRANCH  18  23
HETATM   23  C21 UNL     1     -11.077 -31.464   3.094  1.00  0.00     0.133 C 
BRANCH  23  24
HETATM   24  C22 UNL     1     -10.763 -32.904   3.353  1.00  0.00     0.020 C 
BRANCH  24  25
HETATM   25  C23 UNL     1      -9.947 -33.053   4.645  1.00  0.00    -0.003 C 
HETATM   26  C24 UNL     1      -8.544 -33.503   4.333  1.00  0.00     0.005 C 
ENDBRANCH  24  25
ENDBRANCH  23  24
ENDBRANCH  18  23
BRANCH  10  27
HETATM   27  C10 UNL     1     -14.931 -27.954  -1.219  1.00  0.00     0.035 C 
BRANCH  27  28
HETATM   28  C11 UNL     1     -14.784 -26.493  -1.024  1.00  0.00     0.002 C 
BRANCH  28  29
HETATM   29  C12 UNL     1     -13.835 -26.013  -2.150  1.00  0.00    -0.004 C 
HETATM   30  C13 UNL     1     -14.387 -24.760  -2.747  1.00  0.00     0.005 C 
ENDBRANCH  28  29
ENDBRANCH  27  28
ENDBRANCH  10  27
BRANCH  15  31
HETATM   31  C16 UNL     1     -12.711 -33.094  -0.531  1.00  0.00     0.038 C 
BRANCH  31  32
HETATM   32  C17 UNL     1     -11.478 -33.325  -1.287  1.00  0.00    -0.020 C 
HETATM   33  C18 UNL     1     -11.383 -34.510  -2.187  1.00  0.00     0.009 C 
HETATM   34  C19 UNL     1     -11.310 -32.105  -2.227  1.00  0.00     0.009 C 
ENDBRANCH  31  32
ENDBRANCH  15  31
TORSDOF 10
ENDMDL
MODEL 2
REMARK VINA RESULT: -6.993364318      2.000      4.929
REMARK  10 active torsions:
REMARK  status: ('A' for Active; 'I' for Inactive)
REMARK    1  A    between atoms: C3_5  and  C4_6 
REMARK    2  A    between atoms: C4_6  and  C5_7 
REMARK    3  A    between atoms: C9_14  and  C10_15 
REMARK    4  A    between atoms: C10_15  and  C11_16 
REMARK    5  A    between atoms: C11_16  and  C12_17 
REMARK    6  A    between atoms: C15_23  and  C16_24 
REMARK    7  A    between atoms: C16_24  and  C17_25 
REMARK    8  A    between atoms: N4_30  and  C21_31 
REMARK    9  A    between atoms: C21_31  and  C22_32 
REMARK   10  A    between atoms: C22_32  and  C23_33 
ROOT
HETATM    1  C1  UNL     1     -15.403 -30.320   1.722  1.00  0.00     0.064 C 
HETATM    2  C2  UNL     1     -14.695 -29.636   0.818  1.00  0.00     0.100 C 
HETATM    3  N1  UNL     1     -14.944 -28.236   0.717  1.00  0.00    -0.342 N 
ATOM      4  H1  UNL     1     -15.181 -27.800   1.608  1.00  0.00     0.167 HD
HETATM    5  C3  UNL     1     -14.928 -27.323  -0.371  1.00  0.00     0.079 C 
HETATM    6  C8  UNL     1     -14.175 -27.700  -1.573  1.00  0.00     0.264 C 
HETATM    7  O1  UNL     1     -14.644 -28.504  -2.454  1.00  0.00    -0.266 OA
HETATM    8  N2  UNL     1     -12.874 -27.218  -1.879  1.00  0.00    -0.343 N 
ATOM      9  H2  UNL     1     -12.596 -27.169  -2.859  1.00  0.00     0.163 HD
HETATM   10  C9  UNL     1     -11.923 -26.794  -0.872  1.00  0.00     0.177 C 
HETATM   11  C14 UNL     1     -10.775 -27.721  -0.923  1.00  0.00     0.241 C 
HETATM   12  O2  UNL     1     -10.052 -27.745  -1.941  1.00  0.00    -0.271 OA
HETATM   13  N3  UNL     1     -10.464 -28.602   0.176  1.00  0.00    -0.346 N 
ATOM     14  H3  UNL     1      -9.497 -28.723   0.478  1.00  0.00     0.163 HD
HETATM   15  C15 UNL     1     -11.526 -29.310   0.847  1.00  0.00     0.177 C 
HETATM   16  C20 UNL     1     -12.375 -30.063  -0.117  1.00  0.00     0.248 C 
HETATM   17  O3  UNL     1     -11.825 -30.444  -1.181  1.00  0.00    -0.271 OA
HETATM   18  N4  UNL     1     -13.756 -30.388   0.068  1.00  0.00    -0.303 N 
ENDROOT
BRANCH   5  19
HETATM   19  C4  UNL     1     -16.205 -26.610  -0.699  1.00  0.00     0.067 C 
BRANCH  19  20
HETATM   20  C5  UNL     1     -16.286 -25.152  -0.625  1.00  0.00    -0.017 C 
HETATM   21  C6  UNL     1     -17.804 -24.807  -0.606  1.00  0.00     0.010 C 
HETATM   22  C7  UNL     1     -15.795 -24.458  -1.876  1.00  0.00     0.010 C 
ENDBRANCH  19  20
ENDBRANCH   5  19
BRANCH  18  23
HETATM   23  C21 UNL     1     -14.182 -31.578  -0.637  1.00  0.00     0.133 C 
BRANCH  23  24
HETATM   24  C22 UNL     1     -13.792 -32.881  -0.013  1.00  0.00     0.020 C 
BRANCH  24  25
HETATM   25  C23 UNL     1     -13.083 -33.778  -1.038  1.00  0.00    -0.003 C 
HETATM   26  C24 UNL     1     -11.648 -34.001  -0.639  1.00  0.00     0.005 C 
ENDBRANCH  24  25
ENDBRANCH  23  24
ENDBRANCH  18  23
BRANCH  10  27
HETATM   27  C10 UNL     1     -11.476 -25.390  -1.032  1.00  0.00     0.035 C 
BRANCH  27  28
HETATM   28  C11 UNL     1     -11.135 -24.618   0.185  1.00  0.00     0.002 C 
BRANCH  28  29
HETATM   29  C12 UNL     1      -9.650 -24.212   0.023  1.00  0.00    -0.004 C 
HETATM   30  C13 UNL     1      -9.423 -22.914   0.726  1.00  0.00     0.005 C 
ENDBRANCH  28  29
ENDBRANCH  27  28
ENDBRANCH  10  27
BRANCH  15  31
HETATM   31  C16 UNL     1     -11.109 -30.135   1.996  1.00  0.00     0.038 C 
BRANCH  31  32
HETATM   32  C17 UNL     1     -10.551 -31.475   1.804  1.00  0.00    -0.020 C 
HETATM   33  C18 UNL     1      -9.080 -31.634   1.612  1.00  0.00     0.009 C 
HETATM   34  C19 UNL     1     -10.865 -32.267   3.098  1.00  0.00     0.009 C 
ENDBRANCH  31  32
ENDBRANCH  15  31
TORSDOF 10
ENDMDL
MODEL 3
REMARK VINA RESULT: -6.727100195      1.988      5.156
REMARK  10 active torsions:
REMARK  status: ('A' for Active; 'I' for Inactive)
REMARK    1  A    between atoms: C3_5  and  C4_6 
REMARK    2  A    between atoms: C4_6  and  C5_7 
REMARK    3  A    between atoms: C9_14  and  C10_15 
REMARK    4  A    between atoms: C10_15  and  C11_16 
REMARK    5  A    between atoms: C11_16  and  C12_17 
REMARK    6  A    between atoms: C15_23  and  C16_24 
REMARK    7  A    between atoms: C16_24  and  C17_25 
REMARK    8  A    between atoms: N4_30  and  C21_31 
REMARK    9  A    between atoms: C21_31  and  C22_32 
REMARK   10  A    between atoms: C22_32  and  C23_33 
ROOT
HETATM    1  C1  UNL     1      -9.757 -26.564  -1.638  1.00  0.00     0.064 C 
HETATM    2  C2  UNL     1     -10.964 -26.756  -1.102  1.00  0.00     0.100 C 
HETATM    3  N1  UNL     1     -12.045 -27.013  -1.998  1.00  0.00    -0.342 N 
ATOM      4  H1  UNL     1     -11.769 -27.542  -2.825  1.00  0.00     0.167 HD
HETATM    5  C3  UNL     1     -13.425 -26.682  -1.973  1.00  0.00     0.079 C 
HETATM    6  C8  UNL     1     -14.029 -26.350  -0.678  1.00  0.00     0.264 C 
HETATM    7  O1  UNL     1     -13.901 -25.196  -0.135  1.00  0.00    -0.266 OA
HETATM    8  N2  UNL     1     -14.807 -27.255   0.092  1.00  0.00    -0.343 N 
ATOM      9  H2  UNL     1     -15.512 -26.873   0.721  1.00  0.00     0.163 HD
HETATM   10  C9  UNL     1     -14.651 -28.694   0.028  1.00  0.00     0.177 C 
HETATM   11  C14 UNL     1     -14.177 -29.151   1.351  1.00  0.00     0.241 C 
HETATM   12  O2  UNL     1     -14.926 -29.034   2.344  1.00  0.00    -0.271 OA
HETATM   13  N3  UNL     1     -12.868 -29.731   1.527  1.00  0.00    -0.346 N 
ATOM     14  H3  UNL     1     -12.749 -30.558   2.112  1.00  0.00     0.163 HD
HETATM   15  C15 UNL     1     -11.729 -29.137   0.872  1.00  0.00     0.177 C 
HETATM   16  C20 UNL     1     -11.628 -27.681   1.166  1.00  0.00     0.248 C 
HETATM   17  O3  UNL     1     -12.107 -27.288   2.260  1.00  0.00    -0.271 OA
HETATM   18  N4  UNL     1     -11.031 -26.700   0.313  1.00  0.00    -0.303 N 
ENDROOT
BRANCH   5  19
HETATM   19  C4  UNL     1     -13.955 -25.828  -3.085  1.00  0.00     0.067 C 
BRANCH  19  20
HETATM   20  C5  UNL     1     -15.018 -24.854  -2.838  1.00  0.00    -0.017 C 
HETATM   21  C6  UNL     1     -16.339 -25.533  -3.304  1.00  0.00     0.010 C 
HETATM   22  C7  UNL     1     -14.932 -23.632  -3.723  1.00  0.00     0.010 C 
ENDBRANCH  19  20
ENDBRANCH   5  19
BRANCH  18  23
HETATM   23  C21 UNL     1     -10.507 -25.547   1.015  1.00  0.00     0.133 C 
BRANCH  23  24
HETATM   24  C22 UNL     1     -10.759 -24.220   0.370  1.00  0.00     0.020 C 
BRANCH  24  25
HETATM   25  C23 UNL     1      -9.475 -23.378   0.352  1.00  0.00    -0.003 C 
HETATM   26  C24 UNL     1      -9.618 -22.181   1.254  1.00  0.00     0.005 C 
ENDBRANCH  24  25
ENDBRANCH  23  24
ENDBRANCH  18  23
BRANCH  10  27
HETATM   27  C10 UNL     1     -15.888 -29.410  -0.366  1.00  0.00     0.035 C 
BRANCH  27  28
HETATM   28  C11 UNL     1     -16.737 -28.815  -1.423  1.00  0.00     0.002 C 
BRANCH  28  29
HETATM   29  C12 UNL     1     -16.071 -29.206  -2.765  1.00  0.00    -0.004 C 
HETATM   30  C13 UNL     1     -17.097 -29.838  -3.649  1.00  0.00     0.005 C 
ENDBRANCH  28  29
ENDBRANCH  27  28
ENDBRANCH  10  27
BRANCH  15  31
HETATM   31  C16 UNL     1     -10.449 -29.843   1.067  1.00  0.00     0.038 C 
BRANCH  31  32
HETATM   32  C17 UNL     1     -10.411 -31.281   1.341  1.00  0.00    -0.020 C 
HETATM   33  C18 UNL     1     -10.778 -32.242   0.261  1.00  0.00     0.009 C 
HETATM   34  C19 UNL     1      -8.938 -31.620   1.681  1.00  0.00     0.009 C 
ENDBRANCH  31  32
ENDBRANCH  15  31
TORSDOF 10
ENDMDL
MODEL 4
REMARK VINA RESULT: -6.692524528      2.118      5.040
REMARK  10 active torsions:
REMARK  status: ('A' for Active; 'I' for Inactive)
REMARK    1  A    between atoms: C3_5  and  C4_6 
REMARK    2  A    between atoms: C4_6  and  C5_7 
REMARK    3  A    between atoms: C9_14  and  C10_15 
REMARK    4  A    between atoms: C10_15  and  C11_16 
REMARK    5  A    between atoms: C11_16  and  C12_17 
REMARK    6  A    between atoms: C15_23  and  C16_24 
REMARK    7  A    between atoms: C16_24  and  C17_25 
REMARK    8  A    between atoms: N4_30  and  C21_31 
REMARK    9  A    between atoms: C21_31  and  C22_32 
REMARK   10  A    between atoms: C22_32  and  C23_33 
ROOT
HETATM    1  C1  UNL     1     -15.155 -30.718   1.791  1.00  0.00     0.064 C 
HETATM    2  C2  UNL     1     -14.524 -29.959   0.892  1.00  0.00     0.100 C 
HETATM    3  N1  UNL     1     -14.854 -28.572   0.860  1.00  0.00    -0.342 N 
ATOM      4  H1  UNL     1     -15.078 -28.187   1.777  1.00  0.00     0.167 HD
HETATM    5  C3  UNL     1     -14.933 -27.617  -0.188  1.00  0.00     0.079 C 
HETATM    6  C8  UNL     1     -14.209 -27.900  -1.432  1.00  0.00     0.264 C 
HETATM    7  O1  UNL     1     -14.669 -28.694  -2.328  1.00  0.00    -0.266 OA
HETATM    8  N2  UNL     1     -12.952 -27.333  -1.767  1.00  0.00    -0.343 N 
ATOM      9  H2  UNL     1     -12.716 -27.227  -2.754  1.00  0.00     0.163 HD
HETATM   10  C9  UNL     1     -11.986 -26.895  -0.779  1.00  0.00     0.177 C 
HETATM   11  C14 UNL     1     -10.790 -27.753  -0.914  1.00  0.00     0.241 C 
HETATM   12  O2  UNL     1     -10.109 -27.694  -1.960  1.00  0.00    -0.271 OA
HETATM   13  N3  UNL     1     -10.387 -28.658   0.134  1.00  0.00    -0.346 N 
ATOM     14  H3  UNL     1      -9.403 -28.736   0.393  1.00  0.00     0.163 HD
HETATM   15  C15 UNL     1     -11.380 -29.453   0.813  1.00  0.00     0.177 C 
HETATM   16  C20 UNL     1     -12.224 -30.213  -0.149  1.00  0.00     0.248 C 
HETATM   17  O3  UNL     1     -11.697 -30.519  -1.248  1.00  0.00    -0.271 OA
HETATM   18  N4  UNL     1     -13.575 -30.624   0.075  1.00  0.00    -0.303 N 
ENDROOT
BRANCH   5  19
HETATM   19  C4  UNL     1     -16.260 -26.965  -0.435  1.00  0.00     0.067 C 
BRANCH  19  20
HETATM   20  C5  UNL     1     -17.444 -27.370   0.323  1.00  0.00    -0.017 C 
HETATM   21  C6  UNL     1     -18.162 -28.444  -0.544  1.00  0.00     0.010 C 
HETATM   22  C7  UNL     1     -18.483 -26.278   0.442  1.00  0.00     0.010 C 
ENDBRANCH  19  20
ENDBRANCH   5  19
BRANCH  18  23
HETATM   23  C21 UNL     1     -13.963 -31.808  -0.664  1.00  0.00     0.133 C 
BRANCH  23  24
HETATM   24  C22 UNL     1     -13.449 -33.107  -0.131  1.00  0.00     0.020 C 
BRANCH  24  25
HETATM   25  C23 UNL     1     -12.662 -33.860  -1.213  1.00  0.00    -0.003 C 
HETATM   26  C24 UNL     1     -11.336 -34.326  -0.672  1.00  0.00     0.005 C 
ENDBRANCH  24  25
ENDBRANCH  23  24
ENDBRANCH  18  23
BRANCH  10  27
HETATM   27  C10 UNL     1     -11.624 -25.463  -0.896  1.00  0.00     0.035 C 
BRANCH  27  28
HETATM   28  C11 UNL     1     -11.170 -24.751   0.321  1.00  0.00     0.002 C 
BRANCH  28  29
HETATM   29  C12 UNL     1      -9.737 -24.258   0.008  1.00  0.00    -0.004 C 
HETATM   30  C13 UNL     1      -9.508 -22.958   0.709  1.00  0.00     0.005 C 
ENDBRANCH  28  29
ENDBRANCH  27  28
ENDBRANCH  10  27
BRANCH  15  31
HETATM   31  C16 UNL     1     -10.870 -30.299   1.910  1.00  0.00     0.038 C 
BRANCH  31  32
HETATM   32  C17 UNL     1     -10.433 -31.675   1.664  1.00  0.00    -0.020 C 
HETATM   33  C18 UNL     1      -8.986 -32.014   1.784  1.00  0.00     0.009 C 
HETATM   34  C19 UNL     1     -11.131 -32.550   2.735  1.00  0.00     0.009 C 
ENDBRANCH  31  32
ENDBRANCH  15  31
TORSDOF 10
ENDMDL
MODEL 5
REMARK VINA RESULT: -6.672838107      2.041      5.540
REMARK  10 active torsions:
REMARK  status: ('A' for Active; 'I' for Inactive)
REMARK    1  A    between atoms: C3_5  and  C4_6 
REMARK    2  A    between atoms: C4_6  and  C5_7 
REMARK    3  A    between atoms: C9_14  and  C10_15 
REMARK    4  A    between atoms: C10_15  and  C11_16 
REMARK    5  A    between atoms: C11_16  and  C12_17 
REMARK    6  A    between atoms: C15_23  and  C16_24 
REMARK    7  A    between atoms: C16_24  and  C17_25 
REMARK    8  A    between atoms: N4_30  and  C21_31 
REMARK    9  A    between atoms: C21_31  and  C22_32 
REMARK   10  A    between atoms: C22_32  and  C23_33 
ROOT
HETATM    1  C1  UNL     1     -13.659 -32.036  -0.030  1.00  0.00     0.064 C 
HETATM    2  C2  UNL     1     -13.242 -30.780   0.146  1.00  0.00     0.100 C 
HETATM    3  N1  UNL     1     -11.850 -30.522  -0.025  1.00  0.00    -0.342 N 
ATOM      4  H1  UNL     1     -11.415 -31.102  -0.741  1.00  0.00     0.167 HD
HETATM    5  C3  UNL     1     -10.946 -29.622   0.599  1.00  0.00     0.079 C 
HETATM    6  C8  UNL     1     -11.505 -28.450   1.283  1.00  0.00     0.264 C 
HETATM    7  O1  UNL     1     -12.009 -28.517   2.459  1.00  0.00    -0.266 OA
HETATM    8  N2  UNL     1     -11.540 -27.145   0.723  1.00  0.00    -0.343 N 
ATOM      9  H2  UNL     1     -11.539 -26.347   1.358  1.00  0.00     0.163 HD
HETATM   10  C9  UNL     1     -11.579 -26.890  -0.703  1.00  0.00     0.177 C 
HETATM   11  C14 UNL     1     -12.870 -26.241  -1.005  1.00  0.00     0.241 C 
HETATM   12  O2  UNL     1     -13.105 -25.101  -0.550  1.00  0.00    -0.271 OA
HETATM   13  N3  UNL     1     -13.872 -26.889  -1.816  1.00  0.00    -0.346 N 
ATOM     14  H3  UNL     1     -14.374 -26.361  -2.530  1.00  0.00     0.163 HD
HETATM   15  C15 UNL     1     -14.159 -28.288  -1.614  1.00  0.00     0.177 C 
HETATM   16  C20 UNL     1     -14.465 -28.581  -0.186  1.00  0.00     0.248 C 
HETATM   17  O3  UNL     1     -14.959 -27.646   0.493  1.00  0.00    -0.271 OA
HETATM   18  N4  UNL     1     -14.247 -29.833   0.470  1.00  0.00    -0.303 N 
ENDROOT
BRANCH   5  19
HETATM   19  C4  UNL     1      -9.778 -30.207   1.333  1.00  0.00     0.067 C 
BRANCH  19  20
HETATM   20  C5  UNL     1      -9.741 -31.632   1.663  1.00  0.00    -0.017 C 
HETATM   21  C6  UNL     1     -10.555 -31.790   2.979  1.00  0.00     0.010 C 
HETATM   22  C7  UNL     1      -8.365 -32.123   2.053  1.00  0.00     0.010 C 
ENDBRANCH  19  20
ENDBRANCH   5  19
BRANCH  18  23
HETATM   23  C21 UNL     1     -15.135 -30.077   1.588  1.00  0.00     0.133 C 
BRANCH  23  24
HETATM   24  C22 UNL     1     -16.538 -30.460   1.235  1.00  0.00     0.020 C 
BRANCH  24  25
HETATM   25  C23 UNL     1     -17.542 -29.544   1.951  1.00  0.00    -0.003 C 
HETATM   26  C24 UNL     1     -18.350 -28.763   0.949  1.00  0.00     0.005 C 
ENDBRANCH  24  25
ENDBRANCH  23  24
ENDBRANCH  18  23
BRANCH  10  27
HETATM   27  C10 UNL     1     -10.447 -26.066  -1.189  1.00  0.00     0.035 C 
BRANCH  27  28
HETATM   28  C11 UNL     1      -9.563 -25.425  -0.188  1.00  0.00     0.002 C 
BRANCH  28  29
HETATM   29  C12 UNL     1      -9.944 -23.925  -0.190  1.00  0.00    -0.004 C 
HETATM   30  C13 UNL     1     -10.370 -23.532   1.187  1.00  0.00     0.005 C 
ENDBRANCH  28  29
ENDBRANCH  27  28
ENDBRANCH  10  27
BRANCH  15  31
HETATM   31  C16 UNL     1     -15.153 -28.869  -2.536  1.00  0.00     0.038 C 
BRANCH  31  32
HETATM   32  C17 UNL     1     -16.590 -28.688  -2.313  1.00  0.00    -0.020 C 
HETATM   33  C18 UNL     1     -17.375 -27.841  -3.255  1.00  0.00     0.009 C 
HETATM   34  C19 UNL     1     -17.227 -30.096  -2.429  1.00  0.00     0.009 C 
ENDBRANCH  31  32
ENDBRANCH  15  31
TORSDOF 10
ENDMDL
