MODEL 1
REMARK VINA RESULT: -5.340387158      0.000      0.000
REMARK  3 active torsions:
REMARK  status: ('A' for Active; 'I' for Inactive)
REMARK    1  A    between atoms: C1_2  and  C2_3 
REMARK    2  A    between atoms: C2_3  and  C3_4 
REMARK    3  A    between atoms: C3_4  and  N1_5 
ROOT
HETATM    1  N1  UNL     1      -7.904 -32.048  16.430  1.00  0.00    -0.360 N 
ATOM      2  H1  UNL     1      -6.915 -32.271  16.542  1.00  0.00     0.166 HD
HETATM    3  C4  UNL     1      -8.539 -32.017  17.532  1.00  0.00     0.076 C 
HETATM    4  C5  UNL     1      -9.975 -31.733  17.765  1.00  0.00     0.078 C 
HETATM    5  C6  UNL     1     -10.099 -31.825  19.265  1.00  0.00     0.027 C 
HETATM    6  C7  UNL     1      -9.006 -32.802  19.619  1.00  0.00     0.121 C 
HETATM    7  N2  UNL     1      -7.919 -32.284  18.824  1.00  0.00    -0.380 N 
ATOM      8  H2  UNL     1      -6.948 -32.139  19.101  1.00  0.00     0.160 HD
ENDROOT
BRANCH   1   9
HETATM    9  C3  UNL     1      -8.273 -31.843  15.105  1.00  0.00     0.064 C 
BRANCH   9  10
HETATM   10  C2  UNL     1      -8.693 -30.479  14.666  1.00  0.00     0.076 C 
BRANCH  10  11
HETATM   11  C1  UNL     1      -7.472 -29.674  14.196  1.00  0.00     0.227 C 
HETATM   12  F1  UNL     1      -7.906 -28.443  13.758  1.00  0.00    -0.255 F 
ENDBRANCH  10  11
ENDBRANCH   9  10
ENDBRANCH   1   9
TORSDOF 3
ENDMDL
MODEL 2
REMARK VINA RESULT: -5.322010695      1.286      1.585
REMARK  3 active torsions:
REMARK  status: ('A' for Active; 'I' for Inactive)
REMARK    1  A    between atoms: C1_2  and  C2_3 
REMARK    2  A    between atoms: C2_3  and  C3_4 
REMARK    3  A    between atoms: C3_4  and  N1_5 
ROOT
HETATM    1  N1  UNL     1      -8.846 -32.086  15.885  1.00  0.00    -0.360 N 
ATOM      2  H1  UNL     1      -9.606 -31.720  15.312  1.00  0.00     0.166 HD
HETATM    3  C4  UNL     1      -9.155 -32.202  17.115  1.00  0.00     0.076 C 
HETATM    4  C5  UNL     1      -8.320 -32.691  18.237  1.00  0.00     0.078 C 
HETATM    5  C6  UNL     1      -9.257 -32.608  19.417  1.00  0.00     0.027 C 
HETATM    6  C7  UNL     1     -10.175 -31.479  19.018  1.00  0.00     0.121 C 
HETATM    7  N2  UNL     1     -10.461 -31.838  17.651  1.00  0.00    -0.380 N 
ATOM      8  H2  UNL     1     -11.363 -31.838  17.173  1.00  0.00     0.160 HD
ENDROOT
BRANCH   1   9
HETATM    9  C3  UNL     1      -7.690 -32.353  15.160  1.00  0.00     0.064 C 
BRANCH   9  10
HETATM   10  C2  UNL     1      -7.414 -31.581  13.912  1.00  0.00     0.076 C 
BRANCH  10  11
HETATM   11  C1  UNL     1      -7.986 -30.161  14.030  1.00  0.00     0.227 C 
HETATM   12  F1  UNL     1      -6.970 -29.312  14.405  1.00  0.00    -0.255 F 
ENDBRANCH  10  11
ENDBRANCH   9  10
ENDBRANCH   1   9
TORSDOF 3
ENDMDL
MODEL 3
REMARK VINA RESULT: -5.216811488      0.986      1.035
REMARK  3 active torsions:
REMARK  status: ('A' for Active; 'I' for Inactive)
REMARK    1  A    between atoms: C1_2  and  C2_3 
REMARK    2  A    between atoms: C2_3  and  C3_4 
REMARK    3  A    between atoms: C3_4  and  N1_5 
ROOT
HETATM    1  N1  UNL     1      -7.558 -32.259  16.515  1.00  0.00    -0.360 N 
ATOM      2  H1  UNL     1      -6.645 -32.638  16.766  1.00  0.00     0.166 HD
HETATM    3  C4  UNL     1      -8.324 -32.087  17.518  1.00  0.00     0.076 C 
HETATM    4  C5  UNL     1      -9.709 -31.563  17.544  1.00  0.00     0.078 C 
HETATM    5  C6  UNL     1     -10.050 -31.584  19.014  1.00  0.00     0.027 C 
HETATM    6  C7  UNL     1      -9.194 -32.715  19.526  1.00  0.00     0.121 C 
HETATM    7  N2  UNL     1      -7.938 -32.410  18.886  1.00  0.00    -0.380 N 
ATOM      8  H2  UNL     1      -7.003 -32.418  19.294  1.00  0.00     0.160 HD
ENDROOT
BRANCH   1   9
HETATM    9  C3  UNL     1      -7.705 -32.038  15.150  1.00  0.00     0.064 C 
BRANCH   9  10
HETATM   10  C2  UNL     1      -7.158 -30.787  14.547  1.00  0.00     0.076 C 
BRANCH  10  11
HETATM   11  C1  UNL     1      -8.258 -29.718  14.456  1.00  0.00     0.227 C 
HETATM   12  F1  UNL     1      -9.481 -30.348  14.488  1.00  0.00    -0.255 F 
ENDBRANCH  10  11
ENDBRANCH   9  10
ENDBRANCH   1   9
TORSDOF 3
ENDMDL
MODEL 4
REMARK VINA RESULT: -5.197296777      3.006      4.984
REMARK  3 active torsions:
REMARK  status: ('A' for Active; 'I' for Inactive)
REMARK    1  A    between atoms: C1_2  and  C2_3 
REMARK    2  A    between atoms: C2_3  and  C3_4 
REMARK    3  A    between atoms: C3_4  and  N1_5 
ROOT
HETATM    1  N1  UNL     1      -9.417 -32.308  16.692  1.00  0.00    -0.360 N 
ATOM      2  H1  UNL     1      -9.053 -33.221  16.965  1.00  0.00     0.166 HD
HETATM    3  C4  UNL     1      -8.852 -31.832  15.655  1.00  0.00     0.076 C 
HETATM    4  C5  UNL     1      -9.111 -30.544  14.970  1.00  0.00     0.078 C 
HETATM    5  C6  UNL     1      -8.146 -30.578  13.810  1.00  0.00     0.027 C 
HETATM    6  C7  UNL     1      -7.030 -31.439  14.347  1.00  0.00     0.121 C 
HETATM    7  N2  UNL     1      -7.785 -32.517  14.936  1.00  0.00    -0.380 N 
ATOM      8  H2  UNL     1      -7.613 -33.521  14.866  1.00  0.00     0.160 HD
ENDROOT
BRANCH   1   9
HETATM    9  C3  UNL     1     -10.425 -31.845  17.531  1.00  0.00     0.064 C 
BRANCH   9  10
HETATM   10  C2  UNL     1     -10.101 -31.509  18.948  1.00  0.00     0.076 C 
BRANCH  10  11
HETATM   11  C1  UNL     1      -9.358 -32.677  19.614  1.00  0.00     0.227 C 
HETATM   12  F1  UNL     1     -10.087 -33.090  20.706  1.00  0.00    -0.255 F 
ENDBRANCH  10  11
ENDBRANCH   9  10
ENDBRANCH   1   9
TORSDOF 3
ENDMDL
MODEL 5
REMARK VINA RESULT: -5.196671102      2.325      4.386
REMARK  3 active torsions:
REMARK  status: ('A' for Active; 'I' for Inactive)
REMARK    1  A    between atoms: C1_2  and  C2_3 
REMARK    2  A    between atoms: C2_3  and  C3_4 
REMARK    3  A    between atoms: C3_4  and  N1_5 
ROOT
HETATM    1  N1  UNL     1      -9.516 -32.407  16.041  1.00  0.00    -0.360 N 
ATOM      2  H1  UNL     1      -9.055 -33.267  16.338  1.00  0.00     0.166 HD
HETATM    3  C4  UNL     1      -8.780 -31.670  15.309  1.00  0.00     0.076 C 
HETATM    4  C5  UNL     1      -9.102 -30.359  14.698  1.00  0.00     0.078 C 
HETATM    5  C6  UNL     1      -7.841 -30.019  13.943  1.00  0.00     0.027 C 
HETATM    6  C7  UNL     1      -6.783 -30.731  14.748  1.00  0.00     0.121 C 
HETATM    7  N2  UNL     1      -7.412 -32.014  14.941  1.00  0.00    -0.380 N 
ATOM      8  H2  UNL     1      -6.999 -32.942  14.843  1.00  0.00     0.160 HD
ENDROOT
BRANCH   1   9
HETATM    9  C3  UNL     1     -10.816 -32.287  16.521  1.00  0.00     0.064 C 
BRANCH   9  10
HETATM   10  C2  UNL     1     -11.080 -31.426  17.711  1.00  0.00     0.076 C 
BRANCH  10  11
HETATM   11  C1  UNL     1      -9.947 -31.578  18.738  1.00  0.00     0.227 C 
HETATM   12  F1  UNL     1      -9.354 -30.350  18.917  1.00  0.00    -0.255 F 
ENDBRANCH  10  11
ENDBRANCH   9  10
ENDBRANCH   1   9
TORSDOF 3
ENDMDL
