MODEL 1
REMARK VINA RESULT: -6.133230096      0.000      0.000
REMARK  4 active torsions:
REMARK  status: ('A' for Active; 'I' for Inactive)
REMARK    1  A    between atoms: N1_1  and  C1_5 
REMARK    2  A    between atoms: C1_5  and  C2_6 
REMARK    3  A    between atoms: C6_10  and  C7_11 
REMARK    4  A    between atoms: C7_11  and  C8_12 
ROOT
HETATM    1  C2  UNL     1      -8.185 -31.298  14.701  1.00  0.00    -0.033 A 
HETATM    2  C3  UNL     1      -7.500 -32.478  14.890  1.00  0.00     0.009 A 
HETATM    3  C4  UNL     1      -7.866 -33.376  15.868  1.00  0.00     0.001 A 
HETATM    4  C5  UNL     1      -8.962 -33.047  16.669  1.00  0.00     0.007 A 
HETATM    5  C6  UNL     1      -9.672 -31.887  16.517  1.00  0.00    -0.055 A 
HETATM    6  C9  UNL     1      -9.279 -31.010  15.528  1.00  0.00     0.016 A 
ENDROOT
BRANCH   1   7
HETATM    7  C1  UNL     1      -7.863 -30.286  13.685  1.00  0.00     0.268 C 
BRANCH   7   8
HETATM    8  N1  UNL     1      -7.854 -28.939  14.185  1.00  0.00    -0.075 N 
ATOM      9  H13 UNL     1      -8.757 -28.492  14.028  1.00  0.00     0.274 HD
ATOM     10  H12 UNL     1      -7.835 -28.935  15.204  1.00  0.00     0.274 HD
ATOM     11  H11 UNL     1      -7.099 -28.363  13.811  1.00  0.00     0.274 HD
ENDBRANCH   7   8
ENDBRANCH   1   7
BRANCH   5  12
HETATM   12  C7  UNL     1     -10.841 -31.584  17.405  1.00  0.00     0.070 C 
BRANCH  12  13
HETATM   13  C8  UNL     1     -10.323 -31.357  18.802  1.00  0.00     0.226 C 
HETATM   14  F1  UNL     1      -9.806 -30.095  18.912  1.00  0.00    -0.255 F 
ENDBRANCH  12  13
ENDBRANCH   5  12
TORSDOF 4
ENDMDL
MODEL 2
REMARK VINA RESULT: -5.988260618      1.491      1.570
REMARK  4 active torsions:
REMARK  status: ('A' for Active; 'I' for Inactive)
REMARK    1  A    between atoms: N1_1  and  C1_5 
REMARK    2  A    between atoms: C1_5  and  C2_6 
REMARK    3  A    between atoms: C6_10  and  C7_11 
REMARK    4  A    between atoms: C7_11  and  C8_12 
ROOT
HETATM    1  C2  UNL     1      -8.426 -31.125  15.441  1.00  0.00    -0.033 A 
HETATM    2  C3  UNL     1      -7.893 -32.357  15.130  1.00  0.00     0.009 A 
HETATM    3  C4  UNL     1      -8.007 -33.429  15.986  1.00  0.00     0.001 A 
HETATM    4  C5  UNL     1      -8.688 -33.226  17.189  1.00  0.00     0.007 A 
HETATM    5  C6  UNL     1      -9.234 -32.021  17.539  1.00  0.00    -0.055 A 
HETATM    6  C9  UNL     1      -9.101 -30.967  16.659  1.00  0.00     0.016 A 
ENDROOT
BRANCH   1   7
HETATM    7  C1  UNL     1      -8.349 -29.930  14.589  1.00  0.00     0.268 C 
BRANCH   7   8
HETATM    8  N1  UNL     1      -7.936 -30.200  13.239  1.00  0.00    -0.075 N 
ATOM      9  H13 UNL     1      -7.263 -29.502  12.924  1.00  0.00     0.274 HD
ATOM     10  H12 UNL     1      -7.349 -31.033  13.204  1.00  0.00     0.274 HD
ATOM     11  H11 UNL     1      -8.708 -30.277  12.577  1.00  0.00     0.274 HD
ENDBRANCH   7   8
ENDBRANCH   1   7
BRANCH   5  12
HETATM   12  C7  UNL     1      -9.954 -31.858  18.843  1.00  0.00     0.070 C 
BRANCH  12  13
HETATM   13  C8  UNL     1      -9.424 -32.892  19.804  1.00  0.00     0.226 C 
HETATM   14  F1  UNL     1     -10.251 -32.994  20.888  1.00  0.00    -0.255 F 
ENDBRANCH  12  13
ENDBRANCH   5  12
TORSDOF 4
ENDMDL
MODEL 3
REMARK VINA RESULT: -5.897100472      2.622      4.018
REMARK  4 active torsions:
REMARK  status: ('A' for Active; 'I' for Inactive)
REMARK    1  A    between atoms: N1_1  and  C1_5 
REMARK    2  A    between atoms: C1_5  and  C2_6 
REMARK    3  A    between atoms: C6_10  and  C7_11 
REMARK    4  A    between atoms: C7_11  and  C8_12 
ROOT
HETATM    1  C2  UNL     1      -9.654 -31.981  16.528  1.00  0.00    -0.033 A 
HETATM    2  C3  UNL     1      -8.897 -33.124  16.664  1.00  0.00     0.009 A 
HETATM    3  C4  UNL     1      -7.814 -33.374  15.852  1.00  0.00     0.001 A 
HETATM    4  C5  UNL     1      -7.505 -32.422  14.877  1.00  0.00     0.007 A 
HETATM    5  C6  UNL     1      -8.228 -31.272  14.705  1.00  0.00    -0.055 A 
HETATM    6  C9  UNL     1      -9.307 -31.054  15.536  1.00  0.00     0.016 A 
ENDROOT
BRANCH   1   7
HETATM    7  C1  UNL     1     -10.824 -31.637  17.349  1.00  0.00     0.268 C 
BRANCH   7   8
HETATM    8  N1  UNL     1     -10.504 -31.293  18.707  1.00  0.00    -0.075 N 
ATOM      9  H13 UNL     1     -10.341 -30.289  18.793  1.00  0.00     0.274 HD
ATOM     10  H12 UNL     1     -11.325 -31.387  19.303  1.00  0.00     0.274 HD
ATOM     11  H11 UNL     1      -9.719 -31.818  19.093  1.00  0.00     0.274 HD
ENDBRANCH   7   8
ENDBRANCH   1   7
BRANCH   5  12
HETATM   12  C7  UNL     1      -7.852 -30.284  13.643  1.00  0.00     0.070 C 
BRANCH  12  13
HETATM   13  C8  UNL     1      -7.871 -28.907  14.256  1.00  0.00     0.226 C 
HETATM   14  F1  UNL     1      -7.865 -27.955  13.273  1.00  0.00    -0.255 F 
ENDBRANCH  12  13
ENDBRANCH   5  12
TORSDOF 4
ENDMDL
MODEL 4
REMARK VINA RESULT: -5.815621877      3.003      4.587
REMARK  4 active torsions:
REMARK  status: ('A' for Active; 'I' for Inactive)
REMARK    1  A    between atoms: N1_1  and  C1_5 
REMARK    2  A    between atoms: C1_5  and  C2_6 
REMARK    3  A    between atoms: C6_10  and  C7_11 
REMARK    4  A    between atoms: C7_11  and  C8_12 
ROOT
HETATM    1  C2  UNL     1      -9.157 -32.254  18.139  1.00  0.00    -0.033 A 
HETATM    2  C3  UNL     1     -10.449 -31.888  17.834  1.00  0.00     0.009 A 
HETATM    3  C4  UNL     1     -10.810 -31.512  16.559  1.00  0.00     0.001 A 
HETATM    4  C5  UNL     1      -9.815 -31.513  15.579  1.00  0.00     0.007 A 
HETATM    5  C6  UNL     1      -8.518 -31.869  15.837  1.00  0.00    -0.055 A 
HETATM    6  C9  UNL     1      -8.191 -32.240  17.124  1.00  0.00     0.016 A 
ENDROOT
BRANCH   1   7
HETATM    7  C1  UNL     1      -8.685 -32.666  19.469  1.00  0.00     0.268 C 
BRANCH   7   8
HETATM    8  N1  UNL     1      -9.740 -33.013  20.381  1.00  0.00    -0.075 N 
ATOM      9  H13 UNL     1     -10.271 -32.183  20.647  1.00  0.00     0.274 HD
ATOM     10  H12 UNL     1     -10.470 -33.538  19.901  1.00  0.00     0.274 HD
ATOM     11  H11 UNL     1      -9.423 -33.516  21.210  1.00  0.00     0.274 HD
ENDBRANCH   7   8
ENDBRANCH   1   7
BRANCH   5  12
HETATM   12  C7  UNL     1      -7.490 -31.852  14.747  1.00  0.00     0.070 C 
BRANCH  12  13
HETATM   13  C8  UNL     1      -7.752 -30.651  13.873  1.00  0.00     0.226 C 
HETATM   14  F1  UNL     1      -7.116 -29.552  14.382  1.00  0.00    -0.255 F 
ENDBRANCH  12  13
ENDBRANCH   5  12
TORSDOF 4
ENDMDL
MODEL 5
REMARK VINA RESULT: -5.744207357      1.753      2.406
REMARK  4 active torsions:
REMARK  status: ('A' for Active; 'I' for Inactive)
REMARK    1  A    between atoms: N1_1  and  C1_5 
REMARK    2  A    between atoms: C1_5  and  C2_6 
REMARK    3  A    between atoms: C6_10  and  C7_11 
REMARK    4  A    between atoms: C7_11  and  C8_12 
ROOT
HETATM    1  C2  UNL     1      -8.447 -31.497  15.451  1.00  0.00    -0.033 A 
HETATM    2  C3  UNL     1      -9.780 -31.163  15.348  1.00  0.00     0.009 A 
HETATM    3  C4  UNL     1     -10.691 -31.523  16.315  1.00  0.00     0.001 A 
HETATM    4  C5  UNL     1     -10.215 -32.244  17.413  1.00  0.00     0.007 A 
HETATM    5  C6  UNL     1      -8.901 -32.598  17.558  1.00  0.00    -0.055 A 
HETATM    6  C9  UNL     1      -8.015 -32.221  16.570  1.00  0.00     0.016 A 
ENDROOT
BRANCH   1   7
HETATM    7  C1  UNL     1      -7.409 -31.155  14.467  1.00  0.00     0.268 C 
BRANCH   7   8
HETATM    8  N1  UNL     1      -7.927 -30.765  13.185  1.00  0.00    -0.075 N 
ATOM      9  H13 UNL     1      -8.618 -31.440  12.857  1.00  0.00     0.274 HD
ATOM     10  H12 UNL     1      -8.520 -29.940  13.274  1.00  0.00     0.274 HD
ATOM     11  H11 UNL     1      -7.209 -30.615  12.476  1.00  0.00     0.274 HD
ENDBRANCH   7   8
ENDBRANCH   1   7
BRANCH   5  12
HETATM   12  C7  UNL     1      -8.445 -33.373  18.757  1.00  0.00     0.070 C 
BRANCH  12  13
HETATM   13  C8  UNL     1      -8.974 -32.684  19.989  1.00  0.00     0.226 C 
HETATM   14  F1  UNL     1     -10.021 -33.392  20.512  1.00  0.00    -0.255 F 
ENDBRANCH  12  13
ENDBRANCH   5  12
TORSDOF 4
ENDMDL
