MODEL 1
REMARK VINA RESULT: -6.903146254      0.000      0.000
REMARK  10 active torsions:
REMARK  status: ('A' for Active; 'I' for Inactive)
REMARK    1  A    between atoms: C2_2  and  C3_3 
REMARK    2  A    between atoms: C3_3  and  C4_4 
REMARK    3  A    between atoms: C4_4  and  C5_5 
REMARK    4  A    between atoms: C5_5  and  C6_6 
REMARK    5  A    between atoms: C8_9  and  C9_10 
REMARK    6  A    between atoms: C9_10  and  N3_15 
REMARK    7  A    between atoms: N3_15  and  C11_17 
REMARK    8  A    between atoms: C11_17  and  C12_18 
REMARK    9  A    between atoms: C13_20  and  O2_21 
REMARK   10  A    between atoms: C14_23  and  O3_24 
ROOT
HETATM    1  C9  UNL     1      -6.723  25.824  54.314  1.00  0.00     0.118 C 
HETATM    2  N1  UNL     1      -7.773  25.407  53.772  1.00  0.00    -0.281 N 
ATOM      3  H1  UNL     1      -8.626  25.484  54.325  1.00  0.00     0.179 HD
HETATM    4  C10 UNL     1      -7.907  24.862  52.531  1.00  0.00     0.183 C 
HETATM    5  N2  UNL     1      -8.056  24.382  51.465  1.00  0.00    -0.172 NA
ENDROOT
BRANCH   1   6
HETATM    6  C8  UNL     1      -5.410  25.788  53.657  1.00  0.00     0.220 C 
HETATM    7  O1  UNL     1      -4.827  26.998  53.433  1.00  0.00    -0.375 OA
HETATM    8  C7  UNL     1      -3.501  27.138  53.788  1.00  0.00     0.176 C 
HETATM    9  C6  UNL     1      -2.598  26.066  53.323  1.00  0.00     0.041 C 
HETATM   10  C14 UNL     1      -3.292  24.710  53.226  1.00  0.00     0.156 C 
HETATM   11  C13 UNL     1      -4.436  24.795  54.253  1.00  0.00     0.183 C 
BRANCH   9  12
HETATM   12  C5  UNL     1      -1.874  26.319  52.039  1.00  0.00     0.009 C 
BRANCH  12  13
HETATM   13  C4  UNL     1      -0.413  26.046  52.147  1.00  0.00     0.001 C 
BRANCH  13  14
HETATM   14  C3  UNL     1       0.400  27.051  51.395  1.00  0.00    -0.000 C 
BRANCH  14  15
HETATM   15  C2  UNL     1       1.770  26.487  51.063  1.00  0.00    -0.005 C 
HETATM   16  C1  UNL     1       1.950  25.236  51.914  1.00  0.00     0.005 C 
ENDBRANCH  14  15
ENDBRANCH  13  14
ENDBRANCH  12  13
ENDBRANCH   9  12
BRANCH  10  17
HETATM   17  O3  UNL     1      -3.864  24.636  51.960  1.00  0.00    -0.392 OA
ATOM     18  H3  UNL     1      -4.794  24.796  52.065  1.00  0.00     0.210 HD
ENDBRANCH  10  17
BRANCH  11  19
HETATM   19  O2  UNL     1      -4.961  23.546  54.405  1.00  0.00    -0.390 OA
ATOM     20  H2  UNL     1      -5.052  23.283  55.313  1.00  0.00     0.210 HD
ENDBRANCH  11  19
ENDBRANCH   1   6
BRANCH   1  21
HETATM   21  N3  UNL     1      -6.844  26.336  55.635  1.00  0.00    -0.376 N 
ATOM     22  H3  UNL     1      -6.360  25.876  56.406  1.00  0.00     0.160 HD
BRANCH  21  23
HETATM   23  C11 UNL     1      -7.649  27.501  55.884  1.00  0.00     0.136 C 
BRANCH  23  24
HETATM   24  C12 UNL     1      -6.761  28.721  55.915  1.00  0.00     0.134 C 
HETATM   25 CL1  UNL     1      -5.230  28.424  56.738  1.00  0.00    -0.129 Cl
ENDBRANCH  23  24
ENDBRANCH  21  23
ENDBRANCH   1  21
TORSDOF 10
ENDMDL
MODEL 2
REMARK VINA RESULT: -6.868742685      0.696      1.269
REMARK  10 active torsions:
REMARK  status: ('A' for Active; 'I' for Inactive)
REMARK    1  A    between atoms: C2_2  and  C3_3 
REMARK    2  A    between atoms: C3_3  and  C4_4 
REMARK    3  A    between atoms: C4_4  and  C5_5 
REMARK    4  A    between atoms: C5_5  and  C6_6 
REMARK    5  A    between atoms: C8_9  and  C9_10 
REMARK    6  A    between atoms: C9_10  and  N3_15 
REMARK    7  A    between atoms: N3_15  and  C11_17 
REMARK    8  A    between atoms: C11_17  and  C12_18 
REMARK    9  A    between atoms: C13_20  and  O2_21 
REMARK   10  A    between atoms: C14_23  and  O3_24 
ROOT
HETATM    1  C9  UNL     1      -6.688  25.875  54.306  1.00  0.00     0.118 C 
HETATM    2  N1  UNL     1      -7.750  25.446  53.798  1.00  0.00    -0.281 N 
ATOM      3  H1  UNL     1      -8.591  25.541  54.367  1.00  0.00     0.179 HD
HETATM    4  C10 UNL     1      -7.912  24.866  52.576  1.00  0.00     0.183 C 
HETATM    5  N2  UNL     1      -8.085  24.357  51.528  1.00  0.00    -0.172 NA
ENDROOT
BRANCH   1   6
HETATM    6  C8  UNL     1      -5.389  25.816  53.621  1.00  0.00     0.220 C 
HETATM    7  O1  UNL     1      -4.799  27.017  53.368  1.00  0.00    -0.375 OA
HETATM    8  C7  UNL     1      -3.465  27.148  53.694  1.00  0.00     0.176 C 
HETATM    9  C6  UNL     1      -2.582  26.061  53.225  1.00  0.00     0.041 C 
HETATM   10  C14 UNL     1      -3.292  24.711  53.162  1.00  0.00     0.156 C 
HETATM   11  C13 UNL     1      -4.412  24.822  54.211  1.00  0.00     0.183 C 
BRANCH   9  12
HETATM   12  C5  UNL     1      -1.883  26.289  51.922  1.00  0.00     0.009 C 
BRANCH  12  13
HETATM   13  C4  UNL     1      -0.405  26.136  52.036  1.00  0.00     0.001 C 
BRANCH  13  14
HETATM   14  C3  UNL     1       0.326  27.235  51.334  1.00  0.00    -0.000 C 
BRANCH  14  15
HETATM   15  C2  UNL     1      -0.652  28.166  50.640  1.00  0.00    -0.005 C 
HETATM   16  C1  UNL     1      -0.354  29.574  51.145  1.00  0.00     0.005 C 
ENDBRANCH  14  15
ENDBRANCH  13  14
ENDBRANCH  12  13
ENDBRANCH   9  12
BRANCH  10  17
HETATM   17  O3  UNL     1      -3.890  24.625  51.909  1.00  0.00    -0.392 OA
ATOM     18  H3  UNL     1      -3.205  24.753  51.264  1.00  0.00     0.210 HD
ENDBRANCH  10  17
BRANCH  11  19
HETATM   19  O2  UNL     1      -4.946  23.580  54.392  1.00  0.00    -0.390 OA
ATOM     20  H2  UNL     1      -5.312  23.450  55.259  1.00  0.00     0.210 HD
ENDBRANCH  11  19
ENDBRANCH   1   6
BRANCH   1  21
HETATM   21  N3  UNL     1      -6.779  26.424  55.614  1.00  0.00    -0.376 N 
ATOM     22  H3  UNL     1      -6.309  25.964  56.394  1.00  0.00     0.160 HD
BRANCH  21  23
HETATM   23  C11 UNL     1      -7.533  27.628  55.838  1.00  0.00     0.136 C 
BRANCH  23  24
HETATM   24  C12 UNL     1      -6.586  28.798  55.931  1.00  0.00     0.134 C 
HETATM   25 CL1  UNL     1      -5.055  28.372  56.694  1.00  0.00    -0.129 Cl
ENDBRANCH  23  24
ENDBRANCH  21  23
ENDBRANCH   1  21
TORSDOF 10
ENDMDL
MODEL 3
REMARK VINA RESULT: -6.862336410      2.746      4.147
REMARK  10 active torsions:
REMARK  status: ('A' for Active; 'I' for Inactive)
REMARK    1  A    between atoms: C2_2  and  C3_3 
REMARK    2  A    between atoms: C3_3  and  C4_4 
REMARK    3  A    between atoms: C4_4  and  C5_5 
REMARK    4  A    between atoms: C5_5  and  C6_6 
REMARK    5  A    between atoms: C8_9  and  C9_10 
REMARK    6  A    between atoms: C9_10  and  N3_15 
REMARK    7  A    between atoms: N3_15  and  C11_17 
REMARK    8  A    between atoms: C11_17  and  C12_18 
REMARK    9  A    between atoms: C13_20  and  O2_21 
REMARK   10  A    between atoms: C14_23  and  O3_24 
ROOT
HETATM    1  C9  UNL     1      -6.707  27.224  55.659  1.00  0.00     0.118 C 
HETATM    2  N1  UNL     1      -7.434  27.598  56.609  1.00  0.00    -0.281 N 
ATOM      3  H1  UNL     1      -8.366  27.929  56.359  1.00  0.00     0.179 HD
HETATM    4  C10 UNL     1      -7.125  27.615  57.935  1.00  0.00     0.183 C 
HETATM    5  N2  UNL     1      -6.887  27.647  59.089  1.00  0.00    -0.172 NA
ENDROOT
BRANCH   1   6
HETATM    6  C8  UNL     1      -5.340  26.719  55.845  1.00  0.00     0.220 C 
HETATM    7  O1  UNL     1      -5.055  25.541  55.226  1.00  0.00    -0.375 OA
HETATM    8  C7  UNL     1      -3.883  25.472  54.501  1.00  0.00     0.176 C 
HETATM    9  C6  UNL     1      -2.675  25.966  55.192  1.00  0.00     0.041 C 
HETATM   10  C14 UNL     1      -2.977  27.092  56.177  1.00  0.00     0.156 C 
HETATM   11  C13 UNL     1      -4.254  27.749  55.622  1.00  0.00     0.183 C 
BRANCH   9  12
HETATM   12  C5  UNL     1      -1.842  24.938  55.890  1.00  0.00     0.009 C 
BRANCH  12  13
HETATM   13  C4  UNL     1      -0.517  24.741  55.238  1.00  0.00     0.001 C 
BRANCH  13  14
HETATM   14  C3  UNL     1      -0.550  25.098  53.787  1.00  0.00    -0.000 C 
BRANCH  14  15
HETATM   15  C2  UNL     1       0.501  24.314  53.022  1.00  0.00    -0.005 C 
HETATM   16  C1  UNL     1       1.266  25.319  52.169  1.00  0.00     0.005 C 
ENDBRANCH  14  15
ENDBRANCH  13  14
ENDBRANCH  12  13
ENDBRANCH   9  12
BRANCH  10  17
HETATM   17  O3  UNL     1      -3.300  26.494  57.390  1.00  0.00    -0.392 OA
ATOM     18  H3  UNL     1      -3.257  27.172  58.054  1.00  0.00     0.210 HD
ENDBRANCH  10  17
BRANCH  11  19
HETATM   19  O2  UNL     1      -4.461  28.911  56.304  1.00  0.00    -0.390 OA
ATOM     20  H2  UNL     1      -4.734  29.632  55.748  1.00  0.00     0.210 HD
ENDBRANCH  11  19
ENDBRANCH   1   6
BRANCH   1  21
HETATM   21  N3  UNL     1      -7.258  27.322  54.353  1.00  0.00    -0.376 N 
ATOM     22  H3  UNL     1      -7.141  28.180  53.813  1.00  0.00     0.160 HD
BRANCH  21  23
HETATM   23  C11 UNL     1      -7.981  26.213  53.792  1.00  0.00     0.136 C 
BRANCH  23  24
HETATM   24  C12 UNL     1      -7.305  25.772  52.517  1.00  0.00     0.134 C 
HETATM   25 CL1  UNL     1      -8.096  24.382  51.776  1.00  0.00    -0.129 Cl
ENDBRANCH  23  24
ENDBRANCH  21  23
ENDBRANCH   1  21
TORSDOF 10
ENDMDL
MODEL 4
REMARK VINA RESULT: -6.628254602      1.504      1.736
REMARK  10 active torsions:
REMARK  status: ('A' for Active; 'I' for Inactive)
REMARK    1  A    between atoms: C2_2  and  C3_3 
REMARK    2  A    between atoms: C3_3  and  C4_4 
REMARK    3  A    between atoms: C4_4  and  C5_5 
REMARK    4  A    between atoms: C5_5  and  C6_6 
REMARK    5  A    between atoms: C8_9  and  C9_10 
REMARK    6  A    between atoms: C9_10  and  N3_15 
REMARK    7  A    between atoms: N3_15  and  C11_17 
REMARK    8  A    between atoms: C11_17  and  C12_18 
REMARK    9  A    between atoms: C13_20  and  O2_21 
REMARK   10  A    between atoms: C14_23  and  O3_24 
ROOT
HETATM    1  C9  UNL     1      -5.625  26.318  55.337  1.00  0.00     0.118 C 
HETATM    2  N1  UNL     1      -6.784  25.899  55.115  1.00  0.00    -0.281 N 
ATOM      3  H1  UNL     1      -7.480  26.095  55.834  1.00  0.00     0.179 HD
HETATM    4  C10 UNL     1      -7.224  25.211  54.024  1.00  0.00     0.183 C 
HETATM    5  N2  UNL     1      -7.634  24.610  53.097  1.00  0.00    -0.172 NA
ENDROOT
BRANCH   1   6
HETATM    6  C8  UNL     1      -4.506  26.121  54.405  1.00  0.00     0.220 C 
HETATM    7  O1  UNL     1      -4.495  26.937  53.315  1.00  0.00    -0.375 OA
HETATM    8  C7  UNL     1      -3.304  27.559  53.000  1.00  0.00     0.176 C 
HETATM    9  C6  UNL     1      -2.115  26.684  52.970  1.00  0.00     0.041 C 
HETATM   10  C14 UNL     1      -2.210  25.524  53.957  1.00  0.00     0.156 C 
HETATM   11  C13 UNL     1      -3.146  26.043  55.063  1.00  0.00     0.183 C 
BRANCH   9  12
HETATM   12  C5  UNL     1      -1.728  26.136  51.632  1.00  0.00     0.009 C 
BRANCH  12  13
HETATM   13  C4  UNL     1      -0.990  27.129  50.803  1.00  0.00     0.001 C 
BRANCH  13  14
HETATM   14  C3  UNL     1       0.384  27.387  51.332  1.00  0.00    -0.000 C 
BRANCH  14  15
HETATM   15  C2  UNL     1       1.176  26.094  51.412  1.00  0.00    -0.005 C 
HETATM   16  C1  UNL     1       2.545  26.377  50.805  1.00  0.00     0.005 C 
ENDBRANCH  14  15
ENDBRANCH  13  14
ENDBRANCH  12  13
ENDBRANCH   9  12
BRANCH  10  17
HETATM   17  O3  UNL     1      -2.863  24.485  53.301  1.00  0.00    -0.392 OA
ATOM     18  H3  UNL     1      -3.773  24.741  53.212  1.00  0.00     0.210 HD
ENDBRANCH  10  17
BRANCH  11  19
HETATM   19  O2  UNL     1      -3.098  25.164  56.104  1.00  0.00    -0.390 OA
ATOM     20  H2  UNL     1      -2.298  24.651  56.128  1.00  0.00     0.210 HD
ENDBRANCH  11  19
ENDBRANCH   1   6
BRANCH   1  21
HETATM   21  N3  UNL     1      -5.415  26.998  56.568  1.00  0.00    -0.376 N 
ATOM     22  H3  UNL     1      -5.136  26.476  57.398  1.00  0.00     0.160 HD
BRANCH  21  23
HETATM   23  C11 UNL     1      -5.595  28.423  56.642  1.00  0.00     0.136 C 
BRANCH  23  24
HETATM   24  C12 UNL     1      -5.186  28.905  58.012  1.00  0.00     0.134 C 
HETATM   25 CL1  UNL     1      -6.495  28.796  59.188  1.00  0.00    -0.129 Cl
ENDBRANCH  23  24
ENDBRANCH  21  23
ENDBRANCH   1  21
TORSDOF 10
ENDMDL
MODEL 5
REMARK VINA RESULT: -6.603309972      1.670      2.148
REMARK  10 active torsions:
REMARK  status: ('A' for Active; 'I' for Inactive)
REMARK    1  A    between atoms: C2_2  and  C3_3 
REMARK    2  A    between atoms: C3_3  and  C4_4 
REMARK    3  A    between atoms: C4_4  and  C5_5 
REMARK    4  A    between atoms: C5_5  and  C6_6 
REMARK    5  A    between atoms: C8_9  and  C9_10 
REMARK    6  A    between atoms: C9_10  and  N3_15 
REMARK    7  A    between atoms: N3_15  and  C11_17 
REMARK    8  A    between atoms: C11_17  and  C12_18 
REMARK    9  A    between atoms: C13_20  and  O2_21 
REMARK   10  A    between atoms: C14_23  and  O3_24 
ROOT
HETATM    1  C9  UNL     1      -5.900  27.322  54.751  1.00  0.00     0.118 C 
HETATM    2  N1  UNL     1      -7.032  26.788  54.688  1.00  0.00    -0.281 N 
ATOM      3  H1  UNL     1      -7.827  27.394  54.891  1.00  0.00     0.179 HD
HETATM    4  C10 UNL     1      -7.324  25.494  54.382  1.00  0.00     0.183 C 
HETATM    5  N2  UNL     1      -7.610  24.379  54.126  1.00  0.00    -0.172 NA
ENDROOT
BRANCH   1   6
HETATM    6  C8  UNL     1      -4.652  26.592  54.488  1.00  0.00     0.220 C 
HETATM    7  O1  UNL     1      -4.198  26.641  53.205  1.00  0.00    -0.375 OA
HETATM    8  C7  UNL     1      -2.863  26.933  53.016  1.00  0.00     0.176 C 
HETATM    9  C6  UNL     1      -1.916  26.158  53.842  1.00  0.00     0.041 C 
HETATM   10  C14 UNL     1      -2.496  25.770  55.199  1.00  0.00     0.156 C 
HETATM   11  C13 UNL     1      -3.547  26.857  55.487  1.00  0.00     0.183 C 
BRANCH   9  12
HETATM   12  C5  UNL     1      -1.333  24.933  53.210  1.00  0.00     0.009 C 
BRANCH  12  13
HETATM   13  C4  UNL     1       0.118  24.773  53.512  1.00  0.00     0.001 C 
BRANCH  13  14
HETATM   14  C3  UNL     1       0.951  24.783  52.272  1.00  0.00    -0.000 C 
BRANCH  14  15
HETATM   15  C2  UNL     1       1.097  26.197  51.739  1.00  0.00    -0.005 C 
HETATM   16  C1  UNL     1       2.402  26.239  50.952  1.00  0.00     0.005 C 
ENDBRANCH  14  15
ENDBRANCH  13  14
ENDBRANCH  12  13
ENDBRANCH   9  12
BRANCH  10  17
HETATM   17  O3  UNL     1      -3.169  24.565  55.023  1.00  0.00    -0.392 OA
ATOM     18  H3  UNL     1      -4.096  24.750  55.108  1.00  0.00     0.210 HD
ENDBRANCH  10  17
BRANCH  11  19
HETATM   19  O2  UNL     1      -3.946  26.726  56.784  1.00  0.00    -0.390 OA
ATOM     20  H2  UNL     1      -3.224  26.618  57.392  1.00  0.00     0.210 HD
ENDBRANCH  11  19
ENDBRANCH   1   6
BRANCH   1  21
HETATM   21  N3  UNL     1      -5.859  28.696  55.113  1.00  0.00    -0.376 N 
ATOM     22  H3  UNL     1      -5.163  29.313  54.693  1.00  0.00     0.160 HD
BRANCH  21  23
HETATM   23  C11 UNL     1      -6.798  29.217  56.069  1.00  0.00     0.136 C 
BRANCH  23  24
HETATM   24  C12 UNL     1      -6.218  29.090  57.456  1.00  0.00     0.134 C 
HETATM   25 CL1  UNL     1      -6.893  27.729  58.351  1.00  0.00    -0.129 Cl
ENDBRANCH  23  24
ENDBRANCH  21  23
ENDBRANCH   1  21
TORSDOF 10
ENDMDL
