MODEL 1
REMARK VINA RESULT: -8.692428710      0.000      0.000
REMARK  7 active torsions:
REMARK  status: ('A' for Active; 'I' for Inactive)
REMARK    1  A    between atoms: O1_2  and  C2_3 
REMARK    2  A    between atoms: C2_3  and  C3_5 
REMARK    3  A    between atoms: C3_5  and  C5_7 
REMARK    4  A    between atoms: C5_7  and  C6_8 
REMARK    5  A    between atoms: C6_8  and  C7_9 
REMARK    6  A    between atoms: C13_15  and  O3_16 
REMARK    7  A    between atoms: C20_25  and  O5_26 
ROOT
HETATM    1  C7  UNL     1       4.870   9.450   7.933  1.00  0.00    -0.003 C 
HETATM    2  C8  UNL     1       4.179  10.186   9.045  1.00  0.00     0.006 C 
HETATM    3  C9  UNL     1       3.528   9.089   9.911  1.00  0.00     0.006 C 
HETATM    4  C10 UNL     1       3.147   8.021   8.901  1.00  0.00     0.002 C 
HETATM    5  C11 UNL     1       2.009   8.355   8.061  1.00  0.00     0.009 C 
HETATM    6  C12 UNL     1       0.644   8.299   8.697  1.00  0.00     0.038 C 
HETATM    7  C13 UNL     1      -0.206   8.507   7.459  1.00  0.00     0.127 C 
HETATM    8  C14 UNL     1       0.556   7.804   6.339  1.00  0.00    -0.007 C 
HETATM    9  C15 UNL     1      -0.306   6.633   5.916  1.00  0.00     0.018 C 
HETATM   10  C16 UNL     1       0.761   8.693   5.155  1.00  0.00     0.018 C 
HETATM   11  C17 UNL     1       1.828   7.316   6.975  1.00  0.00     0.033 C 
HETATM   12  C18 UNL     1       1.651   5.918   7.512  1.00  0.00     0.025 C 
HETATM   13  C19 UNL     1       3.018   7.346   6.139  1.00  0.00     0.165 C 
HETATM   14  O4  UNL     1       3.058   7.483   4.943  1.00  0.00    -0.294 OA
HETATM   15  C20 UNL     1       4.327   7.189   6.866  1.00  0.00     0.197 C 
HETATM   16  C21 UNL     1       4.431   8.050   8.055  1.00  0.00    -0.004 C 
HETATM   17  C22 UNL     1       5.447   7.349   8.981  1.00  0.00     0.019 C 
ENDROOT
BRANCH   1  18
HETATM   18  C6  UNL     1       4.893  10.113   6.636  1.00  0.00     0.006 C 
BRANCH  18  19
HETATM   19  C5  UNL     1       6.183  10.576   6.080  1.00  0.00     0.014 C 
BRANCH  19  20
HETATM   20  C3  UNL     1       6.291  10.929   4.637  1.00  0.00     0.081 C 
HETATM   21  C4  UNL     1       5.036  11.740   4.220  1.00  0.00     0.020 C 
BRANCH  20  22
HETATM   22  C2  UNL     1       7.463  11.807   4.344  1.00  0.00     0.262 C 
HETATM   23  O2  UNL     1       7.626  12.286   3.203  1.00  0.00    -0.265 OA
BRANCH  22  24
HETATM   24  O1  UNL     1       8.392  12.113   5.325  1.00  0.00    -0.326 OA
HETATM   25  C1  UNL     1       9.757  11.747   5.251  1.00  0.00     0.213 C 
ENDBRANCH  22  24
ENDBRANCH  20  22
ENDBRANCH  19  20
ENDBRANCH  18  19
ENDBRANCH   1  18
BRANCH  15  26
HETATM   26  O5  UNL     1       5.429   7.186   6.072  1.00  0.00    -0.387 OA
ATOM     27  H5  UNL     1       6.248   7.357   6.521  1.00  0.00     0.210 HD
ENDBRANCH  15  26
BRANCH   7  28
HETATM   28  O3  UNL     1      -1.486   8.035   7.598  1.00  0.00    -0.395 OA
ATOM     29  H3  UNL     1      -2.043   8.241   6.856  1.00  0.00     0.210 HD
ENDBRANCH   7  28
TORSDOF 7
ENDMDL
MODEL 2
REMARK VINA RESULT: -8.320017740      2.331      7.442
REMARK  7 active torsions:
REMARK  status: ('A' for Active; 'I' for Inactive)
REMARK    1  A    between atoms: O1_2  and  C2_3 
REMARK    2  A    between atoms: C2_3  and  C3_5 
REMARK    3  A    between atoms: C3_5  and  C5_7 
REMARK    4  A    between atoms: C5_7  and  C6_8 
REMARK    5  A    between atoms: C6_8  and  C7_9 
REMARK    6  A    between atoms: C13_15  and  O3_16 
REMARK    7  A    between atoms: C20_25  and  O5_26 
ROOT
HETATM    1  C7  UNL     1       0.138   7.761   6.810  1.00  0.00    -0.003 C 
HETATM    2  C8  UNL     1       0.226   8.644   5.599  1.00  0.00     0.006 C 
HETATM    3  C9  UNL     1       1.349   8.034   4.736  1.00  0.00     0.006 C 
HETATM    4  C10 UNL     1       2.322   7.480   5.762  1.00  0.00     0.002 C 
HETATM    5  C11 UNL     1       3.098   8.485   6.470  1.00  0.00     0.009 C 
HETATM    6  C12 UNL     1       4.215   9.153   5.712  1.00  0.00     0.038 C 
HETATM    7  C13 UNL     1       4.846   9.931   6.849  1.00  0.00     0.127 C 
HETATM    8  C14 UNL     1       4.681   9.034   8.073  1.00  0.00    -0.007 C 
HETATM    9  C15 UNL     1       6.079   8.612   8.476  1.00  0.00     0.018 C 
HETATM   10  C16 UNL     1       4.057   9.761   9.221  1.00  0.00     0.018 C 
HETATM   11  C17 UNL     1       3.894   7.848   7.589  1.00  0.00     0.033 C 
HETATM   12  C18 UNL     1       4.819   6.755   7.115  1.00  0.00     0.025 C 
HETATM   13  C19 UNL     1       2.944   7.278   8.532  1.00  0.00     0.165 C 
HETATM   14  O4  UNL     1       2.888   7.486   9.717  1.00  0.00    -0.294 OA
HETATM   15  C20 UNL     1       1.933   6.332   7.942  1.00  0.00     0.197 C 
HETATM   16  C21 UNL     1       1.297   6.856   6.723  1.00  0.00    -0.004 C 
HETATM   17  C22 UNL     1       0.828   5.614   5.938  1.00  0.00     0.019 C 
ENDROOT
BRANCH   1  18
HETATM   18  C6  UNL     1      -0.203   8.418   8.065  1.00  0.00     0.006 C 
BRANCH  18  19
HETATM   19  C5  UNL     1      -1.572   8.282   8.608  1.00  0.00     0.014 C 
BRANCH  19  20
HETATM   20  C3  UNL     1      -1.908   7.147   9.512  1.00  0.00     0.081 C 
HETATM   21  C4  UNL     1      -3.123   7.544  10.390  1.00  0.00     0.020 C 
BRANCH  20  22
HETATM   22  C2  UNL     1      -2.323   5.920   8.768  1.00  0.00     0.262 C 
HETATM   23  O2  UNL     1      -3.172   5.991   7.855  1.00  0.00    -0.265 OA
BRANCH  22  24
HETATM   24  O1  UNL     1      -1.779   4.682   9.067  1.00  0.00    -0.326 OA
HETATM   25  C1  UNL     1      -1.796   4.114  10.364  1.00  0.00     0.213 C 
ENDBRANCH  22  24
ENDBRANCH  20  22
ENDBRANCH  19  20
ENDBRANCH  18  19
ENDBRANCH   1  18
BRANCH  15  26
HETATM   26  O5  UNL     1       1.072   5.780   8.837  1.00  0.00    -0.387 OA
ATOM     27  H5  UNL     1       0.944   4.843   8.747  1.00  0.00     0.210 HD
ENDBRANCH  15  26
BRANCH   7  28
HETATM   28  O3  UNL     1       6.157  10.262   6.616  1.00  0.00    -0.395 OA
ATOM     29  H3  UNL     1       6.292  10.685   5.776  1.00  0.00     0.210 HD
ENDBRANCH   7  28
TORSDOF 7
ENDMDL
MODEL 3
REMARK VINA RESULT: -8.267414131      2.384      7.277
REMARK  7 active torsions:
REMARK  status: ('A' for Active; 'I' for Inactive)
REMARK    1  A    between atoms: O1_2  and  C2_3 
REMARK    2  A    between atoms: C2_3  and  C3_5 
REMARK    3  A    between atoms: C3_5  and  C5_7 
REMARK    4  A    between atoms: C5_7  and  C6_8 
REMARK    5  A    between atoms: C6_8  and  C7_9 
REMARK    6  A    between atoms: C13_15  and  O3_16 
REMARK    7  A    between atoms: C20_25  and  O5_26 
ROOT
HETATM    1  C7  UNL     1       0.110   7.889   6.874  1.00  0.00    -0.003 C 
HETATM    2  C8  UNL     1       0.221   8.791   5.679  1.00  0.00     0.006 C 
HETATM    3  C9  UNL     1       1.320   8.163   4.800  1.00  0.00     0.006 C 
HETATM    4  C10 UNL     1       2.280   7.561   5.810  1.00  0.00     0.002 C 
HETATM    5  C11 UNL     1       3.090   8.528   6.533  1.00  0.00     0.009 C 
HETATM    6  C12 UNL     1       4.223   9.176   5.782  1.00  0.00     0.038 C 
HETATM    7  C13 UNL     1       4.883   9.912   6.930  1.00  0.00     0.127 C 
HETATM    8  C14 UNL     1       4.696   8.999   8.139  1.00  0.00    -0.007 C 
HETATM    9  C15 UNL     1       6.081   8.527   8.527  1.00  0.00     0.018 C 
HETATM   10  C16 UNL     1       4.099   9.723   9.302  1.00  0.00     0.018 C 
HETATM   11  C17 UNL     1       3.871   7.846   7.636  1.00  0.00     0.033 C 
HETATM   12  C18 UNL     1       4.759   6.735   7.138  1.00  0.00     0.025 C 
HETATM   13  C19 UNL     1       2.907   7.289   8.573  1.00  0.00     0.165 C 
HETATM   14  O4  UNL     1       2.863   7.477   9.762  1.00  0.00    -0.294 OA
HETATM   15  C20 UNL     1       1.865   6.385   7.971  1.00  0.00     0.197 C 
HETATM   16  C21 UNL     1       1.240   6.951   6.765  1.00  0.00    -0.004 C 
HETATM   17  C22 UNL     1       0.730   5.738   5.960  1.00  0.00     0.019 C 
ENDROOT
BRANCH   1  18
HETATM   18  C6  UNL     1      -0.205   8.533   8.142  1.00  0.00     0.006 C 
BRANCH  18  19
HETATM   19  C5  UNL     1      -1.521   8.291   8.773  1.00  0.00     0.014 C 
BRANCH  19  20
HETATM   20  C3  UNL     1      -1.627   8.159  10.253  1.00  0.00     0.081 C 
HETATM   21  C4  UNL     1      -2.956   8.806  10.723  1.00  0.00     0.020 C 
BRANCH  20  22
HETATM   22  C2  UNL     1      -1.683   6.735  10.702  1.00  0.00     0.262 C 
HETATM   23  O2  UNL     1      -2.706   6.048  10.502  1.00  0.00    -0.265 OA
BRANCH  22  24
HETATM   24  O1  UNL     1      -0.607   6.144  11.345  1.00  0.00    -0.326 OA
HETATM   25  C1  UNL     1       0.289   6.853  12.181  1.00  0.00     0.213 C 
ENDBRANCH  22  24
ENDBRANCH  20  22
ENDBRANCH  19  20
ENDBRANCH  18  19
ENDBRANCH   1  18
BRANCH  15  26
HETATM   26  O5  UNL     1       0.991   5.844   8.860  1.00  0.00    -0.387 OA
ATOM     27  H5  UNL     1       0.434   6.469   9.307  1.00  0.00     0.210 HD
ENDBRANCH  15  26
BRANCH   7  28
HETATM   28  O3  UNL     1       6.202  10.207   6.697  1.00  0.00    -0.395 OA
ATOM     29  H3  UNL     1       6.710   9.455   6.415  1.00  0.00     0.210 HD
ENDBRANCH   7  28
TORSDOF 7
ENDMDL
MODEL 4
REMARK VINA RESULT: -7.895822452      2.391      7.618
REMARK  7 active torsions:
REMARK  status: ('A' for Active; 'I' for Inactive)
REMARK    1  A    between atoms: O1_2  and  C2_3 
REMARK    2  A    between atoms: C2_3  and  C3_5 
REMARK    3  A    between atoms: C3_5  and  C5_7 
REMARK    4  A    between atoms: C5_7  and  C6_8 
REMARK    5  A    between atoms: C6_8  and  C7_9 
REMARK    6  A    between atoms: C13_15  and  O3_16 
REMARK    7  A    between atoms: C20_25  and  O5_26 
ROOT
HETATM    1  C7  UNL     1       0.115   7.915   7.002  1.00  0.00    -0.003 C 
HETATM    2  C8  UNL     1       0.213   8.752   5.760  1.00  0.00     0.006 C 
HETATM    3  C9  UNL     1       1.295   8.071   4.898  1.00  0.00     0.006 C 
HETATM    4  C10 UNL     1       2.266   7.516   5.925  1.00  0.00     0.002 C 
HETATM    5  C11 UNL     1       3.093   8.514   6.583  1.00  0.00     0.009 C 
HETATM    6  C12 UNL     1       4.218   9.113   5.782  1.00  0.00     0.038 C 
HETATM    7  C13 UNL     1       4.901   9.905   6.880  1.00  0.00     0.127 C 
HETATM    8  C14 UNL     1       4.726   9.058   8.137  1.00  0.00    -0.007 C 
HETATM    9  C15 UNL     1       6.115   8.597   8.529  1.00  0.00     0.018 C 
HETATM   10  C16 UNL     1       4.152   9.846   9.270  1.00  0.00     0.018 C 
HETATM   11  C17 UNL     1       3.886   7.886   7.709  1.00  0.00     0.033 C 
HETATM   12  C18 UNL     1       4.760   6.744   7.257  1.00  0.00     0.025 C 
HETATM   13  C19 UNL     1       2.934   7.385   8.688  1.00  0.00     0.165 C 
HETATM   14  O4  UNL     1       2.910   7.636   9.866  1.00  0.00    -0.294 OA
HETATM   15  C20 UNL     1       1.877   6.458   8.151  1.00  0.00     0.197 C 
HETATM   16  C21 UNL     1       1.237   6.965   6.926  1.00  0.00    -0.004 C 
HETATM   17  C22 UNL     1       0.707   5.715   6.193  1.00  0.00     0.019 C 
ENDROOT
BRANCH   1  18
HETATM   18  C6  UNL     1      -0.177   8.627   8.239  1.00  0.00     0.006 C 
BRANCH  18  19
HETATM   19  C5  UNL     1      -1.358   8.238   9.041  1.00  0.00     0.014 C 
BRANCH  19  20
HETATM   20  C3  UNL     1      -2.450   7.436   8.422  1.00  0.00     0.081 C 
HETATM   21  C4  UNL     1      -2.371   5.981   8.954  1.00  0.00     0.020 C 
BRANCH  20  22
HETATM   22  C2  UNL     1      -3.809   7.934   8.789  1.00  0.00     0.262 C 
HETATM   23  O2  UNL     1      -4.794   7.674   8.068  1.00  0.00    -0.265 OA
BRANCH  22  24
HETATM   24  O1  UNL     1      -4.011   8.690   9.932  1.00  0.00    -0.326 OA
HETATM   25  C1  UNL     1      -4.740   8.230  11.055  1.00  0.00     0.213 C 
ENDBRANCH  22  24
ENDBRANCH  20  22
ENDBRANCH  19  20
ENDBRANCH  18  19
ENDBRANCH   1  18
BRANCH  15  26
HETATM   26  O5  UNL     1       1.013   5.971   9.080  1.00  0.00    -0.387 OA
ATOM     27  H5  UNL     1       1.087   5.039   9.246  1.00  0.00     0.210 HD
ENDBRANCH  15  26
BRANCH   7  28
HETATM   28  O3  UNL     1       6.218  10.177   6.611  1.00  0.00    -0.395 OA
ATOM     29  H3  UNL     1       6.801   9.950   7.326  1.00  0.00     0.210 HD
ENDBRANCH   7  28
TORSDOF 7
ENDMDL
MODEL 5
REMARK VINA RESULT: -7.842649648      2.897      4.019
REMARK  7 active torsions:
REMARK  status: ('A' for Active; 'I' for Inactive)
REMARK    1  A    between atoms: O1_2  and  C2_3 
REMARK    2  A    between atoms: C2_3  and  C3_5 
REMARK    3  A    between atoms: C3_5  and  C5_7 
REMARK    4  A    between atoms: C5_7  and  C6_8 
REMARK    5  A    between atoms: C6_8  and  C7_9 
REMARK    6  A    between atoms: C13_15  and  O3_16 
REMARK    7  A    between atoms: C20_25  and  O5_26 
ROOT
HETATM    1  C7  UNL     1       4.989   8.246   6.763  1.00  0.00    -0.003 C 
HETATM    2  C8  UNL     1       4.670   9.709   6.658  1.00  0.00     0.006 C 
HETATM    3  C9  UNL     1       4.182  10.117   8.062  1.00  0.00     0.006 C 
HETATM    4  C10 UNL     1       3.470   8.874   8.565  1.00  0.00     0.002 C 
HETATM    5  C11 UNL     1       2.182   8.616   7.942  1.00  0.00     0.009 C 
HETATM    6  C12 UNL     1       1.030   9.493   8.355  1.00  0.00     0.038 C 
HETATM    7  C13 UNL     1      -0.094   8.763   7.646  1.00  0.00     0.127 C 
HETATM    8  C14 UNL     1       0.294   7.289   7.715  1.00  0.00    -0.007 C 
HETATM    9  C15 UNL     1      -0.737   6.625   8.603  1.00  0.00     0.018 C 
HETATM   10  C16 UNL     1       0.254   6.634   6.371  1.00  0.00     0.018 C 
HETATM   11  C17 UNL     1       1.646   7.268   8.374  1.00  0.00     0.033 C 
HETATM   12  C18 UNL     1       1.505   7.133   9.869  1.00  0.00     0.025 C 
HETATM   13  C19 UNL     1       2.576   6.255   7.900  1.00  0.00     0.165 C 
HETATM   14  O4  UNL     1       2.315   5.291   7.227  1.00  0.00    -0.294 OA
HETATM   15  C20 UNL     1       4.012   6.453   8.306  1.00  0.00     0.197 C 
HETATM   16  C21 UNL     1       4.489   7.827   8.084  1.00  0.00    -0.004 C 
HETATM   17  C22 UNL     1       5.653   8.024   9.078  1.00  0.00     0.019 C 
ENDROOT
BRANCH   1  18
HETATM   18  C6  UNL     1       4.726   7.441   5.578  1.00  0.00     0.006 C 
BRANCH  18  19
HETATM   19  C5  UNL     1       3.574   7.773   4.713  1.00  0.00     0.014 C 
BRANCH  19  20
HETATM   20  C3  UNL     1       3.755   7.896   3.240  1.00  0.00     0.081 C 
HETATM   21  C4  UNL     1       5.247   7.652   2.893  1.00  0.00     0.020 C 
BRANCH  20  22
HETATM   22  C2  UNL     1       2.984   6.870   2.477  1.00  0.00     0.262 C 
HETATM   23  O2  UNL     1       3.400   6.456   1.375  1.00  0.00    -0.265 OA
BRANCH  22  24
HETATM   24  O1  UNL     1       1.796   6.354   2.969  1.00  0.00    -0.326 OA
HETATM   25  C1  UNL     1       0.579   6.367   2.246  1.00  0.00     0.213 C 
ENDBRANCH  22  24
ENDBRANCH  20  22
ENDBRANCH  19  20
ENDBRANCH  18  19
ENDBRANCH   1  18
BRANCH  15  26
HETATM   26  O5  UNL     1       4.867   5.483   7.886  1.00  0.00    -0.387 OA
ATOM     27  H5  UNL     1       5.640   5.798   7.432  1.00  0.00     0.210 HD
ENDBRANCH  15  26
BRANCH   7  28
HETATM   28  O3  UNL     1      -1.327   9.006   8.195  1.00  0.00    -0.395 OA
ATOM     29  H3  UNL     1      -1.360   8.841   9.130  1.00  0.00     0.210 HD
ENDBRANCH   7  28
TORSDOF 7
ENDMDL
