MODEL 1
REMARK VINA RESULT: -5.648990767      0.000      0.000
REMARK  5 active torsions:
REMARK  status: ('A' for Active; 'I' for Inactive)
REMARK    1  A    between atoms: O1_2  and  C2_3 
REMARK    2  A    between atoms: C2_3  and  C3_5 
REMARK    3  A    between atoms: C4_8  and  C5_9 
REMARK    4  A    between atoms: C11_24  and  O4_25 
REMARK    5  A    between atoms: N5_27  and  N6_28 
ROOT
HETATM    1  C5  UNL     1      -4.370 -11.966  -8.765  1.00  0.00     0.046 C 
HETATM    2  C6  UNL     1      -3.109 -11.680  -9.026  1.00  0.00     0.004 C 
HETATM    3  C7  UNL     1      -2.587 -10.331  -9.262  1.00  0.00     0.108 C 
HETATM    4  N2  UNL     1      -2.990  -9.213  -8.787  1.00  0.00    -0.391 N 
ATOM      5  H21 UNL     1      -2.626  -8.275  -8.951  1.00  0.00     0.157 HD
ATOM      6  H22 UNL     1      -3.771  -9.082  -8.144  1.00  0.00     0.157 HD
HETATM    7  S1  UNL     1      -1.232 -10.559 -10.377  1.00  0.00     0.115 S 
HETATM    8  O3  UNL     1       0.140  -9.880  -9.717  1.00  0.00    -0.245 OA
HETATM    9  C8  UNL     1      -1.191 -12.319 -10.333  1.00  0.00     0.100 C 
HETATM   10  N3  UNL     1      -0.653 -13.155 -11.124  1.00  0.00    -0.393 N 
ATOM     11  H31 UNL     1      -0.630 -14.175 -11.098  1.00  0.00     0.156 HD
ATOM     12  H32 UNL     1      -0.129 -12.930 -11.970  1.00  0.00     0.156 HD
HETATM   13  C9  UNL     1      -1.952 -12.645  -9.104  1.00  0.00     0.187 C 
HETATM   14  C10 UNL     1      -1.084 -12.294  -7.951  1.00  0.00     0.075 C 
HETATM   15  N4  UNL     1      -0.401 -12.002  -7.058  1.00  0.00    -0.196 NA
ENDROOT
BRANCH   1  16
HETATM   16  C4  UNL     1      -4.906 -13.292  -8.531  1.00  0.00     0.087 A 
HETATM   17  N1  UNL     1      -4.878 -14.389  -9.274  1.00  0.00    -0.332 N 
HETATM   18  C3  UNL     1      -5.495 -15.427  -8.678  1.00  0.00     0.206 A 
ATOM     19  H1  UNL     1      -4.439 -14.441 -10.193  1.00  0.00     0.168 HD
HETATM   20  N5  UNL     1      -5.929 -14.929  -7.492  1.00  0.00    -0.216 N 
HETATM   21  C11 UNL     1      -5.583 -13.637  -7.384  1.00  0.00     0.190 A 
BRANCH  18  22
HETATM   22  C2  UNL     1      -5.697 -16.800  -9.146  1.00  0.00     0.329 C 
HETATM   23  O2  UNL     1      -4.862 -17.301  -9.935  1.00  0.00    -0.256 OA
BRANCH  22  24
HETATM   24  O1  UNL     1      -6.787 -17.561  -8.741  1.00  0.00    -0.320 OA
HETATM   25  C1  UNL     1      -7.140 -18.751  -9.428  1.00  0.00     0.213 C 
ENDBRANCH  22  24
ENDBRANCH  18  22
BRANCH  20  26
HETATM   26  N6  UNL     1      -6.622 -15.672  -6.539  1.00  0.00    -0.335 N 
ATOM     27  H62 UNL     1      -6.477 -16.659  -6.327  1.00  0.00     0.177 HD
ATOM     28  H61 UNL     1      -7.364 -15.296  -5.949  1.00  0.00     0.177 HD
ENDBRANCH  20  26
BRANCH  21  29
HETATM   29  O4  UNL     1      -5.846 -12.785  -6.325  1.00  0.00    -0.343 OA
ATOM     30  H4  UNL     1      -6.025 -13.058  -5.433  1.00  0.00     0.219 HD
ENDBRANCH  21  29
ENDBRANCH   1  16
TORSDOF 5
ENDMDL
MODEL 2
REMARK VINA RESULT: -4.868087861      5.341      7.993
REMARK  5 active torsions:
REMARK  status: ('A' for Active; 'I' for Inactive)
REMARK    1  A    between atoms: O1_2  and  C2_3 
REMARK    2  A    between atoms: C2_3  and  C3_5 
REMARK    3  A    between atoms: C4_8  and  C5_9 
REMARK    4  A    between atoms: C11_24  and  O4_25 
REMARK    5  A    between atoms: N5_27  and  N6_28 
ROOT
HETATM    1  C5  UNL     1      -6.784 -18.568  -8.447  1.00  0.00     0.046 C 
HETATM    2  C6  UNL     1      -7.045 -17.586  -7.606  1.00  0.00     0.004 C 
HETATM    3  C7  UNL     1      -6.589 -16.203  -7.764  1.00  0.00     0.108 C 
HETATM    4  N2  UNL     1      -6.367 -15.542  -8.838  1.00  0.00    -0.391 N 
ATOM      5  H21 UNL     1      -6.050 -14.579  -8.948  1.00  0.00     0.157 HD
ATOM      6  H22 UNL     1      -6.478 -15.891  -9.790  1.00  0.00     0.157 HD
HETATM    7  S1  UNL     1      -6.396 -15.597  -6.113  1.00  0.00     0.115 S 
HETATM    8  O3  UNL     1      -7.302 -14.211  -5.929  1.00  0.00    -0.245 OA
HETATM    9  C8  UNL     1      -7.110 -16.974  -5.279  1.00  0.00     0.100 C 
HETATM   10  N3  UNL     1      -7.032 -17.339  -4.063  1.00  0.00    -0.393 N 
ATOM     11  H31 UNL     1      -7.446 -18.137  -3.581  1.00  0.00     0.156 HD
ATOM     12  H32 UNL     1      -6.507 -16.866  -3.328  1.00  0.00     0.156 HD
HETATM   13  C9  UNL     1      -7.874 -17.660  -6.348  1.00  0.00     0.187 C 
HETATM   14  C10 UNL     1      -9.070 -16.824  -6.629  1.00  0.00     0.075 C 
HETATM   15  N4  UNL     1      -9.992 -16.155  -6.850  1.00  0.00    -0.196 NA
ENDROOT
BRANCH   1  16
HETATM   16  C4  UNL     1      -7.224 -19.942  -8.308  1.00  0.00     0.087 A 
HETATM   17  N1  UNL     1      -6.662 -20.982  -7.710  1.00  0.00    -0.332 N 
HETATM   18  C3  UNL     1      -7.415 -22.096  -7.804  1.00  0.00     0.206 A 
ATOM     19  H1  UNL     1      -5.762 -20.945  -7.233  1.00  0.00     0.168 HD
HETATM   20  N5  UNL     1      -8.510 -21.707  -8.507  1.00  0.00    -0.216 N 
HETATM   21  C11 UNL     1      -8.413 -20.406  -8.823  1.00  0.00     0.190 A 
BRANCH  18  22
HETATM   22  C2  UNL     1      -7.169 -23.447  -7.298  1.00  0.00     0.329 C 
HETATM   23  O2  UNL     1      -6.111 -24.034  -7.626  1.00  0.00    -0.256 OA
BRANCH  22  24
HETATM   24  O1  UNL     1      -8.073 -24.096  -6.466  1.00  0.00    -0.320 OA
HETATM   25  C1  UNL     1      -7.938 -24.037  -5.056  1.00  0.00     0.213 C 
ENDBRANCH  22  24
ENDBRANCH  18  22
BRANCH  20  26
HETATM   26  N6  UNL     1      -9.569 -22.550  -8.835  1.00  0.00    -0.335 N 
ATOM     27  H62 UNL     1      -9.561 -23.569  -8.781  1.00  0.00     0.177 HD
ATOM     28  H61 UNL     1     -10.475 -22.227  -9.172  1.00  0.00     0.177 HD
ENDBRANCH  20  26
BRANCH  21  29
HETATM   29  O4  UNL     1      -9.326 -19.646  -9.534  1.00  0.00    -0.343 OA
ATOM     30  H4  UNL     1      -9.980 -19.991 -10.131  1.00  0.00     0.219 HD
ENDBRANCH  21  29
ENDBRANCH   1  16
TORSDOF 5
ENDMDL
MODEL 3
REMARK VINA RESULT: -4.792389451      5.372      6.615
REMARK  5 active torsions:
REMARK  status: ('A' for Active; 'I' for Inactive)
REMARK    1  A    between atoms: O1_2  and  C2_3 
REMARK    2  A    between atoms: C2_3  and  C3_5 
REMARK    3  A    between atoms: C4_8  and  C5_9 
REMARK    4  A    between atoms: C11_24  and  O4_25 
REMARK    5  A    between atoms: N5_27  and  N6_28 
ROOT
HETATM    1  C5  UNL     1      -2.412 -10.539 -10.350  1.00  0.00     0.046 C 
HETATM    2  C6  UNL     1      -1.503 -10.436 -11.301  1.00  0.00     0.004 C 
HETATM    3  C7  UNL     1      -0.354 -11.329 -11.463  1.00  0.00     0.108 C 
HETATM    4  N2  UNL     1      -0.246 -12.570 -11.167  1.00  0.00    -0.391 N 
ATOM      5  H21 UNL     1       0.554 -13.192 -11.280  1.00  0.00     0.157 HD
ATOM      6  H22 UNL     1      -0.974 -13.153 -10.754  1.00  0.00     0.157 HD
HETATM    7  S1  UNL     1       0.909 -10.319 -12.180  1.00  0.00     0.115 S 
HETATM    8  O3  UNL     1       1.442 -11.027 -13.590  1.00  0.00    -0.245 OA
HETATM    9  C8  UNL     1      -0.081  -8.894 -12.483  1.00  0.00     0.100 C 
HETATM   10  N3  UNL     1       0.249  -7.689 -12.714  1.00  0.00    -0.393 N 
ATOM     11  H31 UNL     1      -0.325  -6.864 -12.890  1.00  0.00     0.156 HD
ATOM     12  H32 UNL     1       1.201  -7.326 -12.759  1.00  0.00     0.156 HD
HETATM   13  C9  UNL     1      -1.465  -9.423 -12.419  1.00  0.00     0.187 C 
HETATM   14  C10 UNL     1      -1.684 -10.213 -13.657  1.00  0.00     0.075 C 
HETATM   15  N4  UNL     1      -1.839 -10.840 -14.622  1.00  0.00    -0.196 NA
ENDROOT
BRANCH   1  16
HETATM   16  C4  UNL     1      -3.554  -9.665 -10.172  1.00  0.00     0.087 A 
HETATM   17  N1  UNL     1      -4.623  -9.460 -10.928  1.00  0.00    -0.332 N 
HETATM   18  C3  UNL     1      -5.465  -8.556 -10.390  1.00  0.00     0.206 A 
ATOM     19  H1  UNL     1      -4.789  -9.932 -11.816  1.00  0.00     0.168 HD
HETATM   20  N5  UNL     1      -4.868  -8.185  -9.228  1.00  0.00    -0.216 N 
HETATM   21  C11 UNL     1      -3.709  -8.844  -9.078  1.00  0.00     0.190 A 
BRANCH  18  22
HETATM   22  C2  UNL     1      -6.740  -8.040 -10.890  1.00  0.00     0.329 C 
HETATM   23  O2  UNL     1      -7.601  -7.649 -10.067  1.00  0.00    -0.256 OA
BRANCH  22  24
HETATM   24  O1  UNL     1      -7.023  -7.971 -12.249  1.00  0.00    -0.320 OA
HETATM   25  C1  UNL     1      -6.285  -7.116 -13.105  1.00  0.00     0.213 C 
ENDBRANCH  22  24
ENDBRANCH  18  22
BRANCH  20  26
HETATM   26  N6  UNL     1      -5.403  -7.260  -8.335  1.00  0.00    -0.335 N 
ATOM     27  H62 UNL     1      -5.819  -6.362  -8.581  1.00  0.00     0.177 HD
ATOM     28  H61 UNL     1      -5.428  -7.388  -7.324  1.00  0.00     0.177 HD
ENDBRANCH  20  26
BRANCH  21  29
HETATM   29  O4  UNL     1      -2.814  -8.738  -8.027  1.00  0.00    -0.343 OA
ATOM     30  H4  UNL     1      -2.879  -8.115  -7.313  1.00  0.00     0.219 HD
ENDBRANCH  21  29
ENDBRANCH   1  16
TORSDOF 5
ENDMDL
MODEL 4
REMARK VINA RESULT: -4.510613449      4.264      6.552
REMARK  5 active torsions:
REMARK  status: ('A' for Active; 'I' for Inactive)
REMARK    1  A    between atoms: O1_2  and  C2_3 
REMARK    2  A    between atoms: C2_3  and  C3_5 
REMARK    3  A    between atoms: C4_8  and  C5_9 
REMARK    4  A    between atoms: C11_24  and  O4_25 
REMARK    5  A    between atoms: N5_27  and  N6_28 
ROOT
HETATM    1  C5  UNL     1      -2.048  -8.896  -9.182  1.00  0.00     0.046 C 
HETATM    2  C6  UNL     1      -1.452 -10.067  -9.072  1.00  0.00     0.004 C 
HETATM    3  C7  UNL     1      -0.355 -10.366  -8.148  1.00  0.00     0.108 C 
HETATM    4  N2  UNL     1      -0.109  -9.866  -6.995  1.00  0.00    -0.391 N 
ATOM      5  H21 UNL     1       0.654 -10.074  -6.352  1.00  0.00     0.157 HD
ATOM      6  H22 UNL     1      -0.662  -9.151  -6.522  1.00  0.00     0.157 HD
HETATM    7  S1  UNL     1       0.603 -11.606  -8.968  1.00  0.00     0.115 S 
HETATM    8  O3  UNL     1       0.748 -12.934  -7.973  1.00  0.00    -0.245 OA
HETATM    9  C8  UNL     1      -0.498 -11.897 -10.311  1.00  0.00     0.100 C 
HETATM   10  N3  UNL     1      -0.304 -12.455 -11.436  1.00  0.00    -0.393 N 
ATOM     11  H31 UNL     1      -0.943 -12.623 -12.214  1.00  0.00     0.156 HD
ATOM     12  H32 UNL     1       0.577 -12.844 -11.769  1.00  0.00     0.156 HD
HETATM   13  C9  UNL     1      -1.780 -11.331  -9.827  1.00  0.00     0.187 C 
HETATM   14  C10 UNL     1      -2.304 -12.266  -8.798  1.00  0.00     0.075 C 
HETATM   15  N4  UNL     1      -2.696 -12.996  -7.985  1.00  0.00    -0.196 NA
ENDROOT
BRANCH   1  16
HETATM   16  C4  UNL     1      -3.133  -8.580 -10.090  1.00  0.00     0.087 A 
HETATM   17  N1  UNL     1      -4.437  -8.464  -9.886  1.00  0.00    -0.332 N 
HETATM   18  C3  UNL     1      -5.106  -8.146 -11.012  1.00  0.00     0.206 A 
ATOM     19  H1  UNL     1      -4.884  -8.601  -8.980  1.00  0.00     0.168 HD
HETATM   20  N5  UNL     1      -4.143  -8.063 -11.966  1.00  0.00    -0.216 N 
HETATM   21  C11 UNL     1      -2.942  -8.324 -11.429  1.00  0.00     0.190 A 
BRANCH  18  22
HETATM   22  C2  UNL     1      -6.537  -7.932 -11.230  1.00  0.00     0.329 C 
HETATM   23  O2  UNL     1      -7.300  -7.873 -10.238  1.00  0.00    -0.256 OA
BRANCH  22  24
HETATM   24  O1  UNL     1      -7.073  -7.795 -12.505  1.00  0.00    -0.320 OA
HETATM   25  C1  UNL     1      -7.864  -6.669 -12.845  1.00  0.00     0.213 C 
ENDBRANCH  22  24
ENDBRANCH  18  22
BRANCH  20  26
HETATM   26  N6  UNL     1      -4.390  -7.745 -13.299  1.00  0.00    -0.335 N 
ATOM     27  H62 UNL     1      -5.283  -7.438 -13.686  1.00  0.00     0.177 HD
ATOM     28  H61 UNL     1      -3.690  -7.792 -14.039  1.00  0.00     0.177 HD
ENDBRANCH  20  26
BRANCH  21  29
HETATM   29  O4  UNL     1      -1.719  -8.338 -12.078  1.00  0.00    -0.343 OA
ATOM     30  H4  UNL     1      -1.536  -8.791 -12.892  1.00  0.00     0.219 HD
ENDBRANCH  21  29
ENDBRANCH   1  16
TORSDOF 5
ENDMDL
MODEL 5
REMARK VINA RESULT: -4.476410158      3.727      7.458
REMARK  5 active torsions:
REMARK  status: ('A' for Active; 'I' for Inactive)
REMARK    1  A    between atoms: O1_2  and  C2_3 
REMARK    2  A    between atoms: C2_3  and  C3_5 
REMARK    3  A    between atoms: C4_8  and  C5_9 
REMARK    4  A    between atoms: C11_24  and  O4_25 
REMARK    5  A    between atoms: N5_27  and  N6_28 
ROOT
HETATM    1  C5  UNL     1      -6.530 -16.526  -9.447  1.00  0.00     0.046 C 
HETATM    2  C6  UNL     1      -6.762 -17.638  -8.776  1.00  0.00     0.004 C 
HETATM    3  C7  UNL     1      -7.386 -18.840  -9.335  1.00  0.00     0.108 C 
HETATM    4  N2  UNL     1      -7.345 -19.290 -10.532  1.00  0.00    -0.391 N 
ATOM      5  H21 UNL     1      -7.780 -20.127 -10.921  1.00  0.00     0.157 HD
ATOM      6  H22 UNL     1      -6.852 -18.863 -11.316  1.00  0.00     0.157 HD
HETATM    7  S1  UNL     1      -8.242 -19.580  -7.975  1.00  0.00     0.115 S 
HETATM    8  O3  UNL     1      -7.730 -21.156  -7.798  1.00  0.00    -0.245 OA
HETATM    9  C8  UNL     1      -7.614 -18.530  -6.709  1.00  0.00     0.100 C 
HETATM   10  N3  UNL     1      -8.034 -18.311  -5.529  1.00  0.00    -0.393 N 
ATOM     11  H31 UNL     1      -7.669 -17.702  -4.796  1.00  0.00     0.156 HD
ATOM     12  H32 UNL     1      -8.858 -18.729  -5.098  1.00  0.00     0.156 HD
HETATM   13  C9  UNL     1      -6.416 -17.923  -7.335  1.00  0.00     0.187 C 
HETATM   14  C10 UNL     1      -5.375 -18.981  -7.395  1.00  0.00     0.075 C 
HETATM   15  N4  UNL     1      -4.575 -19.820  -7.449  1.00  0.00    -0.196 NA
ENDROOT
BRANCH   1  16
HETATM   16  C4  UNL     1      -5.915 -15.327  -8.911  1.00  0.00     0.087 A 
HETATM   17  N1  UNL     1      -4.827 -14.666  -9.277  1.00  0.00    -0.332 N 
HETATM   18  C3  UNL     1      -4.605 -13.581  -8.511  1.00  0.00     0.206 A 
ATOM     19  H1  UNL     1      -4.225 -14.948 -10.050  1.00  0.00     0.168 HD
HETATM   20  N5  UNL     1      -5.628 -13.580  -7.617  1.00  0.00    -0.216 N 
HETATM   21  C11 UNL     1      -6.432 -14.631  -7.843  1.00  0.00     0.190 A 
BRANCH  18  22
HETATM   22  C2  UNL     1      -3.528 -12.591  -8.565  1.00  0.00     0.329 C 
HETATM   23  O2  UNL     1      -2.339 -12.989  -8.585  1.00  0.00    -0.256 OA
BRANCH  22  24
HETATM   24  O1  UNL     1      -3.785 -11.226  -8.595  1.00  0.00    -0.320 OA
HETATM   25  C1  UNL     1      -4.599 -10.659  -9.608  1.00  0.00     0.213 C 
ENDBRANCH  22  24
ENDBRANCH  18  22
BRANCH  20  26
HETATM   26  N6  UNL     1      -5.801 -12.617  -6.627  1.00  0.00    -0.335 N 
ATOM     27  H62 UNL     1      -6.485 -12.651  -5.872  1.00  0.00     0.177 HD
ATOM     28  H61 UNL     1      -5.253 -11.760  -6.560  1.00  0.00     0.177 HD
ENDBRANCH  20  26
BRANCH  21  29
HETATM   29  O4  UNL     1      -7.577 -14.975  -7.144  1.00  0.00    -0.343 OA
ATOM     30  H4  UNL     1      -7.609 -15.207  -6.224  1.00  0.00     0.219 HD
ENDBRANCH  21  29
ENDBRANCH   1  16
TORSDOF 5
ENDMDL
