MODEL 1
REMARK VINA RESULT: -7.008928811      0.000      0.000
REMARK  3 active torsions:
REMARK  status: ('A' for Active; 'I' for Inactive)
REMARK    1  A    between atoms: C2_2  and  O1_5 
REMARK    2  A    between atoms: O1_5  and  C5_6 
REMARK    3  A    between atoms: C5_6  and  C6_8 
ROOT
HETATM    1  C6  UNL     1      32.967  18.126   0.639  1.00  0.00     0.091 C 
HETATM    2  C7  UNL     1      31.618  18.754   0.622  1.00  0.00     0.052 C 
HETATM    3  C8  UNL     1      30.492  17.848   0.970  1.00  0.00     0.173 C 
HETATM    4  F1  UNL     1      29.308  18.505   0.605  1.00  0.00    -0.249 F 
HETATM    5  C9  UNL     1      30.550  16.496   0.358  1.00  0.00     0.078 C 
HETATM    6  C10 UNL     1      31.875  16.120  -0.218  1.00  0.00     0.100 C 
HETATM    7  C11 UNL     1      32.089  16.561  -1.628  1.00  0.00     0.044 C 
HETATM    8  C12 UNL     1      30.927  16.087  -2.478  1.00  0.00     0.043 C 
HETATM    9  C13 UNL     1      30.752  14.610  -2.197  1.00  0.00     0.089 C 
HETATM   10  C14 UNL     1      29.366  14.222  -2.697  1.00  0.00     0.049 C 
HETATM   11  C15 UNL     1      31.746  13.828  -3.015  1.00  0.00     0.049 C 
HETATM   12  O3  UNL     1      30.805  14.316  -0.849  1.00  0.00    -0.230 OA
HETATM   13  O4  UNL     1      31.896  14.703  -0.265  1.00  0.00    -0.229 OA
HETATM   14  C16 UNL     1      32.955  16.629   0.702  1.00  0.00     0.056 C 
ENDROOT
BRANCH   1  15
HETATM   15  C5  UNL     1      33.800  18.614   1.778  1.00  0.00     0.264 C 
HETATM   16  O2  UNL     1      35.000  18.968   1.645  1.00  0.00    -0.265 OA
BRANCH  15  17
HETATM   17  O1  UNL     1      33.277  18.703   3.072  1.00  0.00    -0.311 OA
BRANCH  17  18
HETATM   18  C2  UNL     1      32.951  19.946   3.670  1.00  0.00     0.060 C 
HETATM   19  C1  UNL     1      33.954  20.167   4.795  1.00  0.00     0.045 C 
HETATM   20  C3  UNL     1      31.570  19.923   4.293  1.00  0.00     0.045 C 
HETATM   21  C4  UNL     1      33.084  21.095   2.701  1.00  0.00     0.045 C 
ENDBRANCH  17  18
ENDBRANCH  15  17
ENDBRANCH   1  15
TORSDOF 3
ENDMDL
MODEL 2
REMARK VINA RESULT: -6.643753591      1.807      6.330
REMARK  3 active torsions:
REMARK  status: ('A' for Active; 'I' for Inactive)
REMARK    1  A    between atoms: C2_2  and  O1_5 
REMARK    2  A    between atoms: O1_5  and  C5_6 
REMARK    3  A    between atoms: C5_6  and  C6_8 
ROOT
HETATM    1  C6  UNL     1      32.661  16.009  -0.729  1.00  0.00     0.091 C 
HETATM    2  C7  UNL     1      31.837  15.196   0.206  1.00  0.00     0.052 C 
HETATM    3  C8  UNL     1      30.596  15.853   0.695  1.00  0.00     0.173 C 
HETATM    4  F1  UNL     1      30.126  15.092   1.775  1.00  0.00    -0.249 F 
HETATM    5  C9  UNL     1      30.741  17.280   1.082  1.00  0.00     0.078 C 
HETATM    6  C10 UNL     1      31.992  17.940   0.605  1.00  0.00     0.100 C 
HETATM    7  C11 UNL     1      33.169  17.770   1.507  1.00  0.00     0.044 C 
HETATM    8  C12 UNL     1      32.784  18.195   2.910  1.00  0.00     0.043 C 
HETATM    9  C13 UNL     1      32.147  19.563   2.796  1.00  0.00     0.089 C 
HETATM   10  C14 UNL     1      31.390  19.812   4.094  1.00  0.00     0.049 C 
HETATM   11  C15 UNL     1      33.228  20.609   2.713  1.00  0.00     0.049 C 
HETATM   12  O3  UNL     1      31.236  19.639   1.761  1.00  0.00    -0.230 OA
HETATM   13  O4  UNL     1      31.725  19.332   0.601  1.00  0.00    -0.229 OA
HETATM   14  C16 UNL     1      32.279  17.458  -0.794  1.00  0.00     0.056 C 
ENDROOT
BRANCH   1  15
HETATM   15  C5  UNL     1      32.621  15.476  -2.123  1.00  0.00     0.264 C 
HETATM   16  O2  UNL     1      33.415  14.592  -2.539  1.00  0.00    -0.265 OA
BRANCH  15  17
HETATM   17  O1  UNL     1      31.683  15.939  -3.050  1.00  0.00    -0.311 OA
BRANCH  17  18
HETATM   18  C2  UNL     1      30.434  15.297  -3.245  1.00  0.00     0.060 C 
HETATM   19  C1  UNL     1      30.209  15.224  -4.750  1.00  0.00     0.045 C 
HETATM   20  C3  UNL     1      29.294  16.101  -2.655  1.00  0.00     0.045 C 
HETATM   21  C4  UNL     1      30.430  13.886  -2.709  1.00  0.00     0.045 C 
ENDBRANCH  17  18
ENDBRANCH  15  17
ENDBRANCH   1  15
TORSDOF 3
ENDMDL
MODEL 3
REMARK VINA RESULT: -6.498176205      3.652      7.450
REMARK  3 active torsions:
REMARK  status: ('A' for Active; 'I' for Inactive)
REMARK    1  A    between atoms: C2_2  and  O1_5 
REMARK    2  A    between atoms: O1_5  and  C5_6 
REMARK    3  A    between atoms: C5_6  and  C6_8 
ROOT
HETATM    1  C6  UNL     1      32.071  14.846  -3.798  1.00  0.00     0.091 C 
HETATM    2  C7  UNL     1      31.851  13.475  -3.263  1.00  0.00     0.052 C 
HETATM    3  C8  UNL     1      30.477  13.201  -2.767  1.00  0.00     0.173 C 
HETATM    4  F1  UNL     1      30.535  12.008  -2.032  1.00  0.00    -0.249 F 
HETATM    5  C9  UNL     1      29.863  14.285  -1.957  1.00  0.00     0.078 C 
HETATM    6  C10 UNL     1      30.549  15.608  -2.050  1.00  0.00     0.100 C 
HETATM    7  C11 UNL     1      31.681  15.791  -1.094  1.00  0.00     0.044 C 
HETATM    8  C12 UNL     1      31.200  15.480   0.309  1.00  0.00     0.043 C 
HETATM    9  C13 UNL     1      29.931  16.275   0.525  1.00  0.00     0.089 C 
HETATM   10  C14 UNL     1      29.222  15.667   1.728  1.00  0.00     0.049 C 
HETATM   11  C15 UNL     1      30.289  17.690   0.898  1.00  0.00     0.049 C 
HETATM   12  O3  UNL     1      29.067  16.198  -0.550  1.00  0.00    -0.230 OA
HETATM   13  O4  UNL     1      29.587  16.578  -1.675  1.00  0.00    -0.229 OA
HETATM   14  C16 UNL     1      30.978  15.821  -3.479  1.00  0.00     0.056 C 
ENDROOT
BRANCH   1  15
HETATM   15  C5  UNL     1      32.251  14.848  -5.281  1.00  0.00     0.264 C 
HETATM   16  O2  UNL     1      31.285  14.830  -6.086  1.00  0.00    -0.265 OA
BRANCH  15  17
HETATM   17  O1  UNL     1      33.525  14.871  -5.857  1.00  0.00    -0.311 OA
BRANCH  17  18
HETATM   18  C2  UNL     1      34.244  13.684  -6.146  1.00  0.00     0.060 C 
HETATM   19  C1  UNL     1      35.156  14.001  -7.323  1.00  0.00     0.045 C 
HETATM   20  C3  UNL     1      33.322  12.562  -6.576  1.00  0.00     0.045 C 
HETATM   21  C4  UNL     1      35.114  13.252  -4.991  1.00  0.00     0.045 C 
ENDBRANCH  17  18
ENDBRANCH  15  17
ENDBRANCH   1  15
TORSDOF 3
ENDMDL
MODEL 4
REMARK VINA RESULT: -6.454988482      3.466      5.584
REMARK  3 active torsions:
REMARK  status: ('A' for Active; 'I' for Inactive)
REMARK    1  A    between atoms: C2_2  and  O1_5 
REMARK    2  A    between atoms: O1_5  and  C5_6 
REMARK    3  A    between atoms: C5_6  and  C6_8 
ROOT
HETATM    1  C6  UNL     1      29.370  15.194  -2.571  1.00  0.00     0.091 C 
HETATM    2  C7  UNL     1      29.362  13.707  -2.521  1.00  0.00     0.052 C 
HETATM    3  C8  UNL     1      30.702  13.067  -2.461  1.00  0.00     0.173 C 
HETATM    4  F1  UNL     1      30.519  11.703  -2.732  1.00  0.00    -0.249 F 
HETATM    5  C9  UNL     1      31.727  13.648  -3.365  1.00  0.00     0.078 C 
HETATM    6  C10 UNL     1      31.383  14.985  -3.934  1.00  0.00     0.100 C 
HETATM    7  C11 UNL     1      30.574  14.939  -5.187  1.00  0.00     0.044 C 
HETATM    8  C12 UNL     1      31.265  14.039  -6.191  1.00  0.00     0.043 C 
HETATM    9  C13 UNL     1      32.706  14.496  -6.272  1.00  0.00     0.089 C 
HETATM   10  C14 UNL     1      33.495  13.371  -6.929  1.00  0.00     0.049 C 
HETATM   11  C15 UNL     1      32.798  15.688  -7.189  1.00  0.00     0.049 C 
HETATM   12  O3  UNL     1      33.261  14.722  -5.028  1.00  0.00    -0.230 OA
HETATM   13  O4  UNL     1      32.613  15.582  -4.307  1.00  0.00    -0.229 OA
HETATM   14  C16 UNL     1      30.711  15.799  -2.858  1.00  0.00     0.056 C 
ENDROOT
BRANCH   1  15
HETATM   15  C5  UNL     1      28.869  15.802  -1.302  1.00  0.00     0.264 C 
HETATM   16  O2  UNL     1      27.757  15.503  -0.794  1.00  0.00    -0.265 OA
BRANCH  15  17
HETATM   17  O1  UNL     1      29.625  16.748  -0.604  1.00  0.00    -0.311 OA
BRANCH  17  18
HETATM   18  C2  UNL     1      30.234  16.457   0.643  1.00  0.00     0.060 C 
HETATM   19  C1  UNL     1      30.806  17.767   1.168  1.00  0.00     0.045 C 
HETATM   20  C3  UNL     1      31.388  15.488   0.489  1.00  0.00     0.045 C 
HETATM   21  C4  UNL     1      29.238  15.949   1.657  1.00  0.00     0.045 C 
ENDBRANCH  17  18
ENDBRANCH  15  17
ENDBRANCH   1  15
TORSDOF 3
ENDMDL
MODEL 5
REMARK VINA RESULT: -6.412584676      3.634      7.499
REMARK  3 active torsions:
REMARK  status: ('A' for Active; 'I' for Inactive)
REMARK    1  A    between atoms: C2_2  and  O1_5 
REMARK    2  A    between atoms: O1_5  and  C5_6 
REMARK    3  A    between atoms: C5_6  and  C6_8 
ROOT
HETATM    1  C6  UNL     1      32.007  14.963  -3.804  1.00  0.00     0.091 C 
HETATM    2  C7  UNL     1      31.807  13.578  -3.299  1.00  0.00     0.052 C 
HETATM    3  C8  UNL     1      30.444  13.281  -2.786  1.00  0.00     0.173 C 
HETATM    4  F1  UNL     1      30.524  12.070  -2.082  1.00  0.00    -0.249 F 
HETATM    5  C9  UNL     1      29.836  14.340  -1.940  1.00  0.00     0.078 C 
HETATM    6  C10 UNL     1      30.510  15.669  -2.012  1.00  0.00     0.100 C 
HETATM    7  C11 UNL     1      31.656  15.839  -1.071  1.00  0.00     0.044 C 
HETATM    8  C12 UNL     1      31.202  15.490   0.332  1.00  0.00     0.043 C 
HETATM    9  C13 UNL     1      29.931  16.269   0.589  1.00  0.00     0.089 C 
HETATM   10  C14 UNL     1      29.248  15.626   1.789  1.00  0.00     0.049 C 
HETATM   11  C15 UNL     1      30.284  17.677   0.990  1.00  0.00     0.049 C 
HETATM   12  O3  UNL     1      29.049  16.210  -0.473  1.00  0.00    -0.230 OA
HETATM   13  O4  UNL     1      29.545  16.622  -1.597  1.00  0.00    -0.229 OA
HETATM   14  C16 UNL     1      30.912  15.921  -3.443  1.00  0.00     0.056 C 
ENDROOT
BRANCH   1  15
HETATM   15  C5  UNL     1      32.161  15.003  -5.289  1.00  0.00     0.264 C 
HETATM   16  O2  UNL     1      32.977  15.763  -5.871  1.00  0.00    -0.265 OA
BRANCH  15  17
HETATM   17  O1  UNL     1      31.392  14.182  -6.120  1.00  0.00    -0.311 OA
BRANCH  17  18
HETATM   18  C2  UNL     1      30.219  14.649  -6.765  1.00  0.00     0.060 C 
HETATM   19  C1  UNL     1      30.211  14.032  -8.158  1.00  0.00     0.045 C 
HETATM   20  C3  UNL     1      30.236  16.154  -6.938  1.00  0.00     0.045 C 
HETATM   21  C4  UNL     1      28.965  14.203  -6.055  1.00  0.00     0.045 C 
ENDBRANCH  17  18
ENDBRANCH  15  17
ENDBRANCH   1  15
TORSDOF 3
ENDMDL
