MODEL 1
REMARK VINA RESULT: -7.114598097      0.000      0.000
REMARK  2 active torsions:
REMARK  status: ('A' for Active; 'I' for Inactive)
REMARK    1  A    between atoms: C2_2  and  O2_4 
REMARK    2  A    between atoms: O2_4  and  C3_5 
ROOT
HETATM    1  C3  UNL     1      28.789  15.726   0.468  1.00  0.00     0.143 C 
HETATM    2  C4  UNL     1      29.801  16.351   1.406  1.00  0.00     0.037 C 
HETATM    3  C5  UNL     1      30.777  17.246   0.697  1.00  0.00     0.036 C 
HETATM    4  C6  UNL     1      31.296  16.499  -0.482  1.00  0.00    -0.081 C 
HETATM    5  C7  UNL     1      32.747  16.323  -0.758  1.00  0.00     0.043 C 
HETATM    6  C8  UNL     1      30.404  15.979  -1.306  1.00  0.00    -0.065 C 
HETATM    7  C9  UNL     1      30.841  15.230  -2.491  1.00  0.00     0.090 C 
HETATM    8  C10 UNL     1      29.694  14.770  -3.341  1.00  0.00     0.144 C 
HETATM    9 CL1  UNL     1      30.236  13.273  -4.177  1.00  0.00    -0.087 Cl
HETATM   10  O3  UNL     1      28.650  14.419  -2.531  1.00  0.00    -0.358 OA
HETATM   11  C11 UNL     1      28.044  15.477  -1.874  1.00  0.00     0.134 C 
HETATM   12  C12 UNL     1      27.422  16.366  -2.920  1.00  0.00     0.033 C 
HETATM   13  C13 UNL     1      28.351  16.795  -3.990  1.00  0.00     0.011 C 
HETATM   14  C14 UNL     1      29.351  15.760  -4.415  1.00  0.00     0.032 C 
HETATM   15  C15 UNL     1      28.942  15.057  -5.696  1.00  0.00     0.014 C 
HETATM   16  C16 UNL     1      28.959  16.207  -0.951  1.00  0.00     0.073 C 
ENDROOT
BRANCH   1  17
HETATM   17  O2  UNL     1      27.479  15.838   0.949  1.00  0.00    -0.316 OA
BRANCH  17  18
HETATM   18  C2  UNL     1      26.879  14.983   1.842  1.00  0.00     0.255 C 
HETATM   19  C1  UNL     1      26.046  13.873   1.325  1.00  0.00     0.126 C 
HETATM   20  O1  UNL     1      27.059  15.173   3.066  1.00  0.00    -0.266 OA
ENDBRANCH  17  18
ENDBRANCH   1  17
TORSDOF 2
ENDMDL
MODEL 2
REMARK VINA RESULT: -7.050149016      2.272      3.977
REMARK  2 active torsions:
REMARK  status: ('A' for Active; 'I' for Inactive)
REMARK    1  A    between atoms: C2_2  and  O2_4 
REMARK    2  A    between atoms: O2_4  and  C3_5 
ROOT
HETATM    1  C3  UNL     1      30.364  16.960  -0.174  1.00  0.00     0.143 C 
HETATM    2  C4  UNL     1      29.913  17.044   1.270  1.00  0.00     0.037 C 
HETATM    3  C5  UNL     1      29.166  15.820   1.719  1.00  0.00     0.036 C 
HETATM    4  C6  UNL     1      28.134  15.521   0.688  1.00  0.00    -0.081 C 
HETATM    5  C7  UNL     1      26.695  15.331   1.012  1.00  0.00     0.043 C 
HETATM    6  C8  UNL     1      28.543  15.427  -0.564  1.00  0.00    -0.065 C 
HETATM    7  C9  UNL     1      27.582  15.133  -1.635  1.00  0.00     0.090 C 
HETATM    8  C10 UNL     1      28.235  15.001  -2.979  1.00  0.00     0.144 C 
HETATM    9 CL1  UNL     1      27.006  15.481  -4.202  1.00  0.00    -0.087 Cl
HETATM   10  O3  UNL     1      29.260  15.902  -3.069  1.00  0.00    -0.358 OA
HETATM   11  C11 UNL     1      30.346  15.628  -2.253  1.00  0.00     0.134 C 
HETATM   12  C12 UNL     1      30.949  14.329  -2.721  1.00  0.00     0.033 C 
HETATM   13  C13 UNL     1      29.988  13.206  -2.814  1.00  0.00     0.011 C 
HETATM   14  C14 UNL     1      28.616  13.583  -3.288  1.00  0.00     0.032 C 
HETATM   15  C15 UNL     1      28.408  13.269  -4.757  1.00  0.00     0.014 C 
HETATM   16  C16 UNL     1      30.015  15.634  -0.800  1.00  0.00     0.073 C 
ENDROOT
BRANCH   1  17
HETATM   17  O2  UNL     1      31.707  17.325  -0.333  1.00  0.00    -0.316 OA
BRANCH  17  18
HETATM   18  C2  UNL     1      32.753  16.881   0.440  1.00  0.00     0.255 C 
HETATM   19  C1  UNL     1      33.212  15.481   0.292  1.00  0.00     0.126 C 
HETATM   20  O1  UNL     1      33.284  17.681   1.244  1.00  0.00    -0.266 OA
ENDBRANCH  17  18
ENDBRANCH   1  17
TORSDOF 2
ENDMDL
MODEL 3
REMARK VINA RESULT: -6.865865542      2.277      5.864
REMARK  2 active torsions:
REMARK  status: ('A' for Active; 'I' for Inactive)
REMARK    1  A    between atoms: C2_2  and  O2_4 
REMARK    2  A    between atoms: O2_4  and  C3_5 
ROOT
HETATM    1  C3  UNL     1      30.005  14.620  -4.694  1.00  0.00     0.143 C 
HETATM    2  C4  UNL     1      29.580  15.377  -5.936  1.00  0.00     0.037 C 
HETATM    3  C5  UNL     1      29.291  16.826  -5.664  1.00  0.00     0.036 C 
HETATM    4  C6  UNL     1      28.397  16.889  -4.475  1.00  0.00    -0.081 C 
HETATM    5  C7  UNL     1      27.109  17.634  -4.467  1.00  0.00     0.043 C 
HETATM    6  C8  UNL     1      28.789  16.246  -3.391  1.00  0.00    -0.065 C 
HETATM    7  C9  UNL     1      27.960  16.264  -2.179  1.00  0.00     0.090 C 
HETATM    8  C10 UNL     1      28.594  15.535  -1.032  1.00  0.00     0.144 C 
HETATM    9 CL1  UNL     1      27.253  14.923  -0.002  1.00  0.00    -0.087 Cl
HETATM   10  O3  UNL     1      29.260  14.441  -1.511  1.00  0.00    -0.358 OA
HETATM   11  C11 UNL     1      30.390  14.731  -2.257  1.00  0.00     0.134 C 
HETATM   12  C12 UNL     1      31.382  15.398  -1.339  1.00  0.00     0.033 C 
HETATM   13  C13 UNL     1      30.846  16.569  -0.608  1.00  0.00     0.011 C 
HETATM   14  C14 UNL     1      29.418  16.444  -0.168  1.00  0.00     0.032 C 
HETATM   15  C15 UNL     1      29.298  16.062   1.296  1.00  0.00     0.014 C 
HETATM   16  C16 UNL     1      30.105  15.520  -3.488  1.00  0.00     0.073 C 
ENDROOT
BRANCH   1  17
HETATM   17  O2  UNL     1      31.148  13.840  -4.913  1.00  0.00    -0.316 OA
BRANCH  17  18
HETATM   18  C2  UNL     1      32.446  14.279  -4.815  1.00  0.00     0.255 C 
HETATM   19  C1  UNL     1      33.393  13.536  -3.952  1.00  0.00     0.126 C 
HETATM   20  O1  UNL     1      32.784  15.296  -5.464  1.00  0.00    -0.266 OA
ENDBRANCH  17  18
ENDBRANCH   1  17
TORSDOF 2
ENDMDL
MODEL 4
REMARK VINA RESULT: -6.783098928      2.213      4.109
REMARK  2 active torsions:
REMARK  status: ('A' for Active; 'I' for Inactive)
REMARK    1  A    between atoms: C2_2  and  O2_4 
REMARK    2  A    between atoms: O2_4  and  C3_5 
ROOT
HETATM    1  C3  UNL     1      30.358  16.808   0.386  1.00  0.00     0.143 C 
HETATM    2  C4  UNL     1      29.737  16.720   1.766  1.00  0.00     0.037 C 
HETATM    3  C5  UNL     1      28.846  15.522   1.929  1.00  0.00     0.036 C 
HETATM    4  C6  UNL     1      27.932  15.480   0.754  1.00  0.00    -0.081 C 
HETATM    5  C7  UNL     1      26.453  15.384   0.880  1.00  0.00     0.043 C 
HETATM    6  C8  UNL     1      28.486  15.532  -0.443  1.00  0.00    -0.065 C 
HETATM    7  C9  UNL     1      27.648  15.494  -1.648  1.00  0.00     0.090 C 
HETATM    8  C10 UNL     1      28.452  15.498  -2.914  1.00  0.00     0.144 C 
HETATM    9 CL1  UNL     1      27.429  16.270  -4.176  1.00  0.00    -0.087 Cl
HETATM   10  O3  UNL     1      29.548  16.300  -2.745  1.00  0.00    -0.358 OA
HETATM   11  C11 UNL     1      30.497  15.804  -1.866  1.00  0.00     0.134 C 
HETATM   12  C12 UNL     1      31.051  14.536  -2.462  1.00  0.00     0.033 C 
HETATM   13  C13 UNL     1      30.024  13.538  -2.839  1.00  0.00     0.011 C 
HETATM   14  C14 UNL     1      28.756  14.111  -3.398  1.00  0.00     0.032 C 
HETATM   15  C15 UNL     1      28.712  14.039  -4.913  1.00  0.00     0.014 C 
HETATM   16  C16 UNL     1      29.988  15.628  -0.477  1.00  0.00     0.073 C 
ENDROOT
BRANCH   1  17
HETATM   17  O2  UNL     1      31.735  17.060   0.439  1.00  0.00    -0.316 OA
BRANCH  17  18
HETATM   18  C2  UNL     1      32.316  18.277   0.702  1.00  0.00     0.255 C 
HETATM   19  C1  UNL     1      33.779  18.343   0.917  1.00  0.00     0.126 C 
HETATM   20  O1  UNL     1      31.583  19.291   0.748  1.00  0.00    -0.266 OA
ENDBRANCH  17  18
ENDBRANCH   1  17
TORSDOF 2
ENDMDL
MODEL 5
REMARK VINA RESULT: -6.746582804      2.375      4.080
REMARK  2 active torsions:
REMARK  status: ('A' for Active; 'I' for Inactive)
REMARK    1  A    between atoms: C2_2  and  O2_4 
REMARK    2  A    between atoms: O2_4  and  C3_5 
ROOT
HETATM    1  C3  UNL     1      30.674  16.713   0.272  1.00  0.00     0.143 C 
HETATM    2  C4  UNL     1      29.741  16.626   1.463  1.00  0.00     0.037 C 
HETATM    3  C5  UNL     1      28.793  15.464   1.376  1.00  0.00     0.036 C 
HETATM    4  C6  UNL     1      28.182  15.485   0.018  1.00  0.00    -0.081 C 
HETATM    5  C7  UNL     1      26.713  15.451  -0.212  1.00  0.00     0.043 C 
HETATM    6  C8  UNL     1      29.005  15.537  -1.013  1.00  0.00    -0.065 C 
HETATM    7  C9  UNL     1      28.476  15.560  -2.382  1.00  0.00     0.090 C 
HETATM    8  C10 UNL     1      29.556  15.554  -3.422  1.00  0.00     0.144 C 
HETATM    9 CL1  UNL     1      28.891  16.394  -4.867  1.00  0.00    -0.087 Cl
HETATM   10  O3  UNL     1      30.610  16.303  -2.976  1.00  0.00    -0.358 OA
HETATM   11  C11 UNL     1      31.305  15.750  -1.913  1.00  0.00     0.134 C 
HETATM   12  C12 UNL     1      31.937  14.471  -2.399  1.00  0.00     0.033 C 
HETATM   13  C13 UNL     1      30.991  13.526  -3.036  1.00  0.00     0.011 C 
HETATM   14  C14 UNL     1      29.914  14.165  -3.861  1.00  0.00     0.032 C 
HETATM   15  C15 UNL     1      30.227  14.125  -5.345  1.00  0.00     0.014 C 
HETATM   16  C16 UNL     1      30.475  15.568  -0.689  1.00  0.00     0.073 C 
ENDROOT
BRANCH   1  17
HETATM   17  O2  UNL     1      32.008  16.904   0.655  1.00  0.00    -0.316 OA
BRANCH  17  18
HETATM   18  C2  UNL     1      32.558  18.092   1.073  1.00  0.00     0.255 C 
HETATM   19  C1  UNL     1      31.780  19.341   0.910  1.00  0.00     0.126 C 
HETATM   20  O1  UNL     1      33.703  18.075   1.579  1.00  0.00    -0.266 OA
ENDBRANCH  17  18
ENDBRANCH   1  17
TORSDOF 2
ENDMDL
