MODEL 1
REMARK VINA RESULT: -6.062268271      0.000      0.000
REMARK  2 active torsions:
REMARK  status: ('A' for Active; 'I' for Inactive)
REMARK    1  A    between atoms: C2_2  and  O2_4 
REMARK    2  A    between atoms: O2_4  and  C3_5 
ROOT
HETATM    1  C3  UNL     1      28.334  16.098  -3.729  1.00  0.00     0.134 C 
HETATM    2  C4  UNL     1      27.530  17.206  -3.087  1.00  0.00     0.055 C 
HETATM    3  C5  UNL     1      29.810  16.292  -3.479  1.00  0.00     0.091 C 
HETATM    4  C6  UNL     1      30.206  15.628  -2.171  1.00  0.00     0.103 C 
HETATM    5  C7  UNL     1      31.667  15.852  -1.898  1.00  0.00     0.056 C 
HETATM    6  C8  UNL     1      31.700  16.202  -0.440  1.00  0.00    -0.014 C 
HETATM    7  C9  UNL     1      32.476  17.522  -0.321  1.00  0.00     0.018 C 
HETATM    8  C10 UNL     1      32.440  15.199   0.402  1.00  0.00     0.018 C 
HETATM    9  C11 UNL     1      30.277  16.381  -0.066  1.00  0.00     0.062 C 
HETATM   10  C12 UNL     1      29.802  15.451   1.022  1.00  0.00     0.046 C 
HETATM   11  C13 UNL     1      30.060  17.804   0.463  1.00  0.00     0.046 C 
HETATM   12  O3  UNL     1      29.485  16.230  -1.165  1.00  0.00    -0.363 OA
HETATM   13  C14 UNL     1      29.941  14.171  -2.278  1.00  0.00     0.050 C 
HETATM   14 CL1  UNL     1      31.069  12.944  -1.794  1.00  0.00    -0.086 Cl
HETATM   15  C15 UNL     1      28.775  13.799  -2.773  1.00  0.00     0.076 C 
HETATM   16  C16 UNL     1      27.837  14.826  -3.174  1.00  0.00     0.185 C 
HETATM   17  O4  UNL     1      26.602  14.653  -3.060  1.00  0.00    -0.290 OA
ENDROOT
BRANCH   1  18
HETATM   18  O2  UNL     1      28.065  16.035  -5.141  1.00  0.00    -0.302 OA
BRANCH  18  19
HETATM   19  C2  UNL     1      28.677  16.900  -6.038  1.00  0.00     0.256 C 
HETATM   20  C1  UNL     1      29.751  16.437  -6.969  1.00  0.00     0.126 C 
HETATM   21  O1  UNL     1      28.272  18.097  -6.018  1.00  0.00    -0.266 OA
ENDBRANCH  18  19
ENDBRANCH   1  18
TORSDOF 2
ENDMDL
MODEL 2
REMARK VINA RESULT: -6.008048250      2.623      5.301
REMARK  2 active torsions:
REMARK  status: ('A' for Active; 'I' for Inactive)
REMARK    1  A    between atoms: C2_2  and  O2_4 
REMARK    2  A    between atoms: O2_4  and  C3_5 
ROOT
HETATM    1  C3  UNL     1      30.335  16.875   0.329  1.00  0.00     0.134 C 
HETATM    2  C4  UNL     1      31.717  16.356   0.655  1.00  0.00     0.055 C 
HETATM    3  C5  UNL     1      30.186  17.105  -1.156  1.00  0.00     0.091 C 
HETATM    4  C6  UNL     1      29.713  15.831  -1.834  1.00  0.00     0.103 C 
HETATM    5  C7  UNL     1      29.601  16.045  -3.317  1.00  0.00     0.056 C 
HETATM    6  C8  UNL     1      30.209  14.802  -3.896  1.00  0.00    -0.014 C 
HETATM    7  C9  UNL     1      31.280  15.261  -4.897  1.00  0.00     0.018 C 
HETATM    8  C10 UNL     1      29.234  13.962  -4.676  1.00  0.00     0.018 C 
HETATM    9  C11 UNL     1      30.821  14.110  -2.737  1.00  0.00     0.062 C 
HETATM   10  C12 UNL     1      30.278  12.725  -2.487  1.00  0.00     0.046 C 
HETATM   11  C13 UNL     1      32.326  13.942  -2.973  1.00  0.00     0.046 C 
HETATM   12  O3  UNL     1      30.667  14.864  -1.611  1.00  0.00    -0.363 OA
HETATM   13  C14 UNL     1      28.383  15.466  -1.285  1.00  0.00     0.050 C 
HETATM   14 CL1  UNL     1      27.026  15.004  -2.263  1.00  0.00    -0.086 Cl
HETATM   15  C15 UNL     1      28.235  15.499   0.027  1.00  0.00     0.076 C 
HETATM   16  C16 UNL     1      29.370  15.884   0.839  1.00  0.00     0.185 C 
HETATM   17  O4  UNL     1      29.548  15.390   1.975  1.00  0.00    -0.290 OA
ENDROOT
BRANCH   1  18
HETATM   18  O2  UNL     1      30.068  18.086   1.057  1.00  0.00    -0.302 OA
BRANCH  18  19
HETATM   19  C2  UNL     1      31.094  18.873   1.563  1.00  0.00     0.256 C 
HETATM   20  C1  UNL     1      31.218  19.158   3.025  1.00  0.00     0.126 C 
HETATM   21  O1  UNL     1      31.912  19.328   0.715  1.00  0.00    -0.266 OA
ENDBRANCH  18  19
ENDBRANCH   1  18
TORSDOF 2
ENDMDL
MODEL 3
REMARK VINA RESULT: -6.000817656      2.599      5.300
REMARK  2 active torsions:
REMARK  status: ('A' for Active; 'I' for Inactive)
REMARK    1  A    between atoms: C2_2  and  O2_4 
REMARK    2  A    between atoms: O2_4  and  C3_5 
ROOT
HETATM    1  C3  UNL     1      31.103  16.277   0.310  1.00  0.00     0.134 C 
HETATM    2  C4  UNL     1      32.048  15.133   0.603  1.00  0.00     0.055 C 
HETATM    3  C5  UNL     1      31.186  16.682  -1.142  1.00  0.00     0.091 C 
HETATM    4  C6  UNL     1      30.215  15.855  -1.968  1.00  0.00     0.103 C 
HETATM    5  C7  UNL     1      30.323  16.228  -3.420  1.00  0.00     0.056 C 
HETATM    6  C8  UNL     1      30.310  14.902  -4.122  1.00  0.00    -0.014 C 
HETATM    7  C9  UNL     1      31.538  14.880  -5.044  1.00  0.00     0.018 C 
HETATM    8  C10 UNL     1      29.111  14.704  -5.010  1.00  0.00     0.018 C 
HETATM    9  C11 UNL     1      30.437  13.902  -3.036  1.00  0.00     0.062 C 
HETATM   10  C12 UNL     1      29.287  12.930  -2.953  1.00  0.00     0.046 C 
HETATM   11  C13 UNL     1      31.696  13.056  -3.260  1.00  0.00     0.046 C 
HETATM   12  O3  UNL     1      30.579  14.534  -1.836  1.00  0.00    -0.363 OA
HETATM   13  C14 UNL     1      28.836  16.124  -1.489  1.00  0.00     0.050 C 
HETATM   14 CL1  UNL     1      27.495  16.456  -2.539  1.00  0.00    -0.086 Cl
HETATM   15  C15 UNL     1      28.630  16.106  -0.185  1.00  0.00     0.076 C 
HETATM   16  C16 UNL     1      29.751  15.828   0.687  1.00  0.00     0.185 C 
HETATM   17  O4  UNL     1      29.593  15.209   1.763  1.00  0.00    -0.290 OA
ENDROOT
BRANCH   1  18
HETATM   18  O2  UNL     1      31.391  17.398   1.164  1.00  0.00    -0.302 OA
BRANCH  18  19
HETATM   19  C2  UNL     1      32.319  18.367   0.806  1.00  0.00     0.256 C 
HETATM   20  C1  UNL     1      33.784  18.077   0.773  1.00  0.00     0.126 C 
HETATM   21  O1  UNL     1      31.848  19.502   0.511  1.00  0.00    -0.266 OA
ENDBRANCH  18  19
ENDBRANCH   1  18
TORSDOF 2
ENDMDL
MODEL 4
REMARK VINA RESULT: -5.863740285      2.351      5.702
REMARK  2 active torsions:
REMARK  status: ('A' for Active; 'I' for Inactive)
REMARK    1  A    between atoms: C2_2  and  O2_4 
REMARK    2  A    between atoms: O2_4  and  C3_5 
ROOT
HETATM    1  C3  UNL     1      30.160  15.456  -2.096  1.00  0.00     0.134 C 
HETATM    2  C4  UNL     1      30.477  13.980  -2.007  1.00  0.00     0.055 C 
HETATM    3  C5  UNL     1      30.417  15.976  -3.490  1.00  0.00     0.091 C 
HETATM    4  C6  UNL     1      29.174  15.802  -4.346  1.00  0.00     0.103 C 
HETATM    5  C7  UNL     1      29.439  16.283  -5.745  1.00  0.00     0.056 C 
HETATM    6  C8  UNL     1      28.820  15.219  -6.602  1.00  0.00    -0.014 C 
HETATM    7  C9  UNL     1      29.901  14.771  -7.597  1.00  0.00     0.018 C 
HETATM    8  C10 UNL     1      27.662  15.710  -7.428  1.00  0.00     0.018 C 
HETATM    9  C11 UNL     1      28.477  14.130  -5.658  1.00  0.00     0.062 C 
HETATM   10  C12 UNL     1      27.010  13.783  -5.620  1.00  0.00     0.046 C 
HETATM   11  C13 UNL     1      29.210  12.846  -6.065  1.00  0.00     0.046 C 
HETATM   12  O3  UNL     1      28.894  14.456  -4.401  1.00  0.00    -0.363 OA
HETATM   13  C14 UNL     1      28.071  16.597  -3.750  1.00  0.00     0.050 C 
HETATM   14 CL1  UNL     1      27.029  17.643  -4.662  1.00  0.00    -0.086 Cl
HETATM   15  C15 UNL     1      27.882  16.494  -2.447  1.00  0.00     0.076 C 
HETATM   16  C16 UNL     1      28.752  15.621  -1.690  1.00  0.00     0.185 C 
HETATM   17  O4  UNL     1      28.331  14.998  -0.690  1.00  0.00    -0.290 OA
ENDROOT
BRANCH   1  18
HETATM   18  O2  UNL     1      30.930  16.195  -1.131  1.00  0.00    -0.302 OA
BRANCH  18  19
HETATM   19  C2  UNL     1      32.244  15.859  -0.837  1.00  0.00     0.256 C 
HETATM   20  C1  UNL     1      32.651  15.395   0.525  1.00  0.00     0.126 C 
HETATM   21  O1  UNL     1      33.069  15.968  -1.787  1.00  0.00    -0.266 OA
ENDBRANCH  18  19
ENDBRANCH   1  18
TORSDOF 2
ENDMDL
MODEL 5
REMARK VINA RESULT: -5.739570908      1.923      5.488
REMARK  2 active torsions:
REMARK  status: ('A' for Active; 'I' for Inactive)
REMARK    1  A    between atoms: C2_2  and  O2_4 
REMARK    2  A    between atoms: O2_4  and  C3_5 
ROOT
HETATM    1  C3  UNL     1      30.338  15.411  -1.851  1.00  0.00     0.134 C 
HETATM    2  C4  UNL     1      31.588  15.660  -2.663  1.00  0.00     0.055 C 
HETATM    3  C5  UNL     1      29.234  16.356  -2.262  1.00  0.00     0.091 C 
HETATM    4  C6  UNL     1      28.438  15.756  -3.409  1.00  0.00     0.103 C 
HETATM    5  C7  UNL     1      27.364  16.711  -3.847  1.00  0.00     0.056 C 
HETATM    6  C8  UNL     1      27.439  16.658  -5.344  1.00  0.00    -0.014 C 
HETATM    7  C9  UNL     1      27.566  18.109  -5.831  1.00  0.00     0.018 C 
HETATM    8  C10 UNL     1      26.199  16.102  -5.990  1.00  0.00     0.018 C 
HETATM    9  C11 UNL     1      28.673  15.887  -5.630  1.00  0.00     0.062 C 
HETATM   10  C12 UNL     1      28.445  14.628  -6.428  1.00  0.00     0.046 C 
HETATM   11  C13 UNL     1      29.637  16.748  -6.454  1.00  0.00     0.046 C 
HETATM   12  O3  UNL     1      29.304  15.572  -4.463  1.00  0.00    -0.363 OA
HETATM   13  C14 UNL     1      27.817  14.490  -2.945  1.00  0.00     0.050 C 
HETATM   14 CL1  UNL     1      26.157  14.069  -3.224  1.00  0.00    -0.086 Cl
HETATM   15  C15 UNL     1      28.582  13.644  -2.282  1.00  0.00     0.076 C 
HETATM   16  C16 UNL     1      29.966  13.999  -2.052  1.00  0.00     0.185 C 
HETATM   17  O4  UNL     1      30.861  13.124  -2.020  1.00  0.00    -0.290 OA
ENDROOT
BRANCH   1  18
HETATM   18  O2  UNL     1      30.616  15.541  -0.446  1.00  0.00    -0.302 OA
BRANCH  18  19
HETATM   19  C2  UNL     1      29.840  16.344   0.379  1.00  0.00     0.256 C 
HETATM   20  C1  UNL     1      30.283  17.711   0.789  1.00  0.00     0.126 C 
HETATM   21  O1  UNL     1      28.742  15.849   0.759  1.00  0.00    -0.266 OA
ENDBRANCH  18  19
ENDBRANCH   1  18
TORSDOF 2
ENDMDL
