MODEL 1
REMARK VINA RESULT: -5.650288316      0.000      0.000
REMARK  3 active torsions:
REMARK  status: ('A' for Active; 'I' for Inactive)
REMARK    1  A    between atoms: C2_2  and  N1_3 
REMARK       I    between atoms: N1_3  and  C4_5 
REMARK       I    between atoms: C4_5  and  N2_7 
REMARK       I    between atoms: N2_7  and  C5_9 
REMARK    2  A    between atoms: C5_9  and  C6_11 
REMARK    3  A    between atoms: C7_12  and  S1_13 
ROOT
HETATM    1  N1  UNL     1      84.816  70.924 -11.256  1.00  0.00    -0.339 N 
HETATM    2  C3  UNL     1      84.926  70.340 -12.564  1.00  0.00     0.154 C 
HETATM    3  C4  UNL     1      83.597  70.840 -10.551  1.00  0.00     0.324 C 
HETATM    4  O1  UNL     1      83.432  71.331  -9.404  1.00  0.00    -0.247 OA
HETATM    5  N2  UNL     1      82.465  70.170 -11.140  1.00  0.00    -0.276 N 
ATOM      6  H2  UNL     1      82.544  69.756 -12.069  1.00  0.00     0.173 HD
HETATM    7  C5  UNL     1      81.255  70.088 -10.437  1.00  0.00     0.249 C 
HETATM    8  O2  UNL     1      81.182  70.610  -9.290  1.00  0.00    -0.268 OA
ENDROOT
BRANCH   7   9
HETATM    9  C6  UNL     1      80.088  69.433 -10.967  1.00  0.00     0.083 C 
HETATM   10  C7  UNL     1      80.084  68.139 -11.174  1.00  0.00     0.083 C 
BRANCH  10  11
HETATM   11  S1  UNL     1      78.651  67.389 -11.816  1.00  0.00     0.035 S 
HETATM   12  C8  UNL     1      79.168  66.303 -13.140  1.00  0.00     0.132 C 
HETATM   13  O3  UNL     1      77.932  66.461 -10.609  1.00  0.00    -0.254 OA
ENDBRANCH  10  11
ENDBRANCH   7   9
BRANCH   1  14
HETATM   14  C2  UNL     1      85.959  71.588 -10.690  1.00  0.00     0.122 C 
HETATM   15  C1  UNL     1      86.766  72.126 -11.879  1.00  0.00     0.026 C 
ENDBRANCH   1  14
TORSDOF 3
ENDMDL
MODEL 2
REMARK VINA RESULT: -5.563185629      1.313      1.313
REMARK  3 active torsions:
REMARK  status: ('A' for Active; 'I' for Inactive)
REMARK    1  A    between atoms: C2_2  and  N1_3 
REMARK       I    between atoms: N1_3  and  C4_5 
REMARK       I    between atoms: C4_5  and  N2_7 
REMARK       I    between atoms: N2_7  and  C5_9 
REMARK    2  A    between atoms: C5_9  and  C6_11 
REMARK    3  A    between atoms: C7_12  and  S1_13 
ROOT
HETATM    1  N1  UNL     1      85.066  71.381 -10.596  1.00  0.00    -0.339 N 
HETATM    2  C3  UNL     1      85.305  70.855 -11.911  1.00  0.00     0.154 C 
HETATM    3  C4  UNL     1      83.801  71.218  -9.995  1.00  0.00     0.324 C 
HETATM    4  O1  UNL     1      83.525  71.655  -8.846  1.00  0.00    -0.247 OA
HETATM    5  N2  UNL     1      82.749  70.528 -10.697  1.00  0.00    -0.276 N 
ATOM      6  H2  UNL     1      82.919  70.155 -11.631  1.00  0.00     0.173 HD
HETATM    7  C5  UNL     1      81.493  70.367 -10.097  1.00  0.00     0.249 C 
HETATM    8  O2  UNL     1      81.307  70.839  -8.940  1.00  0.00    -0.268 OA
ENDROOT
BRANCH   7   9
HETATM    9  C6  UNL     1      80.400  69.687 -10.743  1.00  0.00     0.083 C 
HETATM   10  C7  UNL     1      80.527  68.444 -11.137  1.00  0.00     0.083 C 
BRANCH  10  11
HETATM   11  S1  UNL     1      79.181  67.661 -11.913  1.00  0.00     0.035 S 
HETATM   12  C8  UNL     1      78.189  66.910 -10.628  1.00  0.00     0.132 C 
HETATM   13  O3  UNL     1      78.252  68.823 -12.701  1.00  0.00    -0.254 OA
ENDBRANCH  10  11
ENDBRANCH   7   9
BRANCH   1  14
HETATM   14  C2  UNL     1      86.132  72.067  -9.915  1.00  0.00     0.122 C 
HETATM   15  C1  UNL     1      86.847  72.902 -10.986  1.00  0.00     0.026 C 
ENDBRANCH   1  14
TORSDOF 3
ENDMDL
MODEL 3
REMARK VINA RESULT: -5.278982885      3.633      6.749
REMARK  3 active torsions:
REMARK  status: ('A' for Active; 'I' for Inactive)
REMARK    1  A    between atoms: C2_2  and  N1_3 
REMARK       I    between atoms: N1_3  and  C4_5 
REMARK       I    between atoms: C4_5  and  N2_7 
REMARK       I    between atoms: N2_7  and  C5_9 
REMARK    2  A    between atoms: C5_9  and  C6_11 
REMARK    3  A    between atoms: C7_12  and  S1_13 
ROOT
HETATM    1  N1  UNL     1      79.145  66.201 -11.904  1.00  0.00    -0.339 N 
HETATM    2  C3  UNL     1      79.566  65.471 -10.740  1.00  0.00     0.154 C 
HETATM    3  C4  UNL     1      79.279  67.605 -11.937  1.00  0.00     0.324 C 
HETATM    4  O1  UNL     1      78.929  68.304 -12.924  1.00  0.00    -0.247 OA
HETATM    5  N2  UNL     1      79.835  68.306 -10.808  1.00  0.00    -0.276 N 
ATOM      6  H2  UNL     1      80.133  67.787  -9.982  1.00  0.00     0.173 HD
HETATM    7  C5  UNL     1      79.967  69.701 -10.844  1.00  0.00     0.249 C 
HETATM    8  O2  UNL     1      79.589  70.321 -11.878  1.00  0.00    -0.268 OA
ENDROOT
BRANCH   7   9
HETATM    9  C6  UNL     1      80.514  70.462  -9.751  1.00  0.00     0.083 C 
HETATM   10  C7  UNL     1      81.670  71.067  -9.873  1.00  0.00     0.083 C 
BRANCH  10  11
HETATM   11  S1  UNL     1      82.295  71.976  -8.527  1.00  0.00     0.035 S 
HETATM   12  C8  UNL     1      81.645  71.233  -7.035  1.00  0.00     0.132 C 
HETATM   13  O3  UNL     1      83.974  71.841  -8.508  1.00  0.00    -0.254 OA
ENDBRANCH  10  11
ENDBRANCH   7   9
BRANCH   1  14
HETATM   14  C2  UNL     1      78.593  65.479 -13.018  1.00  0.00     0.122 C 
HETATM   15  C1  UNL     1      78.297  64.065 -12.499  1.00  0.00     0.026 C 
ENDBRANCH   1  14
TORSDOF 3
ENDMDL
MODEL 4
REMARK VINA RESULT: -4.883386116      3.220      6.641
REMARK  3 active torsions:
REMARK  status: ('A' for Active; 'I' for Inactive)
REMARK    1  A    between atoms: C2_2  and  N1_3 
REMARK       I    between atoms: N1_3  and  C4_5 
REMARK       I    between atoms: C4_5  and  N2_7 
REMARK       I    between atoms: N2_7  and  C5_9 
REMARK    2  A    between atoms: C5_9  and  C6_11 
REMARK    3  A    between atoms: C7_12  and  S1_13 
ROOT
HETATM    1  N1  UNL     1      79.523  67.097 -11.132  1.00  0.00    -0.339 N 
HETATM    2  C3  UNL     1      80.457  66.091 -10.708  1.00  0.00     0.154 C 
HETATM    3  C4  UNL     1      79.950  68.435 -11.271  1.00  0.00     0.324 C 
HETATM    4  O1  UNL     1      79.184  69.364 -11.637  1.00  0.00    -0.247 OA
HETATM    5  N2  UNL     1      81.316  68.793 -10.987  1.00  0.00    -0.276 N 
ATOM      6  H2  UNL     1      81.978  68.078 -10.685  1.00  0.00     0.173 HD
HETATM    7  C5  UNL     1      81.736  70.122 -11.126  1.00  0.00     0.249 C 
HETATM    8  O2  UNL     1      80.897  70.989 -11.500  1.00  0.00    -0.268 OA
ENDROOT
BRANCH   7   9
HETATM    9  C6  UNL     1      83.086  70.546 -10.860  1.00  0.00     0.083 C 
HETATM   10  C7  UNL     1      83.918  70.781 -11.844  1.00  0.00     0.083 C 
BRANCH  10  11
HETATM   11  S1  UNL     1      85.541  71.291 -11.477  1.00  0.00     0.035 S 
HETATM   12  C8  UNL     1      86.600  69.859 -11.647  1.00  0.00     0.132 C 
HETATM   13  O3  UNL     1      86.018  72.449 -12.603  1.00  0.00    -0.254 OA
ENDBRANCH  10  11
ENDBRANCH   7   9
BRANCH   1  14
HETATM   14  C2  UNL     1      78.165  66.716 -11.409  1.00  0.00     0.122 C 
HETATM   15  C1  UNL     1      77.573  66.262 -10.068  1.00  0.00     0.026 C 
ENDBRANCH   1  14
TORSDOF 3
ENDMDL
MODEL 5
REMARK VINA RESULT: -4.831612482      4.177      7.937
REMARK  3 active torsions:
REMARK  status: ('A' for Active; 'I' for Inactive)
REMARK    1  A    between atoms: C2_2  and  N1_3 
REMARK       I    between atoms: N1_3  and  C4_5 
REMARK       I    between atoms: C4_5  and  N2_7 
REMARK       I    between atoms: N2_7  and  C5_9 
REMARK    2  A    between atoms: C5_9  and  C6_11 
REMARK    3  A    between atoms: C7_12  and  S1_13 
ROOT
HETATM    1  N1  UNL     1      77.492  64.420  -9.635  1.00  0.00    -0.339 N 
HETATM    2  C3  UNL     1      77.544  64.987  -8.316  1.00  0.00     0.154 C 
HETATM    3  C4  UNL     1      77.870  65.200 -10.748  1.00  0.00     0.324 C 
HETATM    4  O1  UNL     1      77.848  64.765 -11.929  1.00  0.00    -0.247 OA
HETATM    5  N2  UNL     1      78.306  66.561 -10.565  1.00  0.00    -0.276 N 
ATOM      6  H2  UNL     1      78.341  66.963  -9.628  1.00  0.00     0.173 HD
HETATM    7  C5  UNL     1      78.681  67.333 -11.672  1.00  0.00     0.249 C 
HETATM    8  O2  UNL     1      78.627  66.813 -12.822  1.00  0.00    -0.268 OA
ENDROOT
BRANCH   7   9
HETATM    9  C6  UNL     1      79.126  68.697 -11.558  1.00  0.00     0.083 C 
HETATM   10  C7  UNL     1      80.117  69.012 -10.762  1.00  0.00     0.083 C 
BRANCH  10  11
HETATM   11  S1  UNL     1      80.623  70.674 -10.654  1.00  0.00     0.035 S 
HETATM   12  C8  UNL     1      80.878  71.041  -8.922  1.00  0.00     0.132 C 
HETATM   13  O3  UNL     1      82.088  70.854 -11.465  1.00  0.00    -0.254 OA
ENDBRANCH  10  11
ENDBRANCH   7   9
BRANCH   1  14
HETATM   14  C2  UNL     1      77.054  63.060  -9.792  1.00  0.00     0.122 C 
HETATM   15  C1  UNL     1      76.706  62.563  -8.383  1.00  0.00     0.026 C 
ENDBRANCH   1  14
TORSDOF 3
ENDMDL
