MODEL 1
REMARK VINA RESULT: -5.903070242      0.000      0.000
REMARK  3 active torsions:
REMARK  status: ('A' for Active; 'I' for Inactive)
REMARK    1  A    between atoms: N2_7  and  S1_9 
REMARK    2  A    between atoms: S1_9  and  N3_12 
REMARK    3  A    between atoms: N3_12  and  C5_14 
ROOT
HETATM    1  C1  UNL     1      60.011  29.499 102.586  1.00  0.00     0.071 C 
HETATM    2  C2  UNL     1      59.338  28.204 102.265  1.00  0.00     0.039 A 
HETATM    3  N1  UNL     1      58.668  27.911 101.126  1.00  0.00    -0.263 N 
ATOM      4  H1  UNL     1      58.534  28.541 100.335  1.00  0.00     0.194 HD
HETATM    5  O1  UNL     1      58.222  26.693 101.208  1.00  0.00    -0.218 OA
HETATM    6  C3  UNL     1      58.553  26.138 102.341  1.00  0.00     0.188 A 
HETATM    7  N2  UNL     1      58.296  24.944 102.789  1.00  0.00    -0.249 N 
ATOM      8  H2  UNL     1      58.624  24.645 103.707  1.00  0.00     0.182 HD
HETATM    9  C9  UNL     1      59.267  27.082 103.038  1.00  0.00     0.016 A 
HETATM   10  C10 UNL     1      59.864  26.939 104.383  1.00  0.00     0.055 C 
ENDROOT
BRANCH   7  11
HETATM   11  S1  UNL     1      57.380  23.879 101.778  1.00  0.00     0.304 S 
HETATM   12  O2  UNL     1      57.349  24.333 100.367  1.00  0.00    -0.188 OA
HETATM   13  O3  UNL     1      58.004  22.497 101.893  1.00  0.00    -0.188 OA
BRANCH  11  14
HETATM   14  N3  UNL     1      55.783  23.831 102.411  1.00  0.00    -0.191 NA
HETATM   15  C4  UNL     1      54.951  24.881 101.867  1.00  0.00     0.131 C 
BRANCH  14  16
HETATM   16  C5  UNL     1      55.135  22.581 102.247  1.00  0.00     0.099 A 
HETATM   17  C6  UNL     1      54.046  22.284 103.277  1.00  0.00     0.022 A 
HETATM   18  C7  UNL     1      52.744  21.834 102.660  1.00  0.00     0.013 C 
HETATM   19  C8  UNL     1      55.264  21.459 103.199  1.00  0.00     0.106 A 
HETATM   20 CL1  UNL     1      56.452  21.645 104.535  1.00  0.00    -0.123 Cl
ENDBRANCH  14  16
ENDBRANCH  11  14
ENDBRANCH   7  11
TORSDOF 3
ENDMDL
MODEL 2
REMARK VINA RESULT: -5.535550863      2.339      6.312
REMARK  3 active torsions:
REMARK  status: ('A' for Active; 'I' for Inactive)
REMARK    1  A    between atoms: N2_7  and  S1_9 
REMARK    2  A    between atoms: S1_9  and  N3_12 
REMARK    3  A    between atoms: N3_12  and  C5_14 
ROOT
HETATM    1  C1  UNL     1      51.649  22.886 102.172  1.00  0.00     0.071 C 
HETATM    2  C2  UNL     1      53.119  23.149 102.161  1.00  0.00     0.039 A 
HETATM    3  N1  UNL     1      54.081  22.350 102.681  1.00  0.00    -0.263 N 
ATOM      4  H1  UNL     1      53.923  21.458 103.151  1.00  0.00     0.194 HD
HETATM    5  O1  UNL     1      55.237  22.908 102.483  1.00  0.00    -0.218 OA
HETATM    6  C3  UNL     1      55.118  24.045 101.855  1.00  0.00     0.188 A 
HETATM    7  N2  UNL     1      56.035  24.888 101.480  1.00  0.00    -0.249 N 
ATOM      8  H2  UNL     1      55.790  25.748 100.991  1.00  0.00     0.182 HD
HETATM    9  C9  UNL     1      53.774  24.225 101.637  1.00  0.00     0.016 A 
HETATM   10  C10 UNL     1      53.124  25.367 100.959  1.00  0.00     0.055 C 
ENDROOT
BRANCH   7  11
HETATM   11  S1  UNL     1      57.684  24.503 101.837  1.00  0.00     0.304 S 
HETATM   12  O2  UNL     1      57.959  24.507 103.294  1.00  0.00    -0.188 OA
HETATM   13  O3  UNL     1      57.972  23.138 101.231  1.00  0.00    -0.188 OA
BRANCH  11  14
HETATM   14  N3  UNL     1      58.659  25.683 101.056  1.00  0.00    -0.191 NA
HETATM   15  C4  UNL     1      58.670  25.514  99.620  1.00  0.00     0.131 C 
BRANCH  14  16
HETATM   16  C5  UNL     1      58.312  27.020 101.373  1.00  0.00     0.099 A 
HETATM   17  C6  UNL     1      59.375  28.059 101.016  1.00  0.00     0.022 A 
HETATM   18  C7  UNL     1      58.829  29.230 100.235  1.00  0.00     0.013 C 
HETATM   19  C8  UNL     1      58.989  27.817 102.417  1.00  0.00     0.106 A 
HETATM   20 CL1  UNL     1      60.191  26.970 103.451  1.00  0.00    -0.123 Cl
ENDBRANCH  14  16
ENDBRANCH  11  14
ENDBRANCH   7  11
TORSDOF 3
ENDMDL
MODEL 3
REMARK VINA RESULT: -5.166995225      4.940      7.033
REMARK  3 active torsions:
REMARK  status: ('A' for Active; 'I' for Inactive)
REMARK    1  A    between atoms: N2_7  and  S1_9 
REMARK    2  A    between atoms: S1_9  and  N3_12 
REMARK    3  A    between atoms: N3_12  and  C5_14 
ROOT
HETATM    1  C1  UNL     1      58.718  28.418  99.279  1.00  0.00     0.071 C 
HETATM    2  C2  UNL     1      59.206  28.597 100.680  1.00  0.00     0.039 A 
HETATM    3  N1  UNL     1      59.772  29.714 101.195  1.00  0.00    -0.263 N 
ATOM      4  H1  UNL     1      59.940  30.583 100.688  1.00  0.00     0.194 HD
HETATM    5  O1  UNL     1      60.067  29.494 102.441  1.00  0.00    -0.218 OA
HETATM    6  C3  UNL     1      59.731  28.288 102.807  1.00  0.00     0.188 A 
HETATM    7  N2  UNL     1      59.862  27.701 103.960  1.00  0.00    -0.249 N 
ATOM      8  H2  UNL     1      59.549  26.741 104.100  1.00  0.00     0.182 HD
HETATM    9  C9  UNL     1      59.179  27.690 101.700  1.00  0.00     0.016 A 
HETATM   10  C10 UNL     1      58.642  26.316 101.600  1.00  0.00     0.055 C 
ENDROOT
BRANCH   7  11
HETATM   11  S1  UNL     1      60.582  28.602 105.250  1.00  0.00     0.304 S 
HETATM   12  O2  UNL     1      61.882  29.200 104.861  1.00  0.00    -0.188 OA
HETATM   13  O3  UNL     1      59.588  29.678 105.661  1.00  0.00    -0.188 OA
BRANCH  11  14
HETATM   14  N3  UNL     1      60.809  27.515 106.561  1.00  0.00    -0.191 NA
HETATM   15  C4  UNL     1      61.929  26.626 106.342  1.00  0.00     0.131 C 
BRANCH  14  16
HETATM   16  C5  UNL     1      60.949  28.151 107.821  1.00  0.00     0.099 A 
HETATM   17  C6  UNL     1      60.790  27.225 109.026  1.00  0.00     0.022 A 
HETATM   18  C7  UNL     1      61.906  27.356 110.034  1.00  0.00     0.013 C 
HETATM   19  C8  UNL     1      59.838  28.324 108.779  1.00  0.00     0.106 A 
HETATM   20 CL1  UNL     1      58.193  27.858 108.227  1.00  0.00    -0.123 Cl
ENDBRANCH  14  16
ENDBRANCH  11  14
ENDBRANCH   7  11
TORSDOF 3
ENDMDL
MODEL 4
REMARK VINA RESULT: -5.166445201      5.318      7.265
REMARK  3 active torsions:
REMARK  status: ('A' for Active; 'I' for Inactive)
REMARK    1  A    between atoms: N2_7  and  S1_9 
REMARK    2  A    between atoms: S1_9  and  N3_12 
REMARK    3  A    between atoms: N3_12  and  C5_14 
ROOT
HETATM    1  C1  UNL     1      62.790  30.267 109.641  1.00  0.00     0.071 C 
HETATM    2  C2  UNL     1      62.144  30.218 108.295  1.00  0.00     0.039 A 
HETATM    3  N1  UNL     1      60.815  30.153 108.045  1.00  0.00    -0.263 N 
ATOM      4  H1  UNL     1      60.078  30.129 108.749  1.00  0.00     0.194 HD
HETATM    5  O1  UNL     1      60.635  30.125 106.758  1.00  0.00    -0.218 OA
HETATM    6  C3  UNL     1      61.769  30.169 106.115  1.00  0.00     0.188 A 
HETATM    7  N2  UNL     1      62.001  30.162 104.835  1.00  0.00    -0.249 N 
ATOM      8  H2  UNL     1      62.953  30.201 104.473  1.00  0.00     0.182 HD
HETATM    9  C9  UNL     1      62.752  30.228 107.073  1.00  0.00     0.016 A 
HETATM   10  C10 UNL     1      64.213  30.292 106.852  1.00  0.00     0.055 C 
ENDROOT
BRANCH   7  11
HETATM   11  S1  UNL     1      60.642  30.083 103.767  1.00  0.00     0.304 S 
HETATM   12  O2  UNL     1      59.373  30.447 104.443  1.00  0.00    -0.188 OA
HETATM   13  O3  UNL     1      60.927  31.019 102.602  1.00  0.00    -0.188 OA
BRANCH  11  14
HETATM   14  N3  UNL     1      60.550  28.469 103.183  1.00  0.00    -0.191 NA
HETATM   15  C4  UNL     1      61.110  27.520 104.120  1.00  0.00     0.131 C 
BRANCH  14  16
HETATM   16  C5  UNL     1      59.243  28.060 102.820  1.00  0.00     0.099 A 
HETATM   17  C6  UNL     1      59.187  26.909 101.816  1.00  0.00     0.022 A 
HETATM   18  C7  UNL     1      58.267  25.790 102.238  1.00  0.00     0.013 C 
HETATM   19  C8  UNL     1      58.671  28.246 101.470  1.00  0.00     0.106 A 
HETATM   20 CL1  UNL     1      59.633  29.203 100.292  1.00  0.00    -0.123 Cl
ENDBRANCH  14  16
ENDBRANCH  11  14
ENDBRANCH   7  11
TORSDOF 3
ENDMDL
MODEL 5
REMARK VINA RESULT: -5.152173304      5.161      6.848
REMARK  3 active torsions:
REMARK  status: ('A' for Active; 'I' for Inactive)
REMARK    1  A    between atoms: N2_7  and  S1_9 
REMARK    2  A    between atoms: S1_9  and  N3_12 
REMARK    3  A    between atoms: N3_12  and  C5_14 
ROOT
HETATM    1  C1  UNL     1      58.247  29.176 109.936  1.00  0.00     0.071 C 
HETATM    2  C2  UNL     1      58.719  29.308 108.524  1.00  0.00     0.039 A 
HETATM    3  N1  UNL     1      57.988  29.747 107.472  1.00  0.00    -0.263 N 
ATOM      4  H1  UNL     1      57.013  30.047 107.509  1.00  0.00     0.194 HD
HETATM    5  O1  UNL     1      58.734  29.724 106.409  1.00  0.00    -0.218 OA
HETATM    6  C3  UNL     1      59.936  29.293 106.677  1.00  0.00     0.188 A 
HETATM    7  N2  UNL     1      60.956  29.129 105.887  1.00  0.00    -0.249 N 
ATOM      8  H2  UNL     1      61.845  28.778 106.242  1.00  0.00     0.182 HD
HETATM    9  C9  UNL     1      59.955  29.018 108.022  1.00  0.00     0.016 A 
HETATM   10  C10 UNL     1      61.092  28.502 108.814  1.00  0.00     0.055 C 
ENDROOT
BRANCH   7  11
HETATM   11  S1  UNL     1      60.757  29.524 104.214  1.00  0.00     0.304 S 
HETATM   12  O2  UNL     1      59.582  30.398 103.978  1.00  0.00    -0.188 OA
HETATM   13  O3  UNL     1      62.039  30.198 103.752  1.00  0.00    -0.188 OA
BRANCH  11  14
HETATM   14  N3  UNL     1      60.561  28.043 103.364  1.00  0.00    -0.191 NA
HETATM   15  C4  UNL     1      61.075  26.916 104.112  1.00  0.00     0.131 C 
BRANCH  14  16
HETATM   16  C5  UNL     1      59.227  27.777 102.966  1.00  0.00     0.099 A 
HETATM   17  C6  UNL     1      59.086  26.754 101.840  1.00  0.00     0.022 A 
HETATM   18  C7  UNL     1      58.082  25.667 102.140  1.00  0.00     0.013 C 
HETATM   19  C8  UNL     1      58.673  28.156 101.649  1.00  0.00     0.106 A 
HETATM   20 CL1  UNL     1      59.708  29.163 100.579  1.00  0.00    -0.123 Cl
ENDBRANCH  14  16
ENDBRANCH  11  14
ENDBRANCH   7  11
TORSDOF 3
ENDMDL
