MODEL 1
REMARK VINA RESULT: -5.996270656      0.000      0.000
REMARK  7 active torsions:
REMARK  status: ('A' for Active; 'I' for Inactive)
REMARK    1  A    between atoms: N1_2  and  C2_5 
REMARK    2  A    between atoms: C2_5  and  C3_6 
REMARK    3  A    between atoms: C4_7  and  C5_8 
REMARK    4  A    between atoms: C5_8  and  C6_9 
REMARK    5  A    between atoms: C6_9  and  C7_10 
REMARK    6  A    between atoms: C7_10  and  C8_11 
REMARK    7  A    between atoms: C8_11  and  C9_12 
ROOT
HETATM    1  C3  UNL     1       0.722  -1.327  24.157  1.00  0.00    -0.004 C 
HETATM    2  C4  UNL     1       1.365  -1.052  23.034  1.00  0.00    -0.029 C 
ENDROOT
BRANCH   2   3
HETATM    3  C5  UNL     1       1.378   0.328  22.471  1.00  0.00     0.027 C 
BRANCH   3   4
HETATM    4  C6  UNL     1       2.777   0.857  22.356  1.00  0.00     0.004 C 
BRANCH   4   5
HETATM    5  C7  UNL     1       3.085   1.982  23.314  1.00  0.00     0.001 C 
BRANCH   5   6
HETATM    6  C8  UNL     1       3.701   3.109  22.567  1.00  0.00     0.004 C 
BRANCH   6   7
HETATM    7  C9  UNL     1       2.740   3.928  21.751  1.00  0.00    -0.023 C 
HETATM    8  C10 UNL     1       2.224   5.146  22.455  1.00  0.00     0.009 C 
HETATM    9  C11 UNL     1       3.364   4.337  20.410  1.00  0.00     0.009 C 
ENDBRANCH   6   7
ENDBRANCH   5   6
ENDBRANCH   4   5
ENDBRANCH   3   4
ENDBRANCH   2   3
BRANCH   1  10
HETATM   10  C2  UNL     1       0.707  -2.693  24.719  1.00  0.00     0.259 C 
BRANCH  10  11
HETATM   11  N1  UNL     1      -0.383  -2.920  25.621  1.00  0.00    -0.076 N 
HETATM   12  C1  UNL     1      -0.028  -2.793  27.013  1.00  0.00     0.267 C 
ATOM     13  H12 UNL     1      -0.812  -3.827  25.443  1.00  0.00     0.276 HD
ATOM     14  H11 UNL     1      -1.168  -2.311  25.394  1.00  0.00     0.276 HD
ENDBRANCH  10  11
ENDBRANCH   1  10
TORSDOF 7
ENDMDL
MODEL 2
REMARK VINA RESULT: -5.949768387      2.687      6.878
REMARK  7 active torsions:
REMARK  status: ('A' for Active; 'I' for Inactive)
REMARK    1  A    between atoms: N1_2  and  C2_5 
REMARK    2  A    between atoms: C2_5  and  C3_6 
REMARK    3  A    between atoms: C4_7  and  C5_8 
REMARK    4  A    between atoms: C5_8  and  C6_9 
REMARK    5  A    between atoms: C6_9  and  C7_10 
REMARK    6  A    between atoms: C7_10  and  C8_11 
REMARK    7  A    between atoms: C8_11  and  C9_12 
ROOT
HETATM    1  C3  UNL     1       2.957   1.721  23.021  1.00  0.00    -0.004 C 
HETATM    2  C4  UNL     1       2.089   1.124  22.221  1.00  0.00    -0.029 C 
ENDROOT
BRANCH   2   3
HETATM    3  C5  UNL     1       1.234   0.006  22.710  1.00  0.00     0.027 C 
BRANCH   3   4
HETATM    4  C6  UNL     1       1.849  -1.326  22.403  1.00  0.00     0.004 C 
BRANCH   4   5
HETATM    5  C7  UNL     1       1.584  -2.378  23.453  1.00  0.00     0.001 C 
BRANCH   5   6
HETATM    6  C8  UNL     1       0.786  -1.781  24.556  1.00  0.00     0.004 C 
BRANCH   6   7
HETATM    7  C9  UNL     1      -0.040  -2.762  25.341  1.00  0.00    -0.023 C 
HETATM    8  C10 UNL     1       0.346  -4.195  25.129  1.00  0.00     0.009 C 
HETATM    9  C11 UNL     1      -0.003  -2.438  26.841  1.00  0.00     0.009 C 
ENDBRANCH   6   7
ENDBRANCH   5   6
ENDBRANCH   4   5
ENDBRANCH   3   4
ENDBRANCH   2   3
BRANCH   1  10
HETATM   10  C2  UNL     1       3.807   2.831  22.540  1.00  0.00     0.259 C 
BRANCH  10  11
HETATM   11  N1  UNL     1       4.118   2.739  21.144  1.00  0.00    -0.076 N 
HETATM   12  C1  UNL     1       3.795   3.926  20.392  1.00  0.00     0.267 C 
ATOM     13  H12 UNL     1       3.671   1.921  20.731  1.00  0.00     0.276 HD
ATOM     14  H11 UNL     1       5.096   2.485  21.012  1.00  0.00     0.276 HD
ENDBRANCH  10  11
ENDBRANCH   1  10
TORSDOF 7
ENDMDL
MODEL 3
REMARK VINA RESULT: -5.855682461      2.746      6.717
REMARK  7 active torsions:
REMARK  status: ('A' for Active; 'I' for Inactive)
REMARK    1  A    between atoms: N1_2  and  C2_5 
REMARK    2  A    between atoms: C2_5  and  C3_6 
REMARK    3  A    between atoms: C4_7  and  C5_8 
REMARK    4  A    between atoms: C5_8  and  C6_9 
REMARK    5  A    between atoms: C6_9  and  C7_10 
REMARK    6  A    between atoms: C7_10  and  C8_11 
REMARK    7  A    between atoms: C8_11  and  C9_12 
ROOT
HETATM    1  C3  UNL     1       3.043   1.762  22.880  1.00  0.00    -0.004 C 
HETATM    2  C4  UNL     1       2.015   1.353  22.155  1.00  0.00    -0.029 C 
ENDROOT
BRANCH   2   3
HETATM    3  C5  UNL     1       1.159   0.218  22.604  1.00  0.00     0.027 C 
BRANCH   3   4
HETATM    4  C6  UNL     1       1.739  -1.101  22.189  1.00  0.00     0.004 C 
BRANCH   4   5
HETATM    5  C7  UNL     1       1.707  -2.150  23.274  1.00  0.00     0.001 C 
BRANCH   5   6
HETATM    6  C8  UNL     1       1.201  -1.542  24.532  1.00  0.00     0.004 C 
BRANCH   6   7
HETATM    7  C9  UNL     1       1.088  -2.491  25.691  1.00  0.00    -0.023 C 
HETATM    8  C10 UNL     1      -0.184  -2.353  26.474  1.00  0.00     0.009 C 
HETATM    9  C11 UNL     1       1.251  -3.946  25.232  1.00  0.00     0.009 C 
ENDBRANCH   6   7
ENDBRANCH   5   6
ENDBRANCH   4   5
ENDBRANCH   3   4
ENDBRANCH   2   3
BRANCH   1  10
HETATM   10  C2  UNL     1       3.893   2.887  22.439  1.00  0.00     0.259 C 
BRANCH  10  11
HETATM   11  N1  UNL     1       4.155   2.877  21.030  1.00  0.00    -0.076 N 
HETATM   12  C1  UNL     1       3.784   4.097  20.355  1.00  0.00     0.267 C 
ATOM     13  H12 UNL     1       3.710   2.074  20.589  1.00  0.00     0.276 HD
ATOM     14  H11 UNL     1       5.133   2.652  20.850  1.00  0.00     0.276 HD
ENDBRANCH  10  11
ENDBRANCH   1  10
TORSDOF 7
ENDMDL
MODEL 4
REMARK VINA RESULT: -5.737983634      0.361      1.074
REMARK  7 active torsions:
REMARK  status: ('A' for Active; 'I' for Inactive)
REMARK    1  A    between atoms: N1_2  and  C2_5 
REMARK    2  A    between atoms: C2_5  and  C3_6 
REMARK    3  A    between atoms: C4_7  and  C5_8 
REMARK    4  A    between atoms: C5_8  and  C6_9 
REMARK    5  A    between atoms: C6_9  and  C7_10 
REMARK    6  A    between atoms: C7_10  and  C8_11 
REMARK    7  A    between atoms: C8_11  and  C9_12 
ROOT
HETATM    1  C3  UNL     1       0.700  -1.344  24.172  1.00  0.00    -0.004 C 
HETATM    2  C4  UNL     1       1.349  -1.084  23.049  1.00  0.00    -0.029 C 
ENDROOT
BRANCH   2   3
HETATM    3  C5  UNL     1       1.392   0.296  22.487  1.00  0.00     0.027 C 
BRANCH   3   4
HETATM    4  C6  UNL     1       2.800   0.802  22.389  1.00  0.00     0.004 C 
BRANCH   4   5
HETATM    5  C7  UNL     1       3.032   2.107  23.111  1.00  0.00     0.001 C 
BRANCH   5   6
HETATM    6  C8  UNL     1       4.073   2.888  22.394  1.00  0.00     0.004 C 
BRANCH   6   7
HETATM    7  C9  UNL     1       3.564   4.099  21.664  1.00  0.00    -0.023 C 
HETATM    8  C10 UNL     1       3.361   3.887  20.194  1.00  0.00     0.009 C 
HETATM    9  C11 UNL     1       2.261   4.614  22.292  1.00  0.00     0.009 C 
ENDBRANCH   6   7
ENDBRANCH   5   6
ENDBRANCH   4   5
ENDBRANCH   3   4
ENDBRANCH   2   3
BRANCH   1  10
HETATM   10  C2  UNL     1       0.656  -2.711  24.734  1.00  0.00     0.259 C 
BRANCH  10  11
HETATM   11  N1  UNL     1      -0.423  -2.907  25.656  1.00  0.00    -0.076 N 
HETATM   12  C1  UNL     1      -0.042  -2.773  27.041  1.00  0.00     0.267 C 
ATOM     13  H12 UNL     1      -0.874  -3.806  25.494  1.00  0.00     0.276 HD
ATOM     14  H11 UNL     1      -1.199  -2.283  25.437  1.00  0.00     0.276 HD
ENDBRANCH  10  11
ENDBRANCH   1  10
TORSDOF 7
ENDMDL
MODEL 5
REMARK VINA RESULT: -5.663826893      3.053      6.930
REMARK  7 active torsions:
REMARK  status: ('A' for Active; 'I' for Inactive)
REMARK    1  A    between atoms: N1_2  and  C2_5 
REMARK    2  A    between atoms: C2_5  and  C3_6 
REMARK    3  A    between atoms: C4_7  and  C5_8 
REMARK    4  A    between atoms: C5_8  and  C6_9 
REMARK    5  A    between atoms: C6_9  and  C7_10 
REMARK    6  A    between atoms: C7_10  and  C8_11 
REMARK    7  A    between atoms: C8_11  and  C9_12 
ROOT
HETATM    1  C3  UNL     1       2.921   0.957  21.546  1.00  0.00    -0.004 C 
HETATM    2  C4  UNL     1       1.842   1.081  22.301  1.00  0.00    -0.029 C 
ENDROOT
BRANCH   2   3
HETATM    3  C5  UNL     1       1.080  -0.115  22.758  1.00  0.00     0.027 C 
BRANCH   3   4
HETATM    4  C6  UNL     1       1.878  -1.372  22.580  1.00  0.00     0.004 C 
BRANCH   4   5
HETATM    5  C7  UNL     1       1.532  -2.460  23.567  1.00  0.00     0.001 C 
BRANCH   5   6
HETATM    6  C8  UNL     1       0.741  -1.878  24.683  1.00  0.00     0.004 C 
BRANCH   6   7
HETATM    7  C9  UNL     1      -0.071  -2.870  25.467  1.00  0.00    -0.023 C 
HETATM    8  C10 UNL     1       0.325  -4.298  25.244  1.00  0.00     0.009 C 
HETATM    9  C11 UNL     1      -0.028  -2.555  26.969  1.00  0.00     0.009 C 
ENDBRANCH   6   7
ENDBRANCH   5   6
ENDBRANCH   4   5
ENDBRANCH   3   4
ENDBRANCH   2   3
BRANCH   1  10
HETATM   10  C2  UNL     1       3.681   2.141  21.092  1.00  0.00     0.259 C 
BRANCH  10  11
HETATM   11  N1  UNL     1       3.898   2.162  19.675  1.00  0.00    -0.076 N 
HETATM   12  C1  UNL     1       3.940   0.854  19.069  1.00  0.00     0.267 C 
ATOM     13  H12 UNL     1       4.742   2.688  19.450  1.00  0.00     0.276 HD
ATOM     14  H11 UNL     1       3.202   2.748  19.215  1.00  0.00     0.276 HD
ENDBRANCH  10  11
ENDBRANCH   1  10
TORSDOF 7
ENDMDL
