MODEL 1
REMARK VINA RESULT: -5.315219720      0.000      0.000
REMARK  4 active torsions:
REMARK  status: ('A' for Active; 'I' for Inactive)
REMARK    1  A    between atoms: C2_2  and  O1_4 
REMARK    2  A    between atoms: O1_4  and  C4_5 
REMARK    3  A    between atoms: C5_6  and  O2_7 
REMARK    4  A    between atoms: C6_10  and  O4_11 
ROOT
HETATM    1  C4  UNL     1      80.839  53.029 107.151  1.00  0.00     0.244 C 
HETATM    2  C5  UNL     1      80.044  52.064 106.312  1.00  0.00     0.294 C 
HETATM    3  O3  UNL     1      80.560  52.057 105.046  1.00  0.00    -0.323 OA
HETATM    4  C6  UNL     1      81.836  52.557 105.055  1.00  0.00     0.326 C 
HETATM    5  C7  UNL     1      81.767  53.628 106.114  1.00  0.00     0.246 C 
HETATM    6  O5  UNL     1      83.003  53.976 106.613  1.00  0.00    -0.347 OA
HETATM    7  C8  UNL     1      83.385  55.141 105.906  1.00  0.00     0.198 C 
HETATM    8  C9  UNL     1      82.043  55.830 105.785  1.00  0.00     0.198 C 
HETATM    9  O6  UNL     1      81.199  54.757 105.545  1.00  0.00    -0.347 OA
ENDROOT
BRANCH   1  10
HETATM   10  O1  UNL     1      80.127  54.030 107.712  1.00  0.00    -0.371 OA
BRANCH  10  11
HETATM   11  C2  UNL     1      80.280  54.279 109.035  1.00  0.00     0.114 C 
HETATM   12  C1  UNL     1      80.588  55.782 109.164  1.00  0.00     0.039 C 
HETATM   13  C3  UNL     1      81.359  53.549 109.741  1.00  0.00     0.039 C 
ENDBRANCH  10  11
ENDBRANCH   1  10
BRANCH   2  14
HETATM   14  O2  UNL     1      78.693  52.405 106.231  1.00  0.00    -0.368 OA
ATOM     15  H2  UNL     1      78.265  52.031 105.470  1.00  0.00     0.212 HD
ENDBRANCH   2  14
BRANCH   4  16
HETATM   16  O4  UNL     1      82.136  53.173 103.836  1.00  0.00    -0.366 OA
ATOM     17  H4  UNL     1      83.005  53.555 103.857  1.00  0.00     0.212 HD
ENDBRANCH   4  16
TORSDOF 4
ENDMDL
MODEL 2
REMARK VINA RESULT: -5.042024452      1.090      1.266
REMARK  4 active torsions:
REMARK  status: ('A' for Active; 'I' for Inactive)
REMARK    1  A    between atoms: C2_2  and  O1_4 
REMARK    2  A    between atoms: O1_4  and  C4_5 
REMARK    3  A    between atoms: C5_6  and  O2_7 
REMARK    4  A    between atoms: C6_10  and  O4_11 
ROOT
HETATM    1  C4  UNL     1      81.338  52.421 107.163  1.00  0.00     0.244 C 
HETATM    2  C5  UNL     1      80.075  52.134 106.396  1.00  0.00     0.294 C 
HETATM    3  O3  UNL     1      80.282  52.446 105.081  1.00  0.00    -0.323 OA
HETATM    4  C6  UNL     1      81.626  52.493 104.813  1.00  0.00     0.326 C 
HETATM    5  C7  UNL     1      82.201  53.053 106.090  1.00  0.00     0.246 C 
HETATM    6  O5  UNL     1      83.545  52.794 106.236  1.00  0.00    -0.347 OA
HETATM    7  C8  UNL     1      84.209  53.964 105.794  1.00  0.00     0.198 C 
HETATM    8  C9  UNL     1      83.257  55.021 106.311  1.00  0.00     0.198 C 
HETATM    9  O6  UNL     1      82.026  54.428 106.071  1.00  0.00    -0.347 OA
ENDROOT
BRANCH   1  10
HETATM   10  O1  UNL     1      81.210  53.302 108.178  1.00  0.00    -0.371 OA
BRANCH  10  11
HETATM   11  C2  UNL     1      81.652  52.951 109.410  1.00  0.00     0.114 C 
HETATM   12  C1  UNL     1      80.897  53.837 110.416  1.00  0.00     0.039 C 
HETATM   13  C3  UNL     1      83.100  53.117 109.682  1.00  0.00     0.039 C 
ENDBRANCH  10  11
ENDBRANCH   1  10
BRANCH   2  14
HETATM   14  O2  UNL     1      78.985  52.872 106.855  1.00  0.00    -0.368 OA
ATOM     15  H2  UNL     1      78.614  53.436 106.186  1.00  0.00     0.212 HD
ENDBRANCH   2  14
BRANCH   4  16
HETATM   16  O4  UNL     1      81.894  53.399 103.784  1.00  0.00    -0.366 OA
ATOM     17  H4  UNL     1      82.301  54.186 104.126  1.00  0.00     0.212 HD
ENDBRANCH   4  16
TORSDOF 4
ENDMDL
MODEL 3
REMARK VINA RESULT: -4.941078524      1.836      2.642
REMARK  4 active torsions:
REMARK  status: ('A' for Active; 'I' for Inactive)
REMARK    1  A    between atoms: C2_2  and  O1_4 
REMARK    2  A    between atoms: O1_4  and  C4_5 
REMARK    3  A    between atoms: C5_6  and  O2_7 
REMARK    4  A    between atoms: C6_10  and  O4_11 
ROOT
HETATM    1  C4  UNL     1      80.566  53.126 107.765  1.00  0.00     0.244 C 
HETATM    2  C5  UNL     1      80.199  52.223 106.618  1.00  0.00     0.294 C 
HETATM    3  O3  UNL     1      81.203  51.312 106.438  1.00  0.00    -0.323 OA
HETATM    4  C6  UNL     1      81.969  51.227 107.572  1.00  0.00     0.326 C 
HETATM    5  C7  UNL     1      81.967  52.646 108.083  1.00  0.00     0.246 C 
HETATM    6  O5  UNL     1      82.296  52.740 109.417  1.00  0.00    -0.347 OA
HETATM    7  C8  UNL     1      83.674  53.063 109.449  1.00  0.00     0.198 C 
HETATM    8  C9  UNL     1      83.757  53.989 108.255  1.00  0.00     0.198 C 
HETATM    9  O6  UNL     1      82.905  53.363 107.357  1.00  0.00    -0.347 OA
ENDROOT
BRANCH   1  10
HETATM   10  O1  UNL     1      80.626  54.442 107.469  1.00  0.00    -0.371 OA
BRANCH  10  11
HETATM   11  C2  UNL     1      80.326  55.344 108.435  1.00  0.00     0.114 C 
HETATM   12  C1  UNL     1      78.919  54.988 108.945  1.00  0.00     0.039 C 
HETATM   13  C3  UNL     1      80.299  56.773 108.040  1.00  0.00     0.039 C 
ENDBRANCH  10  11
ENDBRANCH   1  10
BRANCH   2  14
HETATM   14  O2  UNL     1      80.018  52.917 105.421  1.00  0.00    -0.368 OA
ATOM     15  H2  UNL     1      79.169  52.755 105.027  1.00  0.00     0.212 HD
ENDBRANCH   2  14
BRANCH   4  16
HETATM   16  O4  UNL     1      83.286  50.883 107.254  1.00  0.00    -0.366 OA
ATOM     17  H4  UNL     1      83.877  51.132 107.955  1.00  0.00     0.212 HD
ENDBRANCH   4  16
TORSDOF 4
ENDMDL
MODEL 4
REMARK VINA RESULT: -4.808482054      1.527      3.386
REMARK  4 active torsions:
REMARK  status: ('A' for Active; 'I' for Inactive)
REMARK    1  A    between atoms: C2_2  and  O1_4 
REMARK    2  A    between atoms: O1_4  and  C4_5 
REMARK    3  A    between atoms: C5_6  and  O2_7 
REMARK    4  A    between atoms: C6_10  and  O4_11 
ROOT
HETATM    1  C4  UNL     1      81.501  53.839 105.697  1.00  0.00     0.244 C 
HETATM    2  C5  UNL     1      81.414  53.161 104.356  1.00  0.00     0.294 C 
HETATM    3  O3  UNL     1      81.345  51.810 104.553  1.00  0.00    -0.323 OA
HETATM    4  C6  UNL     1      80.947  51.541 105.837  1.00  0.00     0.326 C 
HETATM    5  C7  UNL     1      81.598  52.647 106.627  1.00  0.00     0.246 C 
HETATM    6  O5  UNL     1      81.010  52.853 107.855  1.00  0.00    -0.347 OA
HETATM    7  C8  UNL     1      81.810  52.145 108.784  1.00  0.00     0.198 C 
HETATM    8  C9  UNL     1      83.182  52.392 108.196  1.00  0.00     0.198 C 
HETATM    9  O6  UNL     1      82.924  52.300 106.836  1.00  0.00    -0.347 OA
ENDROOT
BRANCH   1  10
HETATM   10  O1  UNL     1      82.590  54.614 105.885  1.00  0.00    -0.371 OA
BRANCH  10  11
HETATM   11  C2  UNL     1      82.428  55.954 106.008  1.00  0.00     0.114 C 
HETATM   12  C1  UNL     1      81.664  56.183 107.325  1.00  0.00     0.039 C 
HETATM   13  C3  UNL     1      81.670  56.644 104.938  1.00  0.00     0.039 C 
ENDBRANCH  10  11
ENDBRANCH   1  10
BRANCH   2  14
HETATM   14  O2  UNL     1      82.517  53.429 103.544  1.00  0.00    -0.368 OA
ATOM     15  H2  UNL     1      82.315  54.031 102.836  1.00  0.00     0.212 HD
ENDBRANCH   2  14
BRANCH   4  16
HETATM   16  O4  UNL     1      81.478  50.325 106.275  1.00  0.00    -0.366 OA
ATOM     17  H4  UNL     1      80.785  49.699 106.452  1.00  0.00     0.212 HD
ENDBRANCH   4  16
TORSDOF 4
ENDMDL
MODEL 5
REMARK VINA RESULT: -4.723171443      1.526      2.257
REMARK  4 active torsions:
REMARK  status: ('A' for Active; 'I' for Inactive)
REMARK    1  A    between atoms: C2_2  and  O1_4 
REMARK    2  A    between atoms: O1_4  and  C4_5 
REMARK    3  A    between atoms: C5_6  and  O2_7 
REMARK    4  A    between atoms: C6_10  and  O4_11 
ROOT
HETATM    1  C4  UNL     1      81.845  53.164 106.399  1.00  0.00     0.244 C 
HETATM    2  C5  UNL     1      81.088  52.898 105.126  1.00  0.00     0.294 C 
HETATM    3  O3  UNL     1      80.937  54.078 104.452  1.00  0.00    -0.323 OA
HETATM    4  C6  UNL     1      81.853  54.995 104.897  1.00  0.00     0.326 C 
HETATM    5  C7  UNL     1      81.960  54.674 106.366  1.00  0.00     0.246 C 
HETATM    6  O5  UNL     1      83.115  55.155 106.942  1.00  0.00    -0.347 OA
HETATM    7  C8  UNL     1      82.755  56.378 107.556  1.00  0.00     0.198 C 
HETATM    8  C9  UNL     1      81.371  56.025 108.058  1.00  0.00     0.198 C 
HETATM    9  O6  UNL     1      80.882  55.259 107.011  1.00  0.00    -0.347 OA
ENDROOT
BRANCH   1  10
HETATM   10  O1  UNL     1      81.208  52.812 107.536  1.00  0.00    -0.371 OA
BRANCH  10  11
HETATM   11  C2  UNL     1      81.844  52.007 108.421  1.00  0.00     0.114 C 
HETATM   12  C1  UNL     1      82.054  52.840 109.698  1.00  0.00     0.039 C 
HETATM   13  C3  UNL     1      83.169  51.477 108.022  1.00  0.00     0.039 C 
ENDBRANCH  10  11
ENDBRANCH   1  10
BRANCH   2  14
HETATM   14  O2  UNL     1      79.821  52.359 105.354  1.00  0.00    -0.368 OA
ATOM     15  H2  UNL     1      79.793  51.418 105.224  1.00  0.00     0.212 HD
ENDBRANCH   2  14
BRANCH   4  16
HETATM   16  O4  UNL     1      81.355  56.294 104.772  1.00  0.00    -0.366 OA
ATOM     17  H4  UNL     1      81.395  56.585 103.869  1.00  0.00     0.212 HD
ENDBRANCH   4  16
TORSDOF 4
ENDMDL
