MODEL 1
REMARK VINA RESULT: -3.773987220      0.000      0.000
REMARK  1 active torsions:
REMARK  status: ('A' for Active; 'I' for Inactive)
REMARK    1  A    between atoms: C3_3  and  O1_6 
ROOT
HETATM    1  C1  UNL     1       9.233  -2.436  16.701  1.00  0.00     0.015 C 
HETATM    2  C2  UNL     1       9.507  -1.438  17.342  1.00  0.00    -0.080 C 
HETATM    3  C3  UNL     1       9.858  -0.245  18.121  1.00  0.00     0.115 C 
HETATM    4  C4  UNL     1       8.863  -0.115  19.229  1.00  0.00     0.060 C 
HETATM    5  C5  UNL     1       9.786   0.981  17.240  1.00  0.00     0.060 C 
ENDROOT
BRANCH   3   6
HETATM    6  O1  UNL     1      11.163  -0.400  18.544  1.00  0.00    -0.373 OA
HETATM    7  C6  UNL     1      12.080   0.329  17.814  1.00  0.00     0.204 C 
ENDBRANCH   3   6
TORSDOF 1
ENDMDL
MODEL 2
REMARK VINA RESULT: -3.710890068      6.498      7.489
REMARK  1 active torsions:
REMARK  status: ('A' for Active; 'I' for Inactive)
REMARK    1  A    between atoms: C3_3  and  O1_6 
ROOT
HETATM    1  C1  UNL     1      12.199  -3.900  14.148  1.00  0.00     0.015 C 
HETATM    2  C2  UNL     1      12.482  -3.667  12.987  1.00  0.00    -0.080 C 
HETATM    3  C3  UNL     1      12.848  -3.389  11.594  1.00  0.00     0.115 C 
HETATM    4  C4  UNL     1      12.338  -2.025  11.253  1.00  0.00     0.060 C 
HETATM    5  C5  UNL     1      12.199  -4.405  10.682  1.00  0.00     0.060 C 
ENDROOT
BRANCH   3   6
HETATM    6  O1  UNL     1      14.218  -3.525  11.492  1.00  0.00    -0.373 OA
HETATM    7  C6  UNL     1      14.901  -2.326  11.493  1.00  0.00     0.204 C 
ENDBRANCH   3   6
TORSDOF 1
ENDMDL
MODEL 3
REMARK VINA RESULT: -3.695219476      6.172      7.257
REMARK  1 active torsions:
REMARK  status: ('A' for Active; 'I' for Inactive)
REMARK    1  A    between atoms: C3_3  and  O1_6 
ROOT
HETATM    1  C1  UNL     1      12.170  -2.402  14.454  1.00  0.00     0.015 C 
HETATM    2  C2  UNL     1      12.420  -2.955  13.398  1.00  0.00    -0.080 C 
HETATM    3  C3  UNL     1      12.744  -3.619  12.131  1.00  0.00     0.115 C 
HETATM    4  C4  UNL     1      12.172  -2.793  11.024  1.00  0.00     0.060 C 
HETATM    5  C5  UNL     1      12.119  -4.995  12.100  1.00  0.00     0.060 C 
ENDROOT
BRANCH   3   6
HETATM    6  O1  UNL     1      14.116  -3.764  12.082  1.00  0.00    -0.373 OA
HETATM    7  C6  UNL     1      14.760  -2.767  11.376  1.00  0.00     0.204 C 
ENDBRANCH   3   6
TORSDOF 1
ENDMDL
MODEL 4
REMARK VINA RESULT: -3.681245200      6.169      7.186
REMARK  1 active torsions:
REMARK  status: ('A' for Active; 'I' for Inactive)
REMARK    1  A    between atoms: C3_3  and  O1_6 
ROOT
HETATM    1  C1  UNL     1      11.937  -2.013  10.781  1.00  0.00     0.015 C 
HETATM    2  C2  UNL     1      12.335  -2.841  11.580  1.00  0.00    -0.080 C 
HETATM    3  C3  UNL     1      12.838  -3.835  12.533  1.00  0.00     0.115 C 
HETATM    4  C4  UNL     1      12.143  -5.129  12.251  1.00  0.00     0.060 C 
HETATM    5  C5  UNL     1      12.521  -3.397  13.945  1.00  0.00     0.060 C 
ENDROOT
BRANCH   3   6
HETATM    6  O1  UNL     1      14.211  -3.885  12.391  1.00  0.00    -0.373 OA
HETATM    7  C6  UNL     1      14.869  -2.798  12.930  1.00  0.00     0.204 C 
ENDBRANCH   3   6
TORSDOF 1
ENDMDL
MODEL 5
REMARK VINA RESULT: -3.648048914      0.683      2.037
REMARK  1 active torsions:
REMARK  status: ('A' for Active; 'I' for Inactive)
REMARK    1  A    between atoms: C3_3  and  O1_6 
ROOT
HETATM    1  C1  UNL     1       9.281  -2.475  16.469  1.00  0.00     0.015 C 
HETATM    2  C2  UNL     1       9.758  -1.536  17.081  1.00  0.00    -0.080 C 
HETATM    3  C3  UNL     1      10.321  -0.414  17.839  1.00  0.00     0.115 C 
HETATM    4  C4  UNL     1       9.850   0.852  17.196  1.00  0.00     0.060 C 
HETATM    5  C5  UNL     1      11.830  -0.466  17.787  1.00  0.00     0.060 C 
ENDROOT
BRANCH   3   6
HETATM    6  O1  UNL     1       9.925  -0.565  19.153  1.00  0.00    -0.373 OA
HETATM    7  C6  UNL     1       8.733   0.062  19.455  1.00  0.00     0.204 C 
ENDBRANCH   3   6
TORSDOF 1
ENDMDL
