MODEL 1
REMARK VINA RESULT: -4.274835294      0.000      0.000
REMARK  0 active torsions:
REMARK  status: ('A' for Active; 'I' for Inactive)
ROOT
HETATM    1  C1  UNL     1      11.905  -1.984  11.132  1.00  0.00     0.025 C 
HETATM    2  C2  UNL     1      12.835  -3.085  11.545  1.00  0.00     0.003 A 
HETATM    3  C3  UNL     1      14.271  -2.818  11.258  1.00  0.00     0.025 C 
HETATM    4  C4  UNL     1      12.698  -3.239  13.031  1.00  0.00     0.004 A 
HETATM    5  C5  UNL     1      12.290  -4.468  13.213  1.00  0.00     0.084 A 
HETATM    6  N1  UNL     1      12.138  -5.155  12.004  1.00  0.00    -0.378 N 
ATOM      7  H1  UNL     1      11.830  -6.124  11.920  1.00  0.00     0.164 HD
HETATM    8  C6  UNL     1      12.442  -4.394  11.014  1.00  0.00     0.073 A 
ENDROOT
TORSDOF 0
ENDMDL
MODEL 2
REMARK VINA RESULT: -4.210135651      1.329      2.009
REMARK  0 active torsions:
REMARK  status: ('A' for Active; 'I' for Inactive)
ROOT
HETATM    1  C1  UNL     1      12.224  -4.293  10.573  1.00  0.00     0.025 C 
HETATM    2  C2  UNL     1      12.733  -3.363  11.633  1.00  0.00     0.003 A 
HETATM    3  C3  UNL     1      12.053  -2.039  11.668  1.00  0.00     0.025 C 
HETATM    4  C4  UNL     1      12.482  -4.028  12.954  1.00  0.00     0.004 A 
HETATM    5  C5  UNL     1      13.663  -4.167  13.499  1.00  0.00     0.084 A 
HETATM    6  N1  UNL     1      14.680  -3.664  12.681  1.00  0.00    -0.378 N 
ATOM      7  H1  UNL     1      15.673  -3.672  12.916  1.00  0.00     0.164 HD
HETATM    8  C6  UNL     1      14.188  -3.190  11.593  1.00  0.00     0.073 A 
ENDROOT
TORSDOF 0
ENDMDL
MODEL 3
REMARK VINA RESULT: -4.143247590      0.798      1.998
REMARK  0 active torsions:
REMARK  status: ('A' for Active; 'I' for Inactive)
ROOT
HETATM    1  C1  UNL     1      14.269  -2.916  11.489  1.00  0.00     0.025 C 
HETATM    2  C2  UNL     1      12.838  -3.125  11.885  1.00  0.00     0.003 A 
HETATM    3  C3  UNL     1      11.918  -2.030  11.471  1.00  0.00     0.025 C 
HETATM    4  C4  UNL     1      12.375  -4.379  11.205  1.00  0.00     0.004 A 
HETATM    5  C5  UNL     1      12.028  -5.187  12.172  1.00  0.00     0.084 A 
HETATM    6  N1  UNL     1      12.210  -4.607  13.431  1.00  0.00    -0.378 N 
ATOM      7  H1  UNL     1      12.002  -5.065  14.319  1.00  0.00     0.164 HD
HETATM    8  C6  UNL     1      12.677  -3.416  13.313  1.00  0.00     0.073 A 
ENDROOT
TORSDOF 0
ENDMDL
MODEL 4
REMARK VINA RESULT: -3.911824393      0.844      2.259
REMARK  0 active torsions:
REMARK  status: ('A' for Active; 'I' for Inactive)
ROOT
HETATM    1  C1  UNL     1      14.427  -3.108  13.158  1.00  0.00     0.025 C 
HETATM    2  C2  UNL     1      12.985  -3.231  12.767  1.00  0.00     0.003 A 
HETATM    3  C3  UNL     1      12.096  -2.194  13.359  1.00  0.00     0.025 C 
HETATM    4  C4  UNL     1      12.921  -3.076  11.276  1.00  0.00     0.004 A 
HETATM    5  C5  UNL     1      12.409  -4.195  10.835  1.00  0.00     0.084 A 
HETATM    6  N1  UNL     1      12.122  -5.086  11.874  1.00  0.00    -0.378 N 
ATOM      7  H1  UNL     1      11.718  -6.014  11.749  1.00  0.00     0.164 HD
HETATM    8  C6  UNL     1      12.439  -4.571  13.008  1.00  0.00     0.073 A 
ENDROOT
TORSDOF 0
ENDMDL
MODEL 5
REMARK VINA RESULT: -3.882395805      1.756      2.893
REMARK  0 active torsions:
REMARK  status: ('A' for Active; 'I' for Inactive)
ROOT
HETATM    1  C1  UNL     1      12.416  -4.107  10.712  1.00  0.00     0.025 C 
HETATM    2  C2  UNL     1      12.862  -3.134  11.761  1.00  0.00     0.003 A 
HETATM    3  C3  UNL     1      12.403  -3.461  13.140  1.00  0.00     0.025 C 
HETATM    4  C4  UNL     1      14.362  -3.160  11.772  1.00  0.00     0.004 A 
HETATM    5  C5  UNL     1      14.730  -1.940  11.483  1.00  0.00     0.084 A 
HETATM    6  N1  UNL     1      13.633  -1.096  11.278  1.00  0.00    -0.378 N 
ATOM      7  H1  UNL     1      13.697  -0.105  11.043  1.00  0.00     0.164 HD
HETATM    8  C6  UNL     1      12.534  -1.744  11.429  1.00  0.00     0.073 A 
ENDROOT
TORSDOF 0
ENDMDL
