MODEL 1
REMARK VINA RESULT: -8.146711450      0.000      0.000
REMARK  3 active torsions:
REMARK  status: ('A' for Active; 'I' for Inactive)
REMARK    1  A    between atoms: C6_6  and  N1_7 
REMARK       I    between atoms: N1_7  and  C7_9 
REMARK    2  A    between atoms: C7_9  and  C8_11 
REMARK       I    between atoms: C8_11  and  N2_13 
REMARK    3  A    between atoms: C14_19  and  C15_20 
ROOT
HETATM    1  N1  UNL     1       8.428   9.155  44.463  1.00  0.00    -0.343 N 
ATOM      2  H1  UNL     1       8.891   8.675  45.235  1.00  0.00     0.163 HD
HETATM    3  C7  UNL     1       8.790   8.814  43.126  1.00  0.00     0.310 C 
HETATM    4  O1  UNL     1       8.196   9.430  42.222  1.00  0.00    -0.262 OA
ENDROOT
BRANCH   3   5
HETATM    5  C8  UNL     1       9.787   7.813  42.834  1.00  0.00     0.312 C 
HETATM    6  O2  UNL     1      10.979   8.290  42.642  1.00  0.00    -0.262 OA
HETATM    7  N2  UNL     1       9.684   6.431  42.725  1.00  0.00    -0.331 N 
HETATM    8  C9  UNL     1       8.385   5.828  42.908  1.00  0.00     0.127 C 
HETATM    9  C14 UNL     1      10.863   5.649  42.382  1.00  0.00     0.176 C 
HETATM   10  C10 UNL     1       7.727   5.679  41.554  1.00  0.00     0.020 C 
HETATM   11  C11 UNL     1       8.624   6.042  40.398  1.00  0.00     0.002 C 
HETATM   12  C12 UNL     1       9.842   5.212  40.232  1.00  0.00     0.002 C 
HETATM   13  C13 UNL     1      11.082   5.824  40.884  1.00  0.00     0.035 C 
BRANCH   9  14
HETATM   14  C15 UNL     1      12.020   5.801  43.225  1.00  0.00     0.254 C 
HETATM   15  N3  UNL     1      11.894   5.804  44.652  1.00  0.00    -0.060 NA
HETATM   16  O3  UNL     1      13.209   5.934  42.766  1.00  0.00    -0.275 OA
ENDBRANCH   9  14
ENDBRANCH   3   5
BRANCH   1  17
HETATM   17  C6  UNL     1       7.468  10.119  44.753  1.00  0.00     0.037 C 
HETATM   18  C2  UNL     1       7.676  11.491  44.130  1.00  0.00     0.014 C 
HETATM   19  C1  UNL     1       8.922  12.161  44.577  1.00  0.00     0.012 C 
HETATM   20  C3  UNL     1       6.417  12.127  44.716  1.00  0.00    -0.008 C 
HETATM   21  C4  UNL     1       5.374  11.190  44.108  1.00  0.00     0.007 C 
HETATM   22  C17 UNL     1       6.542  11.766  46.158  1.00  0.00     0.007 C 
HETATM   23  C5  UNL     1       6.044   9.829  44.342  1.00  0.00     0.032 C 
HETATM   24  C16 UNL     1       7.400  10.515  46.218  1.00  0.00     0.032 C 
ENDBRANCH   1  17
TORSDOF 3
ENDMDL
MODEL 2
REMARK VINA RESULT: -7.928037922      1.395      1.681
REMARK  3 active torsions:
REMARK  status: ('A' for Active; 'I' for Inactive)
REMARK    1  A    between atoms: C6_6  and  N1_7 
REMARK       I    between atoms: N1_7  and  C7_9 
REMARK    2  A    between atoms: C7_9  and  C8_11 
REMARK       I    between atoms: C8_11  and  N2_13 
REMARK    3  A    between atoms: C14_19  and  C15_20 
ROOT
HETATM    1  N1  UNL     1       7.074   9.706  44.004  1.00  0.00    -0.343 N 
ATOM      2  H1  UNL     1       6.981   9.079  44.803  1.00  0.00     0.163 HD
HETATM    3  C7  UNL     1       8.120   9.470  43.063  1.00  0.00     0.310 C 
HETATM    4  O1  UNL     1       8.189  10.264  42.107  1.00  0.00    -0.262 OA
ENDROOT
BRANCH   3   5
HETATM    5  C8  UNL     1       9.046   8.372  43.207  1.00  0.00     0.312 C 
HETATM    6  O2  UNL     1      10.157   8.688  43.799  1.00  0.00    -0.262 OA
HETATM    7  N2  UNL     1       8.947   7.041  42.819  1.00  0.00    -0.331 N 
HETATM    8  C9  UNL     1       7.746   6.617  42.138  1.00  0.00     0.127 C 
HETATM    9  C14 UNL     1      10.063   6.139  43.062  1.00  0.00     0.176 C 
HETATM   10  C10 UNL     1       7.977   6.718  40.646  1.00  0.00     0.020 C 
HETATM   11  C11 UNL     1       9.394   7.074  40.272  1.00  0.00     0.002 C 
HETATM   12  C12 UNL     1      10.438   6.098  40.671  1.00  0.00     0.002 C 
HETATM   13  C13 UNL     1      11.111   6.446  41.999  1.00  0.00     0.035 C 
BRANCH   9  14
HETATM   14  C15 UNL     1      10.533   6.025  44.417  1.00  0.00     0.254 C 
HETATM   15  N3  UNL     1       9.621   5.766  45.492  1.00  0.00    -0.060 NA
HETATM   16  O3  UNL     1      11.767   6.140  44.743  1.00  0.00    -0.275 OA
ENDBRANCH   9  14
ENDBRANCH   3   5
BRANCH   1  17
HETATM   17  C6  UNL     1       6.177  10.761  43.872  1.00  0.00     0.037 C 
HETATM   18  C2  UNL     1       6.757  12.163  43.997  1.00  0.00     0.014 C 
HETATM   19  C1  UNL     1       7.356  12.439  45.325  1.00  0.00     0.012 C 
HETATM   20  C3  UNL     1       5.439  12.903  43.775  1.00  0.00    -0.008 C 
HETATM   21  C4  UNL     1       5.098  12.365  42.385  1.00  0.00     0.007 C 
HETATM   22  C17 UNL     1       4.541  12.212  44.744  1.00  0.00     0.007 C 
HETATM   23  C5  UNL     1       5.424  10.877  42.568  1.00  0.00     0.032 C 
HETATM   24  C16 UNL     1       5.122  10.827  44.964  1.00  0.00     0.032 C 
ENDBRANCH   1  17
TORSDOF 3
ENDMDL
MODEL 3
REMARK VINA RESULT: -7.882076657      0.523      1.481
REMARK  3 active torsions:
REMARK  status: ('A' for Active; 'I' for Inactive)
REMARK    1  A    between atoms: C6_6  and  N1_7 
REMARK       I    between atoms: N1_7  and  C7_9 
REMARK    2  A    between atoms: C7_9  and  C8_11 
REMARK       I    between atoms: C8_11  and  N2_13 
REMARK    3  A    between atoms: C14_19  and  C15_20 
ROOT
HETATM    1  N1  UNL     1       8.608   9.204  44.541  1.00  0.00    -0.343 N 
ATOM      2  H1  UNL     1       9.003   8.637  45.292  1.00  0.00     0.163 HD
HETATM    3  C7  UNL     1       9.004   8.934  43.196  1.00  0.00     0.310 C 
HETATM    4  O1  UNL     1       8.494   9.654  42.319  1.00  0.00    -0.262 OA
ENDROOT
BRANCH   3   5
HETATM    5  C8  UNL     1       9.941   7.887  42.870  1.00  0.00     0.312 C 
HETATM    6  O2  UNL     1      11.146   8.306  42.635  1.00  0.00    -0.262 OA
HETATM    7  N2  UNL     1       9.768   6.511  42.765  1.00  0.00    -0.331 N 
HETATM    8  C9  UNL     1       8.449   5.970  42.995  1.00  0.00     0.127 C 
HETATM    9  C14 UNL     1      10.896   5.675  42.380  1.00  0.00     0.176 C 
HETATM   10  C10 UNL     1       7.737   5.855  41.665  1.00  0.00     0.020 C 
HETATM   11  C11 UNL     1       8.608   6.177  40.478  1.00  0.00     0.002 C 
HETATM   12  C12 UNL     1       9.778   5.290  40.268  1.00  0.00     0.002 C 
HETATM   13  C13 UNL     1      11.069   5.841  40.876  1.00  0.00     0.035 C 
BRANCH   9  14
HETATM   14  C15 UNL     1      12.088   5.770  43.181  1.00  0.00     0.254 C 
HETATM   15  N3  UNL     1      12.018   5.721  44.612  1.00  0.00    -0.060 NA
HETATM   16  O3  UNL     1      13.260   5.895  42.680  1.00  0.00    -0.275 OA
ENDBRANCH   9  14
ENDBRANCH   3   5
BRANCH   1  17
HETATM   17  C6  UNL     1       7.705  10.211  44.865  1.00  0.00     0.037 C 
HETATM   18  C2  UNL     1       7.423  10.419  46.345  1.00  0.00     0.014 C 
HETATM   19  C1  UNL     1       6.809   9.238  47.001  1.00  0.00     0.012 C 
HETATM   20  C3  UNL     1       6.442  11.574  46.163  1.00  0.00    -0.008 C 
HETATM   21  C4  UNL     1       7.366  12.556  45.442  1.00  0.00     0.007 C 
HETATM   22  C17 UNL     1       5.511  11.017  45.140  1.00  0.00     0.007 C 
HETATM   23  C5  UNL     1       8.049  11.619  44.438  1.00  0.00     0.032 C 
HETATM   24  C16 UNL     1       6.290   9.966  44.370  1.00  0.00     0.032 C 
ENDBRANCH   1  17
TORSDOF 3
ENDMDL
MODEL 4
REMARK VINA RESULT: -7.863519467      1.019      1.820
REMARK  3 active torsions:
REMARK  status: ('A' for Active; 'I' for Inactive)
REMARK    1  A    between atoms: C6_6  and  N1_7 
REMARK       I    between atoms: N1_7  and  C7_9 
REMARK    2  A    between atoms: C7_9  and  C8_11 
REMARK       I    between atoms: C8_11  and  N2_13 
REMARK    3  A    between atoms: C14_19  and  C15_20 
ROOT
HETATM    1  N1  UNL     1       8.342   9.607  43.195  1.00  0.00    -0.343 N 
ATOM      2  H1  UNL     1       8.372   9.522  42.179  1.00  0.00     0.163 HD
HETATM    3  C7  UNL     1       9.181   8.762  43.981  1.00  0.00     0.310 C 
HETATM    4  O1  UNL     1       9.105   8.906  45.215  1.00  0.00    -0.262 OA
ENDROOT
BRANCH   3   5
HETATM    5  C8  UNL     1      10.069   7.795  43.382  1.00  0.00     0.312 C 
HETATM    6  O2  UNL     1      11.238   8.267  43.074  1.00  0.00    -0.262 OA
HETATM    7  N2  UNL     1       9.882   6.450  43.082  1.00  0.00    -0.331 N 
HETATM    8  C9  UNL     1       8.599   5.858  43.381  1.00  0.00     0.127 C 
HETATM    9  C14 UNL     1      10.953   5.704  42.437  1.00  0.00     0.176 C 
HETATM   10  C10 UNL     1       7.730   5.942  42.144  1.00  0.00     0.020 C 
HETATM   11  C11 UNL     1       8.452   6.461  40.927  1.00  0.00     0.002 C 
HETATM   12  C12 UNL     1       9.586   5.638  40.441  1.00  0.00     0.002 C 
HETATM   13  C13 UNL     1      10.942   6.108  40.968  1.00  0.00     0.035 C 
BRANCH   9  14
HETATM   14  C15 UNL     1      12.233   5.692  43.094  1.00  0.00     0.254 C 
HETATM   15  N3  UNL     1      12.337   5.422  44.498  1.00  0.00    -0.060 NA
HETATM   16  O3  UNL     1      13.337   5.911  42.481  1.00  0.00    -0.275 OA
ENDBRANCH   9  14
ENDBRANCH   3   5
BRANCH   1  17
HETATM   17  C6  UNL     1       7.483  10.541  43.764  1.00  0.00     0.037 C 
HETATM   18  C2  UNL     1       6.597  10.046  44.897  1.00  0.00     0.014 C 
HETATM   19  C1  UNL     1       5.653   8.978  44.486  1.00  0.00     0.012 C 
HETATM   20  C3  UNL     1       5.905  11.383  45.157  1.00  0.00    -0.008 C 
HETATM   21  C4  UNL     1       7.136  12.223  45.495  1.00  0.00     0.007 C 
HETATM   22  C17 UNL     1       5.474  11.769  43.783  1.00  0.00     0.007 C 
HETATM   23  C5  UNL     1       8.105  11.763  44.398  1.00  0.00     0.032 C 
HETATM   24  C16 UNL     1       6.415  11.067  42.820  1.00  0.00     0.032 C 
ENDBRANCH   1  17
TORSDOF 3
ENDMDL
MODEL 5
REMARK VINA RESULT: -7.780255042      1.421      2.144
REMARK  3 active torsions:
REMARK  status: ('A' for Active; 'I' for Inactive)
REMARK    1  A    between atoms: C6_6  and  N1_7 
REMARK       I    between atoms: N1_7  and  C7_9 
REMARK    2  A    between atoms: C7_9  and  C8_11 
REMARK       I    between atoms: C8_11  and  N2_13 
REMARK    3  A    between atoms: C14_19  and  C15_20 
ROOT
HETATM    1  N1  UNL     1       7.806  10.549  43.568  1.00  0.00    -0.343 N 
ATOM      2  H1  UNL     1       7.816  10.544  42.548  1.00  0.00     0.163 HD
HETATM    3  C7  UNL     1       8.648   9.633  44.267  1.00  0.00     0.310 C 
HETATM    4  O1  UNL     1       8.598   9.680  45.510  1.00  0.00    -0.262 OA
ENDROOT
BRANCH   3   5
HETATM    5  C8  UNL     1       9.509   8.703  43.577  1.00  0.00     0.312 C 
HETATM    6  O2  UNL     1      10.705   9.154  43.350  1.00  0.00    -0.262 OA
HETATM    7  N2  UNL     1       9.271   7.414  43.115  1.00  0.00    -0.331 N 
HETATM    8  C9  UNL     1       7.957   6.849  43.315  1.00  0.00     0.127 C 
HETATM    9  C14 UNL     1      10.325   6.700  42.408  1.00  0.00     0.176 C 
HETATM   10  C10 UNL     1       7.125   7.118  42.080  1.00  0.00     0.020 C 
HETATM   11  C11 UNL     1       7.899   7.743  40.948  1.00  0.00     0.002 C 
HETATM   12  C12 UNL     1       9.009   6.932  40.390  1.00  0.00     0.002 C 
HETATM   13  C13 UNL     1      10.370   7.274  40.998  1.00  0.00     0.035 C 
BRANCH   9  14
HETATM   14  C15 UNL     1      11.587   6.553  43.085  1.00  0.00     0.254 C 
HETATM   15  N3  UNL     1      11.644   6.100  44.443  1.00  0.00    -0.060 NA
HETATM   16  O3  UNL     1      12.714   6.804  42.529  1.00  0.00    -0.275 OA
ENDBRANCH   9  14
ENDBRANCH   3   5
BRANCH   1  17
HETATM   17  C6  UNL     1       6.974  11.448  44.226  1.00  0.00     0.037 C 
HETATM   18  C2  UNL     1       5.818  10.849  45.014  1.00  0.00     0.014 C 
HETATM   19  C1  UNL     1       4.852  10.103  44.172  1.00  0.00     0.012 C 
HETATM   20  C3  UNL     1       5.262  12.179  45.520  1.00  0.00    -0.008 C 
HETATM   21  C4  UNL     1       6.493  12.677  46.277  1.00  0.00     0.007 C 
HETATM   22  C17 UNL     1       5.175  12.967  44.257  1.00  0.00     0.007 C 
HETATM   23  C5  UNL     1       7.601  12.342  45.270  1.00  0.00     0.032 C 
HETATM   24  C16 UNL     1       6.198  12.373  43.304  1.00  0.00     0.032 C 
ENDBRANCH   1  17
TORSDOF 3
ENDMDL
