MODEL 1
REMARK VINA RESULT: -4.295002217      0.000      0.000
REMARK  10 active torsions:
REMARK  status: ('A' for Active; 'I' for Inactive)
REMARK    1  A    between atoms: C2_2  and  C3_3 
REMARK    2  A    between atoms: C2_2  and  C9_13 
REMARK    3  A    between atoms: C3_3  and  C4_4 
REMARK    4  A    between atoms: C4_4  and  C5_5 
REMARK    5  A    between atoms: C5_5  and  C6_6 
REMARK    6  A    between atoms: C6_6  and  C7_7 
REMARK    7  A    between atoms: C7_7  and  C8_8 
REMARK    8  A    between atoms: C8_8  and  N1_9 
REMARK    9  A    between atoms: C9_13  and  C10_14 
REMARK   10  A    between atoms: C10_14  and  C11_15 
ROOT
HETATM    1  C4  UNL     1     -31.061 -23.402 -38.475  1.00  0.00     0.000 C 
ENDROOT
BRANCH   1   2
HETATM    2  C3  UNL     1     -30.311 -24.586 -37.943  1.00  0.00     0.004 C 
BRANCH   2   3
HETATM    3  C2  UNL     1     -30.274 -25.747 -38.885  1.00  0.00    -0.019 C 
HETATM    4  C1  UNL     1     -28.826 -25.955 -39.302  1.00  0.00     0.010 C 
BRANCH   3   5
HETATM    5  C9  UNL     1     -30.715 -27.027 -38.207  1.00  0.00     0.004 C 
BRANCH   5   6
HETATM    6  C10 UNL     1     -31.659 -26.655 -37.079  1.00  0.00     0.005 C 
BRANCH   6   7
HETATM    7  C11 UNL     1     -33.081 -27.049 -37.391  1.00  0.00    -0.014 A 
HETATM    8  C12 UNL     1     -33.719 -26.684 -38.662  1.00  0.00     0.005 A 
HETATM    9  C13 UNL     1     -34.067 -25.903 -37.430  1.00  0.00     0.005 A 
ENDBRANCH   6   7
ENDBRANCH   5   6
ENDBRANCH   3   5
ENDBRANCH   2   3
ENDBRANCH   1   2
BRANCH   1  10
HETATM   10  C5  UNL     1     -31.695 -23.652 -39.809  1.00  0.00     0.000 C 
BRANCH  10  11
HETATM   11  C6  UNL     1     -31.071 -22.778 -40.886  1.00  0.00     0.002 C 
BRANCH  11  12
HETATM   12  C7  UNL     1     -30.965 -23.516 -42.199  1.00  0.00     0.027 C 
BRANCH  12  13
HETATM   13  C8  UNL     1     -29.518 -23.968 -42.332  1.00  0.00     0.229 C 
BRANCH  13  14
HETATM   14  N1  UNL     1     -29.094 -23.556 -43.675  1.00  0.00    -0.079 N 
ATOM     15  H13 UNL     1     -29.859 -23.218 -44.258  1.00  0.00     0.274 HD
ATOM     16  H12 UNL     1     -28.545 -22.696 -43.684  1.00  0.00     0.274 HD
ATOM     17  H11 UNL     1     -28.604 -24.358 -44.069  1.00  0.00     0.274 HD
ENDBRANCH  13  14
ENDBRANCH  12  13
ENDBRANCH  11  12
ENDBRANCH  10  11
ENDBRANCH   1  10
TORSDOF 10
ENDMDL
MODEL 2
REMARK VINA RESULT: -4.196634805      1.152      1.549
REMARK  10 active torsions:
REMARK  status: ('A' for Active; 'I' for Inactive)
REMARK    1  A    between atoms: C2_2  and  C3_3 
REMARK    2  A    between atoms: C2_2  and  C9_13 
REMARK    3  A    between atoms: C3_3  and  C4_4 
REMARK    4  A    between atoms: C4_4  and  C5_5 
REMARK    5  A    between atoms: C5_5  and  C6_6 
REMARK    6  A    between atoms: C6_6  and  C7_7 
REMARK    7  A    between atoms: C7_7  and  C8_8 
REMARK    8  A    between atoms: C8_8  and  N1_9 
REMARK    9  A    between atoms: C9_13  and  C10_14 
REMARK   10  A    between atoms: C10_14  and  C11_15 
ROOT
HETATM    1  C4  UNL     1     -31.020 -23.455 -38.020  1.00  0.00     0.000 C 
ENDROOT
BRANCH   1   2
HETATM    2  C3  UNL     1     -30.294 -24.723 -37.685  1.00  0.00     0.004 C 
BRANCH   2   3
HETATM    3  C2  UNL     1     -30.472 -25.805 -38.702  1.00  0.00    -0.019 C 
HETATM    4  C1  UNL     1     -29.134 -26.007 -39.397  1.00  0.00     0.010 C 
BRANCH   3   5
HETATM    5  C9  UNL     1     -30.823 -27.127 -38.051  1.00  0.00     0.004 C 
BRANCH   5   6
HETATM    6  C10 UNL     1     -32.247 -27.027 -37.535  1.00  0.00     0.005 C 
BRANCH   6   7
HETATM    7  C11 UNL     1     -32.334 -27.384 -36.072  1.00  0.00    -0.014 A 
HETATM    8  C12 UNL     1     -33.612 -27.364 -35.352  1.00  0.00     0.005 A 
HETATM    9  C13 UNL     1     -32.654 -26.228 -35.152  1.00  0.00     0.005 A 
ENDBRANCH   6   7
ENDBRANCH   5   6
ENDBRANCH   3   5
ENDBRANCH   2   3
ENDBRANCH   1   2
BRANCH   1  10
HETATM   10  C5  UNL     1     -32.084 -23.638 -39.059  1.00  0.00     0.000 C 
BRANCH  10  11
HETATM   11  C6  UNL     1     -31.910 -22.651 -40.203  1.00  0.00     0.002 C 
BRANCH  11  12
HETATM   12  C7  UNL     1     -30.975 -23.193 -41.257  1.00  0.00     0.027 C 
BRANCH  12  13
HETATM   13  C8  UNL     1     -31.727 -23.138 -42.580  1.00  0.00     0.229 C 
BRANCH  13  14
HETATM   14  N1  UNL     1     -30.742 -23.478 -43.612  1.00  0.00    -0.079 N 
ATOM     15  H13 UNL     1     -30.305 -24.390 -43.476  1.00  0.00     0.274 HD
ATOM     16  H12 UNL     1     -31.156 -23.677 -44.523  1.00  0.00     0.274 HD
ATOM     17  H11 UNL     1     -30.077 -22.706 -43.625  1.00  0.00     0.274 HD
ENDBRANCH  13  14
ENDBRANCH  12  13
ENDBRANCH  11  12
ENDBRANCH  10  11
ENDBRANCH   1  10
TORSDOF 10
ENDMDL
MODEL 3
REMARK VINA RESULT: -4.123988056      1.770      3.437
REMARK  10 active torsions:
REMARK  status: ('A' for Active; 'I' for Inactive)
REMARK    1  A    between atoms: C2_2  and  C3_3 
REMARK    2  A    between atoms: C2_2  and  C9_13 
REMARK    3  A    between atoms: C3_3  and  C4_4 
REMARK    4  A    between atoms: C4_4  and  C5_5 
REMARK    5  A    between atoms: C5_5  and  C6_6 
REMARK    6  A    between atoms: C6_6  and  C7_7 
REMARK    7  A    between atoms: C7_7  and  C8_8 
REMARK    8  A    between atoms: C8_8  and  N1_9 
REMARK    9  A    between atoms: C9_13  and  C10_14 
REMARK   10  A    between atoms: C10_14  and  C11_15 
ROOT
HETATM    1  C4  UNL     1     -34.004 -24.354 -38.659  1.00  0.00     0.000 C 
ENDROOT
BRANCH   1   2
HETATM    2  C3  UNL     1     -33.772 -24.947 -37.302  1.00  0.00     0.004 C 
BRANCH   2   3
HETATM    3  C2  UNL     1     -33.750 -26.442 -37.295  1.00  0.00    -0.019 C 
HETATM    4  C1  UNL     1     -33.923 -26.912 -38.732  1.00  0.00     0.010 C 
BRANCH   3   5
HETATM    5  C9  UNL     1     -32.414 -26.977 -36.825  1.00  0.00     0.004 C 
BRANCH   5   6
HETATM    6  C10 UNL     1     -31.538 -27.180 -38.047  1.00  0.00     0.005 C 
BRANCH   6   7
HETATM    7  C11 UNL     1     -30.191 -26.521 -37.881  1.00  0.00    -0.014 A 
HETATM    8  C12 UNL     1     -30.062 -25.070 -37.708  1.00  0.00     0.005 A 
HETATM    9  C13 UNL     1     -29.751 -25.667 -39.048  1.00  0.00     0.005 A 
ENDBRANCH   6   7
ENDBRANCH   5   6
ENDBRANCH   3   5
ENDBRANCH   2   3
ENDBRANCH   1   2
BRANCH   1  10
HETATM   10  C5  UNL     1     -33.009 -23.294 -39.021  1.00  0.00     0.000 C 
BRANCH  10  11
HETATM   11  C6  UNL     1     -32.492 -23.487 -40.439  1.00  0.00     0.002 C 
BRANCH  11  12
HETATM   12  C7  UNL     1     -31.202 -22.734 -40.659  1.00  0.00     0.027 C 
BRANCH  12  13
HETATM   13  C8  UNL     1     -31.164 -21.617 -39.625  1.00  0.00     0.229 C 
BRANCH  13  14
HETATM   14  N1  UNL     1     -30.879 -20.389 -40.376  1.00  0.00    -0.079 N 
ATOM     15  H13 UNL     1     -30.522 -20.559 -41.316  1.00  0.00     0.274 HD
ATOM     16  H12 UNL     1     -31.715 -19.876 -40.654  1.00  0.00     0.274 HD
ATOM     17  H11 UNL     1     -30.244 -19.848 -39.790  1.00  0.00     0.274 HD
ENDBRANCH  13  14
ENDBRANCH  12  13
ENDBRANCH  11  12
ENDBRANCH  10  11
ENDBRANCH   1  10
TORSDOF 10
ENDMDL
MODEL 4
REMARK VINA RESULT: -4.108162548      1.776      2.113
REMARK  10 active torsions:
REMARK  status: ('A' for Active; 'I' for Inactive)
REMARK    1  A    between atoms: C2_2  and  C3_3 
REMARK    2  A    between atoms: C2_2  and  C9_13 
REMARK    3  A    between atoms: C3_3  and  C4_4 
REMARK    4  A    between atoms: C4_4  and  C5_5 
REMARK    5  A    between atoms: C5_5  and  C6_6 
REMARK    6  A    between atoms: C6_6  and  C7_7 
REMARK    7  A    between atoms: C7_7  and  C8_8 
REMARK    8  A    between atoms: C8_8  and  N1_9 
REMARK    9  A    between atoms: C9_13  and  C10_14 
REMARK   10  A    between atoms: C10_14  and  C11_15 
ROOT
HETATM    1  C4  UNL     1     -31.117 -23.400 -38.260  1.00  0.00     0.000 C 
ENDROOT
BRANCH   1   2
HETATM    2  C3  UNL     1     -30.343 -24.610 -37.832  1.00  0.00     0.004 C 
BRANCH   2   3
HETATM    3  C2  UNL     1     -30.360 -25.720 -38.835  1.00  0.00    -0.019 C 
HETATM    4  C1  UNL     1     -28.935 -25.914 -39.331  1.00  0.00     0.010 C 
BRANCH   3   5
HETATM    5  C9  UNL     1     -30.780 -27.032 -38.205  1.00  0.00     0.004 C 
BRANCH   5   6
HETATM    6  C10 UNL     1     -31.701 -26.716 -37.042  1.00  0.00     0.005 C 
BRANCH   6   7
HETATM    7  C11 UNL     1     -33.126 -27.116 -37.336  1.00  0.00    -0.014 A 
HETATM    8  C12 UNL     1     -33.773 -26.771 -38.607  1.00  0.00     0.005 A 
HETATM    9  C13 UNL     1     -34.112 -25.971 -37.385  1.00  0.00     0.005 A 
ENDBRANCH   6   7
ENDBRANCH   5   6
ENDBRANCH   3   5
ENDBRANCH   2   3
ENDBRANCH   1   2
BRANCH   1  10
HETATM   10  C5  UNL     1     -31.969 -23.638 -39.470  1.00  0.00     0.000 C 
BRANCH  10  11
HETATM   11  C6  UNL     1     -31.576 -22.709 -40.609  1.00  0.00     0.002 C 
BRANCH  11  12
HETATM   12  C7  UNL     1     -30.993 -21.417 -40.087  1.00  0.00     0.027 C 
BRANCH  12  13
HETATM   13  C8  UNL     1     -31.858 -20.292 -40.638  1.00  0.00     0.229 C 
BRANCH  13  14
HETATM   14  N1  UNL     1     -30.958 -19.146 -40.809  1.00  0.00    -0.079 N 
ATOM     15  H13 UNL     1     -30.642 -19.015 -41.770  1.00  0.00     0.274 HD
ATOM     16  H12 UNL     1     -31.422 -18.243 -40.710  1.00  0.00     0.274 HD
ATOM     17  H11 UNL     1     -30.198 -19.290 -40.146  1.00  0.00     0.274 HD
ENDBRANCH  13  14
ENDBRANCH  12  13
ENDBRANCH  11  12
ENDBRANCH  10  11
ENDBRANCH   1  10
TORSDOF 10
ENDMDL
MODEL 5
REMARK VINA RESULT: -4.066561313      1.981      2.450
REMARK  10 active torsions:
REMARK  status: ('A' for Active; 'I' for Inactive)
REMARK    1  A    between atoms: C2_2  and  C3_3 
REMARK    2  A    between atoms: C2_2  and  C9_13 
REMARK    3  A    between atoms: C3_3  and  C4_4 
REMARK    4  A    between atoms: C4_4  and  C5_5 
REMARK    5  A    between atoms: C5_5  and  C6_6 
REMARK    6  A    between atoms: C6_6  and  C7_7 
REMARK    7  A    between atoms: C7_7  and  C8_8 
REMARK    8  A    between atoms: C8_8  and  N1_9 
REMARK    9  A    between atoms: C9_13  and  C10_14 
REMARK   10  A    between atoms: C10_14  and  C11_15 
ROOT
HETATM    1  C4  UNL     1     -31.194 -23.438 -38.127  1.00  0.00     0.000 C 
ENDROOT
BRANCH   1   2
HETATM    2  C3  UNL     1     -30.371 -24.638 -37.769  1.00  0.00     0.004 C 
BRANCH   2   3
HETATM    3  C2  UNL     1     -30.476 -25.755 -38.759  1.00  0.00    -0.019 C 
HETATM    4  C1  UNL     1     -29.111 -25.922 -39.411  1.00  0.00     0.010 C 
BRANCH   3   5
HETATM    5  C9  UNL     1     -30.793 -27.072 -38.080  1.00  0.00     0.004 C 
BRANCH   5   6
HETATM    6  C10 UNL     1     -32.220 -27.001 -37.571  1.00  0.00     0.005 C 
BRANCH   6   7
HETATM    7  C11 UNL     1     -32.308 -27.367 -36.110  1.00  0.00    -0.014 A 
HETATM    8  C12 UNL     1     -33.590 -27.374 -35.396  1.00  0.00     0.005 A 
HETATM    9  C13 UNL     1     -32.653 -26.222 -35.185  1.00  0.00     0.005 A 
ENDBRANCH   6   7
ENDBRANCH   5   6
ENDBRANCH   3   5
ENDBRANCH   2   3
ENDBRANCH   1   2
BRANCH   1  10
HETATM   10  C5  UNL     1     -32.091 -23.663 -39.305  1.00  0.00     0.000 C 
BRANCH  10  11
HETATM   11  C6  UNL     1     -31.711 -22.757 -40.467  1.00  0.00     0.002 C 
BRANCH  11  12
HETATM   12  C7  UNL     1     -31.064 -21.483 -39.979  1.00  0.00     0.027 C 
BRANCH  12  13
HETATM   13  C8  UNL     1     -31.901 -20.332 -40.519  1.00  0.00     0.229 C 
BRANCH  13  14
HETATM   14  N1  UNL     1     -30.950 -19.255 -40.819  1.00  0.00    -0.079 N 
ATOM     15  H13 UNL     1     -30.951 -18.970 -41.798  1.00  0.00     0.274 HD
ATOM     16  H12 UNL     1     -31.220 -18.352 -40.429  1.00  0.00     0.274 HD
ATOM     17  H11 UNL     1     -30.044 -19.587 -40.491  1.00  0.00     0.274 HD
ENDBRANCH  13  14
ENDBRANCH  12  13
ENDBRANCH  11  12
ENDBRANCH  10  11
ENDBRANCH   1  10
TORSDOF 10
ENDMDL
