MODEL 1
REMARK VINA RESULT: -6.209840197      0.000      0.000
REMARK  5 active torsions:
REMARK  status: ('A' for Active; 'I' for Inactive)
REMARK    1  A    between atoms: N1_1  and  C1_5 
REMARK    2  A    between atoms: C4_8  and  N2_9 
REMARK    3  A    between atoms: N2_9  and  C5_11 
REMARK    4  A    between atoms: C5_11  and  C6_12 
REMARK    5  A    between atoms: C6_12  and  N3_13 
ROOT
HETATM    1  N2  UNL     1      19.724  15.127  18.141  1.00  0.00    -0.412 N 
ATOM      2  H2  UNL     1      19.752  15.166  19.159  1.00  0.00     0.153 HD
ENDROOT
BRANCH   1   3
HETATM    3  C4  UNL     1      20.560  15.930  17.336  1.00  0.00     0.107 C 
HETATM    4  C1  UNL     1      21.877  16.379  17.993  1.00  0.00     0.205 C 
HETATM    5  C2  UNL     1      21.785  17.575  17.067  1.00  0.00     0.037 C 
HETATM    6  C3  UNL     1      20.262  17.387  17.180  1.00  0.00     0.029 C 
BRANCH   4   7
HETATM    7  N1  UNL     1      22.889  15.415  17.721  1.00  0.00    -0.073 N 
ATOM      8  H13 UNL     1      22.709  14.983  16.814  1.00  0.00     0.274 HD
ATOM      9  H12 UNL     1      23.770  15.894  17.532  1.00  0.00     0.274 HD
ATOM     10  H11 UNL     1      23.044  14.685  18.417  1.00  0.00     0.274 HD
ENDBRANCH   4   7
ENDBRANCH   1   3
BRANCH   1  11
HETATM   11  C5  UNL     1      18.837  14.256  17.440  1.00  0.00     0.152 C 
BRANCH  11  12
HETATM   12  C6  UNL     1      17.851  13.706  18.477  1.00  0.00     0.112 A 
HETATM   13  C7  UNL     1      16.419  14.070  18.363  1.00  0.00     0.042 A 
HETATM   14  C8  UNL     1      16.878  12.663  18.044  1.00  0.00     0.042 A 
BRANCH  12  15
HETATM   15  N3  UNL     1      18.386  13.735  19.813  1.00  0.00    -0.143 N 
HETATM   16  O1  UNL     1      17.958  14.568  20.620  1.00  0.00    -0.536 OA
HETATM   17  O2  UNL     1      19.357  12.853  20.180  1.00  0.00    -0.536 OA
ENDBRANCH  12  15
ENDBRANCH  11  12
ENDBRANCH   1  11
TORSDOF 5
ENDMDL
MODEL 2
REMARK VINA RESULT: -5.966449087      1.604      1.855
REMARK  5 active torsions:
REMARK  status: ('A' for Active; 'I' for Inactive)
REMARK    1  A    between atoms: N1_1  and  C1_5 
REMARK    2  A    between atoms: C4_8  and  N2_9 
REMARK    3  A    between atoms: N2_9  and  C5_11 
REMARK    4  A    between atoms: C5_11  and  C6_12 
REMARK    5  A    between atoms: C6_12  and  N3_13 
ROOT
HETATM    1  N2  UNL     1      19.743  15.100  18.356  1.00  0.00    -0.412 N 
ATOM      2  H2  UNL     1      20.112  14.989  19.300  1.00  0.00     0.153 HD
ENDROOT
BRANCH   1   3
HETATM    3  C4  UNL     1      20.384  15.908  17.392  1.00  0.00     0.107 C 
HETATM    4  C1  UNL     1      21.774  16.433  17.787  1.00  0.00     0.205 C 
HETATM    5  C2  UNL     1      21.462  17.591  16.860  1.00  0.00     0.037 C 
HETATM    6  C3  UNL     1      19.994  17.345  17.251  1.00  0.00     0.029 C 
BRANCH   4   7
HETATM    7  N1  UNL     1      22.765  15.502  17.363  1.00  0.00    -0.073 N 
ATOM      8  H13 UNL     1      22.464  15.061  16.495  1.00  0.00     0.274 HD
ATOM      9  H12 UNL     1      23.590  16.010  17.043  1.00  0.00     0.274 HD
ATOM     10  H11 UNL     1      23.048  14.782  18.028  1.00  0.00     0.274 HD
ENDBRANCH   4   7
ENDBRANCH   1   3
BRANCH   1  11
HETATM   11  C5  UNL     1      18.548  14.450  17.928  1.00  0.00     0.152 C 
BRANCH  11  12
HETATM   12  C6  UNL     1      17.904  13.846  19.181  1.00  0.00     0.112 A 
HETATM   13  C7  UNL     1      18.768  13.509  20.336  1.00  0.00     0.042 A 
HETATM   14  C8  UNL     1      17.821  14.687  20.409  1.00  0.00     0.042 A 
BRANCH  12  15
HETATM   15  N3  UNL     1      16.896  12.869  18.863  1.00  0.00    -0.143 N 
HETATM   16  O1  UNL     1      15.811  13.242  18.403  1.00  0.00    -0.536 OA
HETATM   17  O2  UNL     1      17.139  11.544  19.069  1.00  0.00    -0.536 OA
ENDBRANCH  12  15
ENDBRANCH  11  12
ENDBRANCH   1  11
TORSDOF 5
ENDMDL
MODEL 3
REMARK VINA RESULT: -5.844188596      1.356      1.723
REMARK  5 active torsions:
REMARK  status: ('A' for Active; 'I' for Inactive)
REMARK    1  A    between atoms: N1_1  and  C1_5 
REMARK    2  A    between atoms: C4_8  and  N2_9 
REMARK    3  A    between atoms: N2_9  and  C5_11 
REMARK    4  A    between atoms: C5_11  and  C6_12 
REMARK    5  A    between atoms: C6_12  and  N3_13 
ROOT
HETATM    1  N2  UNL     1      19.729  15.175  17.497  1.00  0.00    -0.412 N 
ATOM      2  H2  UNL     1      19.878  14.514  16.734  1.00  0.00     0.153 HD
ENDROOT
BRANCH   1   3
HETATM    3  C4  UNL     1      20.692  16.146  17.845  1.00  0.00     0.107 C 
HETATM    4  C1  UNL     1      20.874  17.290  16.834  1.00  0.00     0.205 C 
HETATM    5  C2  UNL     1      22.290  17.371  17.370  1.00  0.00     0.037 C 
HETATM    6  C3  UNL     1      22.145  15.861  17.629  1.00  0.00     0.029 C 
BRANCH   4   7
HETATM    7  N1  UNL     1      19.986  18.353  17.163  1.00  0.00    -0.073 N 
ATOM      8  H13 UNL     1      19.682  18.817  16.307  1.00  0.00     0.274 HD
ATOM      9  H12 UNL     1      19.102  17.965  17.494  1.00  0.00     0.274 HD
ATOM     10  H11 UNL     1      20.317  19.054  17.827  1.00  0.00     0.274 HD
ENDBRANCH   4   7
ENDBRANCH   1   3
BRANCH   1  11
HETATM   11  C5  UNL     1      18.535  15.174  18.277  1.00  0.00     0.152 C 
BRANCH  11  12
HETATM   12  C6  UNL     1      18.002  13.738  18.264  1.00  0.00     0.112 A 
HETATM   13  C7  UNL     1      16.746  13.450  17.532  1.00  0.00     0.042 A 
HETATM   14  C8  UNL     1      18.074  12.968  16.989  1.00  0.00     0.042 A 
BRANCH  12  15
HETATM   15  N3  UNL     1      18.127  13.094  19.545  1.00  0.00    -0.143 N 
HETATM   16  O1  UNL     1      17.121  12.625  20.089  1.00  0.00    -0.536 OA
HETATM   17  O2  UNL     1      19.343  13.006  20.151  1.00  0.00    -0.536 OA
ENDBRANCH  12  15
ENDBRANCH  11  12
ENDBRANCH   1  11
TORSDOF 5
ENDMDL
MODEL 4
REMARK VINA RESULT: -5.709744277      1.911      2.256
REMARK  5 active torsions:
REMARK  status: ('A' for Active; 'I' for Inactive)
REMARK    1  A    between atoms: N1_1  and  C1_5 
REMARK    2  A    between atoms: C4_8  and  N2_9 
REMARK    3  A    between atoms: N2_9  and  C5_11 
REMARK    4  A    between atoms: C5_11  and  C6_12 
REMARK    5  A    between atoms: C6_12  and  N3_13 
ROOT
HETATM    1  N2  UNL     1      19.829  15.240  18.219  1.00  0.00    -0.412 N 
ATOM      2  H2  UNL     1      20.053  14.379  18.718  1.00  0.00     0.153 HD
ENDROOT
BRANCH   1   3
HETATM    3  C4  UNL     1      20.780  15.916  17.426  1.00  0.00     0.107 C 
HETATM    4  C1  UNL     1      22.080  16.313  18.147  1.00  0.00     0.205 C 
HETATM    5  C2  UNL     1      22.148  17.441  17.136  1.00  0.00     0.037 C 
HETATM    6  C3  UNL     1      20.611  17.376  17.148  1.00  0.00     0.029 C 
BRANCH   4   7
HETATM    7  N1  UNL     1      23.028  15.258  18.019  1.00  0.00    -0.073 N 
ATOM      8  H13 UNL     1      23.633  15.443  17.218  1.00  0.00     0.274 HD
ATOM      9  H12 UNL     1      23.702  15.314  18.783  1.00  0.00     0.274 HD
ATOM     10  H11 UNL     1      22.667  14.306  17.956  1.00  0.00     0.274 HD
ENDBRANCH   4   7
ENDBRANCH   1   3
BRANCH   1  11
HETATM   11  C5  UNL     1      18.533  15.834  18.279  1.00  0.00     0.152 C 
BRANCH  11  12
HETATM   12  C6  UNL     1      17.650  14.884  19.095  1.00  0.00     0.112 A 
HETATM   13  C7  UNL     1      18.167  13.533  19.420  1.00  0.00     0.042 A 
HETATM   14  C8  UNL     1      18.043  14.585  20.502  1.00  0.00     0.042 A 
BRANCH  12  15
HETATM   15  N3  UNL     1      16.271  14.930  18.687  1.00  0.00    -0.143 N 
HETATM   16  O1  UNL     1      15.715  13.894  18.306  1.00  0.00    -0.536 OA
HETATM   17  O2  UNL     1      15.588  16.108  18.720  1.00  0.00    -0.536 OA
ENDBRANCH  12  15
ENDBRANCH  11  12
ENDBRANCH   1  11
TORSDOF 5
ENDMDL
MODEL 5
REMARK VINA RESULT: -5.705439907      2.048      2.533
REMARK  5 active torsions:
REMARK  status: ('A' for Active; 'I' for Inactive)
REMARK    1  A    between atoms: N1_1  and  C1_5 
REMARK    2  A    between atoms: C4_8  and  N2_9 
REMARK    3  A    between atoms: N2_9  and  C5_11 
REMARK    4  A    between atoms: C5_11  and  C6_12 
REMARK    5  A    between atoms: C6_12  and  N3_13 
ROOT
HETATM    1  N2  UNL     1      20.779  15.403  18.515  1.00  0.00    -0.412 N 
ATOM      2  H2  UNL     1      20.743  14.878  19.389  1.00  0.00     0.153 HD
ENDROOT
BRANCH   1   3
HETATM    3  C4  UNL     1      21.928  16.122  18.121  1.00  0.00     0.107 C 
HETATM    4  C1  UNL     1      21.692  17.223  17.073  1.00  0.00     0.205 C 
HETATM    5  C2  UNL     1      23.130  16.968  16.665  1.00  0.00     0.037 C 
HETATM    6  C3  UNL     1      22.873  15.523  17.128  1.00  0.00     0.029 C 
BRANCH   4   7
HETATM    7  N1  UNL     1      21.406  18.450  17.737  1.00  0.00    -0.073 N 
ATOM      8  H13 UNL     1      21.961  18.508  18.591  1.00  0.00     0.274 HD
ATOM      9  H12 UNL     1      21.799  19.224  17.201  1.00  0.00     0.274 HD
ATOM     10  H11 UNL     1      20.430  18.650  17.954  1.00  0.00     0.274 HD
ENDBRANCH   4   7
ENDBRANCH   1   3
BRANCH   1  11
HETATM   11  C5  UNL     1      19.673  15.457  17.617  1.00  0.00     0.152 C 
BRANCH  11  12
HETATM   12  C6  UNL     1      18.584  14.553  18.205  1.00  0.00     0.112 A 
HETATM   13  C7  UNL     1      18.529  14.366  19.674  1.00  0.00     0.042 A 
HETATM   14  C8  UNL     1      17.473  15.189  18.969  1.00  0.00     0.042 A 
BRANCH  12  15
HETATM   15  N3  UNL     1      18.382  13.359  17.427  1.00  0.00    -0.143 N 
HETATM   16  O1  UNL     1      18.315  12.265  17.999  1.00  0.00    -0.536 OA
HETATM   17  O2  UNL     1      18.269  13.437  16.072  1.00  0.00    -0.536 OA
ENDBRANCH  12  15
ENDBRANCH  11  12
ENDBRANCH   1  11
TORSDOF 5
ENDMDL
