MODEL 1
REMARK VINA RESULT: -7.758775173      0.000      0.000
REMARK  4 active torsions:
REMARK  status: ('A' for Active; 'I' for Inactive)
REMARK    1  A    between atoms: C4_9  and  C5_10 
REMARK    2  A    between atoms: C5_10  and  C6_11 
REMARK    3  A    between atoms: C12_18  and  C13_19 
REMARK    4  A    between atoms: C13_19  and  C14_20 
ROOT
HETATM    1  C1  UNL     1      -0.069  17.610  38.996  1.00  0.00     0.032 C 
HETATM    2  C2  UNL     1       1.366  17.727  39.358  1.00  0.00     0.085 C 
HETATM    3  N1  UNL     1       2.264  16.891  38.597  1.00  0.00    -0.363 N 
ATOM      4  H1  UNL     1       2.959  17.265  37.951  1.00  0.00     0.162 HD
HETATM    5  C3  UNL     1       2.088  15.486  38.831  1.00  0.00     0.168 C 
HETATM    6  S1  UNL     1       2.759  14.342  37.869  1.00  0.00    -0.041 SA
HETATM    7  N2  UNL     1       1.289  15.147  39.953  1.00  0.00    -0.362 N 
ATOM      8  H2  UNL     1       0.677  14.331  39.925  1.00  0.00     0.162 HD
HETATM    9  C4  UNL     1       1.357  15.975  41.136  1.00  0.00     0.093 C 
HETATM   10  C12 UNL     1       1.632  17.435  40.859  1.00  0.00     0.031 C 
ENDROOT
BRANCH   9  11
HETATM   11  C5  UNL     1       0.077  15.786  41.934  1.00  0.00     0.053 C 
BRANCH  11  12
HETATM   12  C6  UNL     1       0.060  14.428  42.536  1.00  0.00    -0.019 C 
HETATM   13  C7  UNL     1       0.855  14.058  43.523  1.00  0.00    -0.050 C 
HETATM   14  C8  UNL     1       0.910  12.710  44.195  1.00  0.00     0.037 C 
HETATM   15  C11 UNL     1       1.889  14.858  44.219  1.00  0.00     0.199 C 
HETATM   16  C9  UNL     1       2.390  12.485  44.317  1.00  0.00     0.007 C 
HETATM   17  C10 UNL     1       3.018  13.859  44.410  1.00  0.00     0.042 C 
HETATM   18  F1  UNL     1       1.403  15.151  45.487  1.00  0.00    -0.245 F 
ENDBRANCH  11  12
ENDBRANCH   9  11
BRANCH  10  19
HETATM   19  C13 UNL     1       3.070  17.748  41.036  1.00  0.00     0.013 C 
BRANCH  19  20
HETATM   20  C14 UNL     1       3.707  17.649  42.349  1.00  0.00    -0.014 A 
HETATM   21  C15 UNL     1       4.234  19.035  42.857  1.00  0.00     0.005 A 
HETATM   22  C16 UNL     1       3.318  18.140  43.651  1.00  0.00     0.005 A 
ENDBRANCH  19  20
ENDBRANCH  10  19
TORSDOF 4
ENDMDL
MODEL 2
REMARK VINA RESULT: -7.713517754      3.205      5.361
REMARK  4 active torsions:
REMARK  status: ('A' for Active; 'I' for Inactive)
REMARK    1  A    between atoms: C4_9  and  C5_10 
REMARK    2  A    between atoms: C5_10  and  C6_11 
REMARK    3  A    between atoms: C12_18  and  C13_19 
REMARK    4  A    between atoms: C13_19  and  C14_20 
ROOT
HETATM    1  C1  UNL     1       2.754  13.310  43.661  1.00  0.00     0.032 C 
HETATM    2  C2  UNL     1       2.853  14.721  44.110  1.00  0.00     0.085 C 
HETATM    3  N1  UNL     1       2.238  15.007  45.385  1.00  0.00    -0.363 N 
ATOM      4  H1  UNL     1       2.771  15.280  46.210  1.00  0.00     0.162 HD
HETATM    5  C3  UNL     1       0.809  14.872  45.385  1.00  0.00     0.168 C 
HETATM    6  S1  UNL     1      -0.072  14.836  46.765  1.00  0.00    -0.041 SA
HETATM    7  N2  UNL     1       0.204  14.769  44.106  1.00  0.00    -0.362 N 
ATOM      8  H2  UNL     1      -0.613  14.174  43.966  1.00  0.00     0.162 HD
HETATM    9  C4  UNL     1       0.762  15.521  43.005  1.00  0.00     0.093 C 
HETATM   10  C12 UNL     1       2.257  15.721  43.082  1.00  0.00     0.031 C 
ENDROOT
BRANCH   9  11
HETATM   11  C5  UNL     1       0.351  14.851  41.703  1.00  0.00     0.053 C 
BRANCH  11  12
HETATM   12  C6  UNL     1       1.299  15.229  40.624  1.00  0.00    -0.019 C 
HETATM   13  C7  UNL     1       1.128  16.275  39.837  1.00  0.00    -0.050 C 
HETATM   14  C8  UNL     1       2.031  16.736  38.721  1.00  0.00     0.037 C 
HETATM   15  C11 UNL     1       0.019  17.257  39.841  1.00  0.00     0.199 C 
HETATM   16  C9  UNL     1       1.042  17.086  37.647  1.00  0.00     0.007 C 
HETATM   17  C10 UNL     1      -0.228  17.495  38.361  1.00  0.00     0.042 C 
HETATM   18  F1  UNL     1       0.522  18.447  40.354  1.00  0.00    -0.245 F 
ENDBRANCH  11  12
ENDBRANCH   9  11
BRANCH  10  19
HETATM   19  C13 UNL     1       2.588  17.052  43.644  1.00  0.00     0.013 C 
BRANCH  19  20
HETATM   20  C14 UNL     1       2.885  18.187  42.770  1.00  0.00    -0.014 A 
HETATM   21  C15 UNL     1       4.261  18.855  43.116  1.00  0.00     0.005 A 
HETATM   22  C16 UNL     1       3.879  18.377  41.739  1.00  0.00     0.005 A 
ENDBRANCH  19  20
ENDBRANCH  10  19
TORSDOF 4
ENDMDL
MODEL 3
REMARK VINA RESULT: -6.816546310      3.377      6.154
REMARK  4 active torsions:
REMARK  status: ('A' for Active; 'I' for Inactive)
REMARK    1  A    between atoms: C4_9  and  C5_10 
REMARK    2  A    between atoms: C5_10  and  C6_11 
REMARK    3  A    between atoms: C12_18  and  C13_19 
REMARK    4  A    between atoms: C13_19  and  C14_20 
ROOT
HETATM    1  C1  UNL     1       0.147  13.882  42.823  1.00  0.00     0.032 C 
HETATM    2  C2  UNL     1       1.084  13.254  43.787  1.00  0.00     0.085 C 
HETATM    3  N1  UNL     1       0.707  13.366  45.176  1.00  0.00    -0.363 N 
ATOM      4  H1  UNL     1       0.443  12.564  45.748  1.00  0.00     0.162 HD
HETATM    5  C3  UNL     1       0.736  14.710  45.680  1.00  0.00     0.168 C 
HETATM    6  S1  UNL     1       0.058  15.130  47.111  1.00  0.00    -0.041 SA
HETATM    7  N2  UNL     1       1.390  15.660  44.854  1.00  0.00    -0.362 N 
ATOM      8  H2  UNL     1       1.046  16.618  44.793  1.00  0.00     0.162 HD
HETATM    9  C4  UNL     1       2.553  15.248  44.099  1.00  0.00     0.093 C 
HETATM   10  C12 UNL     1       2.531  13.802  43.662  1.00  0.00     0.031 C 
ENDROOT
BRANCH   9  11
HETATM   11  C5  UNL     1       2.724  16.191  42.919  1.00  0.00     0.053 C 
BRANCH  11  12
HETATM   12  C6  UNL     1       1.417  16.805  42.576  1.00  0.00    -0.019 C 
HETATM   13  C7  UNL     1       0.923  16.833  41.352  1.00  0.00    -0.050 C 
HETATM   14  C8  UNL     1      -0.389  17.431  40.909  1.00  0.00     0.037 C 
HETATM   15  C11 UNL     1       1.518  16.293  40.108  1.00  0.00     0.199 C 
HETATM   16  C9  UNL     1       0.003  18.130  39.639  1.00  0.00     0.007 C 
HETATM   17  C10 UNL     1       1.179  17.358  39.079  1.00  0.00     0.042 C 
HETATM   18  F1  UNL     1       0.792  15.160  39.759  1.00  0.00    -0.245 F 
ENDBRANCH  11  12
ENDBRANCH   9  11
BRANCH  10  19
HETATM   19  C13 UNL     1       3.318  12.954  44.587  1.00  0.00     0.013 C 
BRANCH  19  20
HETATM   20  C14 UNL     1       3.806  11.638  44.173  1.00  0.00    -0.014 A 
HETATM   21  C15 UNL     1       3.992  10.667  45.390  1.00  0.00     0.005 A 
HETATM   22  C16 UNL     1       3.182  10.335  44.163  1.00  0.00     0.005 A 
ENDBRANCH  19  20
ENDBRANCH  10  19
TORSDOF 4
ENDMDL
MODEL 4
REMARK VINA RESULT: -6.685935024      1.636      1.842
REMARK  4 active torsions:
REMARK  status: ('A' for Active; 'I' for Inactive)
REMARK    1  A    between atoms: C4_9  and  C5_10 
REMARK    2  A    between atoms: C5_10  and  C6_11 
REMARK    3  A    between atoms: C12_18  and  C13_19 
REMARK    4  A    between atoms: C13_19  and  C14_20 
ROOT
HETATM    1  C1  UNL     1      -1.241  17.451  41.003  1.00  0.00     0.032 C 
HETATM    2  C2  UNL     1       0.122  17.986  40.765  1.00  0.00     0.085 C 
HETATM    3  N1  UNL     1       0.390  18.412  39.412  1.00  0.00    -0.363 N 
ATOM      4  H1  UNL     1       0.556  19.385  39.157  1.00  0.00     0.162 HD
HETATM    5  C3  UNL     1       0.401  17.340  38.457  1.00  0.00     0.168 C 
HETATM    6  S1  UNL     1       0.370  17.599  36.840  1.00  0.00    -0.041 SA
HETATM    7  N2  UNL     1       0.439  16.032  39.005  1.00  0.00    -0.362 N 
ATOM      8  H2  UNL     1      -0.060  15.266  38.553  1.00  0.00     0.162 HD
HETATM    9  C4  UNL     1       1.196  15.802  40.215  1.00  0.00     0.093 C 
HETATM   10  C12 UNL     1       1.239  16.982  41.157  1.00  0.00     0.031 C 
ENDROOT
BRANCH   9  11
HETATM   11  C5  UNL     1       0.653  14.556  40.897  1.00  0.00     0.053 C 
BRANCH  11  12
HETATM   12  C6  UNL     1       0.355  14.855  42.321  1.00  0.00    -0.019 C 
HETATM   13  C7  UNL     1       1.107  14.444  43.325  1.00  0.00    -0.050 C 
HETATM   14  C8  UNL     1       0.886  14.697  44.795  1.00  0.00     0.037 C 
HETATM   15  C11 UNL     1       2.348  13.637  43.275  1.00  0.00     0.199 C 
HETATM   16  C9  UNL     1       1.193  13.353  45.390  1.00  0.00     0.007 C 
HETATM   17  C10 UNL     1       2.190  12.698  44.459  1.00  0.00     0.042 C 
HETATM   18  F1  UNL     1       3.406  14.485  43.581  1.00  0.00    -0.245 F 
ENDBRANCH  11  12
ENDBRANCH   9  11
BRANCH  10  19
HETATM   19  C13 UNL     1       2.492  17.754  40.987  1.00  0.00     0.013 C 
BRANCH  19  20
HETATM   20  C14 UNL     1       3.574  17.660  41.968  1.00  0.00    -0.014 A 
HETATM   21  C15 UNL     1       3.903  19.048  42.619  1.00  0.00     0.005 A 
HETATM   22  C16 UNL     1       3.589  17.801  43.406  1.00  0.00     0.005 A 
ENDBRANCH  19  20
ENDBRANCH  10  19
TORSDOF 4
ENDMDL
MODEL 5
REMARK VINA RESULT: -6.516768123      3.329      6.050
REMARK  4 active torsions:
REMARK  status: ('A' for Active; 'I' for Inactive)
REMARK    1  A    between atoms: C4_9  and  C5_10 
REMARK    2  A    between atoms: C5_10  and  C6_11 
REMARK    3  A    between atoms: C12_18  and  C13_19 
REMARK    4  A    between atoms: C13_19  and  C14_20 
ROOT
HETATM    1  C1  UNL     1      -0.083  18.260  40.029  1.00  0.00     0.032 C 
HETATM    2  C2  UNL     1       0.387  17.191  40.945  1.00  0.00     0.085 C 
HETATM    3  N1  UNL     1       1.534  17.532  41.753  1.00  0.00    -0.363 N 
ATOM      4  H1  UNL     1       1.491  17.627  42.768  1.00  0.00     0.162 HD
HETATM    5  C3  UNL     1       2.740  17.726  40.999  1.00  0.00     0.168 C 
HETATM    6  S1  UNL     1       4.080  18.416  41.641  1.00  0.00    -0.041 SA
HETATM    7  N2  UNL     1       2.698  17.283  39.652  1.00  0.00    -0.362 N 
ATOM      8  H2  UNL     1       3.194  17.795  38.922  1.00  0.00     0.162 HD
HETATM    9  C4  UNL     1       1.942  16.093  39.330  1.00  0.00     0.093 C 
HETATM   10  C12 UNL     1       0.729  15.871  40.203  1.00  0.00     0.031 C 
ENDROOT
BRANCH   9  11
HETATM   11  C5  UNL     1       1.575  16.136  37.855  1.00  0.00     0.053 C 
BRANCH  11  12
HETATM   12  C6  UNL     1       0.160  16.561  37.704  1.00  0.00    -0.019 C 
HETATM   13  C7  UNL     1      -0.711  15.935  36.934  1.00  0.00    -0.050 C 
HETATM   14  C8  UNL     1      -2.160  16.290  36.718  1.00  0.00     0.037 C 
HETATM   15  C11 UNL     1      -0.497  14.737  36.090  1.00  0.00     0.199 C 
HETATM   16  C9  UNL     1      -2.304  16.111  35.234  1.00  0.00     0.007 C 
HETATM   17  C10 UNL     1      -1.292  15.059  34.836  1.00  0.00     0.042 C 
HETATM   18  F1  UNL     1      -1.146  13.674  36.707  1.00  0.00    -0.245 F 
ENDBRANCH  11  12
ENDBRANCH   9  11
BRANCH  10  19
HETATM   19  C13 UNL     1       1.025  14.912  41.293  1.00  0.00     0.013 C 
BRANCH  19  20
HETATM   20  C14 UNL     1       0.091  14.720  42.402  1.00  0.00    -0.014 A 
HETATM   21  C15 UNL     1       0.527  13.547  43.347  1.00  0.00     0.005 A 
HETATM   22  C16 UNL     1       0.220  14.944  43.824  1.00  0.00     0.005 A 
ENDBRANCH  19  20
ENDBRANCH  10  19
TORSDOF 4
ENDMDL
