MODEL 1
REMARK VINA RESULT: -8.528737998      0.000      0.000
REMARK  10 active torsions:
REMARK  status: ('A' for Active; 'I' for Inactive)
REMARK    1  A    between atoms: C2_2  and  C3_3 
REMARK    2  A    between atoms: C2_2  and  C20_23 
REMARK    3  A    between atoms: C3_3  and  C4_4 
REMARK    4  A    between atoms: C4_4  and  C5_5 
REMARK    5  A    between atoms: C12_12  and  C14_14 
REMARK    6  A    between atoms: C15_16  and  O2_17 
REMARK    7  A    between atoms: C20_23  and  C21_24 
REMARK    8  A    between atoms: C21_24  and  C22_25 
REMARK    9  A    between atoms: C22_25  and  N1_27 
REMARK   10  A    between atoms: C22_25  and  O3_31 
ROOT
HETATM    1  C5  UNL     1       4.929  30.291   6.219  1.00  0.00    -0.069 C 
HETATM    2  C6  UNL     1       4.417  30.044   7.454  1.00  0.00    -0.081 C 
HETATM    3  C7  UNL     1       3.408  30.941   8.072  1.00  0.00     0.043 C 
HETATM    4  C8  UNL     1       4.822  28.890   8.297  1.00  0.00     0.034 C 
HETATM    5  C9  UNL     1       6.279  28.562   7.873  1.00  0.00     0.010 C 
HETATM    6  C10 UNL     1       6.171  28.223   6.411  1.00  0.00    -0.001 C 
HETATM    7  C11 UNL     1       7.250  27.339   5.906  1.00  0.00     0.024 C 
HETATM    8  C12 UNL     1       8.638  27.782   5.857  1.00  0.00     0.035 C 
HETATM    9  C13 UNL     1       9.318  27.438   4.513  1.00  0.00     0.025 C 
HETATM   10  C15 UNL     1       8.975  29.200   6.179  1.00  0.00     0.133 C 
HETATM   11  C16 UNL     1       8.231  30.268   5.477  1.00  0.00     0.034 C 
HETATM   12  C17 UNL     1       6.993  29.915   4.775  1.00  0.00     0.016 C 
HETATM   13  C18 UNL     1       5.851  29.393   5.523  1.00  0.00    -0.017 C 
HETATM   14  C19 UNL     1       4.934  28.783   4.399  1.00  0.00     0.020 C 
ENDROOT
BRANCH   1  15
HETATM   15  C4  UNL     1       4.348  31.541   5.617  1.00  0.00     0.039 C 
BRANCH  15  16
HETATM   16  C3  UNL     1       3.194  31.294   4.702  1.00  0.00     0.037 C 
BRANCH  16  17
HETATM   17  C2  UNL     1       2.430  32.542   4.432  1.00  0.00    -0.089 C 
HETATM   18  C1  UNL     1       1.932  33.243   5.415  1.00  0.00     0.014 C 
BRANCH  17  19
HETATM   19  C20 UNL     1       2.228  33.001   3.035  1.00  0.00     0.038 C 
BRANCH  19  20
HETATM   20  C21 UNL     1       3.593  33.085   2.382  1.00  0.00     0.072 C 
BRANCH  20  21
HETATM   21  C22 UNL     1       3.678  32.196   1.158  1.00  0.00     0.218 C 
HETATM   22  C23 UNL     1       4.460  32.949   0.107  1.00  0.00     0.078 C 
BRANCH  21  23
HETATM   23  N1  UNL     1       2.359  31.941   0.604  1.00  0.00    -0.048 N 
ATOM     24  H13 UNL     1       1.624  32.362   1.173  1.00  0.00     0.278 HD
ATOM     25  H12 UNL     1       2.207  32.464  -0.259  1.00  0.00     0.278 HD
ATOM     26  H11 UNL     1       2.204  30.943   0.469  1.00  0.00     0.278 HD
ENDBRANCH  21  23
BRANCH  21  27
HETATM   27  O3  UNL     1       4.325  31.005   1.403  1.00  0.00    -0.365 OA
ATOM     28  H3  UNL     1       4.910  30.749   0.699  1.00  0.00     0.212 HD
ENDBRANCH  21  27
ENDBRANCH  20  21
ENDBRANCH  19  20
ENDBRANCH  17  19
ENDBRANCH  16  17
ENDBRANCH  15  16
ENDBRANCH   1  15
BRANCH   8  29
HETATM   29  C14 UNL     1       9.393  26.968   6.861  1.00  0.00     0.243 C 
HETATM   30  O1  UNL     1       9.617  27.366   7.979  1.00  0.00    -0.306 OA
ENDBRANCH   8  29
BRANCH  10  31
HETATM   31  O2  UNL     1      10.355  29.310   5.838  1.00  0.00    -0.394 OA
ATOM     32  H2  UNL     1      10.710  29.885   6.506  1.00  0.00     0.210 HD
ENDBRANCH  10  31
TORSDOF 10
ENDMDL
MODEL 2
REMARK VINA RESULT: -8.483976401      1.121      1.169
REMARK  10 active torsions:
REMARK  status: ('A' for Active; 'I' for Inactive)
REMARK    1  A    between atoms: C2_2  and  C3_3 
REMARK    2  A    between atoms: C2_2  and  C20_23 
REMARK    3  A    between atoms: C3_3  and  C4_4 
REMARK    4  A    between atoms: C4_4  and  C5_5 
REMARK    5  A    between atoms: C12_12  and  C14_14 
REMARK    6  A    between atoms: C15_16  and  O2_17 
REMARK    7  A    between atoms: C20_23  and  C21_24 
REMARK    8  A    between atoms: C21_24  and  C22_25 
REMARK    9  A    between atoms: C22_25  and  N1_27 
REMARK   10  A    between atoms: C22_25  and  O3_31 
ROOT
HETATM    1  C5  UNL     1       4.941  30.391   5.907  1.00  0.00    -0.069 C 
HETATM    2  C6  UNL     1       4.358  30.211   7.121  1.00  0.00    -0.081 C 
HETATM    3  C7  UNL     1       3.322  31.144   7.634  1.00  0.00     0.043 C 
HETATM    4  C8  UNL     1       4.706  29.100   8.044  1.00  0.00     0.034 C 
HETATM    5  C9  UNL     1       6.182  28.743   7.721  1.00  0.00     0.010 C 
HETATM    6  C10 UNL     1       6.155  28.331   6.274  1.00  0.00    -0.001 C 
HETATM    7  C11 UNL     1       7.253  27.416   5.877  1.00  0.00     0.024 C 
HETATM    8  C12 UNL     1       8.646  27.849   5.885  1.00  0.00     0.035 C 
HETATM    9  C13 UNL     1       9.398  27.434   4.601  1.00  0.00     0.025 C 
HETATM   10  C15 UNL     1       8.975  29.281   6.153  1.00  0.00     0.133 C 
HETATM   11  C16 UNL     1       8.280  30.315   5.356  1.00  0.00     0.034 C 
HETATM   12  C17 UNL     1       7.082  29.932   4.604  1.00  0.00     0.016 C 
HETATM   13  C18 UNL     1       5.894  29.455   5.311  1.00  0.00    -0.017 C 
HETATM   14  C19 UNL     1       5.038  28.792   4.169  1.00  0.00     0.020 C 
ENDROOT
BRANCH   1  15
HETATM   15  C4  UNL     1       4.405  31.612   5.210  1.00  0.00     0.039 C 
BRANCH  15  16
HETATM   16  C3  UNL     1       3.521  31.307   4.045  1.00  0.00     0.037 C 
BRANCH  16  17
HETATM   17  C2  UNL     1       2.710  32.489   3.646  1.00  0.00    -0.089 C 
HETATM   18  C1  UNL     1       1.994  33.132   4.529  1.00  0.00     0.014 C 
BRANCH  17  19
HETATM   19  C20 UNL     1       2.709  32.945   2.235  1.00  0.00     0.038 C 
BRANCH  19  20
HETATM   20  C21 UNL     1       4.062  32.603   1.645  1.00  0.00     0.072 C 
BRANCH  20  21
HETATM   21  C22 UNL     1       4.406  33.510   0.481  1.00  0.00     0.218 C 
HETATM   22  C23 UNL     1       3.231  33.489  -0.469  1.00  0.00     0.078 C 
BRANCH  21  23
HETATM   23  N1  UNL     1       5.555  33.007  -0.253  1.00  0.00    -0.048 N 
ATOM     24  H13 UNL     1       5.685  32.006  -0.108  1.00  0.00     0.278 HD
ATOM     25  H12 UNL     1       5.383  32.998  -1.258  1.00  0.00     0.278 HD
ATOM     26  H11 UNL     1       6.397  33.533  -0.022  1.00  0.00     0.278 HD
ENDBRANCH  21  23
BRANCH  21  27
HETATM   27  O3  UNL     1       4.624  34.815   0.864  1.00  0.00    -0.365 OA
ATOM     28  H3  UNL     1       4.368  35.444   0.199  1.00  0.00     0.212 HD
ENDBRANCH  21  27
ENDBRANCH  20  21
ENDBRANCH  19  20
ENDBRANCH  17  19
ENDBRANCH  16  17
ENDBRANCH  15  16
ENDBRANCH   1  15
BRANCH   8  29
HETATM   29  C14 UNL     1       9.336  27.084   6.971  1.00  0.00     0.243 C 
HETATM   30  O1  UNL     1       9.539  27.554   8.065  1.00  0.00    -0.306 OA
ENDBRANCH   8  29
BRANCH  10  31
HETATM   31  O2  UNL     1      10.372  29.366   5.887  1.00  0.00    -0.394 OA
ATOM     32  H2  UNL     1      10.686  30.003   6.518  1.00  0.00     0.210 HD
ENDBRANCH  10  31
TORSDOF 10
ENDMDL
MODEL 3
REMARK VINA RESULT: -8.234718479      1.680      2.067
REMARK  10 active torsions:
REMARK  status: ('A' for Active; 'I' for Inactive)
REMARK    1  A    between atoms: C2_2  and  C3_3 
REMARK    2  A    between atoms: C2_2  and  C20_23 
REMARK    3  A    between atoms: C3_3  and  C4_4 
REMARK    4  A    between atoms: C4_4  and  C5_5 
REMARK    5  A    between atoms: C12_12  and  C14_14 
REMARK    6  A    between atoms: C15_16  and  O2_17 
REMARK    7  A    between atoms: C20_23  and  C21_24 
REMARK    8  A    between atoms: C21_24  and  C22_25 
REMARK    9  A    between atoms: C22_25  and  N1_27 
REMARK   10  A    between atoms: C22_25  and  O3_31 
ROOT
HETATM    1  C5  UNL     1       5.088  30.179   5.515  1.00  0.00    -0.069 C 
HETATM    2  C6  UNL     1       4.457  30.138   6.718  1.00  0.00    -0.081 C 
HETATM    3  C7  UNL     1       3.396  31.114   7.074  1.00  0.00     0.043 C 
HETATM    4  C8  UNL     1       4.775  29.149   7.781  1.00  0.00     0.034 C 
HETATM    5  C9  UNL     1       6.264  28.773   7.561  1.00  0.00     0.010 C 
HETATM    6  C10 UNL     1       6.299  28.190   6.174  1.00  0.00    -0.001 C 
HETATM    7  C11 UNL     1       7.418  27.247   5.934  1.00  0.00     0.024 C 
HETATM    8  C12 UNL     1       8.806  27.694   5.944  1.00  0.00     0.035 C 
HETATM    9  C13 UNL     1       9.612  27.135   4.750  1.00  0.00     0.025 C 
HETATM   10  C15 UNL     1       9.115  29.150   6.051  1.00  0.00     0.133 C 
HETATM   11  C16 UNL     1       8.446  30.074   5.109  1.00  0.00     0.034 C 
HETATM   12  C17 UNL     1       7.282  29.590   4.362  1.00  0.00     0.016 C 
HETATM   13  C18 UNL     1       6.070  29.188   5.074  1.00  0.00    -0.017 C 
HETATM   14  C19 UNL     1       5.265  28.384   3.987  1.00  0.00     0.020 C 
ENDROOT
BRANCH   1  15
HETATM   15  C4  UNL     1       4.572  31.301   4.656  1.00  0.00     0.039 C 
BRANCH  15  16
HETATM   16  C3  UNL     1       3.869  30.845   3.419  1.00  0.00     0.037 C 
BRANCH  16  17
HETATM   17  C2  UNL     1       3.930  31.871   2.343  1.00  0.00    -0.089 C 
HETATM   18  C1  UNL     1       3.599  33.111   2.587  1.00  0.00     0.014 C 
BRANCH  17  19
HETATM   19  C20 UNL     1       4.368  31.489   0.978  1.00  0.00     0.038 C 
BRANCH  19  20
HETATM   20  C21 UNL     1       5.445  30.433   1.126  1.00  0.00     0.072 C 
BRANCH  20  21
HETATM   21  C22 UNL     1       5.499  29.523  -0.084  1.00  0.00     0.218 C 
HETATM   22  C23 UNL     1       6.173  28.240   0.345  1.00  0.00     0.078 C 
BRANCH  21  23
HETATM   23  N1  UNL     1       6.316  30.100  -1.138  1.00  0.00    -0.048 N 
ATOM     24  H13 UNL     1       7.169  30.518  -0.765  1.00  0.00     0.278 HD
ATOM     25  H12 UNL     1       6.739  29.379  -1.723  1.00  0.00     0.278 HD
ATOM     26  H11 UNL     1       5.782  30.768  -1.693  1.00  0.00     0.278 HD
ENDBRANCH  21  23
BRANCH  21  27
HETATM   27  O3  UNL     1       4.251  29.207  -0.575  1.00  0.00    -0.365 OA
ATOM     28  H3  UNL     1       3.940  28.359  -0.279  1.00  0.00     0.212 HD
ENDBRANCH  21  27
ENDBRANCH  20  21
ENDBRANCH  19  20
ENDBRANCH  17  19
ENDBRANCH  16  17
ENDBRANCH  15  16
ENDBRANCH   1  15
BRANCH   8  29
HETATM   29  C14 UNL     1       9.456  27.071   7.140  1.00  0.00     0.243 C 
HETATM   30  O1  UNL     1       9.495  27.622   8.215  1.00  0.00    -0.306 OA
ENDBRANCH   8  29
BRANCH  10  31
HETATM   31  O2  UNL     1      10.522  29.219   5.831  1.00  0.00    -0.394 OA
ATOM     32  H2  UNL     1      10.603  29.257   4.885  1.00  0.00     0.210 HD
ENDBRANCH  10  31
TORSDOF 10
ENDMDL
MODEL 4
REMARK VINA RESULT: -8.110886100      2.873      6.768
REMARK  10 active torsions:
REMARK  status: ('A' for Active; 'I' for Inactive)
REMARK    1  A    between atoms: C2_2  and  C3_3 
REMARK    2  A    between atoms: C2_2  and  C20_23 
REMARK    3  A    between atoms: C3_3  and  C4_4 
REMARK    4  A    between atoms: C4_4  and  C5_5 
REMARK    5  A    between atoms: C12_12  and  C14_14 
REMARK    6  A    between atoms: C15_16  and  O2_17 
REMARK    7  A    between atoms: C20_23  and  C21_24 
REMARK    8  A    between atoms: C21_24  and  C22_25 
REMARK    9  A    between atoms: C22_25  and  N1_27 
REMARK   10  A    between atoms: C22_25  and  O3_31 
ROOT
HETATM    1  C5  UNL     1       5.953  28.857   6.938  1.00  0.00    -0.069 C 
HETATM    2  C6  UNL     1       4.920  29.484   7.559  1.00  0.00    -0.081 C 
HETATM    3  C7  UNL     1       4.513  29.129   8.943  1.00  0.00     0.043 C 
HETATM    4  C8  UNL     1       4.100  30.547   6.923  1.00  0.00     0.034 C 
HETATM    5  C9  UNL     1       4.156  30.253   5.400  1.00  0.00     0.010 C 
HETATM    6  C10 UNL     1       5.619  30.344   5.059  1.00  0.00    -0.001 C 
HETATM    7  C11 UNL     1       5.898  30.682   3.641  1.00  0.00     0.024 C 
HETATM    8  C12 UNL     1       5.546  29.772   2.558  1.00  0.00     0.035 C 
HETATM    9  C13 UNL     1       6.691  29.608   1.533  1.00  0.00     0.025 C 
HETATM   10  C15 UNL     1       5.030  28.407   2.875  1.00  0.00     0.133 C 
HETATM   11  C16 UNL     1       5.810  27.569   3.811  1.00  0.00     0.034 C 
HETATM   12  C17 UNL     1       6.836  28.210   4.637  1.00  0.00     0.016 C 
HETATM   13  C18 UNL     1       6.458  29.229   5.616  1.00  0.00    -0.017 C 
HETATM   14  C19 UNL     1       7.829  29.917   5.966  1.00  0.00     0.020 C 
ENDROOT
BRANCH   1  15
HETATM   15  C4  UNL     1       6.579  27.811   7.819  1.00  0.00     0.039 C 
BRANCH  15  16
HETATM   16  C3  UNL     1       7.799  28.278   8.543  1.00  0.00     0.037 C 
BRANCH  16  17
HETATM   17  C2  UNL     1       8.489  27.157   9.238  1.00  0.00    -0.089 C 
HETATM   18  C1  UNL     1       8.669  27.186  10.531  1.00  0.00     0.014 C 
BRANCH  17  19
HETATM   19  C20 UNL     1       8.978  25.992   8.460  1.00  0.00     0.038 C 
BRANCH  19  20
HETATM   20  C21 UNL     1       9.435  26.506   7.109  1.00  0.00     0.072 C 
BRANCH  20  21
HETATM   21  C22 UNL     1       9.187  25.488   6.016  1.00  0.00     0.218 C 
HETATM   22  C23 UNL     1       9.723  26.069   4.728  1.00  0.00     0.078 C 
BRANCH  21  23
HETATM   23  N1  UNL     1       7.764  25.265   5.820  1.00  0.00    -0.048 N 
ATOM     24  H13 UNL     1       7.447  24.421   6.298  1.00  0.00     0.278 HD
ATOM     25  H12 UNL     1       7.204  25.951   6.326  1.00  0.00     0.278 HD
ATOM     26  H11 UNL     1       7.528  25.246   4.829  1.00  0.00     0.278 HD
ENDBRANCH  21  23
BRANCH  21  27
HETATM   27  O3  UNL     1       9.826  24.289   6.243  1.00  0.00    -0.365 OA
ATOM     28  H3  UNL     1      10.233  23.931   5.462  1.00  0.00     0.212 HD
ENDBRANCH  21  27
ENDBRANCH  20  21
ENDBRANCH  19  20
ENDBRANCH  17  19
ENDBRANCH  16  17
ENDBRANCH  15  16
ENDBRANCH   1  15
BRANCH   8  29
HETATM   29  C14 UNL     1       4.452  30.427   1.774  1.00  0.00     0.243 C 
HETATM   30  O1  UNL     1       4.117  31.572   1.964  1.00  0.00    -0.306 OA
ENDBRANCH   8  29
BRANCH  10  31
HETATM   31  O2  UNL     1       4.989  27.754   1.608  1.00  0.00    -0.394 OA
ATOM     32  H2  UNL     1       4.642  28.417   1.021  1.00  0.00     0.210 HD
ENDBRANCH  10  31
TORSDOF 10
ENDMDL
MODEL 5
REMARK VINA RESULT: -8.086099686      1.396      2.134
REMARK  10 active torsions:
REMARK  status: ('A' for Active; 'I' for Inactive)
REMARK    1  A    between atoms: C2_2  and  C3_3 
REMARK    2  A    between atoms: C2_2  and  C20_23 
REMARK    3  A    between atoms: C3_3  and  C4_4 
REMARK    4  A    between atoms: C4_4  and  C5_5 
REMARK    5  A    between atoms: C12_12  and  C14_14 
REMARK    6  A    between atoms: C15_16  and  O2_17 
REMARK    7  A    between atoms: C20_23  and  C21_24 
REMARK    8  A    between atoms: C21_24  and  C22_25 
REMARK    9  A    between atoms: C22_25  and  N1_27 
REMARK   10  A    between atoms: C22_25  and  O3_31 
ROOT
HETATM    1  C5  UNL     1       5.230  30.117   5.529  1.00  0.00    -0.069 C 
HETATM    2  C6  UNL     1       4.521  30.145   6.689  1.00  0.00    -0.081 C 
HETATM    3  C7  UNL     1       3.493  31.184   6.947  1.00  0.00     0.043 C 
HETATM    4  C8  UNL     1       4.717  29.174   7.796  1.00  0.00     0.034 C 
HETATM    5  C9  UNL     1       6.196  28.715   7.686  1.00  0.00     0.010 C 
HETATM    6  C10 UNL     1       6.288  28.090   6.320  1.00  0.00    -0.001 C 
HETATM    7  C11 UNL     1       7.369  27.084   6.180  1.00  0.00     0.024 C 
HETATM    8  C12 UNL     1       8.776  27.459   6.270  1.00  0.00     0.035 C 
HETATM    9  C13 UNL     1       9.627  26.824   5.147  1.00  0.00     0.025 C 
HETATM   10  C15 UNL     1       9.154  28.900   6.358  1.00  0.00     0.133 C 
HETATM   11  C16 UNL     1       8.598  29.828   5.350  1.00  0.00     0.034 C 
HETATM   12  C17 UNL     1       7.460  29.383   4.540  1.00  0.00     0.016 C 
HETATM   13  C18 UNL     1       6.185  29.065   5.181  1.00  0.00    -0.017 C 
HETATM   14  C19 UNL     1       5.410  28.271   4.065  1.00  0.00     0.020 C 
ENDROOT
BRANCH   1  15
HETATM   15  C4  UNL     1       4.832  31.238   4.608  1.00  0.00     0.039 C 
BRANCH  15  16
HETATM   16  C3  UNL     1       3.765  30.869   3.630  1.00  0.00     0.037 C 
BRANCH  16  17
HETATM   17  C2  UNL     1       4.113  31.301   2.249  1.00  0.00    -0.089 C 
HETATM   18  C1  UNL     1       5.127  30.769   1.622  1.00  0.00     0.014 C 
BRANCH  17  19
HETATM   19  C20 UNL     1       3.304  32.345   1.573  1.00  0.00     0.038 C 
BRANCH  19  20
HETATM   20  C21 UNL     1       3.098  33.473   2.563  1.00  0.00     0.072 C 
BRANCH  20  21
HETATM   21  C22 UNL     1       1.628  33.794   2.740  1.00  0.00     0.218 C 
HETATM   22  C23 UNL     1       1.303  33.627   4.207  1.00  0.00     0.078 C 
BRANCH  21  23
HETATM   23  N1  UNL     1       0.795  32.852   2.012  1.00  0.00    -0.048 N 
ATOM     24  H13 UNL     1       1.296  32.438   1.225  1.00  0.00     0.278 HD
ATOM     25  H12 UNL     1       0.627  32.003   2.552  1.00  0.00     0.278 HD
ATOM     26  H11 UNL     1      -0.078  33.286   1.714  1.00  0.00     0.278 HD
ENDBRANCH  21  23
BRANCH  21  27
HETATM   27  O3  UNL     1       1.311  35.084   2.375  1.00  0.00    -0.365 OA
ATOM     28  H3  UNL     1       0.982  35.604   3.099  1.00  0.00     0.212 HD
ENDBRANCH  21  27
ENDBRANCH  20  21
ENDBRANCH  19  20
ENDBRANCH  17  19
ENDBRANCH  16  17
ENDBRANCH  15  16
ENDBRANCH   1  15
BRANCH   8  29
HETATM   29  C14 UNL     1       9.313  26.840   7.523  1.00  0.00     0.243 C 
HETATM   30  O1  UNL     1       9.451  27.468   8.546  1.00  0.00    -0.306 OA
ENDBRANCH   8  29
BRANCH  10  31
HETATM   31  O2  UNL     1      10.573  28.890   6.230  1.00  0.00    -0.394 OA
ATOM     32  H2  UNL     1      10.858  29.604   6.790  1.00  0.00     0.210 HD
ENDBRANCH  10  31
TORSDOF 10
ENDMDL
