MODEL 1
REMARK VINA RESULT: -7.656975206      0.000      0.000
REMARK  10 active torsions:
REMARK  status: ('A' for Active; 'I' for Inactive)
REMARK    1  A    between atoms: C2_2  and  C3_3 
REMARK    2  A    between atoms: C3_3  and  O1_4 
REMARK    3  A    between atoms: O1_4  and  C4_5 
REMARK    4  A    between atoms: C6_7  and  C7_8 
REMARK    5  A    between atoms: C8_9  and  C9_10 
REMARK    6  A    between atoms: C9_10  and  O2_11 
REMARK    7  A    between atoms: N1_13  and  O3_15 
REMARK    8  A    between atoms: C11_19  and  O4_20 
REMARK    9  A    between atoms: O4_20  and  C12_21 
REMARK   10  A    between atoms: N2_23  and  O5_25 
ROOT
HETATM    1  C4  UNL     1       8.054  28.857   5.787  1.00  0.00     0.111 A 
HETATM    2  C5  UNL     1       8.570  28.470   6.998  1.00  0.00     0.053 A 
HETATM    3  C6  UNL     1       7.836  28.467   8.195  1.00  0.00    -0.009 A 
HETATM    4  C10 UNL     1       6.521  28.880   8.136  1.00  0.00     0.081 A 
HETATM    5 CL1  UNL     1       5.511  28.917   9.560  1.00  0.00    -0.080 Cl
HETATM    6  C11 UNL     1       5.932  29.290   6.926  1.00  0.00     0.141 A 
HETATM    7  C14 UNL     1       6.686  29.273   5.802  1.00  0.00     0.185 A 
HETATM    8  F1  UNL     1       6.113  29.668   4.640  1.00  0.00    -0.200 F 
ENDROOT
BRANCH   3   9
HETATM    9  C7  UNL     1       8.511  28.031   9.392  1.00  0.00     0.017 C 
HETATM   10  C8  UNL     1       8.997  26.890   9.749  1.00  0.00     0.058 C 
BRANCH  10  11
HETATM   11  C9  UNL     1       9.642  26.801  11.093  1.00  0.00     0.159 C 
HETATM   12  N1  UNL     1      10.660  26.044  11.306  1.00  0.00    -0.248 N 
ATOM     13  H1  UNL     1      11.081  26.002  12.234  1.00  0.00     0.196 HD
BRANCH  11  14
HETATM   14  O2  UNL     1       9.166  27.534  12.169  1.00  0.00    -0.345 OA
ATOM     15  H2  UNL     1       9.705  27.690  12.936  1.00  0.00     0.219 HD
ENDBRANCH  11  14
BRANCH  12  16
HETATM   16  O3  UNL     1      11.174  25.297  10.285  1.00  0.00    -0.288 OA
ATOM     17  H3  UNL     1      12.097  25.364  10.070  1.00  0.00     0.244 HD
ENDBRANCH  12  16
ENDBRANCH  10  11
ENDBRANCH   3   9
BRANCH   1  18
HETATM   18  O1  UNL     1       8.683  28.887   4.628  1.00  0.00    -0.348 OA
BRANCH  18  19
HETATM   19  C3  UNL     1       8.964  28.398   3.452  1.00  0.00     0.175 C 
BRANCH  19  20
HETATM   20  C2  UNL     1       8.561  27.020   3.024  1.00  0.00     0.022 C 
HETATM   21  C1  UNL     1       7.099  26.790   2.978  1.00  0.00     0.007 C 
ENDBRANCH  19  20
ENDBRANCH  18  19
ENDBRANCH   1  18
BRANCH   6  22
HETATM   22  O4  UNL     1       4.598  29.694   6.949  1.00  0.00    -0.291 OA
BRANCH  22  23
HETATM   23  C12 UNL     1       4.249  31.047   7.007  1.00  0.00     0.140 C 
HETATM   24  C13 UNL     1       4.023  31.746   5.735  1.00  0.00     0.099 C 
HETATM   25  N2  UNL     1       4.152  31.570   8.172  1.00  0.00    -0.251 N 
ATOM     26  H2  UNL     1       4.325  31.014   9.010  1.00  0.00     0.196 HD
BRANCH  25  27
HETATM   27  O5  UNL     1       3.811  32.894   8.267  1.00  0.00    -0.288 OA
ATOM     28  H5  UNL     1       3.275  33.173   9.001  1.00  0.00     0.244 HD
ENDBRANCH  25  27
ENDBRANCH  22  23
ENDBRANCH   6  22
TORSDOF 10
ENDMDL
MODEL 2
REMARK VINA RESULT: -7.355354402      2.243      4.505
REMARK  10 active torsions:
REMARK  status: ('A' for Active; 'I' for Inactive)
REMARK    1  A    between atoms: C2_2  and  C3_3 
REMARK    2  A    between atoms: C3_3  and  O1_4 
REMARK    3  A    between atoms: O1_4  and  C4_5 
REMARK    4  A    between atoms: C6_7  and  C7_8 
REMARK    5  A    between atoms: C8_9  and  C9_10 
REMARK    6  A    between atoms: C9_10  and  O2_11 
REMARK    7  A    between atoms: N1_13  and  O3_15 
REMARK    8  A    between atoms: C11_19  and  O4_20 
REMARK    9  A    between atoms: O4_20  and  C12_21 
REMARK   10  A    between atoms: N2_23  and  O5_25 
ROOT
HETATM    1  C4  UNL     1       5.328  29.605   8.140  1.00  0.00     0.111 A 
HETATM    2  C5  UNL     1       6.211  29.088   9.054  1.00  0.00     0.053 A 
HETATM    3  C6  UNL     1       7.371  28.379   8.708  1.00  0.00    -0.009 A 
HETATM    4  C10 UNL     1       7.628  28.198   7.364  1.00  0.00     0.081 A 
HETATM    5 CL1  UNL     1       9.042  27.334   6.813  1.00  0.00    -0.080 Cl
HETATM    6  C11 UNL     1       6.763  28.701   6.375  1.00  0.00     0.141 A 
HETATM    7  C14 UNL     1       5.658  29.378   6.767  1.00  0.00     0.185 A 
HETATM    8  F1  UNL     1       4.829  29.860   5.810  1.00  0.00    -0.200 F 
ENDROOT
BRANCH   3   9
HETATM    9  C7  UNL     1       8.206  27.898   9.779  1.00  0.00     0.017 C 
HETATM   10  C8  UNL     1       8.900  26.819   9.923  1.00  0.00     0.058 C 
BRANCH  10  11
HETATM   11  C9  UNL     1       9.662  26.649  11.196  1.00  0.00     0.159 C 
HETATM   12  N1  UNL     1      10.718  25.918  11.258  1.00  0.00    -0.248 N 
ATOM     13  H1  UNL     1      11.220  25.818  12.141  1.00  0.00     0.196 HD
BRANCH  11  14
HETATM   14  O2  UNL     1       9.258  27.273  12.365  1.00  0.00    -0.345 OA
ATOM     15  H2  UNL     1       9.859  27.808  12.871  1.00  0.00     0.219 HD
ENDBRANCH  11  14
BRANCH  12  16
HETATM   16  O3  UNL     1      11.166  25.275  10.139  1.00  0.00    -0.288 OA
ATOM     17  H3  UNL     1      10.848  24.404   9.937  1.00  0.00     0.244 HD
ENDBRANCH  12  16
ENDBRANCH  10  11
ENDBRANCH   3   9
BRANCH   1  18
HETATM   18  O1  UNL     1       4.222  30.276   8.393  1.00  0.00    -0.348 OA
BRANCH  18  19
HETATM   19  C3  UNL     1       3.550  31.384   8.544  1.00  0.00     0.175 C 
BRANCH  19  20
HETATM   20  C2  UNL     1       3.807  32.612   7.723  1.00  0.00     0.022 C 
HETATM   21  C1  UNL     1       3.146  32.617   6.398  1.00  0.00     0.007 C 
ENDBRANCH  19  20
ENDBRANCH  18  19
ENDBRANCH   1  18
BRANCH   6  22
HETATM   22  O4  UNL     1       7.091  28.476   5.039  1.00  0.00    -0.291 OA
BRANCH  22  23
HETATM   23  C12 UNL     1       7.913  29.360   4.333  1.00  0.00     0.140 C 
HETATM   24  C13 UNL     1       8.500  30.483   5.075  1.00  0.00     0.099 C 
HETATM   25  N2  UNL     1       8.090  29.116   3.088  1.00  0.00    -0.251 N 
ATOM     26  H2  UNL     1       7.646  28.312   2.645  1.00  0.00     0.196 HD
BRANCH  25  27
HETATM   27  O5  UNL     1       8.890  29.961   2.364  1.00  0.00    -0.288 OA
ATOM     28  H5  UNL     1       8.654  30.881   2.319  1.00  0.00     0.244 HD
ENDBRANCH  25  27
ENDBRANCH  22  23
ENDBRANCH   6  22
TORSDOF 10
ENDMDL
MODEL 3
REMARK VINA RESULT: -7.219886814      3.762      5.975
REMARK  10 active torsions:
REMARK  status: ('A' for Active; 'I' for Inactive)
REMARK    1  A    between atoms: C2_2  and  C3_3 
REMARK    2  A    between atoms: C3_3  and  O1_4 
REMARK    3  A    between atoms: O1_4  and  C4_5 
REMARK    4  A    between atoms: C6_7  and  C7_8 
REMARK    5  A    between atoms: C8_9  and  C9_10 
REMARK    6  A    between atoms: C9_10  and  O2_11 
REMARK    7  A    between atoms: N1_13  and  O3_15 
REMARK    8  A    between atoms: C11_19  and  O4_20 
REMARK    9  A    between atoms: O4_20  and  C12_21 
REMARK   10  A    between atoms: N2_23  and  O5_25 
ROOT
HETATM    1  C4  UNL     1       4.638  30.358   6.776  1.00  0.00     0.111 A 
HETATM    2  C5  UNL     1       5.279  29.405   6.027  1.00  0.00     0.053 A 
HETATM    3  C6  UNL     1       5.518  29.523   4.649  1.00  0.00    -0.009 A 
HETATM    4  C10 UNL     1       5.075  30.671   4.023  1.00  0.00     0.081 A 
HETATM    5 CL1  UNL     1       5.316  30.930   2.313  1.00  0.00    -0.080 Cl
HETATM    6  C11 UNL     1       4.409  31.686   4.734  1.00  0.00     0.141 A 
HETATM    7  C14 UNL     1       4.207  31.520   6.061  1.00  0.00     0.185 A 
HETATM    8  F1  UNL     1       3.566  32.501   6.741  1.00  0.00    -0.200 F 
ENDROOT
BRANCH   3   9
HETATM    9  C7  UNL     1       6.207  28.441   3.993  1.00  0.00     0.017 C 
HETATM   10  C8  UNL     1       7.282  27.790   4.288  1.00  0.00     0.058 C 
BRANCH  10  11
HETATM   11  C9  UNL     1       7.712  26.703   3.357  1.00  0.00     0.159 C 
HETATM   12  N1  UNL     1       8.779  26.017   3.567  1.00  0.00    -0.248 N 
ATOM     13  H1  UNL     1       9.050  25.281   2.916  1.00  0.00     0.196 HD
BRANCH  11  14
HETATM   14  O2  UNL     1       6.975  26.392   2.226  1.00  0.00    -0.345 OA
ATOM     15  H2  UNL     1       7.400  26.204   1.397  1.00  0.00     0.219 HD
ENDBRANCH  11  14
BRANCH  12  16
HETATM   16  O3  UNL     1       9.548  26.277   4.666  1.00  0.00    -0.288 OA
ATOM     17  H3  UNL     1      10.283  26.875   4.597  1.00  0.00     0.244 HD
ENDBRANCH  12  16
ENDBRANCH  10  11
ENDBRANCH   3   9
BRANCH   1  18
HETATM   18  O1  UNL     1       4.379  30.312   8.069  1.00  0.00    -0.348 OA
BRANCH  18  19
HETATM   19  C3  UNL     1       4.719  30.097   9.309  1.00  0.00     0.175 C 
BRANCH  19  20
HETATM   20  C2  UNL     1       5.443  28.862   9.754  1.00  0.00     0.022 C 
HETATM   21  C1  UNL     1       6.804  28.708   9.192  1.00  0.00     0.007 C 
ENDBRANCH  19  20
ENDBRANCH  18  19
ENDBRANCH   1  18
BRANCH   6  22
HETATM   22  O4  UNL     1       3.993  32.815   4.031  1.00  0.00    -0.291 OA
BRANCH  22  23
HETATM   23  C12 UNL     1       2.665  32.966   3.616  1.00  0.00     0.140 C 
HETATM   24  C13 UNL     1       1.783  33.796   4.446  1.00  0.00     0.099 C 
HETATM   25  N2  UNL     1       2.324  32.363   2.539  1.00  0.00    -0.251 N 
ATOM     26  H2  UNL     1       2.999  31.803   2.017  1.00  0.00     0.196 HD
BRANCH  25  27
HETATM   27  O5  UNL     1       1.030  32.488   2.102  1.00  0.00    -0.288 OA
ATOM     28  H5  UNL     1       0.768  32.016   1.320  1.00  0.00     0.244 HD
ENDBRANCH  25  27
ENDBRANCH  22  23
ENDBRANCH   6  22
TORSDOF 10
ENDMDL
MODEL 4
REMARK VINA RESULT: -7.196683796      3.383      5.785
REMARK  10 active torsions:
REMARK  status: ('A' for Active; 'I' for Inactive)
REMARK    1  A    between atoms: C2_2  and  C3_3 
REMARK    2  A    between atoms: C3_3  and  O1_4 
REMARK    3  A    between atoms: O1_4  and  C4_5 
REMARK    4  A    between atoms: C6_7  and  C7_8 
REMARK    5  A    between atoms: C8_9  and  C9_10 
REMARK    6  A    between atoms: C9_10  and  O2_11 
REMARK    7  A    between atoms: N1_13  and  O3_15 
REMARK    8  A    between atoms: C11_19  and  O4_20 
REMARK    9  A    between atoms: O4_20  and  C12_21 
REMARK   10  A    between atoms: N2_23  and  O5_25 
ROOT
HETATM    1  C4  UNL     1       5.920  29.706   3.315  1.00  0.00     0.111 A 
HETATM    2  C5  UNL     1       5.480  30.287   4.477  1.00  0.00     0.053 A 
HETATM    3  C6  UNL     1       5.837  29.841   5.759  1.00  0.00    -0.009 A 
HETATM    4  C10 UNL     1       6.682  28.752   5.841  1.00  0.00     0.081 A 
HETATM    5 CL1  UNL     1       7.196  28.110   7.381  1.00  0.00    -0.080 Cl
HETATM    6  C11 UNL     1       7.168  28.110   4.688  1.00  0.00     0.141 A 
HETATM    7  C14 UNL     1       6.791  28.583   3.477  1.00  0.00     0.185 A 
HETATM    8  F1  UNL     1       7.264  27.961   2.370  1.00  0.00    -0.200 F 
ENDROOT
BRANCH   3   9
HETATM    9  C7  UNL     1       5.298  30.553   6.890  1.00  0.00     0.017 C 
HETATM   10  C8  UNL     1       4.350  30.276   7.720  1.00  0.00     0.058 C 
BRANCH  10  11
HETATM   11  C9  UNL     1       4.056  31.270   8.795  1.00  0.00     0.159 C 
HETATM   12  N1  UNL     1       4.324  31.029  10.030  1.00  0.00    -0.248 N 
ATOM     13  H1  UNL     1       4.113  31.725  10.745  1.00  0.00     0.196 HD
BRANCH  11  14
HETATM   14  O2  UNL     1       3.481  32.496   8.504  1.00  0.00    -0.345 OA
ATOM     15  H2  UNL     1       3.222  33.096   9.193  1.00  0.00     0.219 HD
ENDBRANCH  11  14
BRANCH  12  16
HETATM   16  O3  UNL     1       4.892  29.837  10.381  1.00  0.00    -0.288 OA
ATOM     17  H3  UNL     1       5.836  29.766  10.446  1.00  0.00     0.244 HD
ENDBRANCH  12  16
ENDBRANCH  10  11
ENDBRANCH   3   9
BRANCH   1  18
HETATM   18  O1  UNL     1       5.624  30.069   2.082  1.00  0.00    -0.348 OA
BRANCH  18  19
HETATM   19  C3  UNL     1       5.864  30.726   0.981  1.00  0.00     0.175 C 
BRANCH  19  20
HETATM   20  C2  UNL     1       6.918  30.313  -0.002  1.00  0.00     0.022 C 
HETATM   21  C1  UNL     1       8.309  30.527   0.458  1.00  0.00     0.007 C 
ENDBRANCH  19  20
ENDBRANCH  18  19
ENDBRANCH   1  18
BRANCH   6  22
HETATM   22  O4  UNL     1       8.017  27.017   4.853  1.00  0.00    -0.291 OA
BRANCH  22  23
HETATM   23  C12 UNL     1       9.362  27.076   4.474  1.00  0.00     0.140 C 
HETATM   24  C13 UNL     1       9.833  26.098   3.484  1.00  0.00     0.099 C 
HETATM   25  N2  UNL     1      10.079  27.984   5.024  1.00  0.00    -0.251 N 
ATOM     26  H2  UNL     1       9.675  28.627   5.705  1.00  0.00     0.196 HD
BRANCH  25  27
HETATM   27  O5  UNL     1      11.402  28.071   4.676  1.00  0.00    -0.288 OA
ATOM     28  H5  UNL     1      11.976  28.612   5.206  1.00  0.00     0.244 HD
ENDBRANCH  25  27
ENDBRANCH  22  23
ENDBRANCH   6  22
TORSDOF 10
ENDMDL
MODEL 5
REMARK VINA RESULT: -7.185921455      4.263      8.218
REMARK  10 active torsions:
REMARK  status: ('A' for Active; 'I' for Inactive)
REMARK    1  A    between atoms: C2_2  and  C3_3 
REMARK    2  A    between atoms: C3_3  and  O1_4 
REMARK    3  A    between atoms: O1_4  and  C4_5 
REMARK    4  A    between atoms: C6_7  and  C7_8 
REMARK    5  A    between atoms: C8_9  and  C9_10 
REMARK    6  A    between atoms: C9_10  and  O2_11 
REMARK    7  A    between atoms: N1_13  and  O3_15 
REMARK    8  A    between atoms: C11_19  and  O4_20 
REMARK    9  A    between atoms: O4_20  and  C12_21 
REMARK   10  A    between atoms: N2_23  and  O5_25 
ROOT
HETATM    1  C4  UNL     1       5.709  29.931   6.318  1.00  0.00     0.111 A 
HETATM    2  C5  UNL     1       4.727  30.765   5.846  1.00  0.00     0.053 A 
HETATM    3  C6  UNL     1       4.592  31.130   4.498  1.00  0.00    -0.009 A 
HETATM    4  C10 UNL     1       5.508  30.613   3.605  1.00  0.00     0.081 A 
HETATM    5 CL1  UNL     1       5.439  30.995   1.903  1.00  0.00    -0.080 Cl
HETATM    6  C11 UNL     1       6.540  29.754   4.024  1.00  0.00     0.141 A 
HETATM    7  C14 UNL     1       6.622  29.435   5.336  1.00  0.00     0.185 A 
HETATM    8  F1  UNL     1       7.618  28.606   5.733  1.00  0.00    -0.200 F 
ENDROOT
BRANCH   3   9
HETATM    9  C7  UNL     1       3.508  32.013   4.149  1.00  0.00     0.017 C 
HETATM   10  C8  UNL     1       2.817  32.857   4.840  1.00  0.00     0.058 C 
BRANCH  10  11
HETATM   11  C9  UNL     1       1.745  33.619   4.133  1.00  0.00     0.159 C 
HETATM   12  N1  UNL     1       1.238  34.691   4.630  1.00  0.00    -0.248 N 
ATOM     13  H1  UNL     1       0.506  35.192   4.127  1.00  0.00     0.196 HD
BRANCH  11  14
HETATM   14  O2  UNL     1       1.252  33.198   2.909  1.00  0.00    -0.345 OA
ATOM     15  H2  UNL     1       0.969  33.822   2.250  1.00  0.00     0.219 HD
ENDBRANCH  11  14
BRANCH  12  16
HETATM   16  O3  UNL     1       1.682  35.156   5.835  1.00  0.00    -0.288 OA
ATOM     17  H3  UNL     1       2.600  35.070   6.065  1.00  0.00     0.244 HD
ENDBRANCH  12  16
ENDBRANCH  10  11
ENDBRANCH   3   9
BRANCH   1  18
HETATM   18  O1  UNL     1       5.896  29.549   7.567  1.00  0.00    -0.348 OA
BRANCH  18  19
HETATM   19  C3  UNL     1       5.466  29.127   8.724  1.00  0.00     0.175 C 
BRANCH  19  20
HETATM   20  C2  UNL     1       5.034  30.053   9.820  1.00  0.00     0.022 C 
HETATM   21  C1  UNL     1       4.040  31.071   9.413  1.00  0.00     0.007 C 
ENDBRANCH  19  20
ENDBRANCH  18  19
ENDBRANCH   1  18
BRANCH   6  22
HETATM   22  O4  UNL     1       7.426  29.274   3.061  1.00  0.00    -0.291 OA
BRANCH  22  23
HETATM   23  C12 UNL     1       7.168  28.092   2.360  1.00  0.00     0.140 C 
HETATM   24  C13 UNL     1       6.885  26.883   3.144  1.00  0.00     0.099 C 
HETATM   25  N2  UNL     1       7.199  28.159   1.080  1.00  0.00    -0.251 N 
ATOM     26  H2  UNL     1       7.404  29.040   0.609  1.00  0.00     0.196 HD
BRANCH  25  27
HETATM   27  O5  UNL     1       6.951  27.020   0.360  1.00  0.00    -0.288 OA
ATOM     28  H5  UNL     1       6.346  26.380   0.717  1.00  0.00     0.244 HD
ENDBRANCH  25  27
ENDBRANCH  22  23
ENDBRANCH   6  22
TORSDOF 10
ENDMDL
