MODEL 1
REMARK VINA RESULT: -7.775066695      0.000      0.000
REMARK  8 active torsions:
REMARK  status: ('A' for Active; 'I' for Inactive)
REMARK    1  A    between atoms: C2_2  and  C3_3 
REMARK    2  A    between atoms: C3_3  and  N1_5 
REMARK    3  A    between atoms: C5_6  and  O1_7 
REMARK    4  A    between atoms: C7_10  and  C8_11 
REMARK    5  A    between atoms: C8_11  and  O2_12 
REMARK    6  A    between atoms: C8_11  and  C9_14 
REMARK    7  A    between atoms: C9_14  and  C10_15 
REMARK    8  A    between atoms: C16_24  and  O3_25 
ROOT
HETATM    1  N1  UNL     1       3.731  32.352   4.163  1.00  0.00    -0.280 N 
HETATM    2  C5  UNL     1       3.527  32.528   5.496  1.00  0.00     0.149 A 
HETATM    3  C6  UNL     1       4.121  31.474   6.147  1.00  0.00     0.070 A 
HETATM    4  C7  UNL     1       4.697  30.629   5.239  1.00  0.00     0.029 A 
HETATM    5  C16 UNL     1       4.446  31.195   4.032  1.00  0.00     0.158 A 
ENDROOT
BRANCH   4   6
HETATM    6  C8  UNL     1       5.524  29.466   5.605  1.00  0.00     0.179 C 
BRANCH   6   7
HETATM    7  O2  UNL     1       5.805  28.658   4.510  1.00  0.00    -0.387 OA
ATOM      8  H2  UNL     1       5.408  27.798   4.588  1.00  0.00     0.210 HD
ENDBRANCH   6   7
BRANCH   6   9
HETATM    9  C9  UNL     1       6.750  29.746   6.348  1.00  0.00     0.024 C 
BRANCH   9  10
HETATM   10  C10 UNL     1       7.295  29.007   7.436  1.00  0.00     0.006 A 
HETATM   11  C11 UNL     1       6.789  28.860   8.681  1.00  0.00     0.047 A 
HETATM   12 CL1  UNL     1       5.218  29.606   9.083  1.00  0.00    -0.083 Cl
HETATM   13  C12 UNL     1       7.462  28.106   9.661  1.00  0.00     0.048 A 
HETATM   14  C13 UNL     1       8.634  27.496   9.420  1.00  0.00     0.037 A 
HETATM   15 CL2  UNL     1       9.498  26.525  10.610  1.00  0.00    -0.084 Cl
HETATM   16  C14 UNL     1       9.192  27.618   8.160  1.00  0.00     0.048 A 
HETATM   17  C15 UNL     1       8.518  28.362   7.217  1.00  0.00     0.047 A 
HETATM   18 CL3  UNL     1       9.353  28.515   5.652  1.00  0.00    -0.083 Cl
ENDBRANCH   9  10
ENDBRANCH   6   9
ENDBRANCH   4   6
BRANCH   5  19
HETATM   19  O3  UNL     1       4.823  30.726   2.762  1.00  0.00    -0.345 OA
ATOM     20  H3  UNL     1       4.948  29.798   2.606  1.00  0.00     0.219 HD
ENDBRANCH   5  19
BRANCH   2  21
HETATM   21  O1  UNL     1       2.849  33.552   6.119  1.00  0.00    -0.346 OA
ATOM     22  H1  UNL     1       3.110  34.037   6.894  1.00  0.00     0.219 HD
ENDBRANCH   2  21
BRANCH   1  23
HETATM   23  C3  UNL     1       3.216  33.143   3.074  1.00  0.00    -0.006 C 
HETATM   24  C4  UNL     1       1.836  32.822   2.623  1.00  0.00     0.064 C 
BRANCH  23  25
HETATM   25  C2  UNL     1       4.169  33.619   2.057  1.00  0.00     0.048 C 
HETATM   26  C1  UNL     1       3.771  33.571   0.618  1.00  0.00     0.011 C 
ENDBRANCH  23  25
ENDBRANCH   1  23
TORSDOF 8
ENDMDL
MODEL 2
REMARK VINA RESULT: -7.724900676      0.114      1.890
REMARK  8 active torsions:
REMARK  status: ('A' for Active; 'I' for Inactive)
REMARK    1  A    between atoms: C2_2  and  C3_3 
REMARK    2  A    between atoms: C3_3  and  N1_5 
REMARK    3  A    between atoms: C5_6  and  O1_7 
REMARK    4  A    between atoms: C7_10  and  C8_11 
REMARK    5  A    between atoms: C8_11  and  O2_12 
REMARK    6  A    between atoms: C8_11  and  C9_14 
REMARK    7  A    between atoms: C9_14  and  C10_15 
REMARK    8  A    between atoms: C16_24  and  O3_25 
ROOT
HETATM    1  N1  UNL     1       3.689  32.381   4.160  1.00  0.00    -0.280 N 
HETATM    2  C5  UNL     1       3.457  32.565   5.487  1.00  0.00     0.149 A 
HETATM    3  C6  UNL     1       4.059  31.529   6.159  1.00  0.00     0.070 A 
HETATM    4  C7  UNL     1       4.668  30.687   5.270  1.00  0.00     0.029 A 
HETATM    5  C16 UNL     1       4.428  31.237   4.053  1.00  0.00     0.158 A 
ENDROOT
BRANCH   4   6
HETATM    6  C8  UNL     1       5.511  29.544   5.662  1.00  0.00     0.179 C 
BRANCH   6   7
HETATM    7  O2  UNL     1       5.770  28.693   4.594  1.00  0.00    -0.387 OA
ATOM      8  H2  UNL     1       5.582  27.786   4.805  1.00  0.00     0.210 HD
ENDBRANCH   6   7
BRANCH   6   9
HETATM    9  C9  UNL     1       6.753  29.860   6.362  1.00  0.00     0.024 C 
BRANCH   9  10
HETATM   10  C10 UNL     1       7.454  29.048   7.297  1.00  0.00     0.006 A 
HETATM   11  C11 UNL     1       8.622  28.390   7.120  1.00  0.00     0.047 A 
HETATM   12 CL1  UNL     1       9.491  28.546   5.569  1.00  0.00    -0.083 Cl
HETATM   13  C12 UNL     1       9.183  27.604   8.146  1.00  0.00     0.048 A 
HETATM   14  C13 UNL     1       8.597  27.464   9.346  1.00  0.00     0.037 A 
HETATM   15 CL2  UNL     1       9.277  26.510  10.663  1.00  0.00    -0.084 Cl
HETATM   16  C14 UNL     1       7.400  28.118   9.575  1.00  0.00     0.048 A 
HETATM   17  C15 UNL     1       6.867  28.879   8.558  1.00  0.00     0.047 A 
HETATM   18 CL3  UNL     1       5.293  29.623   8.928  1.00  0.00    -0.083 Cl
ENDBRANCH   9  10
ENDBRANCH   6   9
ENDBRANCH   4   6
BRANCH   5  19
HETATM   19  O3  UNL     1       4.838  30.764   2.795  1.00  0.00    -0.345 OA
ATOM     20  H3  UNL     1       4.505  29.941   2.456  1.00  0.00     0.219 HD
ENDBRANCH   5  19
BRANCH   2  21
HETATM   21  O1  UNL     1       2.748  33.582   6.088  1.00  0.00    -0.346 OA
ATOM     22  H1  UNL     1       2.976  34.503   6.134  1.00  0.00     0.219 HD
ENDBRANCH   2  21
BRANCH   1  23
HETATM   23  C3  UNL     1       3.179  33.152   3.053  1.00  0.00    -0.006 C 
HETATM   24  C4  UNL     1       1.814  32.797   2.578  1.00  0.00     0.064 C 
BRANCH  23  25
HETATM   25  C2  UNL     1       4.141  33.639   2.052  1.00  0.00     0.048 C 
HETATM   26  C1  UNL     1       3.789  33.534   0.604  1.00  0.00     0.011 C 
ENDBRANCH  23  25
ENDBRANCH   1  23
TORSDOF 8
ENDMDL
MODEL 3
REMARK VINA RESULT: -7.723828774      4.142      6.177
REMARK  8 active torsions:
REMARK  status: ('A' for Active; 'I' for Inactive)
REMARK    1  A    between atoms: C2_2  and  C3_3 
REMARK    2  A    between atoms: C3_3  and  N1_5 
REMARK    3  A    between atoms: C5_6  and  O1_7 
REMARK    4  A    between atoms: C7_10  and  C8_11 
REMARK    5  A    between atoms: C8_11  and  O2_12 
REMARK    6  A    between atoms: C8_11  and  C9_14 
REMARK    7  A    between atoms: C9_14  and  C10_15 
REMARK    8  A    between atoms: C16_24  and  O3_25 
ROOT
HETATM    1  N1  UNL     1       8.985  27.811   2.382  1.00  0.00    -0.280 N 
HETATM    2  C5  UNL     1       7.747  27.254   2.289  1.00  0.00     0.149 A 
HETATM    3  C6  UNL     1       7.337  26.944   3.562  1.00  0.00     0.070 A 
HETATM    4  C7  UNL     1       8.304  27.295   4.463  1.00  0.00     0.029 A 
HETATM    5  C16 UNL     1       9.300  27.828   3.712  1.00  0.00     0.158 A 
ENDROOT
BRANCH   4   6
HETATM    6  C8  UNL     1       8.136  27.216   5.925  1.00  0.00     0.179 C 
BRANCH   6   7
HETATM    7  O2  UNL     1       9.089  26.396   6.517  1.00  0.00    -0.387 OA
ATOM      8  H2  UNL     1       9.871  26.876   6.766  1.00  0.00     0.210 HD
ENDBRANCH   6   7
BRANCH   6   9
HETATM    9  C9  UNL     1       8.054  28.485   6.642  1.00  0.00     0.024 C 
BRANCH   9  10
HETATM   10  C10 UNL     1       6.886  29.128   7.140  1.00  0.00     0.006 A 
HETATM   11  C11 UNL     1       6.012  29.910   6.468  1.00  0.00     0.047 A 
HETATM   12 CL1  UNL     1       6.244  30.182   4.719  1.00  0.00    -0.083 Cl
HETATM   13  C12 UNL     1       4.905  30.494   7.113  1.00  0.00     0.048 A 
HETATM   14  C13 UNL     1       4.654  30.310   8.419  1.00  0.00     0.037 A 
HETATM   15 CL2  UNL     1       3.268  31.003   9.259  1.00  0.00    -0.084 Cl
HETATM   16  C14 UNL     1       5.521  29.518   9.150  1.00  0.00     0.048 A 
HETATM   17  C15 UNL     1       6.599  28.958   8.501  1.00  0.00     0.047 A 
HETATM   18 CL3  UNL     1       7.690  28.014   9.544  1.00  0.00    -0.083 Cl
ENDBRANCH   9  10
ENDBRANCH   6   9
ENDBRANCH   4   6
BRANCH   5  19
HETATM   19  O3  UNL     1      10.530  28.347   4.149  1.00  0.00    -0.345 OA
ATOM     20  H3  UNL     1      10.831  28.196   5.037  1.00  0.00     0.219 HD
ENDBRANCH   5  19
BRANCH   2  21
HETATM   21  O1  UNL     1       7.010  27.020   1.149  1.00  0.00    -0.346 OA
ATOM     22  H1  UNL     1       6.372  26.331   0.999  1.00  0.00     0.219 HD
ENDBRANCH   2  21
BRANCH   1  23
HETATM   23  C3  UNL     1       9.863  28.208   1.311  1.00  0.00    -0.006 C 
HETATM   24  C4  UNL     1       9.474  29.432   0.561  1.00  0.00     0.064 C 
BRANCH  23  25
HETATM   25  C2  UNL     1      10.563  27.149   0.566  1.00  0.00     0.048 C 
HETATM   26  C1  UNL     1      12.048  27.230   0.423  1.00  0.00     0.011 C 
ENDBRANCH  23  25
ENDBRANCH   1  23
TORSDOF 8
ENDMDL
MODEL 4
REMARK VINA RESULT: -7.675981797      4.230      6.469
REMARK  8 active torsions:
REMARK  status: ('A' for Active; 'I' for Inactive)
REMARK    1  A    between atoms: C2_2  and  C3_3 
REMARK    2  A    between atoms: C3_3  and  N1_5 
REMARK    3  A    between atoms: C5_6  and  O1_7 
REMARK    4  A    between atoms: C7_10  and  C8_11 
REMARK    5  A    between atoms: C8_11  and  O2_12 
REMARK    6  A    between atoms: C8_11  and  C9_14 
REMARK    7  A    between atoms: C9_14  and  C10_15 
REMARK    8  A    between atoms: C16_24  and  O3_25 
ROOT
HETATM    1  N1  UNL     1       9.166  27.068   2.474  1.00  0.00    -0.280 N 
HETATM    2  C5  UNL     1       7.810  27.005   2.381  1.00  0.00     0.149 A 
HETATM    3  C6  UNL     1       7.309  27.011   3.660  1.00  0.00     0.070 A 
HETATM    4  C7  UNL     1       8.333  27.073   4.563  1.00  0.00     0.029 A 
HETATM    5  C16 UNL     1       9.459  27.112   3.808  1.00  0.00     0.158 A 
ENDROOT
BRANCH   4   6
HETATM    6  C8  UNL     1       8.142  27.222   6.017  1.00  0.00     0.179 C 
BRANCH   6   7
HETATM    7  O2  UNL     1       9.117  26.550   6.745  1.00  0.00    -0.387 OA
ATOM      8  H2  UNL     1       9.628  25.962   6.201  1.00  0.00     0.210 HD
ENDBRANCH   6   7
BRANCH   6   9
HETATM    9  C9  UNL     1       7.994  28.585   6.519  1.00  0.00     0.024 C 
BRANCH   9  10
HETATM   10  C10 UNL     1       6.918  29.118   7.283  1.00  0.00     0.006 A 
HETATM   11  C11 UNL     1       6.661  28.942   8.598  1.00  0.00     0.047 A 
HETATM   12 CL1  UNL     1       7.789  27.979   9.592  1.00  0.00    -0.083 Cl
HETATM   13  C12 UNL     1       5.534  29.526   9.210  1.00  0.00     0.048 A 
HETATM   14  C13 UNL     1       4.658  30.283   8.528  1.00  0.00     0.037 A 
HETATM   15 CL2  UNL     1       3.250  31.050   9.259  1.00  0.00    -0.084 Cl
HETATM   16  C14 UNL     1       4.879  30.491   7.179  1.00  0.00     0.048 A 
HETATM   17  C15 UNL     1       5.986  29.910   6.601  1.00  0.00     0.047 A 
HETATM   18 CL3  UNL     1       6.141  30.182   4.848  1.00  0.00    -0.083 Cl
ENDBRANCH   9  10
ENDBRANCH   6   9
ENDBRANCH   4   6
BRANCH   5  19
HETATM   19  O3  UNL     1      10.793  27.180   4.246  1.00  0.00    -0.345 OA
ATOM     20  H3  UNL     1      11.231  26.409   4.583  1.00  0.00     0.219 HD
ENDBRANCH   5  19
BRANCH   2  21
HETATM   21  O1  UNL     1       7.044  26.938   1.239  1.00  0.00    -0.346 OA
ATOM     22  H1  UNL     1       6.357  26.314   1.033  1.00  0.00     0.219 HD
ENDBRANCH   2  21
BRANCH   1  23
HETATM   23  C3  UNL     1      10.134  26.991   1.409  1.00  0.00    -0.006 C 
HETATM   24  C4  UNL     1      10.346  28.235   0.622  1.00  0.00     0.064 C 
BRANCH  23  25
HETATM   25  C2  UNL     1      10.279  25.707   0.702  1.00  0.00     0.048 C 
HETATM   26  C1  UNL     1      10.449  24.459   1.505  1.00  0.00     0.011 C 
ENDBRANCH  23  25
ENDBRANCH   1  23
TORSDOF 8
ENDMDL
MODEL 5
REMARK VINA RESULT: -7.553722744      4.194      6.247
REMARK  8 active torsions:
REMARK  status: ('A' for Active; 'I' for Inactive)
REMARK    1  A    between atoms: C2_2  and  C3_3 
REMARK    2  A    between atoms: C3_3  and  N1_5 
REMARK    3  A    between atoms: C5_6  and  O1_7 
REMARK    4  A    between atoms: C7_10  and  C8_11 
REMARK    5  A    between atoms: C8_11  and  O2_12 
REMARK    6  A    between atoms: C8_11  and  C9_14 
REMARK    7  A    between atoms: C9_14  and  C10_15 
REMARK    8  A    between atoms: C16_24  and  O3_25 
ROOT
HETATM    1  N1  UNL     1       9.124  27.011   2.513  1.00  0.00    -0.280 N 
HETATM    2  C5  UNL     1       7.768  26.921   2.449  1.00  0.00     0.149 A 
HETATM    3  C6  UNL     1       7.291  26.948   3.737  1.00  0.00     0.070 A 
HETATM    4  C7  UNL     1       8.332  27.050   4.618  1.00  0.00     0.029 A 
HETATM    5  C16 UNL     1       9.442  27.091   3.840  1.00  0.00     0.158 A 
ENDROOT
BRANCH   4   6
HETATM    6  C8  UNL     1       8.167  27.230   6.071  1.00  0.00     0.179 C 
BRANCH   6   7
HETATM    7  O2  UNL     1       9.172  26.599   6.794  1.00  0.00    -0.387 OA
ATOM      8  H2  UNL     1       9.339  27.028   7.625  1.00  0.00     0.210 HD
ENDBRANCH   6   7
BRANCH   6   9
HETATM    9  C9  UNL     1       7.996  28.601   6.544  1.00  0.00     0.024 C 
BRANCH   9  10
HETATM   10  C10 UNL     1       6.915  29.130   7.303  1.00  0.00     0.006 A 
HETATM   11  C11 UNL     1       6.654  28.954   8.618  1.00  0.00     0.047 A 
HETATM   12 CL1  UNL     1       7.783  27.998   9.617  1.00  0.00    -0.083 Cl
HETATM   13  C12 UNL     1       5.522  29.534   9.224  1.00  0.00     0.048 A 
HETATM   14  C13 UNL     1       4.646  30.287   8.539  1.00  0.00     0.037 A 
HETATM   15 CL2  UNL     1       3.232  31.049   9.264  1.00  0.00    -0.084 Cl
HETATM   16  C14 UNL     1       4.871  30.494   7.190  1.00  0.00     0.048 A 
HETATM   17  C15 UNL     1       5.982  29.917   6.616  1.00  0.00     0.047 A 
HETATM   18 CL3  UNL     1       6.142  30.187   4.864  1.00  0.00    -0.083 Cl
ENDBRANCH   9  10
ENDBRANCH   6   9
ENDBRANCH   4   6
BRANCH   5  19
HETATM   19  O3  UNL     1      10.783  27.194   4.249  1.00  0.00    -0.345 OA
ATOM     20  H3  UNL     1      11.433  27.587   3.679  1.00  0.00     0.219 HD
ENDBRANCH   5  19
BRANCH   2  21
HETATM   21  O1  UNL     1       6.981  26.813   1.324  1.00  0.00    -0.346 OA
ATOM     22  H1  UNL     1       7.219  27.009   0.425  1.00  0.00     0.219 HD
ENDBRANCH   2  21
BRANCH   1  23
HETATM   23  C3  UNL     1      10.072  26.926   1.431  1.00  0.00    -0.006 C 
HETATM   24  C4  UNL     1      11.001  25.765   1.459  1.00  0.00     0.064 C 
BRANCH  23  25
HETATM   25  C2  UNL     1      10.575  28.185   0.856  1.00  0.00     0.048 C 
HETATM   26  C1  UNL     1       9.615  29.095   0.163  1.00  0.00     0.011 C 
ENDBRANCH  23  25
ENDBRANCH   1  23
TORSDOF 8
ENDMDL
