MODEL 1
REMARK VINA RESULT: -7.798724358      0.000      0.000
REMARK  10 active torsions:
REMARK  status: ('A' for Active; 'I' for Inactive)
REMARK    1  A    between atoms: C1_2  and  O2_3 
REMARK    2  A    between atoms: C1_2  and  C10_16 
REMARK    3  A    between atoms: O2_3  and  C2_4 
REMARK    4  A    between atoms: C2_4  and  C3_5 
REMARK    5  A    between atoms: C3_5  and  C4_6 
REMARK    6  A    between atoms: C4_6  and  C5_7 
REMARK    7  A    between atoms: C5_7  and  C6_8 
REMARK    8  A    between atoms: C9_13  and  O4_14 
REMARK    9  A    between atoms: C11_17  and  O5_18 
REMARK   10  A    between atoms: C13_21  and  O6_22 
ROOT
HETATM    1  O1  UNL     1       5.138  28.351   3.933  1.00  0.00    -0.259 OA
HETATM    2  C1  UNL     1       5.589  29.445   4.337  1.00  0.00     0.297 C 
ENDROOT
BRANCH   2   3
HETATM    3  O2  UNL     1       6.795  29.825   3.733  1.00  0.00    -0.317 OA
BRANCH   3   4
HETATM    4  C2  UNL     1       8.041  29.365   4.236  1.00  0.00     0.179 C 
BRANCH   4   5
HETATM    5  C3  UNL     1       8.649  30.341   5.200  1.00  0.00     0.027 C 
BRANCH   5   6
HETATM    6  C4  UNL     1       9.330  29.613   6.339  1.00  0.00     0.007 C 
BRANCH   6   7
HETATM    7  C5  UNL     1       9.588  28.168   6.039  1.00  0.00     0.044 C 
BRANCH   7   8
HETATM    8  C6  UNL     1       9.471  27.407   7.323  1.00  0.00     0.004 A 
HETATM    9  C7  UNL     1       9.347  27.882   8.609  1.00  0.00     0.062 A 
HETATM   10  C8  UNL     1       9.274  26.776   9.447  1.00  0.00     0.148 A 
HETATM   11 CL1  UNL     1       9.109  26.803  11.190  1.00  0.00    -0.056 Cl
HETATM   12  O3  UNL     1       9.352  25.711   8.691  1.00  0.00    -0.275 OA
HETATM   13  C9  UNL     1       9.469  26.030   7.427  1.00  0.00     0.191 A 
BRANCH  13  14
HETATM   14  O4  UNL     1       9.579  25.174   6.328  1.00  0.00    -0.340 OA
ATOM     15  H4  UNL     1       9.623  24.228   6.404  1.00  0.00     0.220 HD
ENDBRANCH  13  14
ENDBRANCH   7   8
ENDBRANCH   6   7
ENDBRANCH   5   6
ENDBRANCH   4   5
ENDBRANCH   3   4
ENDBRANCH   2   3
BRANCH   2  16
HETATM   16  C10 UNL     1       4.938  30.253   5.334  1.00  0.00     0.096 A 
HETATM   17  C11 UNL     1       4.189  31.338   4.968  1.00  0.00     0.086 A 
HETATM   18  C12 UNL     1       3.571  32.096   5.989  1.00  0.00     0.076 A 
HETATM   19  C13 UNL     1       3.702  31.776   7.317  1.00  0.00     0.091 A 
HETATM   20  C14 UNL     1       4.457  30.687   7.663  1.00  0.00     0.090 A 
HETATM   21 CL2  UNL     1       4.609  30.298   9.362  1.00  0.00    -0.080 Cl
HETATM   22  C15 UNL     1       5.060  29.946   6.671  1.00  0.00     0.077 A 
HETATM   23 CL3  UNL     1       6.029  28.546   7.141  1.00  0.00    -0.081 Cl
BRANCH  17  24
HETATM   24  O5  UNL     1       3.959  31.789   3.705  1.00  0.00    -0.359 OA
ATOM     25  H5  UNL     1       4.446  32.457   3.237  1.00  0.00     0.217 HD
ENDBRANCH  17  24
BRANCH  19  26
HETATM   26  O6  UNL     1       3.063  32.567   8.292  1.00  0.00    -0.359 OA
ATOM     27  H6  UNL     1       3.580  33.140   8.845  1.00  0.00     0.217 HD
ENDBRANCH  19  26
ENDBRANCH   2  16
TORSDOF 10
ENDMDL
MODEL 2
REMARK VINA RESULT: -7.785869850      1.678      2.075
REMARK  10 active torsions:
REMARK  status: ('A' for Active; 'I' for Inactive)
REMARK    1  A    between atoms: C1_2  and  O2_3 
REMARK    2  A    between atoms: C1_2  and  C10_16 
REMARK    3  A    between atoms: O2_3  and  C2_4 
REMARK    4  A    between atoms: C2_4  and  C3_5 
REMARK    5  A    between atoms: C3_5  and  C4_6 
REMARK    6  A    between atoms: C4_6  and  C5_7 
REMARK    7  A    between atoms: C5_7  and  C6_8 
REMARK    8  A    between atoms: C9_13  and  O4_14 
REMARK    9  A    between atoms: C11_17  and  O5_18 
REMARK   10  A    between atoms: C13_21  and  O6_22 
ROOT
HETATM    1  O1  UNL     1       5.248  28.294   4.066  1.00  0.00    -0.259 OA
HETATM    2  C1  UNL     1       5.633  29.425   4.434  1.00  0.00     0.297 C 
ENDROOT
BRANCH   2   3
HETATM    3  O2  UNL     1       6.761  29.896   3.748  1.00  0.00    -0.317 OA
BRANCH   3   4
HETATM    4  C2  UNL     1       8.069  29.504   4.137  1.00  0.00     0.179 C 
BRANCH   4   5
HETATM    5  C3  UNL     1       8.621  30.389   5.215  1.00  0.00     0.027 C 
BRANCH   5   6
HETATM    6  C4  UNL     1       9.115  29.564   6.383  1.00  0.00     0.007 C 
BRANCH   6   7
HETATM    7  C5  UNL     1       9.194  28.100   6.074  1.00  0.00     0.044 C 
BRANCH   7   8
HETATM    8  C6  UNL     1       9.256  27.361   7.374  1.00  0.00     0.004 A 
HETATM    9  C7  UNL     1       9.137  27.844   8.658  1.00  0.00     0.062 A 
HETATM   10  C8  UNL     1       9.265  26.760   9.516  1.00  0.00     0.148 A 
HETATM   11 CL1  UNL     1       9.195  26.805  11.265  1.00  0.00    -0.056 Cl
HETATM   12  O3  UNL     1       9.449  25.698   8.774  1.00  0.00    -0.275 OA
HETATM   13  C9  UNL     1       9.451  26.000   7.501  1.00  0.00     0.191 A 
BRANCH  13  14
HETATM   14  O4  UNL     1       9.618  25.142   6.411  1.00  0.00    -0.340 OA
ATOM     15  H4  UNL     1      10.356  24.550   6.319  1.00  0.00     0.220 HD
ENDBRANCH  13  14
ENDBRANCH   7   8
ENDBRANCH   6   7
ENDBRANCH   5   6
ENDBRANCH   4   5
ENDBRANCH   3   4
ENDBRANCH   2   3
BRANCH   2  16
HETATM   16  C10 UNL     1       4.986  30.187   5.468  1.00  0.00     0.096 A 
HETATM   17  C11 UNL     1       5.134  29.839   6.784  1.00  0.00     0.086 A 
HETATM   18  C12 UNL     1       4.477  30.623   7.759  1.00  0.00     0.076 A 
HETATM   19  C13 UNL     1       3.705  31.709   7.424  1.00  0.00     0.091 A 
HETATM   20  C14 UNL     1       3.568  32.040   6.102  1.00  0.00     0.090 A 
HETATM   21 CL2  UNL     1       2.580  33.426   5.701  1.00  0.00    -0.080 Cl
HETATM   22  C15 UNL     1       4.208  31.278   5.150  1.00  0.00     0.077 A 
HETATM   23 CL3  UNL     1       4.017  31.724   3.451  1.00  0.00    -0.081 Cl
BRANCH  17  24
HETATM   24  O5  UNL     1       5.859  28.800   7.282  1.00  0.00    -0.359 OA
ATOM     25  H5  UNL     1       6.726  28.839   7.668  1.00  0.00     0.217 HD
ENDBRANCH  17  24
BRANCH  19  26
HETATM   26  O6  UNL     1       3.073  32.454   8.438  1.00  0.00    -0.359 OA
ATOM     27  H6  UNL     1       3.104  33.403   8.414  1.00  0.00     0.217 HD
ENDBRANCH  19  26
ENDBRANCH   2  16
TORSDOF 10
ENDMDL
MODEL 3
REMARK VINA RESULT: -7.745203182      1.101      1.218
REMARK  10 active torsions:
REMARK  status: ('A' for Active; 'I' for Inactive)
REMARK    1  A    between atoms: C1_2  and  O2_3 
REMARK    2  A    between atoms: C1_2  and  C10_16 
REMARK    3  A    between atoms: O2_3  and  C2_4 
REMARK    4  A    between atoms: C2_4  and  C3_5 
REMARK    5  A    between atoms: C3_5  and  C4_6 
REMARK    6  A    between atoms: C4_6  and  C5_7 
REMARK    7  A    between atoms: C5_7  and  C6_8 
REMARK    8  A    between atoms: C9_13  and  O4_14 
REMARK    9  A    between atoms: C11_17  and  O5_18 
REMARK   10  A    between atoms: C13_21  and  O6_22 
ROOT
HETATM    1  O1  UNL     1       5.470  28.337   4.284  1.00  0.00    -0.259 OA
HETATM    2  C1  UNL     1       5.752  29.555   4.249  1.00  0.00     0.297 C 
ENDROOT
BRANCH   2   3
HETATM    3  O2  UNL     1       7.029  29.832   3.741  1.00  0.00    -0.317 OA
BRANCH   3   4
HETATM    4  C2  UNL     1       8.191  29.293   4.352  1.00  0.00     0.179 C 
BRANCH   4   5
HETATM    5  C3  UNL     1       8.672  30.145   5.489  1.00  0.00     0.027 C 
BRANCH   5   6
HETATM    6  C4  UNL     1       8.881  29.309   6.733  1.00  0.00     0.007 C 
BRANCH   6   7
HETATM    7  C5  UNL     1       8.231  27.962   6.649  1.00  0.00     0.044 C 
BRANCH   7   8
HETATM    8  C6  UNL     1       8.736  27.139   7.793  1.00  0.00     0.004 A 
HETATM    9  C7  UNL     1       8.657  27.384   9.145  1.00  0.00     0.062 A 
HETATM   10  C8  UNL     1       9.274  26.320   9.791  1.00  0.00     0.148 A 
HETATM   11 CL1  UNL     1       9.457  26.120  11.520  1.00  0.00    -0.056 Cl
HETATM   12  O3  UNL     1       9.692  25.496   8.865  1.00  0.00    -0.275 OA
HETATM   13  C9  UNL     1       9.399  25.934   7.667  1.00  0.00     0.191 A 
BRANCH  13  14
HETATM   14  O4  UNL     1       9.680  25.335   6.437  1.00  0.00    -0.340 OA
ATOM     15  H4  UNL     1       9.062  24.787   5.967  1.00  0.00     0.220 HD
ENDBRANCH  13  14
ENDBRANCH   7   8
ENDBRANCH   6   7
ENDBRANCH   5   6
ENDBRANCH   4   5
ENDBRANCH   3   4
ENDBRANCH   2   3
BRANCH   2  16
HETATM   16  C10 UNL     1       4.856  30.590   4.689  1.00  0.00     0.096 A 
HETATM   17  C11 UNL     1       4.266  31.430   3.784  1.00  0.00     0.086 A 
HETATM   18  C12 UNL     1       3.393  32.429   4.272  1.00  0.00     0.076 A 
HETATM   19  C13 UNL     1       3.126  32.575   5.611  1.00  0.00     0.091 A 
HETATM   20  C14 UNL     1       3.728  31.726   6.501  1.00  0.00     0.090 A 
HETATM   21 CL2  UNL     1       3.374  31.933   8.201  1.00  0.00    -0.080 Cl
HETATM   22  C15 UNL     1       4.579  30.752   6.029  1.00  0.00     0.077 A 
HETATM   23 CL3  UNL     1       5.343  29.668   7.195  1.00  0.00    -0.081 Cl
BRANCH  17  24
HETATM   24  O5  UNL     1       4.421  31.420   2.432  1.00  0.00    -0.359 OA
ATOM     25  H5  UNL     1       3.911  30.927   1.800  1.00  0.00     0.217 HD
ENDBRANCH  17  24
BRANCH  19  26
HETATM   26  O6  UNL     1       2.248  33.589   6.040  1.00  0.00    -0.359 OA
ATOM     27  H6  UNL     1       1.313  33.492   5.900  1.00  0.00     0.217 HD
ENDBRANCH  19  26
ENDBRANCH   2  16
TORSDOF 10
ENDMDL
MODEL 4
REMARK VINA RESULT: -7.616270537      2.674      4.514
REMARK  10 active torsions:
REMARK  status: ('A' for Active; 'I' for Inactive)
REMARK    1  A    between atoms: C1_2  and  O2_3 
REMARK    2  A    between atoms: C1_2  and  C10_16 
REMARK    3  A    between atoms: O2_3  and  C2_4 
REMARK    4  A    between atoms: C2_4  and  C3_5 
REMARK    5  A    between atoms: C3_5  and  C4_6 
REMARK    6  A    between atoms: C4_6  and  C5_7 
REMARK    7  A    between atoms: C5_7  and  C6_8 
REMARK    8  A    between atoms: C9_13  and  O4_14 
REMARK    9  A    between atoms: C11_17  and  O5_18 
REMARK   10  A    between atoms: C13_21  and  O6_22 
ROOT
HETATM    1  O1  UNL     1       4.916  28.472   9.350  1.00  0.00    -0.259 OA
HETATM    2  C1  UNL     1       5.412  29.184   8.450  1.00  0.00     0.297 C 
ENDROOT
BRANCH   2   3
HETATM    3  O2  UNL     1       6.720  28.827   8.094  1.00  0.00    -0.317 OA
BRANCH   3   4
HETATM    4  C2  UNL     1       7.552  28.112   8.994  1.00  0.00     0.179 C 
BRANCH   4   5
HETATM    5  C3  UNL     1       7.992  26.796   8.423  1.00  0.00     0.027 C 
BRANCH   5   6
HETATM    6  C4  UNL     1       7.895  26.810   6.913  1.00  0.00     0.007 C 
BRANCH   6   7
HETATM    7  C5  UNL     1       9.189  27.163   6.246  1.00  0.00     0.044 C 
BRANCH   7   8
HETATM    8  C6  UNL     1       8.894  28.180   5.188  1.00  0.00     0.004 A 
HETATM    9  C7  UNL     1       8.628  27.994   3.850  1.00  0.00     0.062 A 
HETATM   10  C8  UNL     1       8.421  29.251   3.296  1.00  0.00     0.148 A 
HETATM   11 CL1  UNL     1       8.046  29.599   1.622  1.00  0.00    -0.056 Cl
HETATM   12  O3  UNL     1       8.561  30.126   4.259  1.00  0.00    -0.275 OA
HETATM   13  C9  UNL     1       8.841  29.544   5.397  1.00  0.00     0.191 A 
BRANCH  13  14
HETATM   14  O4  UNL     1       9.059  30.142   6.641  1.00  0.00    -0.340 OA
ATOM     15  H4  UNL     1       9.889  30.105   7.101  1.00  0.00     0.220 HD
ENDBRANCH  13  14
ENDBRANCH   7   8
ENDBRANCH   6   7
ENDBRANCH   5   6
ENDBRANCH   4   5
ENDBRANCH   3   4
ENDBRANCH   2   3
BRANCH   2  16
HETATM   16  C10 UNL     1       4.715  30.278   7.827  1.00  0.00     0.096 A 
HETATM   17  C11 UNL     1       4.143  31.261   8.589  1.00  0.00     0.086 A 
HETATM   18  C12 UNL     1       3.471  32.312   7.924  1.00  0.00     0.076 A 
HETATM   19  C13 UNL     1       3.379  32.371   6.556  1.00  0.00     0.091 A 
HETATM   20  C14 UNL     1       3.957  31.377   5.812  1.00  0.00     0.090 A 
HETATM   21 CL2  UNL     1       3.826  31.472   4.070  1.00  0.00    -0.080 Cl
HETATM   22  C15 UNL     1       4.612  30.351   6.456  1.00  0.00     0.077 A 
HETATM   23 CL3  UNL     1       5.350  29.080   5.476  1.00  0.00    -0.081 Cl
BRANCH  17  24
HETATM   24  O5  UNL     1       4.143  31.353   9.946  1.00  0.00    -0.359 OA
ATOM     25  H5  UNL     1       4.841  31.685  10.499  1.00  0.00     0.217 HD
ENDBRANCH  17  24
BRANCH  19  26
HETATM   26  O6  UNL     1       2.697  33.442   5.948  1.00  0.00    -0.359 OA
ATOM     27  H6  UNL     1       1.767  33.366   5.765  1.00  0.00     0.217 HD
ENDBRANCH  19  26
ENDBRANCH   2  16
TORSDOF 10
ENDMDL
MODEL 5
REMARK VINA RESULT: -7.530024304      2.149      2.633
REMARK  10 active torsions:
REMARK  status: ('A' for Active; 'I' for Inactive)
REMARK    1  A    between atoms: C1_2  and  O2_3 
REMARK    2  A    between atoms: C1_2  and  C10_16 
REMARK    3  A    between atoms: O2_3  and  C2_4 
REMARK    4  A    between atoms: C2_4  and  C3_5 
REMARK    5  A    between atoms: C3_5  and  C4_6 
REMARK    6  A    between atoms: C4_6  and  C5_7 
REMARK    7  A    between atoms: C5_7  and  C6_8 
REMARK    8  A    between atoms: C9_13  and  O4_14 
REMARK    9  A    between atoms: C11_17  and  O5_18 
REMARK   10  A    between atoms: C13_21  and  O6_22 
ROOT
HETATM    1  O1  UNL     1       5.115  28.377   3.930  1.00  0.00    -0.259 OA
HETATM    2  C1  UNL     1       5.650  29.356   4.495  1.00  0.00     0.297 C 
ENDROOT
BRANCH   2   3
HETATM    3  O2  UNL     1       6.961  29.614   4.073  1.00  0.00    -0.317 OA
BRANCH   3   4
HETATM    4  C2  UNL     1       8.070  29.308   4.905  1.00  0.00     0.179 C 
BRANCH   4   5
HETATM    5  C3  UNL     1       8.520  27.887   4.737  1.00  0.00     0.027 C 
BRANCH   5   6
HETATM    6  C4  UNL     1       8.552  27.176   6.072  1.00  0.00     0.007 C 
BRANCH   6   7
HETATM    7  C5  UNL     1       9.691  27.611   6.941  1.00  0.00     0.044 C 
BRANCH   7   8
HETATM    8  C6  UNL     1       9.371  27.214   8.348  1.00  0.00     0.004 A 
HETATM    9  C7  UNL     1       9.731  26.079   9.037  1.00  0.00     0.062 A 
HETATM   10  C8  UNL     1       9.187  26.183  10.311  1.00  0.00     0.148 A 
HETATM   11 CL1  UNL     1       9.336  25.012  11.604  1.00  0.00    -0.056 Cl
HETATM   12  O3  UNL     1       8.542  27.320  10.364  1.00  0.00    -0.275 OA
HETATM   13  C9  UNL     1       8.620  27.967   9.229  1.00  0.00     0.191 A 
BRANCH  13  14
HETATM   14  O4  UNL     1       8.063  29.206   8.902  1.00  0.00    -0.340 OA
ATOM     15  H4  UNL     1       7.232  29.305   8.453  1.00  0.00     0.220 HD
ENDBRANCH  13  14
ENDBRANCH   7   8
ENDBRANCH   6   7
ENDBRANCH   5   6
ENDBRANCH   4   5
ENDBRANCH   3   4
ENDBRANCH   2   3
BRANCH   2  16
HETATM   16  C10 UNL     1       4.989  30.155   5.493  1.00  0.00     0.096 A 
HETATM   17  C11 UNL     1       5.099  29.839   6.820  1.00  0.00     0.086 A 
HETATM   18  C12 UNL     1       4.430  30.659   7.758  1.00  0.00     0.076 A 
HETATM   19  C13 UNL     1       3.685  31.748   7.376  1.00  0.00     0.091 A 
HETATM   20  C14 UNL     1       3.587  32.047   6.043  1.00  0.00     0.090 A 
HETATM   21 CL2  UNL     1       2.633  33.437   5.581  1.00  0.00    -0.080 Cl
HETATM   22  C15 UNL     1       4.238  31.249   5.127  1.00  0.00     0.077 A 
HETATM   23 CL3  UNL     1       4.097  31.654   3.413  1.00  0.00    -0.081 Cl
BRANCH  17  24
HETATM   24  O5  UNL     1       5.793  28.802   7.363  1.00  0.00    -0.359 OA
ATOM     25  H5  UNL     1       6.443  28.847   8.054  1.00  0.00     0.217 HD
ENDBRANCH  17  24
BRANCH  19  26
HETATM   26  O6  UNL     1       3.041  32.529   8.354  1.00  0.00    -0.359 OA
ATOM     27  H6  UNL     1       3.039  33.476   8.274  1.00  0.00     0.217 HD
ENDBRANCH  19  26
ENDBRANCH   2  16
TORSDOF 10
ENDMDL
