MODEL 1
REMARK VINA RESULT: -6.948244598      0.000      0.000
REMARK  12 active torsions:
REMARK  status: ('A' for Active; 'I' for Inactive)
REMARK    1  A    between atoms: N2_3  and  N3_5 
REMARK    2  A    between atoms: C5_9  and  C6_10 
REMARK    3  A    between atoms: C9_13  and  O1_14 
REMARK    4  A    between atoms: O1_14  and  C10_15 
REMARK    5  A    between atoms: C10_15  and  C11_16 
REMARK    6  A    between atoms: C11_16  and  O2_17 
REMARK    7  A    between atoms: C11_16  and  C12_19 
REMARK    8  A    between atoms: C12_19  and  O3_20 
REMARK    9  A    between atoms: O3_20  and  C13_21 
REMARK   10  A    between atoms: C13_21  and  C14_22 
REMARK   11  A    between atoms: C14_22  and  C15_23 
REMARK   12  A    between atoms: C15_23  and  N4_24 
REMARK       I    between atoms: N4_24  and  C16_26 
ROOT
HETATM    1  N1  UNL     1      11.912  29.789  10.099  1.00  0.00    -0.170 NA
HETATM    2  C1  UNL     1      11.217  29.215  10.824  1.00  0.00     0.198 C 
HETATM    3  N2  UNL     1      10.368  28.519  11.696  1.00  0.00    -0.231 N 
ATOM      4  H2  UNL     1      10.454  27.509  11.816  1.00  0.00     0.200 HD
ENDROOT
BRANCH   3   5
HETATM    5  N3  UNL     1       9.388  29.254  12.404  1.00  0.00    -0.269 N 
HETATM    6  C2  UNL     1       8.129  29.226  11.942  1.00  0.00     0.116 A 
HETATM    7  C3  UNL     1       7.188  29.950  12.651  1.00  0.00     0.020 A 
HETATM    8  C4  UNL     1       7.523  30.674  13.785  1.00  0.00     0.015 A 
HETATM    9  C5  UNL     1       8.825  30.688  14.242  1.00  0.00    -0.008 A 
HETATM   10  C19 UNL     1       9.748  29.949  13.508  1.00  0.00     0.128 A 
BRANCH   9  11
HETATM   11  C6  UNL     1       9.217  31.437  15.433  1.00  0.00    -0.024 A 
HETATM   12  C7  UNL     1      10.072  30.890  16.376  1.00  0.00     0.015 A 
HETATM   13  C8  UNL     1      10.429  31.602  17.484  1.00  0.00     0.037 A 
HETATM   14  C9  UNL     1       9.980  32.864  17.728  1.00  0.00     0.068 A 
HETATM   15  C17 UNL     1       9.125  33.429  16.798  1.00  0.00     0.037 A 
HETATM   16  C18 UNL     1       8.744  32.734  15.663  1.00  0.00     0.015 A 
BRANCH  14  17
HETATM   17  O1  UNL     1      10.334  33.585  18.836  1.00  0.00    -0.349 OA
BRANCH  17  18
HETATM   18  C10 UNL     1      11.619  33.891  19.249  1.00  0.00     0.209 C 
BRANCH  18  19
HETATM   19  C11 UNL     1      12.266  34.802  18.193  1.00  0.00     0.166 C 
BRANCH  19  20
HETATM   20  O2  UNL     1      12.498  36.059  18.813  1.00  0.00    -0.391 OA
ATOM     21  H2  UNL     1      11.835  36.657  18.487  1.00  0.00     0.210 HD
ENDBRANCH  19  20
BRANCH  19  22
HETATM   22  C12 UNL     1      13.596  34.284  17.769  1.00  0.00     0.201 C 
BRANCH  22  23
HETATM   23  O3  UNL     1      13.588  33.196  16.938  1.00  0.00    -0.388 OA
BRANCH  23  24
HETATM   24  C13 UNL     1      13.075  33.436  15.672  1.00  0.00     0.169 C 
BRANCH  24  25
HETATM   25  C14 UNL     1      13.716  32.537  14.631  1.00  0.00     0.046 C 
BRANCH  25  26
HETATM   26  C15 UNL     1      14.988  33.215  14.170  1.00  0.00     0.124 C 
BRANCH  26  27
HETATM   27  N4  UNL     1      14.934  34.634  14.468  1.00  0.00    -0.365 N 
HETATM   28  C16 UNL     1      15.623  35.570  13.667  1.00  0.00     0.181 C 
HETATM   29  N5  UNL     1      15.000  36.220  12.761  1.00  0.00    -0.374 N 
HETATM   30  N6  UNL     1      16.996  35.787  13.866  1.00  0.00    -0.064 NA
ATOM     31  H52 UNL     1      14.003  36.063  12.616  1.00  0.00     0.158 HD
ATOM     32  H51 UNL     1      15.498  36.896  12.182  1.00  0.00     0.158 HD
ATOM     33  H4  UNL     1      14.392  34.960  15.268  1.00  0.00     0.162 HD
ENDBRANCH  26  27
ENDBRANCH  25  26
ENDBRANCH  24  25
ENDBRANCH  23  24
ENDBRANCH  22  23
ENDBRANCH  19  22
ENDBRANCH  18  19
ENDBRANCH  17  18
ENDBRANCH  14  17
ENDBRANCH   9  11
ENDBRANCH   3   5
TORSDOF 12
ENDMDL
MODEL 2
REMARK VINA RESULT: -6.872870529      1.329      1.570
REMARK  12 active torsions:
REMARK  status: ('A' for Active; 'I' for Inactive)
REMARK    1  A    between atoms: N2_3  and  N3_5 
REMARK    2  A    between atoms: C5_9  and  C6_10 
REMARK    3  A    between atoms: C9_13  and  O1_14 
REMARK    4  A    between atoms: O1_14  and  C10_15 
REMARK    5  A    between atoms: C10_15  and  C11_16 
REMARK    6  A    between atoms: C11_16  and  O2_17 
REMARK    7  A    between atoms: C11_16  and  C12_19 
REMARK    8  A    between atoms: C12_19  and  O3_20 
REMARK    9  A    between atoms: O3_20  and  C13_21 
REMARK   10  A    between atoms: C13_21  and  C14_22 
REMARK   11  A    between atoms: C14_22  and  C15_23 
REMARK   12  A    between atoms: C15_23  and  N4_24 
REMARK       I    between atoms: N4_24  and  C16_26 
ROOT
HETATM    1  N1  UNL     1      11.892  29.752  10.113  1.00  0.00    -0.170 NA
HETATM    2  C1  UNL     1      11.201  29.208  10.865  1.00  0.00     0.198 C 
HETATM    3  N2  UNL     1      10.357  28.546  11.768  1.00  0.00    -0.231 N 
ATOM      4  H2  UNL     1      10.458  27.546  11.943  1.00  0.00     0.200 HD
ENDROOT
BRANCH   3   5
HETATM    5  N3  UNL     1       9.360  29.303  12.429  1.00  0.00    -0.269 N 
HETATM    6  C2  UNL     1       8.093  29.170  12.009  1.00  0.00     0.116 A 
HETATM    7  C3  UNL     1       7.136  29.918  12.671  1.00  0.00     0.020 A 
HETATM    8  C4  UNL     1       7.464  30.767  13.717  1.00  0.00     0.015 A 
HETATM    9  C5  UNL     1       8.775  30.887  14.131  1.00  0.00    -0.008 A 
HETATM   10  C19 UNL     1       9.714  30.121  13.447  1.00  0.00     0.128 A 
BRANCH   9  11
HETATM   11  C6  UNL     1       9.160  31.769  15.230  1.00  0.00    -0.024 A 
HETATM   12  C7  UNL     1      10.490  32.038  15.502  1.00  0.00     0.015 A 
HETATM   13  C8  UNL     1      10.835  32.865  16.531  1.00  0.00     0.037 A 
HETATM   14  C9  UNL     1       9.916  33.464  17.338  1.00  0.00     0.068 A 
HETATM   15  C17 UNL     1       8.579  33.208  17.083  1.00  0.00     0.037 A 
HETATM   16  C18 UNL     1       8.197  32.375  16.046  1.00  0.00     0.015 A 
BRANCH  14  17
HETATM   17  O1  UNL     1      10.253  34.294  18.372  1.00  0.00    -0.349 OA
BRANCH  17  18
HETATM   18  C10 UNL     1       9.924  35.632  18.500  1.00  0.00     0.209 C 
BRANCH  18  19
HETATM   19  C11 UNL     1      10.373  36.368  17.227  1.00  0.00     0.166 C 
BRANCH  19  20
HETATM   20  O2  UNL     1       9.686  37.612  17.201  1.00  0.00    -0.391 OA
ATOM     21  H2  UNL     1      10.332  38.283  17.017  1.00  0.00     0.210 HD
ENDBRANCH  19  20
BRANCH  19  22
HETATM   22  C12 UNL     1      11.827  36.686  17.267  1.00  0.00     0.201 C 
BRANCH  22  23
HETATM   23  O3  UNL     1      12.651  35.847  16.566  1.00  0.00    -0.388 OA
BRANCH  23  24
HETATM   24  C13 UNL     1      13.784  35.438  17.253  1.00  0.00     0.169 C 
BRANCH  24  25
HETATM   25  C14 UNL     1      14.279  34.090  16.761  1.00  0.00     0.046 C 
BRANCH  25  26
HETATM   26  C15 UNL     1      14.542  34.221  15.275  1.00  0.00     0.124 C 
BRANCH  26  27
HETATM   27  N4  UNL     1      14.994  35.564  14.964  1.00  0.00    -0.365 N 
HETATM   28  C16 UNL     1      15.654  35.843  13.749  1.00  0.00     0.181 C 
HETATM   29  N5  UNL     1      15.008  36.343  12.767  1.00  0.00    -0.374 N 
HETATM   30  N6  UNL     1      17.025  35.569  13.617  1.00  0.00    -0.064 NA
ATOM     31  H52 UNL     1      14.012  36.542  12.862  1.00  0.00     0.158 HD
ATOM     32  H51 UNL     1      15.486  36.545  11.889  1.00  0.00     0.158 HD
ATOM     33  H4  UNL     1      14.832  36.317  15.633  1.00  0.00     0.162 HD
ENDBRANCH  26  27
ENDBRANCH  25  26
ENDBRANCH  24  25
ENDBRANCH  23  24
ENDBRANCH  22  23
ENDBRANCH  19  22
ENDBRANCH  18  19
ENDBRANCH  17  18
ENDBRANCH  14  17
ENDBRANCH   9  11
ENDBRANCH   3   5
TORSDOF 12
ENDMDL
MODEL 3
REMARK VINA RESULT: -6.814514496      1.382      1.711
REMARK  12 active torsions:
REMARK  status: ('A' for Active; 'I' for Inactive)
REMARK    1  A    between atoms: N2_3  and  N3_5 
REMARK    2  A    between atoms: C5_9  and  C6_10 
REMARK    3  A    between atoms: C9_13  and  O1_14 
REMARK    4  A    between atoms: O1_14  and  C10_15 
REMARK    5  A    between atoms: C10_15  and  C11_16 
REMARK    6  A    between atoms: C11_16  and  O2_17 
REMARK    7  A    between atoms: C11_16  and  C12_19 
REMARK    8  A    between atoms: C12_19  and  O3_20 
REMARK    9  A    between atoms: O3_20  and  C13_21 
REMARK   10  A    between atoms: C13_21  and  C14_22 
REMARK   11  A    between atoms: C14_22  and  C15_23 
REMARK   12  A    between atoms: C15_23  and  N4_24 
REMARK       I    between atoms: N4_24  and  C16_26 
ROOT
HETATM    1  N1  UNL     1      12.274  29.775  10.048  1.00  0.00    -0.170 NA
HETATM    2  C1  UNL     1      11.430  29.228  10.621  1.00  0.00     0.198 C 
HETATM    3  N2  UNL     1      10.400  28.570  11.308  1.00  0.00    -0.231 N 
ATOM      4  H2  UNL     1      10.189  27.590  11.120  1.00  0.00     0.200 HD
ENDROOT
BRANCH   3   5
HETATM    5  N3  UNL     1       9.661  29.302  12.267  1.00  0.00    -0.269 N 
HETATM    6  C2  UNL     1       8.360  29.516  12.024  1.00  0.00     0.116 A 
HETATM    7  C3  UNL     1       7.657  30.233  12.976  1.00  0.00     0.020 A 
HETATM    8  C4  UNL     1       8.264  30.711  14.128  1.00  0.00     0.015 A 
HETATM    9  C5  UNL     1       9.605  30.478  14.356  1.00  0.00    -0.008 A 
HETATM   10  C19 UNL     1      10.284  29.754  13.381  1.00  0.00     0.128 A 
BRANCH   9  11
HETATM   11  C6  UNL     1      10.279  30.965  15.557  1.00  0.00    -0.024 A 
HETATM   12  C7  UNL     1      10.889  30.091  16.441  1.00  0.00     0.015 A 
HETATM   13  C8  UNL     1      11.516  30.560  17.559  1.00  0.00     0.037 A 
HETATM   14  C9  UNL     1      11.579  31.884  17.870  1.00  0.00     0.068 A 
HETATM   15  C17 UNL     1      10.976  32.775  16.999  1.00  0.00     0.037 A 
HETATM   16  C18 UNL     1      10.333  32.331  15.856  1.00  0.00     0.015 A 
BRANCH  14  17
HETATM   17  O1  UNL     1      12.205  32.362  18.989  1.00  0.00    -0.349 OA
BRANCH  17  18
HETATM   18  C10 UNL     1      13.299  33.209  19.027  1.00  0.00     0.209 C 
BRANCH  18  19
HETATM   19  C11 UNL     1      14.553  32.372  19.329  1.00  0.00     0.166 C 
BRANCH  19  20
HETATM   20  O2  UNL     1      14.112  31.168  19.940  1.00  0.00    -0.391 OA
ATOM     21  H2  UNL     1      14.123  30.495  19.269  1.00  0.00     0.210 HD
ENDBRANCH  19  20
BRANCH  19  22
HETATM   22  C12 UNL     1      15.261  31.981  18.079  1.00  0.00     0.201 C 
BRANCH  22  23
HETATM   23  O3  UNL     1      14.829  32.578  16.925  1.00  0.00    -0.388 OA
BRANCH  23  24
HETATM   24  C13 UNL     1      14.562  31.702  15.884  1.00  0.00     0.169 C 
BRANCH  24  25
HETATM   25  C14 UNL     1      14.020  32.431  14.667  1.00  0.00     0.046 C 
BRANCH  25  26
HETATM   26  C15 UNL     1      15.154  33.254  14.092  1.00  0.00     0.124 C 
BRANCH  26  27
HETATM   27  N4  UNL     1      14.969  34.656  14.417  1.00  0.00    -0.365 N 
HETATM   28  C16 UNL     1      15.606  35.664  13.663  1.00  0.00     0.181 C 
HETATM   29  N5  UNL     1      14.965  36.281  12.747  1.00  0.00    -0.374 N 
HETATM   30  N6  UNL     1      16.947  35.990  13.921  1.00  0.00    -0.064 NA
ATOM     31  H52 UNL     1      13.991  36.045  12.559  1.00  0.00     0.158 HD
ATOM     32  H51 UNL     1      15.426  37.010  12.202  1.00  0.00     0.158 HD
ATOM     33  H4  UNL     1      14.371  34.916  15.201  1.00  0.00     0.162 HD
ENDBRANCH  26  27
ENDBRANCH  25  26
ENDBRANCH  24  25
ENDBRANCH  23  24
ENDBRANCH  22  23
ENDBRANCH  19  22
ENDBRANCH  18  19
ENDBRANCH  17  18
ENDBRANCH  14  17
ENDBRANCH   9  11
ENDBRANCH   3   5
TORSDOF 12
ENDMDL
MODEL 4
REMARK VINA RESULT: -6.795803562      1.755      2.195
REMARK  12 active torsions:
REMARK  status: ('A' for Active; 'I' for Inactive)
REMARK    1  A    between atoms: N2_3  and  N3_5 
REMARK    2  A    between atoms: C5_9  and  C6_10 
REMARK    3  A    between atoms: C9_13  and  O1_14 
REMARK    4  A    between atoms: O1_14  and  C10_15 
REMARK    5  A    between atoms: C10_15  and  C11_16 
REMARK    6  A    between atoms: C11_16  and  O2_17 
REMARK    7  A    between atoms: C11_16  and  C12_19 
REMARK    8  A    between atoms: C12_19  and  O3_20 
REMARK    9  A    between atoms: O3_20  and  C13_21 
REMARK   10  A    between atoms: C13_21  and  C14_22 
REMARK   11  A    between atoms: C14_22  and  C15_23 
REMARK   12  A    between atoms: C15_23  and  N4_24 
REMARK       I    between atoms: N4_24  and  C16_26 
ROOT
HETATM    1  N1  UNL     1      11.917  29.781  10.127  1.00  0.00    -0.170 NA
HETATM    2  C1  UNL     1      11.363  29.278  11.010  1.00  0.00     0.198 C 
HETATM    3  N2  UNL     1      10.687  28.663  12.073  1.00  0.00    -0.231 N 
ATOM      4  H2  UNL     1      11.003  27.769  12.448  1.00  0.00     0.200 HD
ENDROOT
BRANCH   3   5
HETATM    5  N3  UNL     1       9.552  29.317  12.610  1.00  0.00    -0.269 N 
HETATM    6  C2  UNL     1       8.369  29.107  12.015  1.00  0.00     0.116 A 
HETATM    7  C3  UNL     1       7.274  29.754  12.559  1.00  0.00     0.020 A 
HETATM    8  C4  UNL     1       7.388  30.583  13.665  1.00  0.00     0.015 A 
HETATM    9  C5  UNL     1       8.617  30.783  14.260  1.00  0.00    -0.008 A 
HETATM   10  C19 UNL     1       9.698  30.118  13.691  1.00  0.00     0.128 A 
BRANCH   9  11
HETATM   11  C6  UNL     1       8.777  31.648  15.427  1.00  0.00    -0.024 A 
HETATM   12  C7  UNL     1       7.729  31.870  16.304  1.00  0.00     0.015 A 
HETATM   13  C8  UNL     1       7.893  32.680  17.390  1.00  0.00     0.037 A 
HETATM   14  C9  UNL     1       9.069  33.306  17.675  1.00  0.00     0.068 A 
HETATM   15  C17 UNL     1      10.130  33.096  16.811  1.00  0.00     0.037 A 
HETATM   16  C18 UNL     1       9.995  32.280  15.700  1.00  0.00     0.015 A 
BRANCH  14  17
HETATM   17  O1  UNL     1       9.242  34.119  18.762  1.00  0.00    -0.349 OA
BRANCH  17  18
HETATM   18  C10 UNL     1      10.123  35.181  18.869  1.00  0.00     0.209 C 
BRANCH  18  19
HETATM   19  C11 UNL     1       9.439  36.439  18.310  1.00  0.00     0.166 C 
BRANCH  19  20
HETATM   20  O2  UNL     1       9.387  37.388  19.367  1.00  0.00    -0.391 OA
ATOM     21  H2  UNL     1       8.667  37.135  19.933  1.00  0.00     0.210 HD
ENDBRANCH  19  20
BRANCH  19  22
HETATM   22  C12 UNL     1      10.244  37.058  17.221  1.00  0.00     0.201 C 
BRANCH  22  23
HETATM   23  O3  UNL     1      11.268  36.302  16.718  1.00  0.00    -0.388 OA
BRANCH  23  24
HETATM   24  C13 UNL     1      12.513  36.912  16.755  1.00  0.00     0.169 C 
BRANCH  24  25
HETATM   25  C14 UNL     1      13.542  36.127  15.962  1.00  0.00     0.046 C 
BRANCH  25  26
HETATM   26  C15 UNL     1      14.882  36.803  16.167  1.00  0.00     0.124 C 
BRANCH  26  27
HETATM   27  N4  UNL     1      15.390  37.299  14.902  1.00  0.00    -0.365 N 
HETATM   28  C16 UNL     1      15.915  36.415  13.936  1.00  0.00     0.181 C 
HETATM   29  N5  UNL     1      15.192  36.035  12.954  1.00  0.00    -0.374 N 
HETATM   30  N6  UNL     1      17.236  35.953  14.053  1.00  0.00    -0.064 NA
ATOM     31  H52 UNL     1      14.233  36.370  12.868  1.00  0.00     0.158 HD
ATOM     32  H51 UNL     1      15.572  35.396  12.255  1.00  0.00     0.158 HD
ATOM     33  H4  UNL     1      15.367  38.300  14.708  1.00  0.00     0.162 HD
ENDBRANCH  26  27
ENDBRANCH  25  26
ENDBRANCH  24  25
ENDBRANCH  23  24
ENDBRANCH  22  23
ENDBRANCH  19  22
ENDBRANCH  18  19
ENDBRANCH  17  18
ENDBRANCH  14  17
ENDBRANCH   9  11
ENDBRANCH   3   5
TORSDOF 12
ENDMDL
MODEL 5
REMARK VINA RESULT: -6.753781959      2.529      3.245
REMARK  12 active torsions:
REMARK  status: ('A' for Active; 'I' for Inactive)
REMARK    1  A    between atoms: N2_3  and  N3_5 
REMARK    2  A    between atoms: C5_9  and  C6_10 
REMARK    3  A    between atoms: C9_13  and  O1_14 
REMARK    4  A    between atoms: O1_14  and  C10_15 
REMARK    5  A    between atoms: C10_15  and  C11_16 
REMARK    6  A    between atoms: C11_16  and  O2_17 
REMARK    7  A    between atoms: C11_16  and  C12_19 
REMARK    8  A    between atoms: C12_19  and  O3_20 
REMARK    9  A    between atoms: O3_20  and  C13_21 
REMARK   10  A    between atoms: C13_21  and  C14_22 
REMARK   11  A    between atoms: C14_22  and  C15_23 
REMARK   12  A    between atoms: C15_23  and  N4_24 
REMARK       I    between atoms: N4_24  and  C16_26 
ROOT
HETATM    1  N1  UNL     1      10.618  28.315  13.222  1.00  0.00    -0.170 NA
HETATM    2  C1  UNL     1       9.673  28.735  12.702  1.00  0.00     0.198 C 
HETATM    3  N2  UNL     1       8.534  29.254  12.070  1.00  0.00    -0.231 N 
ATOM      4  H2  UNL     1       8.350  29.064  11.085  1.00  0.00     0.200 HD
ENDROOT
BRANCH   3   5
HETATM    5  N3  UNL     1       7.648  30.048  12.835  1.00  0.00    -0.269 N 
HETATM    6  C2  UNL     1       6.396  30.205  12.379  1.00  0.00     0.116 A 
HETATM    7  C3  UNL     1       5.547  30.983  13.144  1.00  0.00     0.020 A 
HETATM    8  C4  UNL     1       5.963  31.577  14.327  1.00  0.00     0.015 A 
HETATM    9  C5  UNL     1       7.256  31.401  14.776  1.00  0.00    -0.008 A 
HETATM   10  C19 UNL     1       8.086  30.612  13.985  1.00  0.00     0.128 A 
BRANCH   9  11
HETATM   11  C6  UNL     1       7.732  32.009  16.016  1.00  0.00    -0.024 A 
HETATM   12  C7  UNL     1       8.563  33.116  16.000  1.00  0.00     0.015 A 
HETATM   13  C8  UNL     1       8.999  33.673  17.166  1.00  0.00     0.037 A 
HETATM   14  C9  UNL     1       8.654  33.190  18.391  1.00  0.00     0.068 A 
HETATM   15  C17 UNL     1       7.823  32.083  18.430  1.00  0.00     0.037 A 
HETATM   16  C18 UNL     1       7.363  31.495  17.264  1.00  0.00     0.015 A 
BRANCH  14  17
HETATM   17  O1  UNL     1       9.086  33.743  19.566  1.00  0.00    -0.349 OA
BRANCH  17  18
HETATM   18  C10 UNL     1      10.132  33.297  20.355  1.00  0.00     0.209 C 
BRANCH  18  19
HETATM   19  C11 UNL     1      11.443  33.880  19.802  1.00  0.00     0.166 C 
BRANCH  19  20
HETATM   20  O2  UNL     1      12.094  34.536  20.882  1.00  0.00    -0.391 OA
ATOM     21  H2  UNL     1      13.027  34.404  20.766  1.00  0.00     0.210 HD
ENDBRANCH  19  20
BRANCH  19  22
HETATM   22  C12 UNL     1      12.364  32.806  19.340  1.00  0.00     0.201 C 
BRANCH  22  23
HETATM   23  O3  UNL     1      11.977  32.112  18.225  1.00  0.00    -0.388 OA
BRANCH  23  24
HETATM   24  C13 UNL     1      11.974  30.733  18.370  1.00  0.00     0.169 C 
BRANCH  24  25
HETATM   25  C14 UNL     1      10.824  30.094  17.614  1.00  0.00     0.046 C 
BRANCH  25  26
HETATM   26  C15 UNL     1      11.329  29.751  16.228  1.00  0.00     0.124 C 
BRANCH  26  27
HETATM   27  N4  UNL     1      11.333  30.936  15.391  1.00  0.00    -0.365 N 
HETATM   28  C16 UNL     1      12.440  31.239  14.570  1.00  0.00     0.181 C 
HETATM   29  N5  UNL     1      12.420  30.939  13.328  1.00  0.00    -0.374 N 
HETATM   30  N6  UNL     1      13.567  31.871  15.119  1.00  0.00    -0.064 NA
ATOM     31  H52 UNL     1      11.602  30.480  12.929  1.00  0.00     0.158 HD
ATOM     32  H51 UNL     1      13.221  31.159  12.735  1.00  0.00     0.158 HD
ATOM     33  H4  UNL     1      10.525  31.558  15.394  1.00  0.00     0.162 HD
ENDBRANCH  26  27
ENDBRANCH  25  26
ENDBRANCH  24  25
ENDBRANCH  23  24
ENDBRANCH  22  23
ENDBRANCH  19  22
ENDBRANCH  18  19
ENDBRANCH  17  18
ENDBRANCH  14  17
ENDBRANCH   9  11
ENDBRANCH   3   5
TORSDOF 12
ENDMDL
