MODEL 1
REMARK VINA RESULT: -7.103187107      0.000      0.000
REMARK  13 active torsions:
REMARK  status: ('A' for Active; 'I' for Inactive)
REMARK    1  A    between atoms: N1_2  and  C3_4 
REMARK    2  A    between atoms: C3_4  and  C4_5 
REMARK    3  A    between atoms: C4_5  and  O1_6 
REMARK    4  A    between atoms: O1_6  and  C5_7 
REMARK    5  A    between atoms: C5_7  and  C6_8 
REMARK    6  A    between atoms: C6_8  and  C7_9 
REMARK    7  A    between atoms: N3_14  and  C10_16 
REMARK    8  A    between atoms: C10_16  and  C11_20 
REMARK    9  A    between atoms: C11_20  and  C12_21 
REMARK   10  A    between atoms: C12_21  and  C13_22 
REMARK   11  A    between atoms: C13_22  and  C14_23 
REMARK   12  A    between atoms: C14_23  and  C15_24 
REMARK   13  A    between atoms: C19_28  and  N5_29 
ROOT
HETATM    1  C10 UNL     1       6.862  32.158  15.010  1.00  0.00     0.091 C 
HETATM    2  N4  UNL     1       6.102  31.319  15.616  1.00  0.00    -0.388 N 
ATOM      3  H41 UNL     1       5.664  30.549  15.112  1.00  0.00     0.157 HD
ATOM      4  H42 UNL     1       5.949  31.439  16.617  1.00  0.00     0.157 HD
ENDROOT
BRANCH   1   5
HETATM    5  N3  UNL     1       7.453  33.199  15.692  1.00  0.00    -0.181 N 
HETATM    6  C9  UNL     1       8.510  33.289  16.373  1.00  0.00     0.685 A 
HETATM    7  N2  UNL     1       8.857  34.485  16.949  1.00  0.00    -0.200 N 
HETATM    8  N7  UNL     1       9.467  32.402  16.694  1.00  0.00    -0.190 N 
HETATM    9  C8  UNL     1      10.005  34.338  17.612  1.00  0.00     0.132 A 
ATOM     10  H2  UNL     1       8.321  35.351  16.882  1.00  0.00     0.183 HD
HETATM   11  C7  UNL     1      10.397  33.030  17.457  1.00  0.00     0.046 A 
HETATM   12  C20 UNL     1       9.498  31.012  16.295  1.00  0.00     0.175 C 
ATOM     13  H3  UNL     1       6.931  34.073  15.634  1.00  0.00     0.185 HD
BRANCH  11  14
HETATM   14  C6  UNL     1      11.597  32.351  17.986  1.00  0.00     0.085 C 
BRANCH  14  15
HETATM   15  C5  UNL     1      12.823  32.641  17.098  1.00  0.00     0.173 C 
BRANCH  15  16
HETATM   16  O1  UNL     1      12.836  31.836  15.998  1.00  0.00    -0.389 OA
BRANCH  16  17
HETATM   17  C4  UNL     1      13.362  32.418  14.876  1.00  0.00     0.198 C 
BRANCH  17  18
HETATM   18  C3  UNL     1      14.018  33.723  15.162  1.00  0.00     0.297 C 
BRANCH  18  19
HETATM   19  N1  UNL     1      14.862  34.169  14.055  1.00  0.00     0.082 N 
HETATM   20  C1  UNL     1      15.013  35.598  14.030  1.00  0.00     0.309 C 
HETATM   21  C2  UNL     1      16.166  33.552  14.153  1.00  0.00     0.309 C 
ENDBRANCH  18  19
ENDBRANCH  17  18
ENDBRANCH  16  17
ENDBRANCH  15  16
ENDBRANCH  14  15
ENDBRANCH  11  14
ENDBRANCH   1   5
BRANCH   1  22
HETATM   22  C11 UNL     1       7.083  31.984  13.557  1.00  0.00     0.076 C 
BRANCH  22  23
HETATM   23  C12 UNL     1       6.284  30.817  13.008  1.00  0.00     0.008 C 
BRANCH  23  24
HETATM   24  C13 UNL     1       7.183  29.837  12.292  1.00  0.00     0.006 C 
BRANCH  24  25
HETATM   25  C14 UNL     1       8.271  29.303  13.177  1.00  0.00     0.057 C 
BRANCH  25  26
HETATM   26  C15 UNL     1       9.622  29.393  12.527  1.00  0.00     0.010 A 
HETATM   27  C16 UNL     1      10.696  30.013  13.125  1.00  0.00     0.025 A 
HETATM   28  C17 UNL     1      11.922  30.079  12.505  1.00  0.00     0.006 A 
HETATM   29  C18 UNL     1      12.069  29.504  11.251  1.00  0.00     0.048 A 
HETATM   30  C19 UNL     1      10.998  28.884  10.653  1.00  0.00     0.098 A 
HETATM   31  N6  UNL     1       9.827  28.849  11.302  1.00  0.00    -0.346 N 
ATOM     32  H6  UNL     1       9.040  28.386  10.846  1.00  0.00     0.167 HD
BRANCH  30  33
HETATM   33  N5  UNL     1      11.161  28.358   9.491  1.00  0.00    -0.385 N 
ATOM     34  H52 UNL     1      11.767  27.553   9.334  1.00  0.00     0.157 HD
ATOM     35  H51 UNL     1      10.665  28.763   8.698  1.00  0.00     0.157 HD
ENDBRANCH  30  33
ENDBRANCH  25  26
ENDBRANCH  24  25
ENDBRANCH  23  24
ENDBRANCH  22  23
ENDBRANCH   1  22
TORSDOF 13
ENDMDL
MODEL 2
REMARK VINA RESULT: -6.920526286      1.541      2.317
REMARK  13 active torsions:
REMARK  status: ('A' for Active; 'I' for Inactive)
REMARK    1  A    between atoms: N1_2  and  C3_4 
REMARK    2  A    between atoms: C3_4  and  C4_5 
REMARK    3  A    between atoms: C4_5  and  O1_6 
REMARK    4  A    between atoms: O1_6  and  C5_7 
REMARK    5  A    between atoms: C5_7  and  C6_8 
REMARK    6  A    between atoms: C6_8  and  C7_9 
REMARK    7  A    between atoms: N3_14  and  C10_16 
REMARK    8  A    between atoms: C10_16  and  C11_20 
REMARK    9  A    between atoms: C11_20  and  C12_21 
REMARK   10  A    between atoms: C12_21  and  C13_22 
REMARK   11  A    between atoms: C13_22  and  C14_23 
REMARK   12  A    between atoms: C14_23  and  C15_24 
REMARK   13  A    between atoms: C19_28  and  N5_29 
ROOT
HETATM    1  C10 UNL     1       7.638  32.566  16.482  1.00  0.00     0.091 C 
HETATM    2  N4  UNL     1       7.237  31.697  17.336  1.00  0.00    -0.388 N 
ATOM      3  H41 UNL     1       6.436  31.098  17.139  1.00  0.00     0.157 HD
ATOM      4  H42 UNL     1       7.744  31.614  18.218  1.00  0.00     0.157 HD
ENDROOT
BRANCH   1   5
HETATM    5  N3  UNL     1       8.722  33.375  16.748  1.00  0.00    -0.181 N 
HETATM    6  C9  UNL     1       9.964  33.222  16.601  1.00  0.00     0.685 A 
HETATM    7  N2  UNL     1      10.829  34.224  16.963  1.00  0.00    -0.200 N 
HETATM    8  N7  UNL     1      10.709  32.208  16.126  1.00  0.00    -0.190 N 
HETATM    9  C8  UNL     1      12.080  33.837  16.714  1.00  0.00     0.132 A 
ATOM     10  H2  UNL     1      10.557  35.124  17.359  1.00  0.00     0.183 HD
HETATM   11  C7  UNL     1      12.015  32.570  16.188  1.00  0.00     0.046 A 
HETATM   12  C20 UNL     1      10.202  30.947  15.634  1.00  0.00     0.175 C 
ATOM     13  H3  UNL     1       8.467  34.280  17.144  1.00  0.00     0.185 HD
BRANCH  11  14
HETATM   14  C6  UNL     1      13.116  31.691  15.740  1.00  0.00     0.085 C 
BRANCH  14  15
HETATM   15  C5  UNL     1      13.393  31.889  14.237  1.00  0.00     0.173 C 
BRANCH  15  16
HETATM   16  O1  UNL     1      14.107  33.029  14.013  1.00  0.00    -0.389 OA
BRANCH  16  17
HETATM   17  C4  UNL     1      15.307  33.083  14.669  1.00  0.00     0.198 C 
BRANCH  17  18
HETATM   18  C3  UNL     1      15.561  34.411  15.290  1.00  0.00     0.297 C 
BRANCH  18  19
HETATM   19  N1  UNL     1      14.838  35.484  14.610  1.00  0.00     0.082 N 
HETATM   20  C1  UNL     1      14.395  36.502  15.522  1.00  0.00     0.309 C 
HETATM   21  C2  UNL     1      15.685  36.083  13.602  1.00  0.00     0.309 C 
ENDBRANCH  18  19
ENDBRANCH  17  18
ENDBRANCH  16  17
ENDBRANCH  15  16
ENDBRANCH  14  15
ENDBRANCH  11  14
ENDBRANCH   1   5
BRANCH   1  22
HETATM   22  C11 UNL     1       6.903  32.686  15.202  1.00  0.00     0.076 C 
BRANCH  22  23
HETATM   23  C12 UNL     1       5.921  31.544  15.016  1.00  0.00     0.008 C 
BRANCH  23  24
HETATM   24  C13 UNL     1       5.644  31.305  13.551  1.00  0.00     0.006 C 
BRANCH  24  25
HETATM   25  C14 UNL     1       6.785  31.730  12.673  1.00  0.00     0.057 C 
BRANCH  25  26
HETATM   26  C15 UNL     1       7.828  30.656  12.543  1.00  0.00     0.010 A 
HETATM   27  C16 UNL     1       7.559  29.326  12.771  1.00  0.00     0.025 A 
HETATM   28  C17 UNL     1       8.535  28.364  12.644  1.00  0.00     0.006 A 
HETATM   29  C18 UNL     1       9.814  28.755  12.277  1.00  0.00     0.048 A 
HETATM   30  C19 UNL     1      10.084  30.084  12.049  1.00  0.00     0.098 A 
HETATM   31  N6  UNL     1       9.096  30.978  12.187  1.00  0.00    -0.346 N 
ATOM     32  H6  UNL     1       9.311  31.960  12.015  1.00  0.00     0.167 HD
BRANCH  30  33
HETATM   33  N5  UNL     1      11.278  30.420  11.708  1.00  0.00    -0.385 N 
ATOM     34  H52 UNL     1      11.825  29.888  11.032  1.00  0.00     0.157 HD
ATOM     35  H51 UNL     1      11.691  31.251  12.132  1.00  0.00     0.157 HD
ENDBRANCH  30  33
ENDBRANCH  25  26
ENDBRANCH  24  25
ENDBRANCH  23  24
ENDBRANCH  22  23
ENDBRANCH   1  22
TORSDOF 13
ENDMDL
MODEL 3
REMARK VINA RESULT: -6.920058778      1.438      1.814
REMARK  13 active torsions:
REMARK  status: ('A' for Active; 'I' for Inactive)
REMARK    1  A    between atoms: N1_2  and  C3_4 
REMARK    2  A    between atoms: C3_4  and  C4_5 
REMARK    3  A    between atoms: C4_5  and  O1_6 
REMARK    4  A    between atoms: O1_6  and  C5_7 
REMARK    5  A    between atoms: C5_7  and  C6_8 
REMARK    6  A    between atoms: C6_8  and  C7_9 
REMARK    7  A    between atoms: N3_14  and  C10_16 
REMARK    8  A    between atoms: C10_16  and  C11_20 
REMARK    9  A    between atoms: C11_20  and  C12_21 
REMARK   10  A    between atoms: C12_21  and  C13_22 
REMARK   11  A    between atoms: C13_22  and  C14_23 
REMARK   12  A    between atoms: C14_23  and  C15_24 
REMARK   13  A    between atoms: C19_28  and  N5_29 
ROOT
HETATM    1  C10 UNL     1       7.844  32.436  15.753  1.00  0.00     0.091 C 
HETATM    2  N4  UNL     1       7.636  31.339  16.386  1.00  0.00    -0.388 N 
ATOM      3  H41 UNL     1       7.379  30.487  15.889  1.00  0.00     0.157 HD
ATOM      4  H42 UNL     1       7.740  31.337  17.401  1.00  0.00     0.157 HD
ENDROOT
BRANCH   1   5
HETATM    5  N3  UNL     1       8.192  33.587  16.425  1.00  0.00    -0.181 N 
HETATM    6  C9  UNL     1       9.301  34.077  16.772  1.00  0.00     0.685 A 
HETATM    7  N2  UNL     1       9.344  35.270  17.448  1.00  0.00    -0.200 N 
HETATM    8  N7  UNL     1      10.570  33.662  16.617  1.00  0.00    -0.190 N 
HETATM    9  C8  UNL     1      10.615  35.585  17.704  1.00  0.00     0.132 A 
ATOM     10  H2  UNL     1       8.533  35.828  17.713  1.00  0.00     0.183 HD
HETATM   11  C7  UNL     1      11.393  34.579  17.185  1.00  0.00     0.046 A 
HETATM   12  C20 UNL     1      10.986  32.444  15.958  1.00  0.00     0.175 C 
ATOM     13  H3  UNL     1       7.392  34.158  16.697  1.00  0.00     0.185 HD
BRANCH  11  14
HETATM   14  C6  UNL     1      12.864  34.444  17.195  1.00  0.00     0.085 C 
BRANCH  14  15
HETATM   15  C5  UNL     1      13.540  35.825  17.086  1.00  0.00     0.173 C 
BRANCH  15  16
HETATM   16  O1  UNL     1      13.821  36.134  15.788  1.00  0.00    -0.389 OA
BRANCH  16  17
HETATM   17  C4  UNL     1      15.040  35.690  15.352  1.00  0.00     0.198 C 
BRANCH  17  18
HETATM   18  C3  UNL     1      14.954  34.957  14.060  1.00  0.00     0.297 C 
BRANCH  18  19
HETATM   19  N1  UNL     1      15.389  33.567  14.186  1.00  0.00     0.082 N 
HETATM   20  C1  UNL     1      16.175  33.350  15.368  1.00  0.00     0.309 C 
HETATM   21  C2  UNL     1      14.236  32.694  14.212  1.00  0.00     0.309 C 
ENDBRANCH  18  19
ENDBRANCH  17  18
ENDBRANCH  16  17
ENDBRANCH  15  16
ENDBRANCH  14  15
ENDBRANCH  11  14
ENDBRANCH   1   5
BRANCH   1  22
HETATM   22  C11 UNL     1       7.693  32.437  14.280  1.00  0.00     0.076 C 
BRANCH  22  23
HETATM   23  C12 UNL     1       6.656  31.427  13.826  1.00  0.00     0.008 C 
BRANCH  23  24
HETATM   24  C13 UNL     1       7.155  30.638  12.639  1.00  0.00     0.006 C 
BRANCH  24  25
HETATM   25  C14 UNL     1       7.930  29.418  13.044  1.00  0.00     0.057 C 
BRANCH  25  26
HETATM   26  C15 UNL     1       9.352  29.466  12.562  1.00  0.00     0.010 A 
HETATM   27  C16 UNL     1      10.370  30.024  13.301  1.00  0.00     0.025 A 
HETATM   28  C17 UNL     1      11.663  30.053  12.833  1.00  0.00     0.006 A 
HETATM   29  C18 UNL     1      11.936  29.504  11.588  1.00  0.00     0.048 A 
HETATM   30  C19 UNL     1      10.920  28.947  10.849  1.00  0.00     0.098 A 
HETATM   31  N6  UNL     1       9.679  28.946  11.353  1.00  0.00    -0.346 N 
ATOM     32  H6  UNL     1       8.935  28.529  10.794  1.00  0.00     0.167 HD
BRANCH  30  33
HETATM   33  N5  UNL     1      11.199  28.444   9.699  1.00  0.00    -0.385 N 
ATOM     34  H52 UNL     1      11.264  27.438   9.542  1.00  0.00     0.157 HD
ATOM     35  H51 UNL     1      11.363  29.076   8.916  1.00  0.00     0.157 HD
ENDBRANCH  30  33
ENDBRANCH  25  26
ENDBRANCH  24  25
ENDBRANCH  23  24
ENDBRANCH  22  23
ENDBRANCH   1  22
TORSDOF 13
ENDMDL
MODEL 4
REMARK VINA RESULT: -6.917524193      1.821      3.049
REMARK  13 active torsions:
REMARK  status: ('A' for Active; 'I' for Inactive)
REMARK    1  A    between atoms: N1_2  and  C3_4 
REMARK    2  A    between atoms: C3_4  and  C4_5 
REMARK    3  A    between atoms: C4_5  and  O1_6 
REMARK    4  A    between atoms: O1_6  and  C5_7 
REMARK    5  A    between atoms: C5_7  and  C6_8 
REMARK    6  A    between atoms: C6_8  and  C7_9 
REMARK    7  A    between atoms: N3_14  and  C10_16 
REMARK    8  A    between atoms: C10_16  and  C11_20 
REMARK    9  A    between atoms: C11_20  and  C12_21 
REMARK   10  A    between atoms: C12_21  and  C13_22 
REMARK   11  A    between atoms: C13_22  and  C14_23 
REMARK   12  A    between atoms: C14_23  and  C15_24 
REMARK   13  A    between atoms: C19_28  and  N5_29 
ROOT
HETATM    1  C10 UNL     1       7.942  31.913  16.417  1.00  0.00     0.091 C 
HETATM    2  N4  UNL     1       7.752  32.253  17.640  1.00  0.00    -0.388 N 
ATOM      3  H41 UNL     1       7.066  32.967  17.885  1.00  0.00     0.157 HD
ATOM      4  H42 UNL     1       8.300  31.788  18.364  1.00  0.00     0.157 HD
ENDROOT
BRANCH   1   5
HETATM    5  N3  UNL     1       8.869  30.947  16.086  1.00  0.00    -0.181 N 
HETATM    6  C9  UNL     1      10.114  30.982  15.896  1.00  0.00     0.685 A 
HETATM    7  N2  UNL     1      10.793  29.835  15.570  1.00  0.00    -0.200 N 
HETATM    8  N7  UNL     1      11.017  31.977  15.945  1.00  0.00    -0.190 N 
HETATM    9  C8  UNL     1      12.088  30.117  15.422  1.00  0.00     0.132 A 
ATOM     10  H2  UNL     1      10.373  28.912  15.459  1.00  0.00     0.183 HD
HETATM   11  C7  UNL     1      12.239  31.462  15.655  1.00  0.00     0.046 A 
HETATM   12  C20 UNL     1      10.733  33.361  16.252  1.00  0.00     0.175 C 
ATOM     13  H3  UNL     1       8.465  30.017  15.972  1.00  0.00     0.185 HD
BRANCH  11  14
HETATM   14  C6  UNL     1      13.470  32.278  15.623  1.00  0.00     0.085 C 
BRANCH  14  15
HETATM   15  C5  UNL     1      13.993  32.417  14.179  1.00  0.00     0.173 C 
BRANCH  15  16
HETATM   16  O1  UNL     1      14.545  33.645  13.971  1.00  0.00    -0.389 OA
BRANCH  16  17
HETATM   17  C4  UNL     1      14.645  34.419  15.096  1.00  0.00     0.198 C 
BRANCH  17  18
HETATM   18  C3  UNL     1      14.827  35.863  14.784  1.00  0.00     0.297 C 
BRANCH  18  19
HETATM   19  N1  UNL     1      13.977  36.716  15.613  1.00  0.00     0.082 N 
HETATM   20  C1  UNL     1      13.431  36.008  16.739  1.00  0.00     0.309 C 
HETATM   21  C2  UNL     1      14.735  37.853  16.085  1.00  0.00     0.309 C 
ENDBRANCH  18  19
ENDBRANCH  17  18
ENDBRANCH  16  17
ENDBRANCH  15  16
ENDBRANCH  14  15
ENDBRANCH  11  14
ENDBRANCH   1   5
BRANCH   1  22
HETATM   22  C11 UNL     1       7.147  32.588  15.367  1.00  0.00     0.076 C 
BRANCH  22  23
HETATM   23  C12 UNL     1       5.936  31.765  14.971  1.00  0.00     0.008 C 
BRANCH  23  24
HETATM   24  C13 UNL     1       5.881  31.571  13.474  1.00  0.00     0.006 C 
BRANCH  24  25
HETATM   25  C14 UNL     1       7.169  31.944  12.799  1.00  0.00     0.057 C 
BRANCH  25  26
HETATM   26  C15 UNL     1       8.087  30.766  12.641  1.00  0.00     0.010 A 
HETATM   27  C16 UNL     1       7.670  29.468  12.826  1.00  0.00     0.025 A 
HETATM   28  C17 UNL     1       8.533  28.408  12.674  1.00  0.00     0.006 A 
HETATM   29  C18 UNL     1       9.852  28.665  12.325  1.00  0.00     0.048 A 
HETATM   30  C19 UNL     1      10.270  29.961  12.140  1.00  0.00     0.098 A 
HETATM   31  N6  UNL     1       9.386  30.955  12.301  1.00  0.00    -0.346 N 
ATOM     32  H6  UNL     1       9.710  31.912  12.161  1.00  0.00     0.167 HD
BRANCH  30  33
HETATM   33  N5  UNL     1      11.496  30.173  11.815  1.00  0.00    -0.385 N 
ATOM     34  H52 UNL     1      11.776  30.430  10.869  1.00  0.00     0.157 HD
ATOM     35  H51 UNL     1      12.214  30.077  12.533  1.00  0.00     0.157 HD
ENDBRANCH  30  33
ENDBRANCH  25  26
ENDBRANCH  24  25
ENDBRANCH  23  24
ENDBRANCH  22  23
ENDBRANCH   1  22
TORSDOF 13
ENDMDL
MODEL 5
REMARK VINA RESULT: -6.869383224      1.764      2.706
REMARK  13 active torsions:
REMARK  status: ('A' for Active; 'I' for Inactive)
REMARK    1  A    between atoms: N1_2  and  C3_4 
REMARK    2  A    between atoms: C3_4  and  C4_5 
REMARK    3  A    between atoms: C4_5  and  O1_6 
REMARK    4  A    between atoms: O1_6  and  C5_7 
REMARK    5  A    between atoms: C5_7  and  C6_8 
REMARK    6  A    between atoms: C6_8  and  C7_9 
REMARK    7  A    between atoms: N3_14  and  C10_16 
REMARK    8  A    between atoms: C10_16  and  C11_20 
REMARK    9  A    between atoms: C11_20  and  C12_21 
REMARK   10  A    between atoms: C12_21  and  C13_22 
REMARK   11  A    between atoms: C13_22  and  C14_23 
REMARK   12  A    between atoms: C14_23  and  C15_24 
REMARK   13  A    between atoms: C19_28  and  N5_29 
ROOT
HETATM    1  C10 UNL     1       7.806  31.889  16.187  1.00  0.00     0.091 C 
HETATM    2  N4  UNL     1       7.479  31.628  17.400  1.00  0.00    -0.388 N 
ATOM      3  H41 UNL     1       6.553  31.861  17.756  1.00  0.00     0.157 HD
ATOM      4  H42 UNL     1       8.168  31.176  18.002  1.00  0.00     0.157 HD
ENDROOT
BRANCH   1   5
HETATM    5  N3  UNL     1       9.060  31.574  15.707  1.00  0.00    -0.181 N 
HETATM    6  C9  UNL     1      10.179  32.148  15.789  1.00  0.00     0.685 A 
HETATM    7  N2  UNL     1      11.283  31.588  15.198  1.00  0.00    -0.200 N 
HETATM    8  N7  UNL     1      10.579  33.288  16.378  1.00  0.00    -0.190 N 
HETATM    9  C8  UNL     1      12.343  32.367  15.419  1.00  0.00     0.132 A 
ATOM     10  H2  UNL     1      11.292  30.714  14.672  1.00  0.00     0.183 HD
HETATM   11  C7  UNL     1      11.910  33.439  16.160  1.00  0.00     0.046 A 
HETATM   12  C20 UNL     1       9.733  34.199  17.116  1.00  0.00     0.175 C 
ATOM     13  H3  UNL     1       9.087  30.702  15.180  1.00  0.00     0.185 HD
BRANCH  11  14
HETATM   14  C6  UNL     1      12.685  34.588  16.673  1.00  0.00     0.085 C 
BRANCH  14  15
HETATM   15  C5  UNL     1      14.113  34.584  16.092  1.00  0.00     0.173 C 
BRANCH  15  16
HETATM   16  O1  UNL     1      14.277  35.585  15.182  1.00  0.00    -0.389 OA
BRANCH  16  17
HETATM   17  C4  UNL     1      14.998  35.229  14.074  1.00  0.00     0.198 C 
BRANCH  17  18
HETATM   18  C3  UNL     1      15.347  33.782  14.057  1.00  0.00     0.297 C 
BRANCH  18  19
HETATM   19  N1  UNL     1      16.758  33.560  13.749  1.00  0.00     0.082 N 
HETATM   20  C1  UNL     1      17.372  34.714  13.153  1.00  0.00     0.309 C 
HETATM   21  C2  UNL     1      17.473  33.208  14.957  1.00  0.00     0.309 C 
ENDBRANCH  18  19
ENDBRANCH  17  18
ENDBRANCH  16  17
ENDBRANCH  15  16
ENDBRANCH  14  15
ENDBRANCH  11  14
ENDBRANCH   1   5
BRANCH   1  22
HETATM   22  C11 UNL     1       6.807  32.545  15.315  1.00  0.00     0.076 C 
BRANCH  22  23
HETATM   23  C12 UNL     1       5.738  31.568  14.861  1.00  0.00     0.008 C 
BRANCH  23  24
HETATM   24  C13 UNL     1       5.660  31.516  13.353  1.00  0.00     0.006 C 
BRANCH  24  25
HETATM   25  C14 UNL     1       6.946  31.928  12.697  1.00  0.00     0.057 C 
BRANCH  25  26
HETATM   26  C15 UNL     1       7.906  30.780  12.565  1.00  0.00     0.010 A 
HETATM   27  C16 UNL     1       7.522  29.468  12.722  1.00  0.00     0.025 A 
HETATM   28  C17 UNL     1       8.424  28.436  12.596  1.00  0.00     0.006 A 
HETATM   29  C18 UNL     1       9.747  28.737  12.302  1.00  0.00     0.048 A 
HETATM   30  C19 UNL     1      10.131  30.048  12.145  1.00  0.00     0.098 A 
HETATM   31  N6  UNL     1       9.211  31.012  12.280  1.00  0.00    -0.346 N 
ATOM     32  H6  UNL     1       9.510  31.980  12.161  1.00  0.00     0.167 HD
BRANCH  30  33
HETATM   33  N5  UNL     1      11.362  30.300  11.872  1.00  0.00    -0.385 N 
ATOM     34  H52 UNL     1      12.106  29.618  12.017  1.00  0.00     0.157 HD
ATOM     35  H51 UNL     1      11.601  31.218  11.498  1.00  0.00     0.157 HD
ENDBRANCH  30  33
ENDBRANCH  25  26
ENDBRANCH  24  25
ENDBRANCH  23  24
ENDBRANCH  22  23
ENDBRANCH   1  22
TORSDOF 13
ENDMDL
