MODEL 1
REMARK VINA RESULT: -7.662660876      0.000      0.000
REMARK  11 active torsions:
REMARK  status: ('A' for Active; 'I' for Inactive)
REMARK       I    between atoms: C1_2  and  N2_3 
REMARK    1  A    between atoms: N3_6  and  C2_8 
REMARK    2  A    between atoms: C2_8  and  C3_9 
REMARK    3  A    between atoms: C3_9  and  C4_10 
REMARK    4  A    between atoms: C6_12  and  C7_13 
REMARK    5  A    between atoms: C7_13  and  N4_14 
REMARK    6  A    between atoms: N4_14  and  C8_16 
REMARK    7  A    between atoms: C8_16  and  C9_17 
REMARK    8  A    between atoms: C13_24  and  O1_25 
REMARK    9  A    between atoms: O1_25  and  C14_26 
REMARK   10  A    between atoms: C14_26  and  C15_27 
REMARK   11  A    between atoms: C15_27  and  C16_28 
ROOT
HETATM    1  C4  UNL     1      11.980  30.628  14.441  1.00  0.00    -0.053 A 
HETATM    2  C5  UNL     1      13.060  31.363  15.017  1.00  0.00     0.020 A 
HETATM    3  C6  UNL     1      12.923  32.398  15.917  1.00  0.00    -0.018 A 
HETATM    4  C12 UNL     1      11.670  32.795  16.294  1.00  0.00     0.049 A 
HETATM    5  C13 UNL     1      10.564  32.084  15.733  1.00  0.00     0.070 A 
HETATM    6  C21 UNL     1      10.788  31.093  14.891  1.00  0.00     0.044 A 
ENDROOT
BRANCH   3   7
HETATM    7  C7  UNL     1      14.181  32.963  16.547  1.00  0.00     0.098 C 
BRANCH   7   8
HETATM    8  N4  UNL     1      15.367  32.622  15.867  1.00  0.00    -0.378 N 
ATOM      9  H4  UNL     1      15.734  31.672  15.910  1.00  0.00     0.164 HD
BRANCH   8  10
HETATM   10  C8  UNL     1      16.020  33.593  15.145  1.00  0.00     0.068 C 
BRANCH  10  11
HETATM   11  C9  UNL     1      15.628  34.437  14.072  1.00  0.00     0.075 C 
HETATM   12  C10 UNL     1      14.906  35.737  14.329  1.00  0.00     0.243 C 
HETATM   13  N5  UNL     1      15.311  36.076  12.891  1.00  0.00    -0.074 N 
HETATM   14  C11 UNL     1      16.533  35.289  13.279  1.00  0.00     0.243 C 
ATOM     15  H52 UNL     1      14.736  35.864  12.075  1.00  0.00     0.277 HD
ATOM     16  H51 UNL     1      15.344  37.027  12.521  1.00  0.00     0.277 HD
ENDBRANCH  10  11
ENDBRANCH   8  10
ENDBRANCH   7   8
ENDBRANCH   3   7
BRANCH   1  17
HETATM   17  C3  UNL     1      12.290  29.416  13.694  1.00  0.00     0.058 C 
BRANCH  17  18
HETATM   18  C2  UNL     1      11.093  28.845  12.860  1.00  0.00     0.127 C 
BRANCH  18  19
HETATM   19  N3  UNL     1      11.523  29.100  11.537  1.00  0.00    -0.365 N 
HETATM   20  C1  UNL     1      11.465  28.739  10.410  1.00  0.00     0.181 C 
HETATM   21  N1  UNL     1      12.461  29.888   9.760  1.00  0.00    -0.064 NA
HETATM   22  N2  UNL     1      11.081  27.998   9.318  1.00  0.00    -0.374 N 
ATOM     23  H22 UNL     1      11.030  27.687   8.348  1.00  0.00     0.158 HD
ATOM     24  H21 UNL     1      10.466  27.290   9.719  1.00  0.00     0.158 HD
ATOM     25  H3  UNL     1      12.123  29.924  11.564  1.00  0.00     0.162 HD
ENDBRANCH  18  19
ENDBRANCH  17  18
ENDBRANCH   1  17
BRANCH   5  26
HETATM   26  O1  UNL     1       9.358  32.502  16.128  1.00  0.00    -0.351 OA
BRANCH  26  27
HETATM   27  C14 UNL     1       8.239  32.806  16.461  1.00  0.00     0.180 C 
BRANCH  27  28
HETATM   28  C15 UNL     1       7.063  31.742  16.529  1.00  0.00     0.062 C 
BRANCH  28  29
HETATM   29  C16 UNL     1       6.863  31.612  15.012  1.00  0.00    -0.060 A 
HETATM   30  C17 UNL     1       7.277  30.555  14.397  1.00  0.00     0.006 A 
HETATM   31  C18 UNL     1       7.027  29.975  13.168  1.00  0.00     0.017 A 
HETATM   32  C19 UNL     1       6.072  30.859  12.464  1.00  0.00     0.083 A 
HETATM   33  N6  UNL     1       5.638  31.929  12.994  1.00  0.00    -0.395 N 
HETATM   34  C20 UNL     1       5.941  32.455  14.292  1.00  0.00     0.153 A 
ATOM     35  H6  UNL     1       4.997  32.483  12.426  1.00  0.00     0.159 HD
ENDBRANCH  28  29
ENDBRANCH  27  28
ENDBRANCH  26  27
ENDBRANCH   5  26
TORSDOF 11
ENDMDL
MODEL 2
REMARK VINA RESULT: -7.558260140      1.816      6.774
REMARK  11 active torsions:
REMARK  status: ('A' for Active; 'I' for Inactive)
REMARK       I    between atoms: C1_2  and  N2_3 
REMARK    1  A    between atoms: N3_6  and  C2_8 
REMARK    2  A    between atoms: C2_8  and  C3_9 
REMARK    3  A    between atoms: C3_9  and  C4_10 
REMARK    4  A    between atoms: C6_12  and  C7_13 
REMARK    5  A    between atoms: C7_13  and  N4_14 
REMARK    6  A    between atoms: N4_14  and  C8_16 
REMARK    7  A    between atoms: C8_16  and  C9_17 
REMARK    8  A    between atoms: C13_24  and  O1_25 
REMARK    9  A    between atoms: O1_25  and  C14_26 
REMARK   10  A    between atoms: C14_26  and  C15_27 
REMARK   11  A    between atoms: C15_27  and  C16_28 
ROOT
HETATM    1  C4  UNL     1      10.859  30.005  14.198  1.00  0.00    -0.053 A 
HETATM    2  C5  UNL     1      10.046  30.755  15.101  1.00  0.00     0.020 A 
HETATM    3  C6  UNL     1      10.425  31.924  15.725  1.00  0.00    -0.018 A 
HETATM    4  C12 UNL     1      11.678  32.424  15.503  1.00  0.00     0.049 A 
HETATM    5  C13 UNL     1      12.522  31.697  14.608  1.00  0.00     0.070 A 
HETATM    6  C21 UNL     1      12.071  30.594  14.040  1.00  0.00     0.044 A 
ENDROOT
BRANCH   3   7
HETATM    7  C7  UNL     1       9.380  32.671  16.530  1.00  0.00     0.098 C 
BRANCH   7   8
HETATM    8  N4  UNL     1       8.070  32.179  16.367  1.00  0.00    -0.378 N 
ATOM      9  H4  UNL     1       7.749  31.372  16.902  1.00  0.00     0.164 HD
BRANCH   8  10
HETATM   10  C8  UNL     1       7.232  32.806  15.475  1.00  0.00     0.068 C 
BRANCH  10  11
HETATM   11  C9  UNL     1       6.488  32.351  14.355  1.00  0.00     0.075 C 
HETATM   12  C10 UNL     1       7.141  32.170  13.007  1.00  0.00     0.243 C 
HETATM   13  N5  UNL     1       5.901  31.331  12.681  1.00  0.00    -0.074 N 
HETATM   14  C11 UNL     1       6.033  30.965  14.135  1.00  0.00     0.243 C 
ATOM     15  H52 UNL     1       5.050  31.715  12.269  1.00  0.00     0.277 HD
ATOM     16  H51 UNL     1       5.862  30.646  11.926  1.00  0.00     0.277 HD
ENDBRANCH  10  11
ENDBRANCH   8  10
ENDBRANCH   7   8
ENDBRANCH   3   7
BRANCH   1  17
HETATM   17  C3  UNL     1      10.238  28.926  13.443  1.00  0.00     0.058 C 
BRANCH  17  18
HETATM   18  C2  UNL     1       9.486  29.390  12.149  1.00  0.00     0.127 C 
BRANCH  18  19
HETATM   19  N3  UNL     1      10.535  29.404  11.201  1.00  0.00    -0.365 N 
HETATM   20  C1  UNL     1      11.018  28.841  10.277  1.00  0.00     0.181 C 
HETATM   21  N1  UNL     1      12.292  29.869  10.035  1.00  0.00    -0.064 NA
HETATM   22  N2  UNL     1      11.173  27.906   9.283  1.00  0.00    -0.374 N 
ATOM     23  H22 UNL     1      11.589  27.421   8.488  1.00  0.00     0.158 HD
ATOM     24  H21 UNL     1      10.389  27.272   9.433  1.00  0.00     0.158 HD
ATOM     25  H3  UNL     1      11.104  30.230  11.388  1.00  0.00     0.162 HD
ENDBRANCH  18  19
ENDBRANCH  17  18
ENDBRANCH   1  17
BRANCH   5  26
HETATM   26  O1  UNL     1      13.737  32.219  14.417  1.00  0.00    -0.351 OA
BRANCH  26  27
HETATM   27  C14 UNL     1      14.797  32.761  14.222  1.00  0.00     0.180 C 
BRANCH  27  28
HETATM   28  C15 UNL     1      15.625  33.434  15.397  1.00  0.00     0.062 C 
BRANCH  28  29
HETATM   29  C16 UNL     1      14.743  34.685  15.533  1.00  0.00    -0.060 A 
HETATM   30  C17 UNL     1      14.162  34.942  16.658  1.00  0.00     0.006 A 
HETATM   31  C18 UNL     1      13.572  36.056  17.223  1.00  0.00     0.017 A 
HETATM   32  C19 UNL     1      13.656  37.141  16.219  1.00  0.00     0.083 A 
HETATM   33  N6  UNL     1      14.190  36.956  15.081  1.00  0.00    -0.395 N 
HETATM   34  C20 UNL     1      14.797  35.760  14.576  1.00  0.00     0.153 A 
ATOM     35  H6  UNL     1      14.186  37.756  14.449  1.00  0.00     0.159 HD
ENDBRANCH  28  29
ENDBRANCH  27  28
ENDBRANCH  26  27
ENDBRANCH   5  26
TORSDOF 11
ENDMDL
MODEL 3
REMARK VINA RESULT: -7.530301594      1.461      7.127
REMARK  11 active torsions:
REMARK  status: ('A' for Active; 'I' for Inactive)
REMARK       I    between atoms: C1_2  and  N2_3 
REMARK    1  A    between atoms: N3_6  and  C2_8 
REMARK    2  A    between atoms: C2_8  and  C3_9 
REMARK    3  A    between atoms: C3_9  and  C4_10 
REMARK    4  A    between atoms: C6_12  and  C7_13 
REMARK    5  A    between atoms: C7_13  and  N4_14 
REMARK    6  A    between atoms: N4_14  and  C8_16 
REMARK    7  A    between atoms: C8_16  and  C9_17 
REMARK    8  A    between atoms: C13_24  and  O1_25 
REMARK    9  A    between atoms: O1_25  and  C14_26 
REMARK   10  A    between atoms: C14_26  and  C15_27 
REMARK   11  A    between atoms: C15_27  and  C16_28 
ROOT
HETATM    1  C4  UNL     1      10.834  30.274  14.573  1.00  0.00    -0.053 A 
HETATM    2  C5  UNL     1       9.657  30.751  15.226  1.00  0.00     0.020 A 
HETATM    3  C6  UNL     1       9.584  31.895  15.990  1.00  0.00    -0.018 A 
HETATM    4  C12 UNL     1      10.710  32.647  16.179  1.00  0.00     0.049 A 
HETATM    5  C13 UNL     1      11.909  32.196  15.545  1.00  0.00     0.070 A 
HETATM    6  C21 UNL     1      11.885  31.096  14.815  1.00  0.00     0.044 A 
ENDROOT
BRANCH   3   7
HETATM    7  C7  UNL     1       8.219  32.337  16.479  1.00  0.00     0.098 C 
BRANCH   7   8
HETATM    8  N4  UNL     1       7.590  33.286  15.648  1.00  0.00    -0.378 N 
ATOM      9  H4  UNL     1       8.000  34.211  15.515  1.00  0.00     0.164 HD
BRANCH   8  10
HETATM   10  C8  UNL     1       6.416  32.943  15.020  1.00  0.00     0.068 C 
BRANCH  10  11
HETATM   11  C9  UNL     1       6.105  32.063  13.950  1.00  0.00     0.075 C 
HETATM   12  C10 UNL     1       7.050  31.888  12.787  1.00  0.00     0.243 C 
HETATM   13  N5  UNL     1       6.234  30.622  12.505  1.00  0.00    -0.074 N 
HETATM   14  C11 UNL     1       6.166  30.591  14.007  1.00  0.00     0.243 C 
ATOM     15  H52 UNL     1       5.412  30.601  11.901  1.00  0.00     0.277 HD
ATOM     16  H51 UNL     1       6.573  29.845  11.937  1.00  0.00     0.277 HD
ENDBRANCH  10  11
ENDBRANCH   8  10
ENDBRANCH   7   8
ENDBRANCH   3   7
BRANCH   1  17
HETATM   17  C3  UNL     1      10.699  29.186  13.614  1.00  0.00     0.058 C 
BRANCH  17  18
HETATM   18  C2  UNL     1       9.802  29.522  12.375  1.00  0.00     0.127 C 
BRANCH  18  19
HETATM   19  N3  UNL     1      10.748  29.491  11.324  1.00  0.00    -0.365 N 
HETATM   20  C1  UNL     1      11.107  28.910  10.356  1.00  0.00     0.181 C 
HETATM   21  N1  UNL     1      12.395  29.878   9.983  1.00  0.00    -0.064 NA
HETATM   22  N2  UNL     1      11.114  27.972   9.351  1.00  0.00    -0.374 N 
ATOM     23  H22 UNL     1      11.423  27.472   8.517  1.00  0.00     0.158 HD
ATOM     24  H21 UNL     1      10.320  27.375   9.581  1.00  0.00     0.158 HD
ATOM     25  H3  UNL     1      11.371  30.289  11.450  1.00  0.00     0.162 HD
ENDBRANCH  18  19
ENDBRANCH  17  18
ENDBRANCH   1  17
BRANCH   5  26
HETATM   26  O1  UNL     1      12.987  32.958  15.754  1.00  0.00    -0.351 OA
BRANCH  26  27
HETATM   27  C14 UNL     1      13.994  33.582  15.981  1.00  0.00     0.180 C 
BRANCH  27  28
HETATM   28  C15 UNL     1      14.093  35.144  15.714  1.00  0.00     0.062 C 
BRANCH  28  29
HETATM   29  C16 UNL     1      15.355  35.088  14.839  1.00  0.00    -0.060 A 
HETATM   30  C17 UNL     1      16.267  34.208  15.083  1.00  0.00     0.006 A 
HETATM   31  C18 UNL     1      17.334  33.683  14.379  1.00  0.00     0.017 A 
HETATM   32  C19 UNL     1      17.364  34.372  13.069  1.00  0.00     0.083 A 
HETATM   33  N6  UNL     1      16.514  35.267  12.767  1.00  0.00    -0.395 N 
HETATM   34  C20 UNL     1      15.420  35.746  13.559  1.00  0.00     0.153 A 
ATOM     35  H6  UNL     1      16.625  35.698  11.850  1.00  0.00     0.159 HD
ENDBRANCH  28  29
ENDBRANCH  27  28
ENDBRANCH  26  27
ENDBRANCH   5  26
TORSDOF 11
ENDMDL
MODEL 4
REMARK VINA RESULT: -7.522156791      1.399      5.517
REMARK  11 active torsions:
REMARK  status: ('A' for Active; 'I' for Inactive)
REMARK       I    between atoms: C1_2  and  N2_3 
REMARK    1  A    between atoms: N3_6  and  C2_8 
REMARK    2  A    between atoms: C2_8  and  C3_9 
REMARK    3  A    between atoms: C3_9  and  C4_10 
REMARK    4  A    between atoms: C6_12  and  C7_13 
REMARK    5  A    between atoms: C7_13  and  N4_14 
REMARK    6  A    between atoms: N4_14  and  C8_16 
REMARK    7  A    between atoms: C8_16  and  C9_17 
REMARK    8  A    between atoms: C13_24  and  O1_25 
REMARK    9  A    between atoms: O1_25  and  C14_26 
REMARK   10  A    between atoms: C14_26  and  C15_27 
REMARK   11  A    between atoms: C15_27  and  C16_28 
ROOT
HETATM    1  C4  UNL     1      12.703  34.546  16.695  1.00  0.00    -0.053 A 
HETATM    2  C5  UNL     1      13.254  33.482  15.919  1.00  0.00     0.020 A 
HETATM    3  C6  UNL     1      12.536  32.428  15.396  1.00  0.00    -0.018 A 
HETATM    4  C12 UNL     1      11.193  32.350  15.636  1.00  0.00     0.049 A 
HETATM    5  C13 UNL     1      10.606  33.396  16.414  1.00  0.00     0.070 A 
HETATM    6  C21 UNL     1      11.367  34.377  16.862  1.00  0.00     0.044 A 
ENDROOT
BRANCH   3   7
HETATM    7  C7  UNL     1      13.254  31.472  14.465  1.00  0.00     0.098 C 
BRANCH   7   8
HETATM    8  N4  UNL     1      12.501  31.096  13.335  1.00  0.00    -0.378 N 
ATOM      9  H4  UNL     1      12.158  31.801  12.682  1.00  0.00     0.164 HD
BRANCH   8  10
HETATM   10  C8  UNL     1      12.237  29.763  13.127  1.00  0.00     0.068 C 
BRANCH  10  11
HETATM   11  C9  UNL     1      11.693  29.037  12.034  1.00  0.00     0.075 C 
HETATM   12  C10 UNL     1      10.394  29.455  11.391  1.00  0.00     0.243 C 
HETATM   13  N5  UNL     1      10.845  28.556  10.236  1.00  0.00    -0.074 N 
HETATM   14  C11 UNL     1      12.197  29.072  10.649  1.00  0.00     0.243 C 
ATOM     15  H52 UNL     1      10.615  27.564  10.167  1.00  0.00     0.277 HD
ATOM     16  H51 UNL     1      10.478  28.626   9.287  1.00  0.00     0.277 HD
ENDBRANCH  10  11
ENDBRANCH   8  10
ENDBRANCH   7   8
ENDBRANCH   3   7
BRANCH   1  17
HETATM   17  C3  UNL     1      13.542  35.703  16.976  1.00  0.00     0.058 C 
BRANCH  17  18
HETATM   18  C2  UNL     1      13.448  36.845  15.909  1.00  0.00     0.127 C 
BRANCH  18  19
HETATM   19  N3  UNL     1      14.681  36.702  15.231  1.00  0.00    -0.365 N 
HETATM   20  C1  UNL     1      15.199  36.406  14.207  1.00  0.00     0.181 C 
HETATM   21  N1  UNL     1      16.768  36.623  14.684  1.00  0.00    -0.064 NA
HETATM   22  N2  UNL     1      15.317  36.026  12.892  1.00  0.00    -0.374 N 
ATOM     23  H22 UNL     1      15.762  35.771  12.010  1.00  0.00     0.158 HD
ATOM     24  H21 UNL     1      14.350  35.892  12.598  1.00  0.00     0.158 HD
ATOM     25  H3  UNL     1      15.421  36.955  15.886  1.00  0.00     0.162 HD
ENDBRANCH  18  19
ENDBRANCH  17  18
ENDBRANCH   1  17
BRANCH   5  26
HETATM   26  O1  UNL     1       9.292  33.283  16.624  1.00  0.00    -0.351 OA
BRANCH  26  27
HETATM   27  C14 UNL     1       8.116  33.101  16.825  1.00  0.00     0.180 C 
BRANCH  27  28
HETATM   28  C15 UNL     1       7.467  31.654  16.761  1.00  0.00     0.062 C 
BRANCH  28  29
HETATM   29  C16 UNL     1       7.188  31.658  15.250  1.00  0.00    -0.060 A 
HETATM   30  C17 UNL     1       7.561  30.657  14.525  1.00  0.00     0.006 A 
HETATM   31  C18 UNL     1       7.244  30.188  13.265  1.00  0.00     0.017 A 
HETATM   32  C19 UNL     1       6.261  31.135  12.690  1.00  0.00     0.083 A 
HETATM   33  N6  UNL     1       5.866  32.157  13.334  1.00  0.00    -0.395 N 
HETATM   34  C20 UNL     1       6.239  32.565  14.656  1.00  0.00     0.153 A 
ATOM     35  H6  UNL     1       5.202  32.761  12.851  1.00  0.00     0.159 HD
ENDBRANCH  28  29
ENDBRANCH  27  28
ENDBRANCH  26  27
ENDBRANCH   5  26
TORSDOF 11
ENDMDL
MODEL 5
REMARK VINA RESULT: -7.504639235      1.838      7.462
REMARK  11 active torsions:
REMARK  status: ('A' for Active; 'I' for Inactive)
REMARK       I    between atoms: C1_2  and  N2_3 
REMARK    1  A    between atoms: N3_6  and  C2_8 
REMARK    2  A    between atoms: C2_8  and  C3_9 
REMARK    3  A    between atoms: C3_9  and  C4_10 
REMARK    4  A    between atoms: C6_12  and  C7_13 
REMARK    5  A    between atoms: C7_13  and  N4_14 
REMARK    6  A    between atoms: N4_14  and  C8_16 
REMARK    7  A    between atoms: C8_16  and  C9_17 
REMARK    8  A    between atoms: C13_24  and  O1_25 
REMARK    9  A    between atoms: O1_25  and  C14_26 
REMARK   10  A    between atoms: C14_26  and  C15_27 
REMARK   11  A    between atoms: C15_27  and  C16_28 
ROOT
HETATM    1  C4  UNL     1      10.761  29.979  14.194  1.00  0.00    -0.053 A 
HETATM    2  C5  UNL     1       9.945  30.687  15.127  1.00  0.00     0.020 A 
HETATM    3  C6  UNL     1      10.314  31.838  15.789  1.00  0.00    -0.018 A 
HETATM    4  C12 UNL     1      11.560  32.360  15.579  1.00  0.00     0.049 A 
HETATM    5  C13 UNL     1      12.407  31.675  14.655  1.00  0.00     0.070 A 
HETATM    6  C21 UNL     1      11.966  30.587  14.051  1.00  0.00     0.044 A 
ENDROOT
BRANCH   3   7
HETATM    7  C7  UNL     1       9.265  32.544  16.625  1.00  0.00     0.098 C 
BRANCH   7   8
HETATM    8  N4  UNL     1       8.367  33.330  15.876  1.00  0.00    -0.378 N 
ATOM      9  H4  UNL     1       8.634  34.260  15.554  1.00  0.00     0.164 HD
BRANCH   8  10
HETATM   10  C8  UNL     1       7.123  32.820  15.585  1.00  0.00     0.068 C 
BRANCH  10  11
HETATM   11  C9  UNL     1       6.532  32.314  14.397  1.00  0.00     0.075 C 
HETATM   12  C10 UNL     1       7.304  32.267  13.102  1.00  0.00     0.243 C 
HETATM   13  N5  UNL     1       6.213  31.288  12.656  1.00  0.00    -0.074 N 
HETATM   14  C11 UNL     1       6.280  30.890  14.106  1.00  0.00     0.243 C 
ATOM     15  H52 UNL     1       5.353  31.575  12.188  1.00  0.00     0.277 HD
ATOM     16  H51 UNL     1       6.322  30.632  11.883  1.00  0.00     0.277 HD
ENDBRANCH  10  11
ENDBRANCH   8  10
ENDBRANCH   7   8
ENDBRANCH   3   7
BRANCH   1  17
HETATM   17  C3  UNL     1      10.148  28.921  13.403  1.00  0.00     0.058 C 
BRANCH  17  18
HETATM   18  C2  UNL     1       9.437  29.415  12.099  1.00  0.00     0.127 C 
BRANCH  18  19
HETATM   19  N3  UNL     1      10.508  29.416  11.175  1.00  0.00    -0.365 N 
HETATM   20  C1  UNL     1      11.015  28.837  10.274  1.00  0.00     0.181 C 
HETATM   21  N1  UNL     1      12.288  29.868  10.040  1.00  0.00    -0.064 NA
HETATM   22  N2  UNL     1      11.198  27.882   9.303  1.00  0.00    -0.374 N 
ATOM     23  H22 UNL     1      11.635  27.383   8.528  1.00  0.00     0.158 HD
ATOM     24  H21 UNL     1      10.414  27.247   9.448  1.00  0.00     0.158 HD
ATOM     25  H3  UNL     1      11.068  30.249  11.357  1.00  0.00     0.162 HD
ENDBRANCH  18  19
ENDBRANCH  17  18
ENDBRANCH   1  17
BRANCH   5  26
HETATM   26  O1  UNL     1      13.615  32.218  14.477  1.00  0.00    -0.351 OA
BRANCH  26  27
HETATM   27  C14 UNL     1      14.672  32.759  14.262  1.00  0.00     0.180 C 
BRANCH  27  28
HETATM   28  C15 UNL     1      14.850  34.332  14.385  1.00  0.00     0.062 C 
BRANCH  28  29
HETATM   29  C16 UNL     1      16.384  34.337  14.296  1.00  0.00    -0.060 A 
HETATM   30  C17 UNL     1      16.980  33.587  13.430  1.00  0.00     0.006 A 
HETATM   31  C18 UNL     1      18.246  33.544  12.878  1.00  0.00     0.017 A 
HETATM   32  C19 UNL     1      19.025  34.633  13.510  1.00  0.00     0.083 A 
HETATM   33  N6  UNL     1      18.515  35.395  14.388  1.00  0.00    -0.395 N 
HETATM   34  C20 UNL     1      17.176  35.380  14.897  1.00  0.00     0.153 A 
ATOM     35  H6  UNL     1      19.134  36.105  14.779  1.00  0.00     0.159 HD
ENDBRANCH  28  29
ENDBRANCH  27  28
ENDBRANCH  26  27
ENDBRANCH   5  26
TORSDOF 11
ENDMDL
