MODEL 1
REMARK VINA RESULT: -4.927307840      0.000      0.000
REMARK  1 active torsions:
REMARK  status: ('A' for Active; 'I' for Inactive)
REMARK    1  A    between atoms: C6_7  and  O1_8 
ROOT
HETATM    1  C1  UNL     1       8.660  -1.314   5.382  1.00  0.00     0.033 C 
HETATM    2  C2  UNL     1       8.576  -1.928   6.784  1.00  0.00     0.069 C 
HETATM    3  C3  UNL     1       9.034  -3.391   6.719  1.00  0.00     0.033 C 
HETATM    4  S1  UNL     1       6.854  -1.928   7.270  1.00  0.00    -0.153 SA
HETATM    5  C4  UNL     1       6.515  -0.978   8.749  1.00  0.00     0.077 C 
HETATM    6  C5  UNL     1       7.739  -0.207   9.233  1.00  0.00     0.048 C 
HETATM    7  C6  UNL     1       8.959  -1.072   9.115  1.00  0.00     0.192 C 
HETATM    8  C7  UNL     1       9.480  -1.180   7.706  1.00  0.00     0.284 C 
HETATM    9  F1  UNL     1      10.683  -1.896   7.820  1.00  0.00    -0.202 F 
HETATM   10  F2  UNL     1       9.850   0.056   7.199  1.00  0.00    -0.202 F 
ENDROOT
BRANCH   7  11
HETATM   11  O1  UNL     1      10.003  -0.646   9.936  1.00  0.00    -0.389 OA
ATOM     12  H1  UNL     1      10.405  -1.359  10.419  1.00  0.00     0.210 HD
ENDBRANCH   7  11
TORSDOF 1
ENDMDL
MODEL 2
REMARK VINA RESULT: -4.287146998      1.959      2.230
REMARK  1 active torsions:
REMARK  status: ('A' for Active; 'I' for Inactive)
REMARK    1  A    between atoms: C6_7  and  O1_8 
ROOT
HETATM    1  C1  UNL     1       6.362  -1.032   6.069  1.00  0.00     0.033 C 
HETATM    2  C2  UNL     1       7.134  -1.773   7.167  1.00  0.00     0.069 C 
HETATM    3  C3  UNL     1       6.504  -3.156   7.375  1.00  0.00     0.033 C 
HETATM    4  S1  UNL     1       6.921  -0.855   8.688  1.00  0.00    -0.153 SA
HETATM    5  C4  UNL     1       8.453  -0.258   9.398  1.00  0.00     0.077 C 
HETATM    6  C5  UNL     1       9.648  -0.507   8.484  1.00  0.00     0.048 C 
HETATM    7  C6  UNL     1       9.542  -1.875   7.875  1.00  0.00     0.192 C 
HETATM    8  C7  UNL     1       8.552  -1.948   6.742  1.00  0.00     0.284 C 
HETATM    9  F1  UNL     1       8.700  -3.243   6.218  1.00  0.00    -0.202 F 
HETATM   10  F2  UNL     1       8.902  -1.102   5.699  1.00  0.00    -0.202 F 
ENDROOT
BRANCH   7  11
HETATM   11  O1  UNL     1      10.768  -2.358   7.417  1.00  0.00    -0.389 OA
ATOM     12  H1  UNL     1      11.317  -1.676   7.049  1.00  0.00     0.210 HD
ENDBRANCH   7  11
TORSDOF 1
ENDMDL
MODEL 3
REMARK VINA RESULT: -3.361568713      1.815      2.976
REMARK  1 active torsions:
REMARK  status: ('A' for Active; 'I' for Inactive)
REMARK    1  A    between atoms: C6_7  and  O1_8 
ROOT
HETATM    1  C1  UNL     1       7.294  -2.539   7.186  1.00  0.00     0.033 C 
HETATM    2  C2  UNL     1       8.704  -2.153   6.725  1.00  0.00     0.069 C 
HETATM    3  C3  UNL     1       8.599  -1.314   5.445  1.00  0.00     0.033 C 
HETATM    4  S1  UNL     1       9.564  -3.665   6.303  1.00  0.00    -0.153 SA
HETATM    5  C4  UNL     1      11.040  -3.957   7.275  1.00  0.00     0.077 C 
HETATM    6  C5  UNL     1      11.202  -2.938   8.398  1.00  0.00     0.048 C 
HETATM    7  C6  UNL     1      10.850  -1.570   7.894  1.00  0.00     0.192 C 
HETATM    8  C7  UNL     1       9.365  -1.339   7.784  1.00  0.00     0.284 C 
HETATM    9  F1  UNL     1       9.236   0.018   7.443  1.00  0.00    -0.202 F 
HETATM   10  F2  UNL     1       8.735  -1.455   9.015  1.00  0.00    -0.202 F 
ENDROOT
BRANCH   7  11
HETATM   11  O1  UNL     1      11.395  -0.550   8.674  1.00  0.00    -0.389 OA
ATOM     12  H1  UNL     1      10.738  -0.077   9.172  1.00  0.00     0.210 HD
ENDBRANCH   7  11
TORSDOF 1
ENDMDL
MODEL 4
REMARK VINA RESULT: -3.336217684      2.419      3.014
REMARK  1 active torsions:
REMARK  status: ('A' for Active; 'I' for Inactive)
REMARK    1  A    between atoms: C6_7  and  O1_8 
ROOT
HETATM    1  C1  UNL     1       9.045  -3.486   6.428  1.00  0.00     0.033 C 
HETATM    2  C2  UNL     1       8.722  -2.004   6.648  1.00  0.00     0.069 C 
HETATM    3  C3  UNL     1       8.671  -1.296   5.288  1.00  0.00     0.033 C 
HETATM    4  S1  UNL     1      10.078  -1.289   7.571  1.00  0.00    -0.153 SA
HETATM    5  C4  UNL     1       9.598  -0.603   9.154  1.00  0.00     0.077 C 
HETATM    6  C5  UNL     1       8.141  -0.901   9.494  1.00  0.00     0.048 C 
HETATM    7  C6  UNL     1       7.291  -0.727   8.270  1.00  0.00     0.192 C 
HETATM    8  C7  UNL     1       7.390  -1.880   7.307  1.00  0.00     0.284 C 
HETATM    9  F1  UNL     1       6.432  -1.606   6.316  1.00  0.00    -0.202 F 
HETATM   10  F2  UNL     1       6.971  -3.070   7.884  1.00  0.00    -0.202 F 
ENDROOT
BRANCH   7  11
HETATM   11  O1  UNL     1       5.945  -0.524   8.573  1.00  0.00    -0.389 OA
ATOM     12  H1  UNL     1       5.504   0.027   7.937  1.00  0.00     0.210 HD
ENDBRANCH   7  11
TORSDOF 1
ENDMDL
MODEL 5
REMARK VINA RESULT: -3.204316793      2.155      2.320
REMARK  1 active torsions:
REMARK  status: ('A' for Active; 'I' for Inactive)
REMARK    1  A    between atoms: C6_7  and  O1_8 
ROOT
HETATM    1  C1  UNL     1      10.246   0.144   7.273  1.00  0.00     0.033 C 
HETATM    2  C2  UNL     1       9.523  -0.855   8.185  1.00  0.00     0.069 C 
HETATM    3  C3  UNL     1      10.548  -1.844   8.754  1.00  0.00     0.033 C 
HETATM    4  S1  UNL     1       8.388  -1.789   7.166  1.00  0.00    -0.153 SA
HETATM    5  C4  UNL     1       6.672  -1.627   7.652  1.00  0.00     0.077 C 
HETATM    6  C5  UNL     1       6.480  -0.587   8.752  1.00  0.00     0.048 C 
HETATM    7  C6  UNL     1       7.577  -0.718   9.767  1.00  0.00     0.192 C 
HETATM    8  C7  UNL     1       8.883  -0.120   9.313  1.00  0.00     0.284 C 
HETATM    9  F1  UNL     1       9.727  -0.208  10.433  1.00  0.00    -0.202 F 
HETATM   10  F2  UNL     1       8.767   1.240   9.064  1.00  0.00    -0.202 F 
ENDROOT
BRANCH   7  11
HETATM   11  O1  UNL     1       7.242  -0.154  10.998  1.00  0.00    -0.389 OA
ATOM     12  H1  UNL     1       7.823   0.554  11.248  1.00  0.00     0.210 HD
ENDBRANCH   7  11
TORSDOF 1
ENDMDL
