MODEL 1
REMARK VINA RESULT: -5.531299342      0.000      0.000
REMARK  1 active torsions:
REMARK  status: ('A' for Active; 'I' for Inactive)
REMARK    1  A    between atoms: C2_2  and  C3_3 
ROOT
HETATM    1  C1  UNL     1      48.938 -50.764  18.230  1.00  0.00     0.021 C 
HETATM    2  C2  UNL     1      50.179 -51.423  17.715  1.00  0.00    -0.005 C 
HETATM    3  C4  UNL     1      51.420 -51.031  18.513  1.00  0.00     0.047 C 
HETATM    4  C5  UNL     1      52.266 -50.171  17.591  1.00  0.00     0.187 C 
HETATM    5  C6  UNL     1      51.158 -49.587  16.695  1.00  0.00     0.040 C 
HETATM    6  C7  UNL     1      50.573 -50.966  16.337  1.00  0.00     0.026 C 
HETATM    7  C8  UNL     1      51.836 -51.697  15.963  1.00  0.00     0.238 C 
HETATM    8  N2  UNL     1      52.939 -50.996  16.620  1.00  0.00    -0.070 N 
ATOM      9  H21 UNL     1      53.661 -51.605  17.005  1.00  0.00     0.277 HD
ATOM     10  H22 UNL     1      53.559 -50.490  15.988  1.00  0.00     0.277 HD
ENDROOT
BRANCH   2  11
HETATM   11  C3  UNL     1      50.000 -52.897  17.666  1.00  0.00     0.062 C 
HETATM   12  N1  UNL     1      50.386 -53.681  18.590  1.00  0.00    -0.410 N 
ATOM     13  H12 UNL     1      50.840 -53.260  19.400  1.00  0.00     0.155 HD
ATOM     14  H11 UNL     1      50.263 -54.693  18.556  1.00  0.00     0.155 HD
ENDBRANCH   2  11
TORSDOF 1
ENDMDL
MODEL 2
REMARK VINA RESULT: -5.212301091      1.774      2.655
REMARK  1 active torsions:
REMARK  status: ('A' for Active; 'I' for Inactive)
REMARK    1  A    between atoms: C2_2  and  C3_3 
ROOT
HETATM    1  C1  UNL     1      51.093 -48.972  16.567  1.00  0.00     0.021 C 
HETATM    2  C2  UNL     1      50.750 -50.203  17.346  1.00  0.00    -0.005 C 
HETATM    3  C4  UNL     1      51.925 -50.712  18.177  1.00  0.00     0.047 C 
HETATM    4  C5  UNL     1      52.366 -52.017  17.537  1.00  0.00     0.187 C 
HETATM    5  C6  UNL     1      51.921 -51.756  16.085  1.00  0.00     0.040 C 
HETATM    6  C7  UNL     1      50.475 -51.402  16.480  1.00  0.00     0.026 C 
HETATM    7  C8  UNL     1      50.163 -52.557  17.395  1.00  0.00     0.238 C 
HETATM    8  N2  UNL     1      51.445 -53.073  17.876  1.00  0.00    -0.070 N 
ATOM      9  H21 UNL     1      51.453 -53.346  18.858  1.00  0.00     0.277 HD
ATOM     10  H22 UNL     1      51.698 -53.992  17.512  1.00  0.00     0.277 HD
ENDROOT
BRANCH   2  11
HETATM   11  C3  UNL     1      49.546 -49.967  18.183  1.00  0.00     0.062 C 
HETATM   12  N1  UNL     1      48.857 -48.900  18.135  1.00  0.00    -0.410 N 
ATOM     13  H12 UNL     1      49.160 -48.177  17.481  1.00  0.00     0.155 HD
ATOM     14  H11 UNL     1      48.030 -48.738  18.710  1.00  0.00     0.155 HD
ENDBRANCH   2  11
TORSDOF 1
ENDMDL
MODEL 3
REMARK VINA RESULT: -5.195047456      1.727      2.648
REMARK  1 active torsions:
REMARK  status: ('A' for Active; 'I' for Inactive)
REMARK    1  A    between atoms: C2_2  and  C3_3 
ROOT
HETATM    1  C1  UNL     1      49.276 -51.606  18.222  1.00  0.00     0.021 C 
HETATM    2  C2  UNL     1      50.360 -50.803  17.574  1.00  0.00    -0.005 C 
HETATM    3  C4  UNL     1      50.602 -51.215  16.123  1.00  0.00     0.047 C 
HETATM    4  C5  UNL     1      51.963 -51.887  16.092  1.00  0.00     0.187 C 
HETATM    5  C6  UNL     1      52.022 -52.418  17.537  1.00  0.00     0.040 C 
HETATM    6  C7  UNL     1      51.721 -51.046  18.166  1.00  0.00     0.026 C 
HETATM    7  C8  UNL     1      52.702 -50.190  17.409  1.00  0.00     0.238 C 
HETATM    8  N2  UNL     1      53.008 -50.897  16.166  1.00  0.00    -0.070 N 
ATOM      9  H21 UNL     1      53.087 -50.299  15.343  1.00  0.00     0.277 HD
ATOM     10  H22 UNL     1      53.955 -51.273  16.110  1.00  0.00     0.277 HD
ENDROOT
BRANCH   2  11
HETATM   11  C3  UNL     1      50.071 -49.352  17.691  1.00  0.00     0.062 C 
HETATM   12  N1  UNL     1      48.980 -48.889  18.155  1.00  0.00    -0.410 N 
ATOM     13  H12 UNL     1      48.279 -49.565  18.458  1.00  0.00     0.155 HD
ATOM     14  H11 UNL     1      48.781 -47.892  18.236  1.00  0.00     0.155 HD
ENDBRANCH   2  11
TORSDOF 1
ENDMDL
MODEL 4
REMARK VINA RESULT: -5.114235001      1.458      2.422
REMARK  1 active torsions:
REMARK  status: ('A' for Active; 'I' for Inactive)
REMARK    1  A    between atoms: C2_2  and  C3_3 
ROOT
HETATM    1  C1  UNL     1      50.101 -53.111  18.225  1.00  0.00     0.021 C 
HETATM    2  C2  UNL     1      50.345 -51.699  17.792  1.00  0.00    -0.005 C 
HETATM    3  C4  UNL     1      50.521 -51.577  16.280  1.00  0.00     0.047 C 
HETATM    4  C5  UNL     1      51.979 -51.223  16.047  1.00  0.00     0.187 C 
HETATM    5  C6  UNL     1      52.604 -51.867  17.299  1.00  0.00     0.040 C 
HETATM    6  C7  UNL     1      51.657 -51.144  18.274  1.00  0.00     0.026 C 
HETATM    7  C8  UNL     1      51.770 -49.735  17.752  1.00  0.00     0.238 C 
HETATM    8  N2  UNL     1      52.210 -49.835  16.361  1.00  0.00    -0.070 N 
ATOM      9  H21 UNL     1      51.765 -49.175  15.724  1.00  0.00     0.277 HD
ATOM     10  H22 UNL     1      53.163 -49.513  16.191  1.00  0.00     0.277 HD
ENDROOT
BRANCH   2  11
HETATM   11  C3  UNL     1      49.268 -50.810  18.293  1.00  0.00     0.062 C 
HETATM   12  N1  UNL     1      48.171 -50.620  17.677  1.00  0.00    -0.410 N 
ATOM     13  H12 UNL     1      48.041 -51.112  16.793  1.00  0.00     0.155 HD
ATOM     14  H11 UNL     1      47.431 -50.008  18.022  1.00  0.00     0.155 HD
ENDBRANCH   2  11
TORSDOF 1
ENDMDL
MODEL 5
REMARK VINA RESULT: -5.029030394      1.026      3.154
REMARK  1 active torsions:
REMARK  status: ('A' for Active; 'I' for Inactive)
REMARK    1  A    between atoms: C2_2  and  C3_3 
ROOT
HETATM    1  C1  UNL     1      51.513 -49.019  16.494  1.00  0.00     0.021 C 
HETATM    2  C2  UNL     1      51.567 -50.481  16.809  1.00  0.00    -0.005 C 
HETATM    3  C4  UNL     1      50.514 -51.280  16.046  1.00  0.00     0.047 C 
HETATM    4  C5  UNL     1      49.505 -51.750  17.079  1.00  0.00     0.187 C 
HETATM    5  C6  UNL     1      49.665 -50.631  18.125  1.00  0.00     0.040 C 
HETATM    6  C7  UNL     1      51.192 -50.803  18.229  1.00  0.00     0.026 C 
HETATM    7  C8  UNL     1      51.277 -52.298  18.391  1.00  0.00     0.238 C 
HETATM    8  N2  UNL     1      50.044 -52.853  17.834  1.00  0.00    -0.070 N 
ATOM      9  H21 UNL     1      50.166 -53.715  17.302  1.00  0.00     0.277 HD
ATOM     10  H22 UNL     1      49.405 -53.250  18.524  1.00  0.00     0.277 HD
ENDROOT
BRANCH   2  11
HETATM   11  C3  UNL     1      52.935 -51.010  16.574  1.00  0.00     0.062 C 
HETATM   12  N1  UNL     1      53.320 -51.486  15.459  1.00  0.00    -0.410 N 
ATOM     13  H12 UNL     1      52.642 -51.498  14.697  1.00  0.00     0.155 HD
ATOM     14  H11 UNL     1      54.260 -51.850  15.298  1.00  0.00     0.155 HD
ENDBRANCH   2  11
TORSDOF 1
ENDMDL
