MODEL 1
REMARK VINA RESULT: -4.687934958      0.000      0.000
REMARK  1 active torsions:
REMARK  status: ('A' for Active; 'I' for Inactive)
REMARK    1  A    between atoms: C2_2  and  C3_3 
ROOT
HETATM    1  C3  UNL     1      50.553 -50.900  17.573  1.00  0.00     0.283 C 
HETATM    2  C4  UNL     1      49.393 -51.790  17.865  1.00  0.00     0.079 C 
HETATM    3  N1  UNL     1      51.614 -51.087  18.541  1.00  0.00    -0.039 N 
ATOM      4  H11 UNL     1      51.518 -51.942  19.088  1.00  0.00     0.280 HD
ATOM      5  H12 UNL     1      51.570 -50.433  19.323  1.00  0.00     0.280 HD
HETATM    6  C5  UNL     1      52.867 -51.012  17.788  1.00  0.00     0.268 C 
HETATM    7  C6  UNL     1      52.466 -51.660  16.486  1.00  0.00     0.210 C 
HETATM    8  C7  UNL     1      53.287 -51.082  15.358  1.00  0.00     0.042 C 
HETATM    9  N2  UNL     1      51.100 -51.314  16.283  1.00  0.00    -0.035 N 
ATOM     10  H21 UNL     1      50.972 -50.613  15.553  1.00  0.00     0.280 HD
ATOM     11  H22 UNL     1      50.561 -52.062  15.845  1.00  0.00     0.280 HD
ENDROOT
BRANCH   1  12
HETATM   12  C2  UNL     1      50.216 -49.448  17.466  1.00  0.00     0.064 C 
HETATM   13  C1  UNL     1      48.906 -49.078  18.097  1.00  0.00     0.009 C 
ENDBRANCH   1  12
TORSDOF 1
ENDMDL
MODEL 2
REMARK VINA RESULT: -4.683749857      0.991      1.048
REMARK  1 active torsions:
REMARK  status: ('A' for Active; 'I' for Inactive)
REMARK    1  A    between atoms: C2_2  and  C3_3 
ROOT
HETATM    1  C3  UNL     1      50.619 -51.815  17.631  1.00  0.00     0.283 C 
HETATM    2  C4  UNL     1      50.138 -53.083  18.251  1.00  0.00     0.079 C 
HETATM    3  N1  UNL     1      51.457 -51.069  18.546  1.00  0.00    -0.039 N 
ATOM      4  H11 UNL     1      51.790 -51.623  19.335  1.00  0.00     0.280 HD
ATOM      5  H12 UNL     1      50.947 -50.372  19.089  1.00  0.00     0.280 HD
HETATM    6  C5  UNL     1      52.536 -50.501  17.735  1.00  0.00     0.268 C 
HETATM    7  C6  UNL     1      52.750 -51.599  16.723  1.00  0.00     0.210 C 
HETATM    8  C7  UNL     1      53.243 -51.002  15.426  1.00  0.00     0.042 C 
HETATM    9  N2  UNL     1      51.471 -52.182  16.502  1.00  0.00    -0.035 N 
ATOM     10  H21 UNL     1      51.068 -51.927  15.601  1.00  0.00     0.280 HD
ATOM     11  H22 UNL     1      51.514 -53.190  16.349  1.00  0.00     0.280 HD
ENDROOT
BRANCH   1  12
HETATM   12  C2  UNL     1      49.537 -50.930  17.101  1.00  0.00     0.064 C 
HETATM   13  C1  UNL     1      48.496 -50.563  18.118  1.00  0.00     0.009 C 
ENDBRANCH   1  12
TORSDOF 1
ENDMDL
MODEL 3
REMARK VINA RESULT: -4.591732439      1.315      3.563
REMARK  1 active torsions:
REMARK  status: ('A' for Active; 'I' for Inactive)
REMARK    1  A    between atoms: C2_2  and  C3_3 
ROOT
HETATM    1  C3  UNL     1      51.672 -51.168  17.486  1.00  0.00     0.283 C 
HETATM    2  C4  UNL     1      52.870 -50.673  18.224  1.00  0.00     0.079 C 
HETATM    3  N1  UNL     1      51.251 -52.463  17.978  1.00  0.00    -0.039 N 
ATOM      4  H11 UNL     1      51.655 -52.704  18.884  1.00  0.00     0.280 HD
ATOM      5  H12 UNL     1      51.644 -53.244  17.454  1.00  0.00     0.280 HD
HETATM    6  C5  UNL     1      49.787 -52.439  17.980  1.00  0.00     0.268 C 
HETATM    7  C6  UNL     1      49.518 -51.002  18.352  1.00  0.00     0.210 C 
HETATM    8  C7  UNL     1      48.212 -50.556  17.738  1.00  0.00     0.042 C 
HETATM    9  N2  UNL     1      50.576 -50.244  17.775  1.00  0.00    -0.035 N 
ATOM     10  H21 UNL     1      50.282 -49.708  16.959  1.00  0.00     0.280 HD
ATOM     11  H22 UNL     1      50.864 -49.456  18.356  1.00  0.00     0.280 HD
ENDROOT
BRANCH   1  12
HETATM   12  C2  UNL     1      51.830 -51.218  16.001  1.00  0.00     0.064 C 
HETATM   13  C1  UNL     1      53.254 -51.143  15.536  1.00  0.00     0.009 C 
ENDBRANCH   1  12
TORSDOF 1
ENDMDL
MODEL 4
REMARK VINA RESULT: -4.421469262      1.555      2.601
REMARK  1 active torsions:
REMARK  status: ('A' for Active; 'I' for Inactive)
REMARK    1  A    between atoms: C2_2  and  C3_3 
ROOT
HETATM    1  C3  UNL     1      50.880 -50.001  17.667  1.00  0.00     0.283 C 
HETATM    2  C4  UNL     1      51.923 -49.065  18.177  1.00  0.00     0.079 C 
HETATM    3  N1  UNL     1      51.194 -50.458  16.330  1.00  0.00    -0.039 N 
ATOM      4  H11 UNL     1      52.163 -50.289  16.060  1.00  0.00     0.280 HD
ATOM      5  H12 UNL     1      50.761 -49.898  15.596  1.00  0.00     0.280 HD
HETATM    6  C5  UNL     1      50.814 -51.872  16.286  1.00  0.00     0.268 C 
HETATM    7  C6  UNL     1      51.158 -52.311  17.688  1.00  0.00     0.210 C 
HETATM    8  C7  UNL     1      50.243 -53.438  18.104  1.00  0.00     0.042 C 
HETATM    9  N2  UNL     1      50.908 -51.186  18.522  1.00  0.00    -0.035 N 
ATOM     10  H21 UNL     1      50.065 -51.289  19.087  1.00  0.00     0.280 HD
ATOM     11  H22 UNL     1      51.574 -51.105  19.291  1.00  0.00     0.280 HD
ENDROOT
BRANCH   1  12
HETATM   12  C2  UNL     1      49.486 -49.461  17.702  1.00  0.00     0.064 C 
HETATM   13  C1  UNL     1      48.526 -50.304  18.489  1.00  0.00     0.009 C 
ENDBRANCH   1  12
TORSDOF 1
ENDMDL
MODEL 5
REMARK VINA RESULT: -4.405776599      1.223      3.123
REMARK  1 active torsions:
REMARK  status: ('A' for Active; 'I' for Inactive)
REMARK    1  A    between atoms: C2_2  and  C3_3 
ROOT
HETATM    1  C3  UNL     1      51.847 -51.356  16.862  1.00  0.00     0.283 C 
HETATM    2  C4  UNL     1      52.355 -51.739  15.513  1.00  0.00     0.079 C 
HETATM    3  N1  UNL     1      52.666 -50.322  17.457  1.00  0.00    -0.039 N 
ATOM      4  H11 UNL     1      53.275 -49.850  16.788  1.00  0.00     0.280 HD
ATOM      5  H12 UNL     1      53.404 -50.684  18.062  1.00  0.00     0.280 HD
HETATM    6  C5  UNL     1      51.742 -49.417  18.143  1.00  0.00     0.268 C 
HETATM    7  C6  UNL     1      50.554 -49.454  17.214  1.00  0.00     0.210 C 
HETATM    8  C7  UNL     1      49.287 -49.222  18.004  1.00  0.00     0.042 C 
HETATM    9  N2  UNL     1      50.522 -50.770  16.673  1.00  0.00    -0.035 N 
ATOM     10  H21 UNL     1      49.774 -51.343  17.065  1.00  0.00     0.280 HD
ATOM     11  H22 UNL     1      50.212 -50.793  15.701  1.00  0.00     0.280 HD
ENDROOT
BRANCH   1  12
HETATM   12  C2  UNL     1      51.696 -52.495  17.819  1.00  0.00     0.064 C 
HETATM   13  C1  UNL     1      50.272 -52.887  18.079  1.00  0.00     0.009 C 
ENDBRANCH   1  12
TORSDOF 1
ENDMDL
