MODEL 1
REMARK VINA RESULT: -6.525853003      0.000      0.000
REMARK  3 active torsions:
REMARK  status: ('A' for Active; 'I' for Inactive)
REMARK       I    between atoms: N2_3  and  C2_5 
REMARK    1  A    between atoms: N4_7  and  C3_9 
REMARK    2  A    between atoms: C3_9  and  C4_10 
REMARK    3  A    between atoms: C4_10  and  N5_11 
ROOT
HETATM    1  N1  UNL     1       7.442   0.390  24.162  1.00  0.00    -0.172 NA
HETATM    2  C1  UNL     1       7.885   1.048  23.315  1.00  0.00     0.184 C 
HETATM    3  N2  UNL     1       8.437   1.846  22.301  1.00  0.00    -0.267 N 
ATOM      4  H2  UNL     1       9.244   1.537  21.760  1.00  0.00     0.180 HD
HETATM    5  C2  UNL     1       7.824   3.102  22.065  1.00  0.00     0.201 C 
HETATM    6  N3  UNL     1       7.210   3.795  23.142  1.00  0.00    -0.062 NA
HETATM    7  N4  UNL     1       7.827   3.603  20.885  1.00  0.00    -0.339 N 
ATOM      8  H4  UNL     1       7.388   4.507  20.707  1.00  0.00     0.168 HD
ENDROOT
BRANCH   7   9
HETATM    9  C3  UNL     1       8.445   2.892  19.838  1.00  0.00     0.108 C 
BRANCH   9  10
HETATM   10  C4  UNL     1       7.874   2.818  18.660  1.00  0.00     0.114 C 
BRANCH  10  11
HETATM   11  N5  UNL     1       6.991   1.747  18.350  1.00  0.00    -0.325 N 
HETATM   12  C5  UNL     1       6.441   1.556  17.119  1.00  0.00     0.188 A 
HETATM   13  N6  UNL     1       5.672   0.458  17.209  1.00  0.00    -0.345 N 
HETATM   14  C6  UNL     1       5.722  -0.041  18.442  1.00  0.00     0.096 A 
ATOM     15  H6  UNL     1       5.128   0.064  16.442  1.00  0.00     0.167 HD
HETATM   16 BR1  UNL     1       4.777  -1.596  18.996  1.00  0.00    -0.030 Br
HETATM   17  C7  UNL     1       6.556   0.770  19.173  1.00  0.00     0.134 A 
ENDBRANCH  10  11
ENDBRANCH   9  10
ENDBRANCH   7   9
TORSDOF 3
ENDMDL
MODEL 2
REMARK VINA RESULT: -5.946210624      1.875      2.439
REMARK  3 active torsions:
REMARK  status: ('A' for Active; 'I' for Inactive)
REMARK       I    between atoms: N2_3  and  C2_5 
REMARK    1  A    between atoms: N4_7  and  C3_9 
REMARK    2  A    between atoms: C3_9  and  C4_10 
REMARK    3  A    between atoms: C4_10  and  N5_11 
ROOT
HETATM    1  N1  UNL     1       6.662   1.073  24.635  1.00  0.00    -0.172 NA
HETATM    2  C1  UNL     1       7.531   1.269  23.891  1.00  0.00     0.184 C 
HETATM    3  N2  UNL     1       8.588   1.487  22.994  1.00  0.00    -0.267 N 
ATOM      4  H2  UNL     1       8.653   0.977  22.113  1.00  0.00     0.180 HD
HETATM    5  C2  UNL     1       9.562   2.447  23.368  1.00  0.00     0.201 C 
HETATM    6  N3  UNL     1       9.857   2.645  24.744  1.00  0.00    -0.062 NA
HETATM    7  N4  UNL     1      10.169   3.127  22.466  1.00  0.00    -0.339 N 
ATOM      8  H4  UNL     1      10.871   3.820  22.728  1.00  0.00     0.168 HD
ENDROOT
BRANCH   7   9
HETATM    9  C3  UNL     1       9.854   2.907  21.111  1.00  0.00     0.108 C 
BRANCH   9  10
HETATM   10  C4  UNL     1       8.945   3.639  20.515  1.00  0.00     0.114 C 
BRANCH  10  11
HETATM   11  N5  UNL     1       7.854   3.029  19.837  1.00  0.00    -0.325 N 
HETATM   12  C5  UNL     1       6.587   2.986  20.335  1.00  0.00     0.188 A 
HETATM   13  N6  UNL     1       5.840   2.337  19.425  1.00  0.00    -0.345 N 
HETATM   14  C6  UNL     1       6.589   1.977  18.385  1.00  0.00     0.096 A 
ATOM     15  H6  UNL     1       4.843   2.147  19.519  1.00  0.00     0.167 HD
HETATM   16 BR1  UNL     1       5.921   1.036  16.873  1.00  0.00    -0.030 Br
HETATM   17  C7  UNL     1       7.868   2.412  18.637  1.00  0.00     0.134 A 
ENDBRANCH  10  11
ENDBRANCH   9  10
ENDBRANCH   7   9
TORSDOF 3
ENDMDL
MODEL 3
REMARK VINA RESULT: -5.914700189      1.219      1.660
REMARK  3 active torsions:
REMARK  status: ('A' for Active; 'I' for Inactive)
REMARK       I    between atoms: N2_3  and  C2_5 
REMARK    1  A    between atoms: N4_7  and  C3_9 
REMARK    2  A    between atoms: C3_9  and  C4_10 
REMARK    3  A    between atoms: C4_10  and  N5_11 
ROOT
HETATM    1  N1  UNL     1       8.070   3.331  24.402  1.00  0.00    -0.172 NA
HETATM    2  C1  UNL     1       7.922   3.013  23.296  1.00  0.00     0.184 C 
HETATM    3  N2  UNL     1       7.725   2.618  21.964  1.00  0.00    -0.267 N 
ATOM      4  H2  UNL     1       6.925   2.946  21.424  1.00  0.00     0.180 HD
HETATM    5  C2  UNL     1       8.689   1.744  21.402  1.00  0.00     0.201 C 
HETATM    6  N3  UNL     1       9.360   0.811  22.239  1.00  0.00    -0.062 NA
HETATM    7  N4  UNL     1       8.950   1.799  20.148  1.00  0.00    -0.339 N 
ATOM      8  H4  UNL     1       9.643   1.173  19.737  1.00  0.00     0.168 HD
ENDROOT
BRANCH   7   9
HETATM    9  C3  UNL     1       8.269   2.734  19.345  1.00  0.00     0.108 C 
BRANCH   9  10
HETATM   10  C4  UNL     1       7.847   2.399  18.151  1.00  0.00     0.114 C 
BRANCH  10  11
HETATM   11  N5  UNL     1       6.853   1.395  17.989  1.00  0.00    -0.325 N 
HETATM   12  C5  UNL     1       6.150   1.209  16.838  1.00  0.00     0.188 A 
HETATM   13  N6  UNL     1       5.313   0.182  17.062  1.00  0.00    -0.345 N 
HETATM   14  C6  UNL     1       5.468  -0.277  18.301  1.00  0.00     0.096 A 
ATOM     15  H6  UNL     1       4.654  -0.191  16.379  1.00  0.00     0.167 HD
HETATM   16 BR1  UNL     1       4.476  -1.730  19.025  1.00  0.00    -0.030 Br
HETATM   17  C7  UNL     1       6.442   0.485  18.897  1.00  0.00     0.134 A 
ENDBRANCH  10  11
ENDBRANCH   9  10
ENDBRANCH   7   9
TORSDOF 3
ENDMDL
MODEL 4
REMARK VINA RESULT: -5.892608131      1.054      1.220
REMARK  3 active torsions:
REMARK  status: ('A' for Active; 'I' for Inactive)
REMARK       I    between atoms: N2_3  and  C2_5 
REMARK    1  A    between atoms: N4_7  and  C3_9 
REMARK    2  A    between atoms: C3_9  and  C4_10 
REMARK    3  A    between atoms: C4_10  and  N5_11 
ROOT
HETATM    1  N1  UNL     1       7.192   0.682  25.283  1.00  0.00    -0.172 NA
HETATM    2  C1  UNL     1       7.439   1.091  24.226  1.00  0.00     0.184 C 
HETATM    3  N2  UNL     1       7.745   1.568  22.941  1.00  0.00    -0.267 N 
ATOM      4  H2  UNL     1       7.294   1.187  22.110  1.00  0.00     0.180 HD
HETATM    5  C2  UNL     1       8.710   2.602  22.852  1.00  0.00     0.201 C 
HETATM    6  N3  UNL     1       9.758   2.667  23.810  1.00  0.00    -0.062 NA
HETATM    7  N4  UNL     1       8.633   3.469  21.911  1.00  0.00    -0.339 N 
ATOM      8  H4  UNL     1       9.324   4.217  21.840  1.00  0.00     0.168 HD
ENDROOT
BRANCH   7   9
HETATM    9  C3  UNL     1       7.583   3.378  20.977  1.00  0.00     0.108 C 
BRANCH   9  10
HETATM   10  C4  UNL     1       7.826   3.022  19.739  1.00  0.00     0.114 C 
BRANCH  10  11
HETATM   11  N5  UNL     1       7.071   1.987  19.122  1.00  0.00    -0.325 N 
HETATM   12  C5  UNL     1       6.795   1.949  17.789  1.00  0.00     0.188 A 
HETATM   13  N6  UNL     1       6.070   0.837  17.581  1.00  0.00    -0.345 N 
HETATM   14  C6  UNL     1       5.886   0.184  18.726  1.00  0.00     0.096 A 
ATOM     15  H6  UNL     1       5.711   0.537  16.674  1.00  0.00     0.167 HD
HETATM   16 BR1  UNL     1       4.913  -1.443  18.874  1.00  0.00    -0.030 Br
HETATM   17  C7  UNL     1       6.518   0.906  19.709  1.00  0.00     0.134 A 
ENDBRANCH  10  11
ENDBRANCH   9  10
ENDBRANCH   7   9
TORSDOF 3
ENDMDL
MODEL 5
REMARK VINA RESULT: -5.886766960      2.216      5.084
REMARK  3 active torsions:
REMARK  status: ('A' for Active; 'I' for Inactive)
REMARK       I    between atoms: N2_3  and  C2_5 
REMARK    1  A    between atoms: N4_7  and  C3_9 
REMARK    2  A    between atoms: C3_9  and  C4_10 
REMARK    3  A    between atoms: C4_10  and  N5_11 
ROOT
HETATM    1  N1  UNL     1       4.581  -1.619  18.653  1.00  0.00    -0.172 NA
HETATM    2  C1  UNL     1       5.308  -0.787  19.009  1.00  0.00     0.184 C 
HETATM    3  N2  UNL     1       6.172   0.227  19.450  1.00  0.00    -0.267 N 
ATOM      4  H2  UNL     1       6.461   0.294  20.425  1.00  0.00     0.180 HD
HETATM    5  C2  UNL     1       6.624   1.155  18.479  1.00  0.00     0.201 C 
HETATM    6  N3  UNL     1       5.786   1.482  17.378  1.00  0.00    -0.062 NA
HETATM    7  N4  UNL     1       7.782   1.693  18.598  1.00  0.00    -0.339 N 
ATOM      8  H4  UNL     1       8.114   2.362  17.903  1.00  0.00     0.168 HD
ENDROOT
BRANCH   7   9
HETATM    9  C3  UNL     1       8.589   1.349  19.700  1.00  0.00     0.108 C 
BRANCH   9  10
HETATM   10  C4  UNL     1       8.877   2.242  20.614  1.00  0.00     0.114 C 
BRANCH  10  11
HETATM   11  N5  UNL     1       8.350   2.128  21.930  1.00  0.00    -0.325 N 
HETATM   12  C5  UNL     1       8.221   3.181  22.784  1.00  0.00     0.188 A 
HETATM   13  N6  UNL     1       7.693   2.691  23.918  1.00  0.00    -0.345 N 
HETATM   14  C6  UNL     1       7.488   1.381  23.804  1.00  0.00     0.096 A 
ATOM     15  H6  UNL     1       7.480   3.245  24.748  1.00  0.00     0.167 HD
HETATM   16 BR1  UNL     1       6.751   0.299  25.184  1.00  0.00    -0.030 Br
HETATM   17  C7  UNL     1       7.901   1.015  22.546  1.00  0.00     0.134 A 
ENDBRANCH  10  11
ENDBRANCH   9  10
ENDBRANCH   7   9
TORSDOF 3
ENDMDL
