MODEL 1
REMARK VINA RESULT: -4.340420453      0.000      0.000
REMARK  2 active torsions:
REMARK  status: ('A' for Active; 'I' for Inactive)
REMARK       I    between atoms: N1_2  and  C2_4 
REMARK    1  A    between atoms: C2_4  and  O2_6 
REMARK    2  A    between atoms: O2_6  and  C3_7 
ROOT
HETATM    1  C1  UNL     1      21.231   1.747   5.969  1.00  0.00     0.151 C 
HETATM    2  N1  UNL     1      20.652   0.937   7.022  1.00  0.00    -0.341 N 
ATOM      3  H1  UNL     1      20.529   1.348   7.948  1.00  0.00     0.164 HD
HETATM    4  C2  UNL     1      20.251  -0.412   6.813  1.00  0.00     0.363 C 
HETATM    5  O1  UNL     1      20.389  -0.965   5.674  1.00  0.00    -0.238 OA
ENDROOT
BRANCH   4   6
HETATM    6  O2  UNL     1      19.698  -1.202   7.803  1.00  0.00    -0.247 OA
BRANCH   6   7
HETATM    7  C3  UNL     1      20.507  -1.919   8.732  1.00  0.00     0.306 C 
HETATM    8 CL1  UNL     1      21.687  -0.831   9.510  1.00  0.00    -0.053 Cl
HETATM    9 CL2  UNL     1      19.438  -2.598   9.968  1.00  0.00    -0.053 Cl
HETATM   10 CL3  UNL     1      21.395  -3.237   7.976  1.00  0.00    -0.053 Cl
ENDBRANCH   6   7
ENDBRANCH   4   6
TORSDOF 2
ENDMDL
MODEL 2
REMARK VINA RESULT: -4.311591338      0.087      1.638
REMARK  2 active torsions:
REMARK  status: ('A' for Active; 'I' for Inactive)
REMARK       I    between atoms: N1_2  and  C2_4 
REMARK    1  A    between atoms: C2_4  and  O2_6 
REMARK    2  A    between atoms: O2_6  and  C3_7 
ROOT
HETATM    1  C1  UNL     1      21.252   1.760   5.941  1.00  0.00     0.151 C 
HETATM    2  N1  UNL     1      20.657   0.948   6.983  1.00  0.00    -0.341 N 
ATOM      3  H1  UNL     1      20.523   1.357   7.908  1.00  0.00     0.164 HD
HETATM    4  C2  UNL     1      20.254  -0.399   6.764  1.00  0.00     0.363 C 
HETATM    5  O1  UNL     1      20.405  -0.949   5.625  1.00  0.00    -0.238 OA
ENDROOT
BRANCH   4   6
HETATM    6  O2  UNL     1      19.685  -1.190   7.745  1.00  0.00    -0.247 OA
BRANCH   6   7
HETATM    7  C3  UNL     1      20.474  -1.837   8.740  1.00  0.00     0.306 C 
HETATM    8 CL1  UNL     1      19.444  -2.451  10.059  1.00  0.00    -0.053 Cl
HETATM    9 CL2  UNL     1      21.307  -3.195   7.971  1.00  0.00    -0.053 Cl
HETATM   10 CL3  UNL     1      21.681  -0.766   9.443  1.00  0.00    -0.053 Cl
ENDBRANCH   6   7
ENDBRANCH   4   6
TORSDOF 2
ENDMDL
MODEL 3
REMARK VINA RESULT: -4.228558954      0.097      1.672
REMARK  2 active torsions:
REMARK  status: ('A' for Active; 'I' for Inactive)
REMARK       I    between atoms: N1_2  and  C2_4 
REMARK    1  A    between atoms: C2_4  and  O2_6 
REMARK    2  A    between atoms: O2_6  and  C3_7 
ROOT
HETATM    1  C1  UNL     1      21.264   1.769   5.910  1.00  0.00     0.151 C 
HETATM    2  N1  UNL     1      20.663   0.986   6.972  1.00  0.00    -0.341 N 
ATOM      3  H1  UNL     1      20.547   1.412   7.891  1.00  0.00     0.164 HD
HETATM    4  C2  UNL     1      20.228  -0.355   6.777  1.00  0.00     0.363 C 
HETATM    5  O1  UNL     1      20.354  -0.924   5.645  1.00  0.00    -0.238 OA
ENDROOT
BRANCH   4   6
HETATM    6  O2  UNL     1      19.653  -1.118   7.776  1.00  0.00    -0.247 OA
BRANCH   6   7
HETATM    7  C3  UNL     1      20.440  -1.877   8.689  1.00  0.00     0.306 C 
HETATM    8 CL1  UNL     1      21.284  -3.201   7.845  1.00  0.00    -0.053 Cl
HETATM    9 CL2  UNL     1      21.635  -0.787   9.407  1.00  0.00    -0.053 Cl
HETATM   10 CL3  UNL     1      19.478  -2.581   9.984  1.00  0.00    -0.053 Cl
ENDBRANCH   6   7
ENDBRANCH   4   6
TORSDOF 2
ENDMDL
MODEL 4
REMARK VINA RESULT: -4.166866087      2.968      4.515
REMARK  2 active torsions:
REMARK  status: ('A' for Active; 'I' for Inactive)
REMARK       I    between atoms: N1_2  and  C2_4 
REMARK    1  A    between atoms: C2_4  and  O2_6 
REMARK    2  A    between atoms: O2_6  and  C3_7 
ROOT
HETATM    1  C1  UNL     1      18.349  -2.181  12.857  1.00  0.00     0.151 C 
HETATM    2  N1  UNL     1      18.636  -1.536  11.592  1.00  0.00    -0.341 N 
ATOM      3  H1  UNL     1      18.515  -0.526  11.515  1.00  0.00     0.164 HD
HETATM    4  C2  UNL     1      19.082  -2.261  10.451  1.00  0.00     0.363 C 
HETATM    5  O1  UNL     1      19.246  -3.523  10.502  1.00  0.00    -0.238 OA
ENDROOT
BRANCH   4   6
HETATM    6  O2  UNL     1      19.362  -1.665   9.235  1.00  0.00    -0.247 OA
BRANCH   6   7
HETATM    7  C3  UNL     1      20.695  -1.546   8.745  1.00  0.00     0.306 C 
HETATM    8 CL1  UNL     1      21.294  -3.120   8.160  1.00  0.00    -0.053 Cl
HETATM    9 CL2  UNL     1      20.676  -0.394   7.402  1.00  0.00    -0.053 Cl
HETATM   10 CL3  UNL     1      21.813  -0.957   9.970  1.00  0.00    -0.053 Cl
ENDBRANCH   6   7
ENDBRANCH   4   6
TORSDOF 2
ENDMDL
MODEL 5
REMARK VINA RESULT: -4.148455284      3.122      3.752
REMARK  2 active torsions:
REMARK  status: ('A' for Active; 'I' for Inactive)
REMARK       I    between atoms: N1_2  and  C2_4 
REMARK    1  A    between atoms: C2_4  and  O2_6 
REMARK    2  A    between atoms: O2_6  and  C3_7 
ROOT
HETATM    1  C1  UNL     1      23.444  -5.017   6.742  1.00  0.00     0.151 C 
HETATM    2  N1  UNL     1      22.622  -4.536   7.834  1.00  0.00    -0.341 N 
ATOM      3  H1  UNL     1      22.927  -4.709   8.792  1.00  0.00     0.164 HD
HETATM    4  C2  UNL     1      21.406  -3.830   7.619  1.00  0.00     0.363 C 
HETATM    5  O1  UNL     1      20.988  -3.592   6.439  1.00  0.00    -0.238 OA
ENDROOT
BRANCH   4   6
HETATM    6  O2  UNL     1      20.607  -3.363   8.646  1.00  0.00    -0.247 OA
BRANCH   6   7
HETATM    7  C3  UNL     1      20.598  -1.989   9.026  1.00  0.00     0.306 C 
HETATM    8 CL1  UNL     1      20.116  -0.959   7.653  1.00  0.00    -0.053 Cl
HETATM    9 CL2  UNL     1      19.425  -1.799  10.338  1.00  0.00    -0.053 Cl
HETATM   10 CL3  UNL     1      22.169  -1.438   9.598  1.00  0.00    -0.053 Cl
ENDBRANCH   6   7
ENDBRANCH   4   6
TORSDOF 2
ENDMDL
