MODEL 1
REMARK VINA RESULT: -5.432561978      0.000      0.000
REMARK  1 active torsions:
REMARK  status: ('A' for Active; 'I' for Inactive)
REMARK    1  A    between atoms: C5_5  and  N1_6 
ROOT
HETATM    1  C1  UNL     1      -3.088  37.329 -14.446  1.00  0.00     0.010 C 
HETATM    2  C2  UNL     1      -1.954  36.848 -15.360  1.00  0.00    -0.019 C 
HETATM    3  C3  UNL     1      -1.150  35.862 -14.551  1.00  0.00     0.006 C 
HETATM    4  C4  UNL     1      -0.039  35.337 -15.414  1.00  0.00     0.033 C 
HETATM    5  C5  UNL     1      -0.619  34.572 -16.558  1.00  0.00     0.183 C 
HETATM    6  C6  UNL     1      -1.694  35.277 -17.303  1.00  0.00     0.033 C 
HETATM    7  C7  UNL     1      -2.592  36.128 -16.501  1.00  0.00     0.006 C 
ENDROOT
BRANCH   5   8
HETATM    8  N1  UNL     1       0.474  34.322 -17.507  1.00  0.00    -0.075 N 
ATOM      9  H13 UNL     1       1.310  33.940 -17.065  1.00  0.00     0.274 HD
ATOM     10  H12 UNL     1       0.289  33.540 -18.134  1.00  0.00     0.274 HD
ATOM     11  H11 UNL     1       0.647  35.198 -18.001  1.00  0.00     0.274 HD
ENDBRANCH   5   8
TORSDOF 1
ENDMDL
MODEL 2
REMARK VINA RESULT: -5.232135758      2.160      3.696
REMARK  1 active torsions:
REMARK  status: ('A' for Active; 'I' for Inactive)
REMARK    1  A    between atoms: C5_5  and  N1_6 
ROOT
HETATM    1  C1  UNL     1       0.164  33.893 -16.533  1.00  0.00     0.010 C 
HETATM    2  C2  UNL     1      -0.546  35.247 -16.418  1.00  0.00    -0.019 C 
HETATM    3  C3  UNL     1      -1.959  35.024 -16.892  1.00  0.00     0.006 C 
HETATM    4  C4  UNL     1      -2.708  36.320 -16.772  1.00  0.00     0.033 C 
HETATM    5  C5  UNL     1      -2.801  36.707 -15.332  1.00  0.00     0.183 C 
HETATM    6  C6  UNL     1      -1.516  36.670 -14.589  1.00  0.00     0.033 C 
HETATM    7  C7  UNL     1      -0.574  35.600 -14.969  1.00  0.00     0.006 C 
ENDROOT
BRANCH   5   8
HETATM    8  N1  UNL     1      -3.287  38.093 -15.290  1.00  0.00    -0.075 N 
ATOM      9  H13 UNL     1      -2.533  38.780 -15.245  1.00  0.00     0.274 HD
ATOM     10  H12 UNL     1      -3.692  38.402 -16.173  1.00  0.00     0.274 HD
ATOM     11  H11 UNL     1      -3.936  38.158 -14.507  1.00  0.00     0.274 HD
ENDBRANCH   5   8
TORSDOF 1
ENDMDL
MODEL 3
REMARK VINA RESULT: -5.169326466      2.502      3.525
REMARK  1 active torsions:
REMARK  status: ('A' for Active; 'I' for Inactive)
REMARK    1  A    between atoms: C5_5  and  N1_6 
ROOT
HETATM    1  C1  UNL     1      -0.636  34.443 -16.855  1.00  0.00     0.010 C 
HETATM    2  C2  UNL     1      -1.751  35.182 -16.106  1.00  0.00    -0.019 C 
HETATM    3  C3  UNL     1      -1.067  36.142 -15.168  1.00  0.00     0.006 C 
HETATM    4  C4  UNL     1      -2.121  36.913 -14.428  1.00  0.00     0.033 C 
HETATM    5  C5  UNL     1      -2.896  37.747 -15.396  1.00  0.00     0.183 C 
HETATM    6  C6  UNL     1      -3.394  37.020 -16.592  1.00  0.00     0.033 C 
HETATM    7  C7  UNL     1      -2.514  35.963 -17.124  1.00  0.00     0.006 C 
ENDROOT
BRANCH   5   8
HETATM    8  N1  UNL     1      -4.072  38.257 -14.679  1.00  0.00    -0.075 N 
ATOM      9  H13 UNL     1      -3.884  39.114 -14.158  1.00  0.00     0.274 HD
ATOM     10  H12 UNL     1      -4.786  38.637 -15.300  1.00  0.00     0.274 HD
ATOM     11  H11 UNL     1      -4.416  37.499 -14.091  1.00  0.00     0.274 HD
ENDBRANCH   5   8
TORSDOF 1
ENDMDL
MODEL 4
REMARK VINA RESULT: -5.006922196      1.828      2.821
REMARK  1 active torsions:
REMARK  status: ('A' for Active; 'I' for Inactive)
REMARK    1  A    between atoms: C5_5  and  N1_6 
ROOT
HETATM    1  C1  UNL     1      -2.351  35.831 -16.906  1.00  0.00     0.010 C 
HETATM    2  C2  UNL     1      -1.370  35.067 -16.009  1.00  0.00    -0.019 C 
HETATM    3  C3  UNL     1      -0.161  34.773 -16.861  1.00  0.00     0.006 C 
HETATM    4  C4  UNL     1       0.846  34.047 -16.017  1.00  0.00     0.033 C 
HETATM    5  C5  UNL     1       1.312  34.946 -14.917  1.00  0.00     0.183 C 
HETATM    6  C6  UNL     1       0.227  35.606 -14.146  1.00  0.00     0.033 C 
HETATM    7  C7  UNL     1      -0.972  35.996 -14.911  1.00  0.00     0.006 C 
ENDROOT
BRANCH   5   8
HETATM    8  N1  UNL     1       2.069  34.114 -13.973  1.00  0.00    -0.075 N 
ATOM      9  H13 UNL     1       2.938  34.549 -13.663  1.00  0.00     0.274 HD
ATOM     10  H12 UNL     1       1.626  34.042 -13.058  1.00  0.00     0.274 HD
ATOM     11  H11 UNL     1       2.212  33.209 -14.420  1.00  0.00     0.274 HD
ENDBRANCH   5   8
TORSDOF 1
ENDMDL
MODEL 5
REMARK VINA RESULT: -4.960924436      0.881      1.918
REMARK  1 active torsions:
REMARK  status: ('A' for Active; 'I' for Inactive)
REMARK    1  A    between atoms: C5_5  and  N1_6 
ROOT
HETATM    1  C1  UNL     1      -3.103  37.516 -15.256  1.00  0.00     0.010 C 
HETATM    2  C2  UNL     1      -2.349  36.182 -15.326  1.00  0.00    -0.019 C 
HETATM    3  C3  UNL     1      -2.063  35.936 -16.785  1.00  0.00     0.006 C 
HETATM    4  C4  UNL     1      -1.298  34.649 -16.906  1.00  0.00     0.033 C 
HETATM    5  C5  UNL     1       0.028  34.796 -16.234  1.00  0.00     0.183 C 
HETATM    6  C6  UNL     1      -0.025  35.351 -14.857  1.00  0.00     0.033 C 
HETATM    7  C7  UNL     1      -1.056  36.376 -14.607  1.00  0.00     0.006 C 
ENDROOT
BRANCH   5   8
HETATM    8  N1  UNL     1       0.613  33.452 -16.137  1.00  0.00    -0.075 N 
ATOM      9  H13 UNL     1       0.938  33.091 -17.034  1.00  0.00     0.274 HD
ATOM     10  H12 UNL     1       1.513  33.441 -15.657  1.00  0.00     0.274 HD
ATOM     11  H11 UNL     1      -0.084  32.854 -15.693  1.00  0.00     0.274 HD
ENDBRANCH   5   8
TORSDOF 1
ENDMDL
