MODEL 1
REMARK VINA RESULT: -8.395215620      0.000      0.000
REMARK  21 active torsions:
REMARK  status: ('A' for Active; 'I' for Inactive)
REMARK    1  A    between atoms: N1_1  and  C1_5 
REMARK    2  A    between atoms: C3_7  and  N2_8 
REMARK    3  A    between atoms: C4_12  and  S1_13 
REMARK    4  A    between atoms: S1_13  and  S2_14 
REMARK    5  A    between atoms: S2_14  and  C5_15 
REMARK    6  A    between atoms: C6_16  and  N3_17 
REMARK    7  A    between atoms: C8_22  and  N4_23 
REMARK    8  A    between atoms: C9_27  and  O1_28 
REMARK    9  A    between atoms: O1_28  and  C10_29 
REMARK   10  A    between atoms: C11_31  and  C12_32 
REMARK   11  A    between atoms: C12_32  and  O3_33 
REMARK   12  A    between atoms: C12_32  and  C13_35 
REMARK   13  A    between atoms: C13_35  and  O4_36 
REMARK   14  A    between atoms: C14_39  and  C15_40 
REMARK   15  A    between atoms: C15_40  and  O6_41 
REMARK   16  A    between atoms: C16_43  and  O7_44 
REMARK   17  A    between atoms: C17_46  and  O8_47 
REMARK   18  A    between atoms: C18_50  and  O10_51 
REMARK   19  A    between atoms: O10_51  and  C19_52 
REMARK   20  A    between atoms: C20_53  and  N5_54 
REMARK   21  A    between atoms: C22_59  and  N6_60 
ROOT
HETATM    1  C5  UNL     1     -40.024   4.107  10.092  1.00  0.00     0.120 C 
HETATM    2  C6  UNL     1     -39.555   5.342   9.428  1.00  0.00     0.202 C 
HETATM    3  C7  UNL     1     -38.076   5.151   9.078  1.00  0.00     0.069 C 
HETATM    4  C8  UNL     1     -38.020   3.955   8.150  1.00  0.00     0.217 C 
HETATM    5  C9  UNL     1     -38.424   2.682   8.856  1.00  0.00     0.185 C 
HETATM    6  C17 UNL     1     -39.874   2.862   9.238  1.00  0.00     0.165 C 
ENDROOT
BRANCH   1   7
HETATM    7  S2  UNL     1     -39.356   3.922  11.729  1.00  0.00    -0.085 SA
BRANCH   7   8
HETATM    8  S1  UNL     1     -38.973   5.752  12.694  1.00  0.00    -0.063 SA
BRANCH   8   9
HETATM    9  C4  UNL     1     -37.823   5.527  14.095  1.00  0.00     0.227 C 
HETATM   10  C3  UNL     1     -36.435   5.626  13.585  1.00  0.00     0.225 C 
HETATM   11  C2  UNL     1     -35.450   4.786  14.304  1.00  0.00     0.074 C 
HETATM   12  C1  UNL     1     -35.978   4.461  15.684  1.00  0.00     0.240 C 
HETATM   13  C18 UNL     1     -37.263   3.664  15.420  1.00  0.00     0.292 C 
HETATM   14  O9  UNL     1     -38.188   4.465  14.847  1.00  0.00    -0.341 OA
BRANCH  10  15
HETATM   15  N2  UNL     1     -35.985   7.016  13.487  1.00  0.00    -0.072 N 
ATOM     16  H23 UNL     1     -35.326   7.248  14.229  1.00  0.00     0.274 HD
ATOM     17  H22 UNL     1     -35.372   7.154  12.683  1.00  0.00     0.274 HD
ATOM     18  H21 UNL     1     -36.773   7.663  13.471  1.00  0.00     0.274 HD
ENDBRANCH  10  15
BRANCH  12  19
HETATM   19  N1  UNL     1     -36.210   5.639  16.457  1.00  0.00    -0.070 N 
ATOM     20  H13 UNL     1     -35.694   6.435  16.084  1.00  0.00     0.274 HD
ATOM     21  H12 UNL     1     -37.160   5.987  16.325  1.00  0.00     0.274 HD
ATOM     22  H11 UNL     1     -36.003   5.493  17.445  1.00  0.00     0.274 HD
ENDBRANCH  12  19
BRANCH  13  23
HETATM   23  O10 UNL     1     -36.880   2.581  14.636  1.00  0.00    -0.350 OA
BRANCH  23  24
HETATM   24  C19 UNL     1     -37.392   1.373  14.998  1.00  0.00     0.185 C 
HETATM   25  C20 UNL     1     -37.969   1.481  16.420  1.00  0.00     0.216 C 
HETATM   26  C21 UNL     1     -39.063   0.544  15.957  1.00  0.00     0.070 C 
HETATM   27  C22 UNL     1     -38.760   0.999  14.543  1.00  0.00     0.216 C 
BRANCH  25  28
HETATM   28  N5  UNL     1     -37.089   0.928  17.427  1.00  0.00    -0.072 N 
ATOM     29  H53 UNL     1     -37.588   0.774  18.304  1.00  0.00     0.274 HD
ATOM     30  H52 UNL     1     -36.842  -0.037  17.207  1.00  0.00     0.274 HD
ATOM     31  H51 UNL     1     -36.253   1.494  17.578  1.00  0.00     0.274 HD
ENDBRANCH  25  28
BRANCH  27  32
HETATM   32  N6  UNL     1     -38.839  -0.109  13.607  1.00  0.00    -0.072 N 
ATOM     33  H63 UNL     1     -38.080  -0.044  12.928  1.00  0.00     0.274 HD
ATOM     34  H62 UNL     1     -38.588  -0.979  14.078  1.00  0.00     0.274 HD
ATOM     35  H61 UNL     1     -39.729  -0.222  13.123  1.00  0.00     0.274 HD
ENDBRANCH  27  32
ENDBRANCH  23  24
ENDBRANCH  13  23
ENDBRANCH   8   9
ENDBRANCH   7   8
ENDBRANCH   1   7
BRANCH   2  36
HETATM   36  N3  UNL     1     -40.326   5.558   8.208  1.00  0.00    -0.074 N 
ATOM     37  H33 UNL     1     -39.739   5.549   7.374  1.00  0.00     0.274 HD
ATOM     38  H32 UNL     1     -40.917   4.759   7.979  1.00  0.00     0.274 HD
ATOM     39  H31 UNL     1     -40.860   6.422   8.294  1.00  0.00     0.274 HD
ENDBRANCH   2  36
BRANCH   6  40
HETATM   40  O8  UNL     1     -40.656   3.057   8.103  1.00  0.00    -0.392 OA
ATOM     41  H8  UNL     1     -40.110   2.847   7.354  1.00  0.00     0.210 HD
ENDBRANCH   6  40
BRANCH   5  42
HETATM   42  O1  UNL     1     -38.174   1.648   8.028  1.00  0.00    -0.348 OA
BRANCH  42  43
HETATM   43  C10 UNL     1     -38.214   0.387   8.522  1.00  0.00     0.294 C 
HETATM   44  O2  UNL     1     -37.661  -0.448   7.547  1.00  0.00    -0.326 OA
HETATM   45  C11 UNL     1     -36.315  -0.625   7.666  1.00  0.00     0.294 C 
HETATM   46  O5  UNL     1     -36.020  -1.343   8.787  1.00  0.00    -0.348 OA
HETATM   47  C14 UNL     1     -36.601  -0.919   9.940  1.00  0.00     0.181 C 
HETATM   48  C16 UNL     1     -37.549   0.228   9.851  1.00  0.00     0.204 C 
BRANCH  45  49
HETATM   49  C12 UNL     1     -35.484   0.618   7.472  1.00  0.00     0.197 C 
BRANCH  49  50
HETATM   50  O3  UNL     1     -35.804   1.182   6.244  1.00  0.00    -0.389 OA
ATOM     51  H3  UNL     1     -35.064   1.077   5.657  1.00  0.00     0.210 HD
ENDBRANCH  49  50
BRANCH  49  52
HETATM   52  C13 UNL     1     -34.037   0.120   7.328  1.00  0.00     0.200 C 
BRANCH  52  53
HETATM   53  O4  UNL     1     -33.457   0.625   6.177  1.00  0.00    -0.398 OA
ATOM     54  H4  UNL     1     -32.679   0.131   5.947  1.00  0.00     0.209 HD
ENDBRANCH  52  53
ENDBRANCH  49  52
ENDBRANCH  45  49
BRANCH  47  55
HETATM   55  C15 UNL     1     -37.279  -2.148  10.571  1.00  0.00     0.199 C 
BRANCH  55  56
HETATM   56  O6  UNL     1     -37.077  -2.116  11.951  1.00  0.00    -0.398 OA
ATOM     57  H6  UNL     1     -37.793  -2.573  12.377  1.00  0.00     0.209 HD
ENDBRANCH  55  56
ENDBRANCH  47  55
BRANCH  48  58
HETATM   58  O7  UNL     1     -38.495   0.022  10.886  1.00  0.00    -0.388 OA
ATOM     59  H7  UNL     1     -38.367  -0.816  11.315  1.00  0.00     0.210 HD
ENDBRANCH  48  58
ENDBRANCH  42  43
ENDBRANCH   5  42
BRANCH   4  60
HETATM   60  N4  UNL     1     -36.791   3.884   7.434  1.00  0.00    -0.072 N 
ATOM     61  H43 UNL     1     -36.226   4.719   7.589  1.00  0.00     0.274 HD
ATOM     62  H42 UNL     1     -36.167   3.187   7.840  1.00  0.00     0.274 HD
ATOM     63  H41 UNL     1     -36.932   3.715   6.438  1.00  0.00     0.274 HD
ENDBRANCH   4  60
TORSDOF 21
ENDMDL
MODEL 2
REMARK VINA RESULT: -8.150897876      3.882      9.496
REMARK  21 active torsions:
REMARK  status: ('A' for Active; 'I' for Inactive)
REMARK    1  A    between atoms: N1_1  and  C1_5 
REMARK    2  A    between atoms: C3_7  and  N2_8 
REMARK    3  A    between atoms: C4_12  and  S1_13 
REMARK    4  A    between atoms: S1_13  and  S2_14 
REMARK    5  A    between atoms: S2_14  and  C5_15 
REMARK    6  A    between atoms: C6_16  and  N3_17 
REMARK    7  A    between atoms: C8_22  and  N4_23 
REMARK    8  A    between atoms: C9_27  and  O1_28 
REMARK    9  A    between atoms: O1_28  and  C10_29 
REMARK   10  A    between atoms: C11_31  and  C12_32 
REMARK   11  A    between atoms: C12_32  and  O3_33 
REMARK   12  A    between atoms: C12_32  and  C13_35 
REMARK   13  A    between atoms: C13_35  and  O4_36 
REMARK   14  A    between atoms: C14_39  and  C15_40 
REMARK   15  A    between atoms: C15_40  and  O6_41 
REMARK   16  A    between atoms: C16_43  and  O7_44 
REMARK   17  A    between atoms: C17_46  and  O8_47 
REMARK   18  A    between atoms: C18_50  and  O10_51 
REMARK   19  A    between atoms: O10_51  and  C19_52 
REMARK   20  A    between atoms: C20_53  and  N5_54 
REMARK   21  A    between atoms: C22_59  and  N6_60 
ROOT
HETATM    1  C5  UNL     1     -38.426   4.145  14.028  1.00  0.00     0.120 C 
HETATM    2  C6  UNL     1     -37.588   3.046  14.552  1.00  0.00     0.202 C 
HETATM    3  C7  UNL     1     -36.139   3.543  14.592  1.00  0.00     0.069 C 
HETATM    4  C8  UNL     1     -36.138   4.744  15.516  1.00  0.00     0.217 C 
HETATM    5  C9  UNL     1     -36.931   5.892  14.938  1.00  0.00     0.185 C 
HETATM    6  C17 UNL     1     -38.360   5.412  14.860  1.00  0.00     0.165 C 
ENDROOT
BRANCH   1   7
HETATM    7  S2  UNL     1     -38.165   4.429  12.293  1.00  0.00    -0.085 SA
BRANCH   7   8
HETATM    8  S1  UNL     1     -39.076   2.990  11.056  1.00  0.00    -0.063 SA
BRANCH   8   9
HETATM    9  C4  UNL     1     -39.520   3.706   9.436  1.00  0.00     0.227 C 
HETATM   10  C3  UNL     1     -38.276   3.934   8.665  1.00  0.00     0.225 C 
HETATM   11  C2  UNL     1     -38.317   5.101   7.753  1.00  0.00     0.074 C 
HETATM   12  C1  UNL     1     -39.757   5.439   7.435  1.00  0.00     0.240 C 
HETATM   13  C18 UNL     1     -40.371   5.804   8.793  1.00  0.00     0.292 C 
HETATM   14  O9  UNL     1     -40.412   4.710   9.584  1.00  0.00    -0.341 OA
BRANCH  10  15
HETATM   15  N2  UNL     1     -37.832   2.726   7.968  1.00  0.00    -0.072 N 
ATOM     16  H23 UNL     1     -37.625   2.914   6.988  1.00  0.00     0.274 HD
ATOM     17  H22 UNL     1     -36.901   2.440   8.273  1.00  0.00     0.274 HD
ATOM     18  H21 UNL     1     -38.507   1.968   8.068  1.00  0.00     0.274 HD
ENDBRANCH  10  15
BRANCH  12  19
HETATM   19  N1  UNL     1     -40.431   4.352   6.800  1.00  0.00    -0.070 N 
ATOM     20  H13 UNL     1     -40.435   3.522   7.392  1.00  0.00     0.274 HD
ATOM     21  H12 UNL     1     -41.437   4.518   6.751  1.00  0.00     0.274 HD
ATOM     22  H11 UNL     1     -40.044   4.148   5.879  1.00  0.00     0.274 HD
ENDBRANCH  12  19
BRANCH  13  23
HETATM   23  O10 UNL     1     -39.591   6.842   9.292  1.00  0.00    -0.350 OA
BRANCH  23  24
HETATM   24  C19 UNL     1     -40.141   8.085   9.227  1.00  0.00     0.185 C 
HETATM   25  C20 UNL     1     -39.502   8.970  10.312  1.00  0.00     0.216 C 
HETATM   26  C21 UNL     1     -39.588  10.106   9.317  1.00  0.00     0.070 C 
HETATM   27  C22 UNL     1     -39.623   9.056   8.224  1.00  0.00     0.216 C 
BRANCH  25  28
HETATM   28  N5  UNL     1     -40.345   9.126  11.479  1.00  0.00    -0.072 N 
ATOM     29  H53 UNL     1     -40.373   8.266  12.027  1.00  0.00     0.274 HD
ATOM     30  H52 UNL     1     -39.910   9.744  12.163  1.00  0.00     0.274 HD
ATOM     31  H51 UNL     1     -41.287   9.441  11.247  1.00  0.00     0.274 HD
ENDBRANCH  25  28
BRANCH  27  32
HETATM   32  N6  UNL     1     -40.545   9.431   7.166  1.00  0.00    -0.072 N 
ATOM     33  H63 UNL     1     -41.214   8.677   7.007  1.00  0.00     0.274 HD
ATOM     34  H62 UNL     1     -41.172  10.165   7.496  1.00  0.00     0.274 HD
ATOM     35  H61 UNL     1     -40.121   9.711   6.282  1.00  0.00     0.274 HD
ENDBRANCH  27  32
ENDBRANCH  23  24
ENDBRANCH  13  23
ENDBRANCH   8   9
ENDBRANCH   7   8
ENDBRANCH   1   7
BRANCH   2  36
HETATM   36  N3  UNL     1     -38.028   2.701  15.900  1.00  0.00    -0.074 N 
ATOM     37  H33 UNL     1     -37.353   2.984  16.610  1.00  0.00     0.274 HD
ATOM     38  H32 UNL     1     -38.813   3.276  16.208  1.00  0.00     0.274 HD
ATOM     39  H31 UNL     1     -38.239   1.705  15.942  1.00  0.00     0.274 HD
ENDBRANCH   2  36
BRANCH   6  40
HETATM   40  O8  UNL     1     -38.834   5.084  16.128  1.00  0.00    -0.392 OA
ATOM     41  H8  UNL     1     -39.759   5.301  16.140  1.00  0.00     0.210 HD
ENDBRANCH   6  40
BRANCH   5  42
HETATM   42  O1  UNL     1     -36.732   6.972  15.719  1.00  0.00    -0.348 OA
BRANCH  42  43
HETATM   43  C10 UNL     1     -36.993   8.204  15.217  1.00  0.00     0.294 C 
HETATM   44  O2  UNL     1     -36.342   9.124  16.043  1.00  0.00    -0.326 OA
HETATM   45  C11 UNL     1     -35.070   9.420  15.652  1.00  0.00     0.294 C 
HETATM   46  O5  UNL     1     -35.076  10.116  14.479  1.00  0.00    -0.348 OA
HETATM   47  C14 UNL     1     -35.830   9.594  13.477  1.00  0.00     0.181 C 
HETATM   48  C16 UNL     1     -36.624   8.369  13.779  1.00  0.00     0.204 C 
BRANCH  45  49
HETATM   49  C12 UNL     1     -34.100   8.267  15.700  1.00  0.00     0.197 C 
BRANCH  49  50
HETATM   50  O3  UNL     1     -34.171   7.676  16.956  1.00  0.00    -0.389 OA
ATOM     51  H3  UNL     1     -35.034   7.833  17.319  1.00  0.00     0.210 HD
ENDBRANCH  49  50
BRANCH  49  52
HETATM   52  C13 UNL     1     -32.705   8.908  15.630  1.00  0.00     0.200 C 
BRANCH  52  53
HETATM   53  O4  UNL     1     -32.705  10.151  16.239  1.00  0.00    -0.398 OA
ATOM     54  H4  UNL     1     -33.465  10.656  15.977  1.00  0.00     0.209 HD
ENDBRANCH  52  53
ENDBRANCH  49  52
ENDBRANCH  45  49
BRANCH  47  55
HETATM   55  C15 UNL     1     -36.737  10.728  12.969  1.00  0.00     0.199 C 
BRANCH  55  56
HETATM   56  O6  UNL     1     -37.415  11.284  14.055  1.00  0.00    -0.398 OA
ATOM     57  H6  UNL     1     -36.864  11.946  14.455  1.00  0.00     0.209 HD
ENDBRANCH  55  56
ENDBRANCH  47  55
BRANCH  48  58
HETATM   58  O7  UNL     1     -37.772   8.445  12.951  1.00  0.00    -0.388 OA
ATOM     59  H7  UNL     1     -37.964   9.341  12.700  1.00  0.00     0.210 HD
ENDBRANCH  48  58
ENDBRANCH  42  43
ENDBRANCH   5  42
BRANCH   4  60
HETATM   60  N4  UNL     1     -34.828   5.079  15.964  1.00  0.00    -0.072 N 
ATOM     61  H43 UNL     1     -34.314   4.247  16.255  1.00  0.00     0.274 HD
ATOM     62  H42 UNL     1     -34.236   5.373  15.186  1.00  0.00     0.274 HD
ATOM     63  H41 UNL     1     -34.840   5.782  16.703  1.00  0.00     0.274 HD
ENDBRANCH   4  60
TORSDOF 21
ENDMDL
MODEL 3
REMARK VINA RESULT: -7.995994081      2.506      6.954
REMARK  21 active torsions:
REMARK  status: ('A' for Active; 'I' for Inactive)
REMARK    1  A    between atoms: N1_1  and  C1_5 
REMARK    2  A    between atoms: C3_7  and  N2_8 
REMARK    3  A    between atoms: C4_12  and  S1_13 
REMARK    4  A    between atoms: S1_13  and  S2_14 
REMARK    5  A    between atoms: S2_14  and  C5_15 
REMARK    6  A    between atoms: C6_16  and  N3_17 
REMARK    7  A    between atoms: C8_22  and  N4_23 
REMARK    8  A    between atoms: C9_27  and  O1_28 
REMARK    9  A    between atoms: O1_28  and  C10_29 
REMARK   10  A    between atoms: C11_31  and  C12_32 
REMARK   11  A    between atoms: C12_32  and  O3_33 
REMARK   12  A    between atoms: C12_32  and  C13_35 
REMARK   13  A    between atoms: C13_35  and  O4_36 
REMARK   14  A    between atoms: C14_39  and  C15_40 
REMARK   15  A    between atoms: C15_40  and  O6_41 
REMARK   16  A    between atoms: C16_43  and  O7_44 
REMARK   17  A    between atoms: C17_46  and  O8_47 
REMARK   18  A    between atoms: C18_50  and  O10_51 
REMARK   19  A    between atoms: O10_51  and  C19_52 
REMARK   20  A    between atoms: C20_53  and  N5_54 
REMARK   21  A    between atoms: C22_59  and  N6_60 
ROOT
HETATM    1  C5  UNL     1     -39.354   3.415   9.083  1.00  0.00     0.120 C 
HETATM    2  C6  UNL     1     -39.463   4.572   8.170  1.00  0.00     0.202 C 
HETATM    3  C7  UNL     1     -39.968   5.766   8.986  1.00  0.00     0.069 C 
HETATM    4  C8  UNL     1     -38.933   5.996  10.068  1.00  0.00     0.217 C 
HETATM    5  C9  UNL     1     -38.882   4.845  11.045  1.00  0.00     0.185 C 
HETATM    6  C17 UNL     1     -38.415   3.648  10.252  1.00  0.00     0.165 C 
ENDROOT
BRANCH   1   7
HETATM    7  S2  UNL     1     -40.942   2.785   9.572  1.00  0.00    -0.085 SA
BRANCH   7   8
HETATM    8  S1  UNL     1     -40.887   1.634  11.333  1.00  0.00    -0.063 SA
BRANCH   8   9
HETATM    9  C4  UNL     1     -39.765   0.204  11.146  1.00  0.00     0.227 C 
HETATM   10  C3  UNL     1     -38.745   0.264  12.220  1.00  0.00     0.225 C 
HETATM   11  C2  UNL     1     -37.418  -0.277  11.843  1.00  0.00     0.074 C 
HETATM   12  C1  UNL     1     -37.575  -1.226  10.676  1.00  0.00     0.240 C 
HETATM   13  C18 UNL     1     -38.131  -0.348   9.546  1.00  0.00     0.292 C 
HETATM   14  O9  UNL     1     -39.379   0.064   9.859  1.00  0.00    -0.341 OA
BRANCH  10  15
HETATM   15  N2  UNL     1     -39.228  -0.325  13.470  1.00  0.00    -0.072 N 
ATOM     16  H23 UNL     1     -38.947   0.230  14.278  1.00  0.00     0.274 HD
ATOM     17  H22 UNL     1     -40.240  -0.232  13.560  1.00  0.00     0.274 HD
ATOM     18  H21 UNL     1     -38.933  -1.297  13.564  1.00  0.00     0.274 HD
ENDBRANCH  10  15
BRANCH  12  19
HETATM   19  N1  UNL     1     -38.431  -2.323  10.992  1.00  0.00    -0.070 N 
ATOM     20  H13 UNL     1     -38.294  -2.635  11.953  1.00  0.00     0.274 HD
ATOM     21  H12 UNL     1     -39.405  -2.027  11.057  1.00  0.00     0.274 HD
ATOM     22  H11 UNL     1     -38.322  -3.094  10.333  1.00  0.00     0.274 HD
ENDBRANCH  12  19
BRANCH  13  23
HETATM   23  O10 UNL     1     -37.212   0.682   9.382  1.00  0.00    -0.350 OA
BRANCH  23  24
HETATM   24  C19 UNL     1     -36.964   1.062   8.099  1.00  0.00     0.185 C 
HETATM   25  C20 UNL     1     -35.453   1.297   7.932  1.00  0.00     0.216 C 
HETATM   26  C21 UNL     1     -35.601   0.715   6.543  1.00  0.00     0.070 C 
HETATM   27  C22 UNL     1     -36.851   0.018   7.042  1.00  0.00     0.216 C 
BRANCH  25  28
HETATM   28  N5  UNL     1     -35.095   2.699   7.962  1.00  0.00    -0.072 N 
ATOM     29  H53 UNL     1     -35.582   3.216   7.230  1.00  0.00     0.274 HD
ATOM     30  H52 UNL     1     -35.492   3.159   8.782  1.00  0.00     0.274 HD
ATOM     31  H51 UNL     1     -34.088   2.852   7.908  1.00  0.00     0.274 HD
ENDBRANCH  25  28
BRANCH  27  32
HETATM   32  N6  UNL     1     -37.894   0.022   6.030  1.00  0.00    -0.072 N 
ATOM     33  H63 UNL     1     -38.714   0.519   6.379  1.00  0.00     0.274 HD
ATOM     34  H62 UNL     1     -37.625   0.633   5.258  1.00  0.00     0.274 HD
ATOM     35  H61 UNL     1     -38.170  -0.891   5.670  1.00  0.00     0.274 HD
ENDBRANCH  27  32
ENDBRANCH  23  24
ENDBRANCH  13  23
ENDBRANCH   8   9
ENDBRANCH   7   8
ENDBRANCH   1   7
BRANCH   2  36
HETATM   36  N3  UNL     1     -38.148   4.877   7.614  1.00  0.00    -0.074 N 
ATOM     37  H33 UNL     1     -37.412   4.833   8.319  1.00  0.00     0.274 HD
ATOM     38  H32 UNL     1     -37.807   4.135   7.002  1.00  0.00     0.274 HD
ATOM     39  H31 UNL     1     -38.180   5.781   7.145  1.00  0.00     0.274 HD
ENDBRANCH   2  36
BRANCH   6  40
HETATM   40  O8  UNL     1     -37.153   3.884   9.712  1.00  0.00    -0.392 OA
ATOM     41  H8  UNL     1     -36.957   4.802   9.861  1.00  0.00     0.210 HD
ENDBRANCH   6  40
BRANCH   5  42
HETATM   42  O1  UNL     1     -38.081   5.202  12.069  1.00  0.00    -0.348 OA
BRANCH  42  43
HETATM   43  C10 UNL     1     -37.602   4.239  12.894  1.00  0.00     0.294 C 
HETATM   44  O2  UNL     1     -36.264   4.554  13.150  1.00  0.00    -0.326 OA
HETATM   45  C11 UNL     1     -36.078   5.346  14.242  1.00  0.00     0.294 C 
HETATM   46  O5  UNL     1     -36.386   4.670  15.386  1.00  0.00    -0.348 OA
HETATM   47  C14 UNL     1     -37.582   4.026  15.398  1.00  0.00     0.181 C 
HETATM   48  C16 UNL     1     -38.394   4.060  14.148  1.00  0.00     0.204 C 
BRANCH  45  49
HETATM   49  C12 UNL     1     -36.675   6.727  14.142  1.00  0.00     0.197 C 
BRANCH  49  50
HETATM   50  O3  UNL     1     -36.112   7.379  13.052  1.00  0.00    -0.389 OA
ATOM     51  H3  UNL     1     -36.790   7.877  12.610  1.00  0.00     0.210 HD
ENDBRANCH  49  50
BRANCH  49  52
HETATM   52  C13 UNL     1     -36.160   7.482  15.378  1.00  0.00     0.200 C 
BRANCH  52  53
HETATM   53  O4  UNL     1     -37.048   7.361  16.433  1.00  0.00    -0.398 OA
ATOM     54  H4  UNL     1     -36.595   7.428  17.265  1.00  0.00     0.209 HD
ENDBRANCH  52  53
ENDBRANCH  49  52
ENDBRANCH  45  49
BRANCH  47  55
HETATM   55  C15 UNL     1     -37.299   2.578  15.834  1.00  0.00     0.199 C 
BRANCH  55  56
HETATM   56  O6  UNL     1     -36.542   1.949  14.845  1.00  0.00    -0.398 OA
ATOM     57  H6  UNL     1     -35.860   1.435  15.260  1.00  0.00     0.209 HD
ENDBRANCH  55  56
ENDBRANCH  47  55
BRANCH  48  58
HETATM   58  O7  UNL     1     -39.124   2.844  14.134  1.00  0.00    -0.388 OA
ATOM     59  H7  UNL     1     -38.800   2.235  14.788  1.00  0.00     0.210 HD
ENDBRANCH  48  58
ENDBRANCH  42  43
ENDBRANCH   5  42
BRANCH   4  60
HETATM   60  N4  UNL     1     -39.049   7.287  10.660  1.00  0.00    -0.072 N 
ATOM     61  H43 UNL     1     -39.700   7.874  10.139  1.00  0.00     0.274 HD
ATOM     62  H42 UNL     1     -39.547   7.241  11.549  1.00  0.00     0.274 HD
ATOM     63  H41 UNL     1     -38.144   7.745  10.769  1.00  0.00     0.274 HD
ENDBRANCH   4  60
TORSDOF 21
ENDMDL
MODEL 4
REMARK VINA RESULT: -7.962487800      2.167      4.195
REMARK  21 active torsions:
REMARK  status: ('A' for Active; 'I' for Inactive)
REMARK    1  A    between atoms: N1_1  and  C1_5 
REMARK    2  A    between atoms: C3_7  and  N2_8 
REMARK    3  A    between atoms: C4_12  and  S1_13 
REMARK    4  A    between atoms: S1_13  and  S2_14 
REMARK    5  A    between atoms: S2_14  and  C5_15 
REMARK    6  A    between atoms: C6_16  and  N3_17 
REMARK    7  A    between atoms: C8_22  and  N4_23 
REMARK    8  A    between atoms: C9_27  and  O1_28 
REMARK    9  A    between atoms: O1_28  and  C10_29 
REMARK   10  A    between atoms: C11_31  and  C12_32 
REMARK   11  A    between atoms: C12_32  and  O3_33 
REMARK   12  A    between atoms: C12_32  and  C13_35 
REMARK   13  A    between atoms: C13_35  and  O4_36 
REMARK   14  A    between atoms: C14_39  and  C15_40 
REMARK   15  A    between atoms: C15_40  and  O6_41 
REMARK   16  A    between atoms: C16_43  and  O7_44 
REMARK   17  A    between atoms: C17_46  and  O8_47 
REMARK   18  A    between atoms: C18_50  and  O10_51 
REMARK   19  A    between atoms: O10_51  and  C19_52 
REMARK   20  A    between atoms: C20_53  and  N5_54 
REMARK   21  A    between atoms: C22_59  and  N6_60 
ROOT
HETATM    1  C5  UNL     1     -40.008   3.826  10.439  1.00  0.00     0.120 C 
HETATM    2  C6  UNL     1     -39.629   5.074   9.742  1.00  0.00     0.202 C 
HETATM    3  C7  UNL     1     -38.168   4.938   9.303  1.00  0.00     0.069 C 
HETATM    4  C8  UNL     1     -38.123   3.738   8.378  1.00  0.00     0.217 C 
HETATM    5  C9  UNL     1     -38.432   2.456   9.114  1.00  0.00     0.185 C 
HETATM    6  C17 UNL     1     -39.862   2.582   9.584  1.00  0.00     0.165 C 
ENDROOT
BRANCH   1   7
HETATM    7  S2  UNL     1     -39.235   3.679  12.033  1.00  0.00    -0.085 SA
BRANCH   7   8
HETATM    8  S1  UNL     1     -38.866   5.530  12.965  1.00  0.00    -0.063 SA
BRANCH   8   9
HETATM    9  C4  UNL     1     -37.323   5.476  13.940  1.00  0.00     0.227 C 
HETATM   10  C3  UNL     1     -37.663   5.669  15.370  1.00  0.00     0.225 C 
HETATM   11  C2  UNL     1     -36.629   6.375  16.162  1.00  0.00     0.074 C 
HETATM   12  C1  UNL     1     -35.290   6.245  15.470  1.00  0.00     0.240 C 
HETATM   13  C18 UNL     1     -35.492   6.944  14.119  1.00  0.00     0.292 C 
HETATM   14  O9  UNL     1     -36.368   6.242  13.368  1.00  0.00    -0.341 OA
BRANCH  10  15
HETATM   15  N2  UNL     1     -38.069   4.417  16.011  1.00  0.00    -0.072 N 
ATOM     16  H23 UNL     1     -38.384   3.731  15.326  1.00  0.00     0.274 HD
ATOM     17  H22 UNL     1     -37.266   3.911  16.383  1.00  0.00     0.274 HD
ATOM     18  H21 UNL     1     -38.774   4.578  16.730  1.00  0.00     0.274 HD
ENDBRANCH  10  15
BRANCH  12  19
HETATM   19  N1  UNL     1     -34.892   4.881  15.330  1.00  0.00    -0.070 N 
ATOM     20  H13 UNL     1     -33.877   4.792  15.299  1.00  0.00     0.274 HD
ATOM     21  H12 UNL     1     -35.074   4.353  16.184  1.00  0.00     0.274 HD
ATOM     22  H11 UNL     1     -35.328   4.438  14.521  1.00  0.00     0.274 HD
ENDBRANCH  12  19
BRANCH  13  23
HETATM   23  O10 UNL     1     -35.906   8.237  14.422  1.00  0.00    -0.350 OA
BRANCH  23  24
HETATM   24  C19 UNL     1     -35.946   9.110  13.378  1.00  0.00     0.185 C 
HETATM   25  C20 UNL     1     -37.409   9.506  13.116  1.00  0.00     0.216 C 
HETATM   26  C21 UNL     1     -36.888  10.889  12.792  1.00  0.00     0.070 C 
HETATM   27  C22 UNL     1     -35.669  10.552  13.628  1.00  0.00     0.216 C 
BRANCH  25  28
HETATM   28  N5  UNL     1     -37.990   8.803  11.992  1.00  0.00    -0.072 N 
ATOM     29  H53 UNL     1     -39.004   8.738  12.086  1.00  0.00     0.274 HD
ATOM     30  H52 UNL     1     -37.938   9.365  11.143  1.00  0.00     0.274 HD
ATOM     31  H51 UNL     1     -37.578   7.881  11.847  1.00  0.00     0.274 HD
ENDBRANCH  25  28
BRANCH  27  32
HETATM   32  N6  UNL     1     -34.457  11.080  13.025  1.00  0.00    -0.072 N 
ATOM     33  H63 UNL     1     -33.639  10.663  13.470  1.00  0.00     0.274 HD
ATOM     34  H62 UNL     1     -34.355  10.717  12.077  1.00  0.00     0.274 HD
ATOM     35  H61 UNL     1     -34.369  12.096  13.018  1.00  0.00     0.274 HD
ENDBRANCH  27  32
ENDBRANCH  23  24
ENDBRANCH  13  23
ENDBRANCH   8   9
ENDBRANCH   7   8
ENDBRANCH   1   7
BRANCH   2  36
HETATM   36  N3  UNL     1     -40.482   5.252   8.571  1.00  0.00    -0.074 N 
ATOM     37  H33 UNL     1     -39.946   5.270   7.703  1.00  0.00     0.274 HD
ATOM     38  H32 UNL     1     -41.047   4.425   8.376  1.00  0.00     0.274 HD
ATOM     39  H31 UNL     1     -41.051   6.089   8.690  1.00  0.00     0.274 HD
ENDBRANCH   2  36
BRANCH   6  40
HETATM   40  O8  UNL     1     -40.720   2.739   8.498  1.00  0.00    -0.392 OA
ATOM     41  H8  UNL     1     -40.538   2.023   7.899  1.00  0.00     0.210 HD
ENDBRANCH   6  40
BRANCH   5  42
HETATM   42  O1  UNL     1     -38.193   1.427   8.277  1.00  0.00    -0.348 OA
BRANCH  42  43
HETATM   43  C10 UNL     1     -38.042   0.182   8.793  1.00  0.00     0.294 C 
HETATM   44  O2  UNL     1     -37.566  -0.630   7.759  1.00  0.00    -0.326 OA
HETATM   45  C11 UNL     1     -36.208  -0.683   7.674  1.00  0.00     0.294 C 
HETATM   46  O5  UNL     1     -35.683  -1.336   8.750  1.00  0.00    -0.348 OA
HETATM   47  C14 UNL     1     -36.121  -0.931   9.970  1.00  0.00     0.181 C 
HETATM   48  C16 UNL     1     -37.173   0.125  10.007  1.00  0.00     0.204 C 
BRANCH  45  49
HETATM   49  C12 UNL     1     -35.534   0.623   7.336  1.00  0.00     0.197 C 
BRANCH  49  50
HETATM   50  O3  UNL     1     -35.960   1.033   6.078  1.00  0.00    -0.389 OA
ATOM     51  H3  UNL     1     -35.487   1.821   5.837  1.00  0.00     0.210 HD
ENDBRANCH  49  50
BRANCH  49  52
HETATM   52  C13 UNL     1     -34.045   0.280   7.170  1.00  0.00     0.200 C 
BRANCH  52  53
HETATM   53  O4  UNL     1     -33.653   0.421   5.849  1.00  0.00    -0.398 OA
ATOM     54  H4  UNL     1     -33.888   1.279   5.518  1.00  0.00     0.209 HD
ENDBRANCH  52  53
ENDBRANCH  49  52
ENDBRANCH  45  49
BRANCH  47  55
HETATM   55  C15 UNL     1     -36.580  -2.195  10.718  1.00  0.00     0.199 C 
BRANCH  55  56
HETATM   56  O6  UNL     1     -37.531  -2.858   9.942  1.00  0.00    -0.398 OA
ATOM     57  H6  UNL     1     -37.848  -3.613  10.423  1.00  0.00     0.209 HD
ENDBRANCH  55  56
ENDBRANCH  47  55
BRANCH  48  58
HETATM   58  O7  UNL     1     -37.931  -0.132  11.178  1.00  0.00    -0.388 OA
ATOM     59  H7  UNL     1     -38.750  -0.571  10.975  1.00  0.00     0.210 HD
ENDBRANCH  48  58
ENDBRANCH  42  43
ENDBRANCH   5  42
BRANCH   4  60
HETATM   60  N4  UNL     1     -36.938   3.710   7.588  1.00  0.00    -0.072 N 
ATOM     61  H43 UNL     1     -36.430   2.835   7.717  1.00  0.00     0.274 HD
ATOM     62  H42 UNL     1     -37.159   3.626   6.595  1.00  0.00     0.274 HD
ATOM     63  H41 UNL     1     -36.336   4.515   7.764  1.00  0.00     0.274 HD
ENDBRANCH   4  60
TORSDOF 21
ENDMDL
MODEL 5
REMARK VINA RESULT: -7.960265506      2.272      4.247
REMARK  21 active torsions:
REMARK  status: ('A' for Active; 'I' for Inactive)
REMARK    1  A    between atoms: N1_1  and  C1_5 
REMARK    2  A    between atoms: C3_7  and  N2_8 
REMARK    3  A    between atoms: C4_12  and  S1_13 
REMARK    4  A    between atoms: S1_13  and  S2_14 
REMARK    5  A    between atoms: S2_14  and  C5_15 
REMARK    6  A    between atoms: C6_16  and  N3_17 
REMARK    7  A    between atoms: C8_22  and  N4_23 
REMARK    8  A    between atoms: C9_27  and  O1_28 
REMARK    9  A    between atoms: O1_28  and  C10_29 
REMARK   10  A    between atoms: C11_31  and  C12_32 
REMARK   11  A    between atoms: C12_32  and  O3_33 
REMARK   12  A    between atoms: C12_32  and  C13_35 
REMARK   13  A    between atoms: C13_35  and  O4_36 
REMARK   14  A    between atoms: C14_39  and  C15_40 
REMARK   15  A    between atoms: C15_40  and  O6_41 
REMARK   16  A    between atoms: C16_43  and  O7_44 
REMARK   17  A    between atoms: C17_46  and  O8_47 
REMARK   18  A    between atoms: C18_50  and  O10_51 
REMARK   19  A    between atoms: O10_51  and  C19_52 
REMARK   20  A    between atoms: C20_53  and  N5_54 
REMARK   21  A    between atoms: C22_59  and  N6_60 
ROOT
HETATM    1  C5  UNL     1     -39.812   3.770  10.615  1.00  0.00     0.120 C 
HETATM    2  C6  UNL     1     -39.531   5.033   9.900  1.00  0.00     0.202 C 
HETATM    3  C7  UNL     1     -38.098   4.958   9.366  1.00  0.00     0.069 C 
HETATM    4  C8  UNL     1     -38.064   3.763   8.435  1.00  0.00     0.217 C 
HETATM    5  C9  UNL     1     -38.272   2.467   9.184  1.00  0.00     0.185 C 
HETATM    6  C17 UNL     1     -39.672   2.534   9.747  1.00  0.00     0.165 C 
ENDROOT
BRANCH   1   7
HETATM    7  S2  UNL     1     -38.932   3.652  12.154  1.00  0.00    -0.085 SA
BRANCH   7   8
HETATM    8  S1  UNL     1     -38.627   5.510  13.095  1.00  0.00    -0.063 SA
BRANCH   8   9
HETATM    9  C4  UNL     1     -37.190   5.446  14.221  1.00  0.00     0.227 C 
HETATM   10  C3  UNL     1     -37.564   6.096  15.499  1.00  0.00     0.225 C 
HETATM   11  C2  UNL     1     -36.452   6.790  16.190  1.00  0.00     0.074 C 
HETATM   12  C1  UNL     1     -35.134   6.220  15.716  1.00  0.00     0.240 C 
HETATM   13  C18 UNL     1     -35.103   6.533  14.214  1.00  0.00     0.292 C 
HETATM   14  O9  UNL     1     -36.062   5.824  13.580  1.00  0.00    -0.341 OA
BRANCH  10  15
HETATM   15  N2  UNL     1     -38.264   5.177  16.398  1.00  0.00    -0.072 N 
ATOM     16  H23 UNL     1     -39.264   5.374  16.430  1.00  0.00     0.274 HD
ATOM     17  H22 UNL     1     -38.301   4.233  16.013  1.00  0.00     0.274 HD
ATOM     18  H21 UNL     1     -37.853   5.184  17.332  1.00  0.00     0.274 HD
ENDBRANCH  10  15
BRANCH  12  19
HETATM   19  N1  UNL     1     -35.027   4.823  15.989  1.00  0.00    -0.070 N 
ATOM     20  H13 UNL     1     -35.947   4.392  16.080  1.00  0.00     0.274 HD
ATOM     21  H12 UNL     1     -34.689   4.311  15.174  1.00  0.00     0.274 HD
ATOM     22  H11 UNL     1     -34.449   4.638  16.809  1.00  0.00     0.274 HD
ENDBRANCH  12  19
BRANCH  13  23
HETATM   23  O10 UNL     1     -35.249   7.912  14.113  1.00  0.00    -0.350 OA
BRANCH  23  24
HETATM   24  C19 UNL     1     -34.148   8.601  13.707  1.00  0.00     0.185 C 
HETATM   25  C20 UNL     1     -34.295  10.072  14.134  1.00  0.00     0.216 C 
HETATM   26  C21 UNL     1     -32.804  10.057  14.396  1.00  0.00     0.070 C 
HETATM   27  C22 UNL     1     -32.914   8.551  14.539  1.00  0.00     0.216 C 
BRANCH  25  28
HETATM   28  N5  UNL     1     -34.707  10.935  13.047  1.00  0.00    -0.072 N 
ATOM     29  H53 UNL     1     -35.570  11.426  13.278  1.00  0.00     0.274 HD
ATOM     30  H52 UNL     1     -34.080  11.734  12.958  1.00  0.00     0.274 HD
ATOM     31  H51 UNL     1     -34.795  10.439  12.160  1.00  0.00     0.274 HD
ENDBRANCH  25  28
BRANCH  27  32
HETATM   32  N6  UNL     1     -31.770   7.883  13.942  1.00  0.00    -0.072 N 
ATOM     33  H63 UNL     1     -31.235   7.400  14.663  1.00  0.00     0.274 HD
ATOM     34  H62 UNL     1     -32.085   7.088  13.385  1.00  0.00     0.274 HD
ATOM     35  H61 UNL     1     -31.150   8.471  13.386  1.00  0.00     0.274 HD
ENDBRANCH  27  32
ENDBRANCH  23  24
ENDBRANCH  13  23
ENDBRANCH   8   9
ENDBRANCH   7   8
ENDBRANCH   1   7
BRANCH   2  36
HETATM   36  N3  UNL     1     -40.465   5.178   8.787  1.00  0.00    -0.074 N 
ATOM     37  H33 UNL     1     -40.725   4.279   8.383  1.00  0.00     0.274 HD
ATOM     38  H32 UNL     1     -41.391   5.471   9.097  1.00  0.00     0.274 HD
ATOM     39  H31 UNL     1     -40.070   5.813   8.095  1.00  0.00     0.274 HD
ENDBRANCH   2  36
BRANCH   6  40
HETATM   40  O8  UNL     1     -40.604   2.657   8.719  1.00  0.00    -0.392 OA
ATOM     41  H8  UNL     1     -40.753   1.783   8.378  1.00  0.00     0.210 HD
ENDBRANCH   6  40
BRANCH   5  42
HETATM   42  O1  UNL     1     -38.046   1.450   8.329  1.00  0.00    -0.348 OA
BRANCH  42  43
HETATM   43  C10 UNL     1     -37.915   0.195   8.822  1.00  0.00     0.294 C 
HETATM   44  O2  UNL     1     -37.442  -0.604   7.777  1.00  0.00    -0.326 OA
HETATM   45  C11 UNL     1     -36.083  -0.673   7.701  1.00  0.00     0.294 C 
HETATM   46  O5  UNL     1     -35.575  -1.353   8.768  1.00  0.00    -0.348 OA
HETATM   47  C14 UNL     1     -36.017  -0.965   9.992  1.00  0.00     0.181 C 
HETATM   48  C16 UNL     1     -37.056   0.103  10.041  1.00  0.00     0.204 C 
BRANCH  45  49
HETATM   49  C12 UNL     1     -35.391   0.630   7.392  1.00  0.00     0.197 C 
BRANCH  49  50
HETATM   50  O3  UNL     1     -35.847   1.099   6.166  1.00  0.00    -0.389 OA
ATOM     51  H3  UNL     1     -36.755   0.841   6.059  1.00  0.00     0.210 HD
ENDBRANCH  49  50
BRANCH  49  52
HETATM   52  C13 UNL     1     -33.916   0.262   7.163  1.00  0.00     0.200 C 
BRANCH  52  53
HETATM   53  O4  UNL     1     -33.588   0.358   5.822  1.00  0.00    -0.398 OA
ATOM     54  H4  UNL     1     -33.080  -0.395   5.544  1.00  0.00     0.209 HD
ENDBRANCH  52  53
ENDBRANCH  49  52
ENDBRANCH  45  49
BRANCH  47  55
HETATM   55  C15 UNL     1     -36.497  -2.237  10.712  1.00  0.00     0.199 C 
BRANCH  55  56
HETATM   56  O6  UNL     1     -37.480  -2.851   9.936  1.00  0.00    -0.398 OA
ATOM     57  H6  UNL     1     -37.315  -3.786   9.916  1.00  0.00     0.209 HD
ENDBRANCH  55  56
ENDBRANCH  47  55
BRANCH  48  58
HETATM   58  O7  UNL     1     -37.825  -0.166  11.202  1.00  0.00    -0.388 OA
ATOM     59  H7  UNL     1     -37.855  -1.097  11.393  1.00  0.00     0.210 HD
ENDBRANCH  48  58
ENDBRANCH  42  43
ENDBRANCH   5  42
BRANCH   4  60
HETATM   60  N4  UNL     1     -36.933   3.784   7.569  1.00  0.00    -0.072 N 
ATOM     61  H43 UNL     1     -36.539   4.723   7.501  1.00  0.00     0.274 HD
ATOM     62  H42 UNL     1     -36.137   3.304   7.990  1.00  0.00     0.274 HD
ATOM     63  H41 UNL     1     -37.145   3.406   6.646  1.00  0.00     0.274 HD
ENDBRANCH   4  60
TORSDOF 21
ENDMDL
