MODEL 1
REMARK VINA RESULT: -8.336830058      0.000      0.000
REMARK  5 active torsions:
REMARK  status: ('A' for Active; 'I' for Inactive)
REMARK    1  A    between atoms: O1_2  and  C2_3 
REMARK    2  A    between atoms: C3_4  and  N1_5 
REMARK       I    between atoms: N1_5  and  C4_7 
REMARK    3  A    between atoms: C4_7  and  C5_9 
REMARK    4  A    between atoms: C14_20  and  N2_21 
REMARK    5  A    between atoms: C15_24  and  N3_25 
ROOT
HETATM    1  C2  UNL     1      17.193  15.039  62.950  1.00  0.00     0.131 A 
HETATM    2  C3  UNL     1      16.232  15.981  62.684  1.00  0.00     0.093 A 
HETATM    3  C11 UNL     1      16.416  16.886  61.665  1.00  0.00     0.064 A 
HETATM    4 CL1  UNL     1      15.186  18.061  61.354  1.00  0.00    -0.082 Cl
HETATM    5  C12 UNL     1      17.568  16.879  60.881  1.00  0.00     0.043 A 
HETATM    6  C13 UNL     1      18.511  15.917  61.179  1.00  0.00     0.040 A 
HETATM    7  C14 UNL     1      19.756  15.627  60.609  1.00  0.00     0.167 A 
HETATM    8  C15 UNL     1      20.281  14.573  61.286  1.00  0.00     0.180 A 
HETATM    9  O6  UNL     1      19.427  14.226  62.215  1.00  0.00    -0.287 OA
HETATM   10  C21 UNL     1      18.365  14.991  62.191  1.00  0.00     0.126 A 
ENDROOT
BRANCH   2  11
HETATM   11  N1  UNL     1      15.044  16.028  63.448  1.00  0.00    -0.321 N 
HETATM   12  C4  UNL     1      13.963  15.146  63.295  1.00  0.00     0.259 C 
HETATM   13  O2  UNL     1      14.017  14.246  62.434  1.00  0.00    -0.270 OA
ATOM     14  H1  UNL     1      14.967  16.754  64.160  1.00  0.00     0.169 HD
BRANCH  12  15
HETATM   15  C5  UNL     1      12.757  15.258  64.132  1.00  0.00     0.168 A 
HETATM   16  C6  UNL     1      11.402  15.223  63.460  1.00  0.00     0.051 C 
HETATM   17  C7  UNL     1      10.344  15.619  64.432  1.00  0.00     0.004 C 
HETATM   18  C8  UNL     1      10.263  14.712  65.632  1.00  0.00     0.003 C 
HETATM   19  C9  UNL     1      11.548  14.006  65.932  1.00  0.00     0.035 C 
HETATM   20  C10 UNL     1      12.777  14.721  65.465  1.00  0.00     0.167 A 
HETATM   21  O3  UNL     1      12.788  16.089  65.257  1.00  0.00    -0.359 OA
ENDBRANCH  12  15
ENDBRANCH   2  11
BRANCH   1  22
HETATM   22  O1  UNL     1      17.091  14.089  63.955  1.00  0.00    -0.351 OA
HETATM   23  C1  UNL     1      16.891  12.729  63.626  1.00  0.00     0.210 C 
ENDBRANCH   1  22
BRANCH   7  24
HETATM   24  N2  UNL     1      20.290  16.348  59.535  1.00  0.00    -0.110 N 
HETATM   25  O4  UNL     1      20.212  15.829  58.383  1.00  0.00    -0.532 OA
HETATM   26  O5  UNL     1      20.902  17.574  59.603  1.00  0.00    -0.532 OA
ENDBRANCH   7  24
BRANCH   8  27
HETATM   27  N3  UNL     1      21.527  13.941  61.051  1.00  0.00    -0.359 N 
HETATM   28  C16 UNL     1      21.709  12.723  60.317  1.00  0.00     0.125 C 
HETATM   29  C17 UNL     1      23.196  12.685  59.923  1.00  0.00     0.020 C 
HETATM   30  C18 UNL     1      23.555  14.044  59.329  1.00  0.00     0.003 C 
HETATM   31  C19 UNL     1      23.458  15.149  60.356  1.00  0.00     0.020 C 
HETATM   32  C20 UNL     1      22.757  14.550  61.582  1.00  0.00     0.125 C 
ENDBRANCH   8  27
TORSDOF 5
ENDMDL
MODEL 2
REMARK VINA RESULT: -8.170863172      0.634      1.119
REMARK  5 active torsions:
REMARK  status: ('A' for Active; 'I' for Inactive)
REMARK    1  A    between atoms: O1_2  and  C2_3 
REMARK    2  A    between atoms: C3_4  and  N1_5 
REMARK       I    between atoms: N1_5  and  C4_7 
REMARK    3  A    between atoms: C4_7  and  C5_9 
REMARK    4  A    between atoms: C14_20  and  N2_21 
REMARK    5  A    between atoms: C15_24  and  N3_25 
ROOT
HETATM    1  C2  UNL     1      17.229  14.864  62.973  1.00  0.00     0.131 A 
HETATM    2  C3  UNL     1      16.251  15.806  62.776  1.00  0.00     0.093 A 
HETATM    3  C11 UNL     1      16.390  16.747  61.783  1.00  0.00     0.064 A 
HETATM    4 CL1  UNL     1      15.140  17.920  61.558  1.00  0.00    -0.082 Cl
HETATM    5  C12 UNL     1      17.512  16.778  60.956  1.00  0.00     0.043 A 
HETATM    6  C13 UNL     1      18.473  15.815  61.186  1.00  0.00     0.040 A 
HETATM    7  C14 UNL     1      19.698  15.557  60.560  1.00  0.00     0.167 A 
HETATM    8  C15 UNL     1      20.257  14.486  61.181  1.00  0.00     0.180 A 
HETATM    9  O6  UNL     1      19.441  14.099  62.128  1.00  0.00    -0.287 OA
HETATM   10  C21 UNL     1      18.373  14.854  62.171  1.00  0.00     0.126 A 
ENDROOT
BRANCH   2  11
HETATM   11  N1  UNL     1      15.093  15.816  63.584  1.00  0.00    -0.321 N 
HETATM   12  C4  UNL     1      13.983  14.977  63.396  1.00  0.00     0.259 C 
HETATM   13  O2  UNL     1      13.982  14.155  62.459  1.00  0.00    -0.270 OA
ATOM     14  H1  UNL     1      15.061  16.479  64.358  1.00  0.00     0.169 HD
BRANCH  12  15
HETATM   15  C5  UNL     1      12.810  15.046  64.283  1.00  0.00     0.168 A 
HETATM   16  C6  UNL     1      11.430  15.069  63.661  1.00  0.00     0.051 C 
HETATM   17  C7  UNL     1      10.414  15.411  64.697  1.00  0.00     0.004 C 
HETATM   18  C8  UNL     1      10.366  14.427  65.836  1.00  0.00     0.003 C 
HETATM   19  C9  UNL     1      11.652  13.688  66.040  1.00  0.00     0.035 C 
HETATM   20  C10 UNL     1      12.872  14.421  65.575  1.00  0.00     0.167 A 
HETATM   21  O3  UNL     1      12.893  15.799  65.459  1.00  0.00    -0.359 OA
ENDBRANCH  12  15
ENDBRANCH   2  11
BRANCH   1  22
HETATM   22  O1  UNL     1      17.173  13.880  63.948  1.00  0.00    -0.351 OA
HETATM   23  C1  UNL     1      16.923  12.538  63.584  1.00  0.00     0.210 C 
ENDBRANCH   1  22
BRANCH   7  24
HETATM   24  N2  UNL     1      20.186  16.319  59.493  1.00  0.00    -0.110 N 
HETATM   25  O4  UNL     1      20.093  15.828  58.331  1.00  0.00    -0.532 OA
HETATM   26  O5  UNL     1      20.766  17.560  59.578  1.00  0.00    -0.532 OA
ENDBRANCH   7  24
BRANCH   8  27
HETATM   27  N3  UNL     1      21.499  13.874  60.878  1.00  0.00    -0.359 N 
HETATM   28  C16 UNL     1      22.739  14.570  60.696  1.00  0.00     0.125 C 
HETATM   29  C17 UNL     1      23.845  13.514  60.863  1.00  0.00     0.020 C 
HETATM   30  C18 UNL     1      23.545  12.722  62.132  1.00  0.00     0.003 C 
HETATM   31  C19 UNL     1      22.268  11.924  62.007  1.00  0.00     0.020 C 
HETATM   32  C20 UNL     1      21.567  12.411  60.733  1.00  0.00     0.125 C 
ENDBRANCH   8  27
TORSDOF 5
ENDMDL
MODEL 3
REMARK VINA RESULT: -8.118255291      1.984      2.778
REMARK  5 active torsions:
REMARK  status: ('A' for Active; 'I' for Inactive)
REMARK    1  A    between atoms: O1_2  and  C2_3 
REMARK    2  A    between atoms: C3_4  and  N1_5 
REMARK       I    between atoms: N1_5  and  C4_7 
REMARK    3  A    between atoms: C4_7  and  C5_9 
REMARK    4  A    between atoms: C14_20  and  N2_21 
REMARK    5  A    between atoms: C15_24  and  N3_25 
ROOT
HETATM    1  C2  UNL     1      17.102  15.642  63.042  1.00  0.00     0.131 A 
HETATM    2  C3  UNL     1      16.341  14.556  63.396  1.00  0.00     0.093 A 
HETATM    3  C11 UNL     1      16.742  13.289  63.045  1.00  0.00     0.064 A 
HETATM    4 CL1  UNL     1      15.763  11.941  63.507  1.00  0.00    -0.082 Cl
HETATM    5  C12 UNL     1      17.915  13.066  62.326  1.00  0.00     0.043 A 
HETATM    6  C13 UNL     1      18.652  14.182  61.988  1.00  0.00     0.040 A 
HETATM    7  C14 UNL     1      19.854  14.324  61.284  1.00  0.00     0.167 A 
HETATM    8  C15 UNL     1      20.143  15.651  61.231  1.00  0.00     0.180 A 
HETATM    9  O6  UNL     1      19.190  16.295  61.856  1.00  0.00    -0.287 OA
HETATM   10  C21 UNL     1      18.286  15.470  62.321  1.00  0.00     0.126 A 
ENDROOT
BRANCH   2  11
HETATM   11  N1  UNL     1      15.146  14.728  64.128  1.00  0.00    -0.321 N 
HETATM   12  C4  UNL     1      13.875  14.887  63.551  1.00  0.00     0.259 C 
HETATM   13  O2  UNL     1      13.755  14.885  62.311  1.00  0.00    -0.270 OA
ATOM     14  H1  UNL     1      15.209  14.737  65.145  1.00  0.00     0.169 HD
BRANCH  12  15
HETATM   15  C5  UNL     1      12.672  15.060  64.382  1.00  0.00     0.168 A 
HETATM   16  C6  UNL     1      11.324  15.137  63.699  1.00  0.00     0.051 C 
HETATM   17  C7  UNL     1      10.286  15.579  64.674  1.00  0.00     0.004 C 
HETATM   18  C8  UNL     1      10.132  14.646  65.847  1.00  0.00     0.003 C 
HETATM   19  C9  UNL     1      11.362  13.844  66.136  1.00  0.00     0.035 C 
HETATM   20  C10 UNL     1      12.642  14.486  65.699  1.00  0.00     0.167 A 
HETATM   21  O3  UNL     1      12.749  15.855  65.531  1.00  0.00    -0.359 OA
ENDBRANCH  12  15
ENDBRANCH   2  11
BRANCH   1  22
HETATM   22  O1  UNL     1      16.776  16.953  63.353  1.00  0.00    -0.351 OA
HETATM   23  C1  UNL     1      16.070  17.747  62.421  1.00  0.00     0.210 C 
ENDBRANCH   1  22
BRANCH   7  24
HETATM   24  N2  UNL     1      20.566  13.239  60.761  1.00  0.00    -0.110 N 
HETATM   25  O4  UNL     1      20.136  12.716  59.692  1.00  0.00    -0.532 OA
HETATM   26  O5  UNL     1      21.697  12.675  61.297  1.00  0.00    -0.532 OA
ENDBRANCH   7  24
BRANCH   8  27
HETATM   27  N3  UNL     1      21.266  16.258  60.617  1.00  0.00    -0.359 N 
HETATM   28  C16 UNL     1      22.629  16.072  61.023  1.00  0.00     0.125 C 
HETATM   29  C17 UNL     1      23.489  16.512  59.827  1.00  0.00     0.020 C 
HETATM   30  C18 UNL     1      22.925  15.845  58.576  1.00  0.00     0.003 C 
HETATM   31  C19 UNL     1      21.535  16.343  58.253  1.00  0.00     0.020 C 
HETATM   32  C20 UNL     1      21.064  17.153  59.467  1.00  0.00     0.125 C 
ENDBRANCH   8  27
TORSDOF 5
ENDMDL
MODEL 4
REMARK VINA RESULT: -8.057294521      2.129      2.969
REMARK  5 active torsions:
REMARK  status: ('A' for Active; 'I' for Inactive)
REMARK    1  A    between atoms: O1_2  and  C2_3 
REMARK    2  A    between atoms: C3_4  and  N1_5 
REMARK       I    between atoms: N1_5  and  C4_7 
REMARK    3  A    between atoms: C4_7  and  C5_9 
REMARK    4  A    between atoms: C14_20  and  N2_21 
REMARK    5  A    between atoms: C15_24  and  N3_25 
ROOT
HETATM    1  C2  UNL     1      16.870  15.633  62.781  1.00  0.00     0.131 A 
HETATM    2  C3  UNL     1      16.180  14.549  63.261  1.00  0.00     0.093 A 
HETATM    3  C11 UNL     1      16.608  13.275  62.969  1.00  0.00     0.064 A 
HETATM    4 CL1  UNL     1      15.718  11.928  63.590  1.00  0.00    -0.082 Cl
HETATM    5  C12 UNL     1      17.738  13.044  62.186  1.00  0.00     0.043 A 
HETATM    6  C13 UNL     1      18.403  14.160  61.722  1.00  0.00     0.040 A 
HETATM    7  C14 UNL     1      19.548  14.295  60.928  1.00  0.00     0.167 A 
HETATM    8  C15 UNL     1      19.778  15.624  60.765  1.00  0.00     0.180 A 
HETATM    9  O6  UNL     1      18.844  16.276  61.410  1.00  0.00    -0.287 OA
HETATM   10  C21 UNL     1      18.009  15.454  61.992  1.00  0.00     0.126 A 
ENDROOT
BRANCH   2  11
HETATM   11  N1  UNL     1      15.030  14.728  64.062  1.00  0.00    -0.321 N 
HETATM   12  C4  UNL     1      13.719  14.813  63.565  1.00  0.00     0.259 C 
HETATM   13  O2  UNL     1      13.517  14.731  62.338  1.00  0.00    -0.270 OA
ATOM     14  H1  UNL     1      15.161  14.801  65.070  1.00  0.00     0.169 HD
BRANCH  12  15
HETATM   15  C5  UNL     1      12.569  14.999  64.465  1.00  0.00     0.168 A 
HETATM   16  C6  UNL     1      11.191  15.151  63.858  1.00  0.00     0.051 C 
HETATM   17  C7  UNL     1      10.224  15.594  64.902  1.00  0.00     0.004 C 
HETATM   18  C8  UNL     1      10.095  14.626  66.049  1.00  0.00     0.003 C 
HETATM   19  C9  UNL     1      11.307  13.769  66.244  1.00  0.00     0.035 C 
HETATM   20  C10 UNL     1      12.586  14.379  65.761  1.00  0.00     0.167 A 
HETATM   21  O3  UNL     1      12.737  15.748  65.634  1.00  0.00    -0.359 OA
ENDBRANCH  12  15
ENDBRANCH   2  11
BRANCH   1  22
HETATM   22  O1  UNL     1      16.512  16.950  63.025  1.00  0.00    -0.351 OA
HETATM   23  C1  UNL     1      15.718  17.652  62.089  1.00  0.00     0.210 C 
ENDBRANCH   1  22
BRANCH   7  24
HETATM   24  N2  UNL     1      20.267  13.203  60.431  1.00  0.00    -0.110 N 
HETATM   25  O4  UNL     1      19.751  12.543  59.483  1.00  0.00    -0.532 OA
HETATM   26  O5  UNL     1      21.490  12.765  60.875  1.00  0.00    -0.532 OA
ENDBRANCH   7  24
BRANCH   8  27
HETATM   27  N3  UNL     1      20.832  16.227  60.033  1.00  0.00    -0.359 N 
HETATM   28  C16 UNL     1      20.832  16.447  58.616  1.00  0.00     0.125 C 
HETATM   29  C17 UNL     1      21.910  17.512  58.355  1.00  0.00     0.020 C 
HETATM   30  C18 UNL     1      21.690  18.651  59.346  1.00  0.00     0.003 C 
HETATM   31  C19 UNL     1      21.926  18.208  60.772  1.00  0.00     0.020 C 
HETATM   32  C20 UNL     1      22.038  16.679  60.745  1.00  0.00     0.125 C 
ENDBRANCH   8  27
TORSDOF 5
ENDMDL
MODEL 5
REMARK VINA RESULT: -7.926316441      3.085      8.733
REMARK  5 active torsions:
REMARK  status: ('A' for Active; 'I' for Inactive)
REMARK    1  A    between atoms: O1_2  and  C2_3 
REMARK    2  A    between atoms: C3_4  and  N1_5 
REMARK       I    between atoms: N1_5  and  C4_7 
REMARK    3  A    between atoms: C4_7  and  C5_9 
REMARK    4  A    between atoms: C14_20  and  N2_21 
REMARK    5  A    between atoms: C15_24  and  N3_25 
ROOT
HETATM    1  C2  UNL     1      17.519  16.963  62.764  1.00  0.00     0.131 A 
HETATM    2  C3  UNL     1      18.786  16.658  62.336  1.00  0.00     0.093 A 
HETATM    3  C11 UNL     1      19.168  15.345  62.192  1.00  0.00     0.064 A 
HETATM    4 CL1  UNL     1      20.772  14.992  61.650  1.00  0.00    -0.082 Cl
HETATM    5  C12 UNL     1      18.296  14.294  62.472  1.00  0.00     0.043 A 
HETATM    6  C13 UNL     1      17.031  14.641  62.900  1.00  0.00     0.040 A 
HETATM    7  C14 UNL     1      15.926  13.862  63.262  1.00  0.00     0.167 A 
HETATM    8  C15 UNL     1      14.923  14.710  63.608  1.00  0.00     0.180 A 
HETATM    9  O6  UNL     1      15.367  15.934  63.474  1.00  0.00    -0.287 OA
HETATM   10  C21 UNL     1      16.607  15.945  63.057  1.00  0.00     0.126 A 
ENDROOT
BRANCH   2  11
HETATM   11  N1  UNL     1      19.707  17.685  62.035  1.00  0.00    -0.321 N 
HETATM   12  C4  UNL     1      19.841  18.292  60.776  1.00  0.00     0.259 C 
HETATM   13  O2  UNL     1      19.115  17.923  59.832  1.00  0.00    -0.270 OA
ATOM     14  H1  UNL     1      20.317  18.009  62.785  1.00  0.00     0.169 HD
BRANCH  12  15
HETATM   15  C5  UNL     1      20.826  19.361  60.540  1.00  0.00     0.168 A 
HETATM   16  C6  UNL     1      20.542  20.742  61.090  1.00  0.00     0.051 C 
HETATM   17  C7  UNL     1      21.508  21.723  60.518  1.00  0.00     0.004 C 
HETATM   18  C8  UNL     1      22.944  21.407  60.844  1.00  0.00     0.003 C 
HETATM   19  C9  UNL     1      23.187  19.956  61.123  1.00  0.00     0.035 C 
HETATM   20  C10 UNL     1      22.220  19.024  60.462  1.00  0.00     0.167 A 
HETATM   21  O3  UNL     1      21.520  19.388  59.325  1.00  0.00    -0.359 OA
ENDBRANCH  12  15
ENDBRANCH   2  11
BRANCH   1  22
HETATM   22  O1  UNL     1      17.048  18.255  62.937  1.00  0.00    -0.351 OA
HETATM   23  C1  UNL     1      16.263  18.863  61.931  1.00  0.00     0.210 C 
ENDBRANCH   1  22
BRANCH   7  24
HETATM   24  N2  UNL     1      15.938  12.463  63.243  1.00  0.00    -0.110 N 
HETATM   25  O4  UNL     1      14.951  11.874  62.714  1.00  0.00    -0.532 OA
HETATM   26  O5  UNL     1      16.924  11.653  63.748  1.00  0.00    -0.532 OA
ENDBRANCH   7  24
BRANCH   8  27
HETATM   27  N3  UNL     1      13.619  14.362  64.041  1.00  0.00    -0.359 N 
HETATM   28  C16 UNL     1      13.255  14.046  65.391  1.00  0.00     0.125 C 
HETATM   29  C17 UNL     1      11.727  14.203  65.463  1.00  0.00     0.020 C 
HETATM   30  C18 UNL     1      11.365  15.541  64.825  1.00  0.00     0.003 C 
HETATM   31  C19 UNL     1      11.683  15.561  63.347  1.00  0.00     0.020 C 
HETATM   32  C20 UNL     1      12.523  14.311  63.060  1.00  0.00     0.125 C 
ENDBRANCH   8  27
TORSDOF 5
ENDMDL
