MODEL 1
REMARK VINA RESULT: -6.122578048      0.000      0.000
REMARK  8 active torsions:
REMARK  status: ('A' for Active; 'I' for Inactive)
REMARK    1  A    between atoms: C2_2  and  C3_3 
REMARK    2  A    between atoms: C3_3  and  O1_4 
REMARK    3  A    between atoms: C5_7  and  C19_26 
REMARK    4  A    between atoms: C6_8  and  C7_9 
REMARK    5  A    between atoms: C7_9  and  C8_10 
REMARK    6  A    between atoms: C12_16  and  C14_18 
REMARK    7  A    between atoms: C14_18  and  C16_21 
REMARK    8  A    between atoms: C16_21  and  O5_22 
ROOT
HETATM    1  C3  UNL     1      26.352  14.366  30.453  1.00  0.00     0.094 C 
HETATM    2  C4  UNL     1      26.158  14.908  29.144  1.00  0.00     0.054 C 
HETATM    3  C5  UNL     1      27.109  15.773  28.372  1.00  0.00     0.023 C 
HETATM    4  C6  UNL     1      26.615  17.205  28.499  1.00  0.00     0.006 C 
HETATM    5  C10 UNL     1      26.195  17.578  29.897  1.00  0.00     0.089 C 
HETATM    6  C11 UNL     1      27.206  17.282  30.929  1.00  0.00     0.159 C 
HETATM    7  O3  UNL     1      27.505  18.321  31.522  1.00  0.00    -0.293 OA
HETATM    8  C12 UNL     1      27.979  16.126  31.477  1.00  0.00     0.029 C 
HETATM    9  C13 UNL     1      27.249  14.852  31.499  1.00  0.00     0.029 C 
ENDROOT
BRANCH   1  10
HETATM   10  C2  UNL     1      24.965  14.236  31.058  1.00  0.00     0.004 C 
HETATM   11  C1  UNL     1      23.955  15.024  30.776  1.00  0.00     0.010 C 
ENDBRANCH   1  10
BRANCH   1  12
HETATM   12  O1  UNL     1      26.618  12.953  30.341  1.00  0.00    -0.382 OA
ATOM     13  H1  UNL     1      27.560  13.009  30.446  1.00  0.00     0.211 HD
ENDBRANCH   1  12
BRANCH   3  14
HETATM   14  C19 UNL     1      28.497  15.726  28.696  1.00  0.00     0.130 C 
HETATM   15  C18 UNL     1      29.449  16.907  28.643  1.00  0.00     0.038 C 
HETATM   16  C17 UNL     1      30.681  15.981  28.941  1.00  0.00     0.075 C 
HETATM   17  C16 UNL     1      30.247  14.616  28.385  1.00  0.00     0.200 C 
HETATM   18  O6  UNL     1      29.146  15.052  27.692  1.00  0.00    -0.346 OA
BRANCH  17  19
HETATM   19  C14 UNL     1      29.743  13.603  29.323  1.00  0.00     0.168 A 
HETATM   20  C15 UNL     1      30.420  13.355  30.585  1.00  0.00     0.218 A 
HETATM   21  O4  UNL     1      30.821  12.585  29.486  1.00  0.00    -0.364 OA
ENDBRANCH  17  19
BRANCH  17  22
HETATM   22  O5  UNL     1      31.211  14.141  27.488  1.00  0.00    -0.363 OA
ATOM     23  H5  UNL     1      32.083  14.490  27.630  1.00  0.00     0.213 HD
ENDBRANCH  17  22
ENDBRANCH   3  14
BRANCH   4  24
HETATM   24  C7  UNL     1      25.525  17.583  27.568  1.00  0.00     0.083 C 
BRANCH  24  25
HETATM   25  C8  UNL     1      25.201  19.017  27.489  1.00  0.00     0.123 C 
HETATM   26  C9  UNL     1      23.785  19.487  27.425  1.00  0.00     0.091 C 
HETATM   27  O2  UNL     1      26.063  19.855  27.473  1.00  0.00    -0.298 OA
ENDBRANCH  24  25
ENDBRANCH   4  24
TORSDOF 8
ENDMDL
MODEL 2
REMARK VINA RESULT: -5.826241333      2.643      5.555
REMARK  8 active torsions:
REMARK  status: ('A' for Active; 'I' for Inactive)
REMARK    1  A    between atoms: C2_2  and  C3_3 
REMARK    2  A    between atoms: C3_3  and  O1_4 
REMARK    3  A    between atoms: C5_7  and  C19_26 
REMARK    4  A    between atoms: C6_8  and  C7_9 
REMARK    5  A    between atoms: C7_9  and  C8_10 
REMARK    6  A    between atoms: C12_16  and  C14_18 
REMARK    7  A    between atoms: C14_18  and  C16_21 
REMARK    8  A    between atoms: C16_21  and  O5_22 
ROOT
HETATM    1  C3  UNL     1      29.973  15.863  28.607  1.00  0.00     0.094 C 
HETATM    2  C4  UNL     1      29.455  15.389  29.853  1.00  0.00     0.054 C 
HETATM    3  C5  UNL     1      29.816  14.117  30.559  1.00  0.00     0.023 C 
HETATM    4  C6  UNL     1      28.704  13.119  30.284  1.00  0.00     0.006 C 
HETATM    5  C10 UNL     1      28.252  13.101  28.846  1.00  0.00     0.089 C 
HETATM    6  C11 UNL     1      29.347  12.943  27.872  1.00  0.00     0.159 C 
HETATM    7  O3  UNL     1      29.147  11.936  27.189  1.00  0.00    -0.293 OA
HETATM    8  C12 UNL     1      30.615  13.614  27.456  1.00  0.00     0.029 C 
HETATM    9  C13 UNL     1      30.593  15.080  27.540  1.00  0.00     0.029 C 
ENDROOT
BRANCH   1  10
HETATM   10  C2  UNL     1      28.864  16.694  27.985  1.00  0.00     0.004 C 
HETATM   11  C1  UNL     1      27.589  16.550  28.254  1.00  0.00     0.010 C 
ENDBRANCH   1  10
BRANCH   1  12
HETATM   12  O1  UNL     1      30.878  16.956  28.861  1.00  0.00    -0.382 OA
ATOM     13  H1  UNL     1      30.965  16.812  29.796  1.00  0.00     0.211 HD
ENDBRANCH   1  12
BRANCH   3  14
HETATM   14  C19 UNL     1      31.074  13.507  30.274  1.00  0.00     0.130 C 
HETATM   15  C18 UNL     1      31.401  12.038  30.474  1.00  0.00     0.038 C 
HETATM   16  C17 UNL     1      32.911  12.283  30.120  1.00  0.00     0.075 C 
HETATM   17  C16 UNL     1      33.140  13.748  30.524  1.00  0.00     0.200 C 
HETATM   18  O6  UNL     1      31.974  13.922  31.224  1.00  0.00    -0.346 OA
BRANCH  17  19
HETATM   19  C14 UNL     1      33.124  14.777  29.475  1.00  0.00     0.168 A 
HETATM   20  C15 UNL     1      34.348  15.451  29.074  1.00  0.00     0.218 A 
HETATM   21  O4  UNL     1      33.602  16.044  30.100  1.00  0.00    -0.364 OA
ENDBRANCH  17  19
BRANCH  17  22
HETATM   22  O5  UNL     1      34.232  13.833  31.397  1.00  0.00    -0.363 OA
ATOM     23  H5  UNL     1      34.367  13.060  31.932  1.00  0.00     0.213 HD
ENDBRANCH  17  22
ENDBRANCH   3  14
BRANCH   4  24
HETATM   24  C7  UNL     1      27.507  13.251  31.148  1.00  0.00     0.083 C 
BRANCH  24  25
HETATM   25  C8  UNL     1      26.554  12.130  31.120  1.00  0.00     0.123 C 
HETATM   26  C9  UNL     1      25.085  12.367  30.987  1.00  0.00     0.091 C 
HETATM   27  O2  UNL     1      26.924  10.988  31.202  1.00  0.00    -0.298 OA
ENDBRANCH  24  25
ENDBRANCH   4  24
TORSDOF 8
ENDMDL
MODEL 3
REMARK VINA RESULT: -5.762784038      1.806      4.721
REMARK  8 active torsions:
REMARK  status: ('A' for Active; 'I' for Inactive)
REMARK    1  A    between atoms: C2_2  and  C3_3 
REMARK    2  A    between atoms: C3_3  and  O1_4 
REMARK    3  A    between atoms: C5_7  and  C19_26 
REMARK    4  A    between atoms: C6_8  and  C7_9 
REMARK    5  A    between atoms: C7_9  and  C8_10 
REMARK    6  A    between atoms: C12_16  and  C14_18 
REMARK    7  A    between atoms: C14_18  and  C16_21 
REMARK    8  A    between atoms: C16_21  and  O5_22 
ROOT
HETATM    1  C3  UNL     1      25.910  17.608  28.529  1.00  0.00     0.094 C 
HETATM    2  C4  UNL     1      26.627  16.664  27.730  1.00  0.00     0.054 C 
HETATM    3  C5  UNL     1      27.635  15.659  28.201  1.00  0.00     0.023 C 
HETATM    4  C6  UNL     1      29.011  16.223  27.886  1.00  0.00     0.006 C 
HETATM    5  C10 UNL     1      29.159  17.682  28.231  1.00  0.00     0.089 C 
HETATM    6  C11 UNL     1      28.760  18.020  29.609  1.00  0.00     0.159 C 
HETATM    7  O3  UNL     1      29.714  18.531  30.200  1.00  0.00    -0.293 OA
HETATM    8  C12 UNL     1      27.572  17.936  30.511  1.00  0.00     0.029 C 
HETATM    9  C13 UNL     1      26.278  18.129  29.845  1.00  0.00     0.029 C 
ENDROOT
BRANCH   1  10
HETATM   10  C2  UNL     1      25.635  18.796  27.623  1.00  0.00     0.004 C 
HETATM   11  C1  UNL     1      24.441  19.272  27.365  1.00  0.00     0.010 C 
ENDBRANCH   1  10
BRANCH   1  12
HETATM   12  O1  UNL     1      24.541  17.173  28.655  1.00  0.00    -0.382 OA
ATOM     13  H1  UNL     1      24.177  18.018  28.890  1.00  0.00     0.211 HD
ENDBRANCH   1  12
BRANCH   3  14
HETATM   14  C19 UNL     1      27.601  15.240  29.564  1.00  0.00     0.130 C 
HETATM   15  C18 UNL     1      28.814  14.852  30.392  1.00  0.00     0.038 C 
HETATM   16  C17 UNL     1      27.903  14.391  31.585  1.00  0.00     0.075 C 
HETATM   17  C16 UNL     1      26.593  13.976  30.897  1.00  0.00     0.200 C 
HETATM   18  O6  UNL     1      27.064  13.977  29.609  1.00  0.00    -0.346 OA
BRANCH  17  19
HETATM   19  C14 UNL     1      25.467  14.919  30.903  1.00  0.00     0.168 A 
HETATM   20  C15 UNL     1      24.174  14.531  31.445  1.00  0.00     0.218 A 
HETATM   21  O4  UNL     1      24.383  14.310  30.078  1.00  0.00    -0.364 OA
ENDBRANCH  17  19
BRANCH  17  22
HETATM   22  O5  UNL     1      26.254  12.670  31.273  1.00  0.00    -0.363 OA
ATOM     23  H5  UNL     1      25.580  12.271  30.735  1.00  0.00     0.213 HD
ENDBRANCH  17  22
ENDBRANCH   3  14
BRANCH   4  24
HETATM   24  C7  UNL     1      29.473  16.022  26.492  1.00  0.00     0.083 C 
BRANCH  24  25
HETATM   25  C8  UNL     1      30.903  15.722  26.314  1.00  0.00     0.123 C 
HETATM   26  C9  UNL     1      31.695  15.064  27.397  1.00  0.00     0.091 C 
HETATM   27  O2  UNL     1      31.480  15.995  25.295  1.00  0.00    -0.298 OA
ENDBRANCH  24  25
ENDBRANCH   4  24
TORSDOF 8
ENDMDL
MODEL 4
REMARK VINA RESULT: -5.712978926      2.160      4.882
REMARK  8 active torsions:
REMARK  status: ('A' for Active; 'I' for Inactive)
REMARK    1  A    between atoms: C2_2  and  C3_3 
REMARK    2  A    between atoms: C3_3  and  O1_4 
REMARK    3  A    between atoms: C5_7  and  C19_26 
REMARK    4  A    between atoms: C6_8  and  C7_9 
REMARK    5  A    between atoms: C7_9  and  C8_10 
REMARK    6  A    between atoms: C12_16  and  C14_18 
REMARK    7  A    between atoms: C14_18  and  C16_21 
REMARK    8  A    between atoms: C16_21  and  O5_22 
ROOT
HETATM    1  C3  UNL     1      27.462  17.088  27.802  1.00  0.00     0.094 C 
HETATM    2  C4  UNL     1      28.342  16.354  26.947  1.00  0.00     0.054 C 
HETATM    3  C5  UNL     1      29.511  15.511  27.359  1.00  0.00     0.023 C 
HETATM    4  C6  UNL     1      30.766  16.334  27.118  1.00  0.00     0.006 C 
HETATM    5  C10 UNL     1      30.646  17.764  27.578  1.00  0.00     0.089 C 
HETATM    6  C11 UNL     1      30.184  17.913  28.971  1.00  0.00     0.159 C 
HETATM    7  O3  UNL     1      31.027  18.537  29.619  1.00  0.00    -0.293 OA
HETATM    8  C12 UNL     1      29.025  17.546  29.838  1.00  0.00     0.029 C 
HETATM    9  C13 UNL     1      27.721  17.558  29.162  1.00  0.00     0.029 C 
ENDROOT
BRANCH   1  10
HETATM   10  C2  UNL     1      26.984  18.277  26.986  1.00  0.00     0.004 C 
HETATM   11  C1  UNL     1      26.076  19.135  27.385  1.00  0.00     0.010 C 
ENDBRANCH   1  10
BRANCH   1  12
HETATM   12  O1  UNL     1      26.192  16.407  27.864  1.00  0.00    -0.382 OA
ATOM     13  H1  UNL     1      26.046  16.359  26.927  1.00  0.00     0.211 HD
ENDBRANCH   1  12
BRANCH   3  14
HETATM   14  C19 UNL     1      29.544  14.984  28.684  1.00  0.00     0.130 C 
HETATM   15  C18 UNL     1      30.803  14.683  29.476  1.00  0.00     0.038 C 
HETATM   16  C17 UNL     1      29.969  14.020  30.630  1.00  0.00     0.075 C 
HETATM   17  C16 UNL     1      28.712  13.504  29.913  1.00  0.00     0.200 C 
HETATM   18  O6  UNL     1      29.165  13.665  28.628  1.00  0.00    -0.346 OA
BRANCH  17  19
HETATM   19  C14 UNL     1      27.479  14.299  29.996  1.00  0.00     0.168 A 
HETATM   20  C15 UNL     1      26.928  14.685  31.286  1.00  0.00     0.218 A 
HETATM   21  O4  UNL     1      26.480  13.477  30.738  1.00  0.00    -0.364 OA
ENDBRANCH  17  19
BRANCH  17  22
HETATM   22  O5  UNL     1      28.538  12.141  30.184  1.00  0.00    -0.363 OA
ATOM     23  H5  UNL     1      27.896  11.711  29.631  1.00  0.00     0.213 HD
ENDBRANCH  17  22
ENDBRANCH   3  14
BRANCH   4  24
HETATM   24  C7  UNL     1      31.265  16.333  25.723  1.00  0.00     0.083 C 
BRANCH  24  25
HETATM   25  C8  UNL     1      32.550  15.654  25.490  1.00  0.00     0.123 C 
HETATM   26  C9  UNL     1      33.384  15.164  26.628  1.00  0.00     0.091 C 
HETATM   27  O2  UNL     1      32.970  15.470  24.378  1.00  0.00    -0.298 OA
ENDBRANCH  24  25
ENDBRANCH   4  24
TORSDOF 8
ENDMDL
MODEL 5
REMARK VINA RESULT: -5.693307181      2.583      6.042
REMARK  8 active torsions:
REMARK  status: ('A' for Active; 'I' for Inactive)
REMARK    1  A    between atoms: C2_2  and  C3_3 
REMARK    2  A    between atoms: C3_3  and  O1_4 
REMARK    3  A    between atoms: C5_7  and  C19_26 
REMARK    4  A    between atoms: C6_8  and  C7_9 
REMARK    5  A    between atoms: C7_9  and  C8_10 
REMARK    6  A    between atoms: C12_16  and  C14_18 
REMARK    7  A    between atoms: C14_18  and  C16_21 
REMARK    8  A    between atoms: C16_21  and  O5_22 
ROOT
HETATM    1  C3  UNL     1      28.621  13.579  29.960  1.00  0.00     0.094 C 
HETATM    2  C4  UNL     1      29.718  14.211  30.626  1.00  0.00     0.054 C 
HETATM    3  C5  UNL     1      30.904  14.873  29.991  1.00  0.00     0.023 C 
HETATM    4  C6  UNL     1      32.063  13.893  30.072  1.00  0.00     0.006 C 
HETATM    5  C10 UNL     1      31.684  12.480  29.712  1.00  0.00     0.089 C 
HETATM    6  C11 UNL     1      30.985  12.354  28.420  1.00  0.00     0.159 C 
HETATM    7  O3  UNL     1      31.621  11.601  27.679  1.00  0.00    -0.293 OA
HETATM    8  C12 UNL     1      29.757  12.851  27.729  1.00  0.00     0.029 C 
HETATM    9  C13 UNL     1      28.591  13.037  28.603  1.00  0.00     0.029 C 
ENDROOT
BRANCH   1  10
HETATM   10  C2  UNL     1      28.133  12.493  30.902  1.00  0.00     0.004 C 
HETATM   11  C1  UNL     1      26.976  11.885  30.798  1.00  0.00     0.010 C 
ENDBRANCH   1  10
BRANCH   1  12
HETATM   12  O1  UNL     1      27.459  14.426  30.064  1.00  0.00    -0.382 OA
ATOM     13  H1  UNL     1      27.337  14.331  31.001  1.00  0.00     0.211 HD
ENDBRANCH   1  12
BRANCH   3  14
HETATM   14  C19 UNL     1      30.787  15.350  28.651  1.00  0.00     0.130 C 
HETATM   15  C18 UNL     1      31.926  15.439  27.651  1.00  0.00     0.038 C 
HETATM   16  C17 UNL     1      31.012  16.183  26.614  1.00  0.00     0.075 C 
HETATM   17  C16 UNL     1      29.978  16.900  27.497  1.00  0.00     0.200 C 
HETATM   18  O6  UNL     1      30.613  16.712  28.698  1.00  0.00    -0.346 OA
BRANCH  17  19
HETATM   19  C14 UNL     1      28.649  16.294  27.656  1.00  0.00     0.168 A 
HETATM   20  C15 UNL     1      27.452  17.006  27.238  1.00  0.00     0.218 A 
HETATM   21  O4  UNL     1      27.870  17.187  28.562  1.00  0.00    -0.364 OA
ENDBRANCH  17  19
BRANCH  17  22
HETATM   22  O5  UNL     1      29.956  18.266  27.185  1.00  0.00    -0.363 OA
ATOM     23  H5  UNL     1      29.162  18.555  26.750  1.00  0.00     0.213 HD
ENDBRANCH  17  22
ENDBRANCH   3  14
BRANCH   4  24
HETATM   24  C7  UNL     1      32.780  13.868  31.369  1.00  0.00     0.083 C 
BRANCH  24  25
HETATM   25  C8  UNL     1      33.915  14.795  31.505  1.00  0.00     0.123 C 
HETATM   26  C9  UNL     1      34.603  15.358  30.304  1.00  0.00     0.091 C 
HETATM   27  O2  UNL     1      34.327  15.129  32.585  1.00  0.00    -0.298 OA
ENDBRANCH  24  25
ENDBRANCH   4  24
TORSDOF 8
ENDMDL
