MODEL 1
REMARK VINA RESULT: -6.832458474      0.000      0.000
REMARK  8 active torsions:
REMARK  status: ('A' for Active; 'I' for Inactive)
REMARK    1  A    between atoms: C9_9  and  C11_11 
REMARK    2  A    between atoms: C11_11  and  S1_12 
REMARK    3  A    between atoms: S1_12  and  N1_15 
REMARK       I    between atoms: N1_15  and  C12_17 
REMARK    4  A    between atoms: C12_17  and  S2_19 
REMARK    5  A    between atoms: S2_19  and  C13_20 
REMARK    6  A    between atoms: C13_20  and  C14_21 
REMARK    7  A    between atoms: C14_21  and  C15_22 
REMARK    8  A    between atoms: C17_25  and  C18_26 
ROOT
HETATM    1  C15 UNL     1       8.616  15.565  64.870  1.00  0.00     0.124 C 
HETATM    2  C16 UNL     1       8.029  14.728  63.828  1.00  0.00     0.059 C 
HETATM    3  N2  UNL     1       7.539  14.061  62.998  1.00  0.00    -0.197 NA
ENDROOT
BRANCH   1   4
HETATM    4  C14 UNL     1       9.720  14.841  65.605  1.00  0.00     0.025 C 
BRANCH   4   5
HETATM    5  C13 UNL     1      11.069  15.114  65.027  1.00  0.00     0.085 C 
BRANCH   5   6
HETATM    6  S2  UNL     1      12.423  14.436  65.974  1.00  0.00    -0.068 SA
BRANCH   6   7
HETATM    7  C12 UNL     1      13.781  14.031  64.907  1.00  0.00     0.293 C 
HETATM    8  N1  UNL     1      14.573  15.049  64.377  1.00  0.00    -0.245 N 
ATOM      9  H1  UNL     1      14.358  16.017  64.615  1.00  0.00     0.182 HD
HETATM   10  O3  UNL     1      14.019  12.841  64.636  1.00  0.00    -0.259 OA
BRANCH   8  11
HETATM   11  S1  UNL     1      15.930  14.716  63.311  1.00  0.00     0.234 S 
HETATM   12  O1  UNL     1      16.823  13.792  64.044  1.00  0.00    -0.206 OA
HETATM   13  O2  UNL     1      15.311  13.958  62.191  1.00  0.00    -0.206 OA
BRANCH  11  14
HETATM   14  C11 UNL     1      16.643  16.262  62.895  1.00  0.00     0.174 C 
BRANCH  14  15
HETATM   15  C9  UNL     1      18.065  16.299  62.508  1.00  0.00    -0.008 C 
HETATM   16  C7  UNL     1      18.503  15.617  61.267  1.00  0.00    -0.028 C 
HETATM   17  C2  UNL     1      19.755  16.380  60.808  1.00  0.00    -0.035 C 
HETATM   18  C6  UNL     1      17.553  16.002  60.146  1.00  0.00     0.011 C 
HETATM   19  C8  UNL     1      18.742  14.176  61.263  1.00  0.00     0.016 C 
HETATM   20  C1  UNL     1      20.939  16.247  61.668  1.00  0.00     0.016 C 
HETATM   21  C3  UNL     1      20.175  16.050  59.406  1.00  0.00     0.016 C 
HETATM   22  C4  UNL     1      19.052  17.750  60.860  1.00  0.00     0.009 C 
HETATM   23  C5  UNL     1      17.993  17.427  59.828  1.00  0.00     0.007 C 
HETATM   24  C17 UNL     1      18.515  17.719  62.266  1.00  0.00     0.101 C 
HETATM   25  C10 UNL     1      18.820  15.830  63.748  1.00  0.00     0.018 C 
BRANCH  24  26
HETATM   26  C18 UNL     1      17.628  18.793  62.649  1.00  0.00     0.178 C 
HETATM   27  O4  UNL     1      17.591  19.307  63.797  1.00  0.00    -0.648 OA
HETATM   28  O5  UNL     1      16.732  19.356  61.767  1.00  0.00    -0.648 OA
ENDBRANCH  24  26
ENDBRANCH  14  15
ENDBRANCH  11  14
ENDBRANCH   8  11
ENDBRANCH   6   7
ENDBRANCH   5   6
ENDBRANCH   4   5
ENDBRANCH   1   4
TORSDOF 8
ENDMDL
MODEL 2
REMARK VINA RESULT: -6.665324981      3.432      4.874
REMARK  8 active torsions:
REMARK  status: ('A' for Active; 'I' for Inactive)
REMARK    1  A    between atoms: C9_9  and  C11_11 
REMARK    2  A    between atoms: C11_11  and  S1_12 
REMARK    3  A    between atoms: S1_12  and  N1_15 
REMARK       I    between atoms: N1_15  and  C12_17 
REMARK    4  A    between atoms: C12_17  and  S2_19 
REMARK    5  A    between atoms: S2_19  and  C13_20 
REMARK    6  A    between atoms: C13_20  and  C14_21 
REMARK    7  A    between atoms: C14_21  and  C15_22 
REMARK    8  A    between atoms: C17_25  and  C18_26 
ROOT
HETATM    1  C15 UNL     1      14.144  13.874  63.459  1.00  0.00     0.124 C 
HETATM    2  C16 UNL     1      13.936  14.183  64.871  1.00  0.00     0.059 C 
HETATM    3  N2  UNL     1      13.771  14.450  66.000  1.00  0.00    -0.197 NA
ENDROOT
BRANCH   1   4
HETATM    4  C14 UNL     1      15.167  12.777  63.277  1.00  0.00     0.025 C 
BRANCH   4   5
HETATM    5  C13 UNL     1      16.499  13.134  63.847  1.00  0.00     0.085 C 
BRANCH   5   6
HETATM    6  S2  UNL     1      17.875  12.298  63.074  1.00  0.00    -0.068 SA
BRANCH   6   7
HETATM    7  C12 UNL     1      19.108  13.472  62.575  1.00  0.00     0.293 C 
HETATM    8  N1  UNL     1      19.198  13.855  61.237  1.00  0.00    -0.245 N 
ATOM      9  H1  UNL     1      18.546  13.453  60.563  1.00  0.00     0.182 HD
HETATM   10  O3  UNL     1      19.887  13.945  63.420  1.00  0.00    -0.259 OA
BRANCH   8  11
HETATM   11  S1  UNL     1      20.398  15.010  60.676  1.00  0.00     0.234 S 
HETATM   12  O1  UNL     1      21.717  14.469  61.069  1.00  0.00    -0.206 OA
HETATM   13  O2  UNL     1      20.292  14.926  59.195  1.00  0.00    -0.206 OA
BRANCH  11  14
HETATM   14  C11 UNL     1      19.988  16.557  61.391  1.00  0.00     0.174 C 
BRANCH  14  15
HETATM   15  C9  UNL     1      18.752  17.229  60.952  1.00  0.00    -0.008 C 
HETATM   16  C7  UNL     1      17.510  17.067  61.743  1.00  0.00    -0.028 C 
HETATM   17  C2  UNL     1      16.690  18.338  61.474  1.00  0.00    -0.035 C 
HETATM   18  C6  UNL     1      17.840  17.291  63.209  1.00  0.00     0.011 C 
HETATM   19  C8  UNL     1      16.684  15.872  61.583  1.00  0.00     0.016 C 
HETATM   20  C1  UNL     1      16.169  18.488  60.108  1.00  0.00     0.016 C 
HETATM   21  C3  UNL     1      15.539  18.519  62.420  1.00  0.00     0.016 C 
HETATM   22  C4  UNL     1      17.854  19.277  61.843  1.00  0.00     0.009 C 
HETATM   23  C5  UNL     1      17.993  18.807  63.275  1.00  0.00     0.007 C 
HETATM   24  C17 UNL     1      18.933  18.728  60.949  1.00  0.00     0.101 C 
HETATM   25  C10 UNL     1      18.588  16.828  59.489  1.00  0.00     0.018 C 
BRANCH  24  26
HETATM   26  C18 UNL     1      20.265  19.258  61.131  1.00  0.00     0.178 C 
HETATM   27  O4  UNL     1      20.559  20.162  61.955  1.00  0.00    -0.648 OA
HETATM   28  O5  UNL     1      21.342  18.804  60.405  1.00  0.00    -0.648 OA
ENDBRANCH  24  26
ENDBRANCH  14  15
ENDBRANCH  11  14
ENDBRANCH   8  11
ENDBRANCH   6   7
ENDBRANCH   5   6
ENDBRANCH   4   5
ENDBRANCH   1   4
TORSDOF 8
ENDMDL
MODEL 3
REMARK VINA RESULT: -6.633041525      1.609      2.161
REMARK  8 active torsions:
REMARK  status: ('A' for Active; 'I' for Inactive)
REMARK    1  A    between atoms: C9_9  and  C11_11 
REMARK    2  A    between atoms: C11_11  and  S1_12 
REMARK    3  A    between atoms: S1_12  and  N1_15 
REMARK       I    between atoms: N1_15  and  C12_17 
REMARK    4  A    between atoms: C12_17  and  S2_19 
REMARK    5  A    between atoms: S2_19  and  C13_20 
REMARK    6  A    between atoms: C13_20  and  C14_21 
REMARK    7  A    between atoms: C14_21  and  C15_22 
REMARK    8  A    between atoms: C17_25  and  C18_26 
ROOT
HETATM    1  C15 UNL     1       9.209  15.426  65.239  1.00  0.00     0.124 C 
HETATM    2  C16 UNL     1       8.725  14.803  64.010  1.00  0.00     0.059 C 
HETATM    3  N2  UNL     1       8.318  14.304  63.031  1.00  0.00    -0.197 NA
ENDROOT
BRANCH   1   4
HETATM    4  C14 UNL     1      10.449  14.735  65.758  1.00  0.00     0.025 C 
BRANCH   4   5
HETATM    5  C13 UNL     1      11.672  15.088  64.979  1.00  0.00     0.085 C 
BRANCH   5   6
HETATM    6  S2  UNL     1      13.143  14.210  65.485  1.00  0.00    -0.068 SA
BRANCH   6   7
HETATM    7  C12 UNL     1      14.302  14.124  64.145  1.00  0.00     0.293 C 
HETATM    8  N1  UNL     1      15.611  14.569  64.332  1.00  0.00    -0.245 N 
ATOM      9  H1  UNL     1      15.882  14.937  65.243  1.00  0.00     0.182 HD
HETATM   10  O3  UNL     1      13.941  13.669  63.046  1.00  0.00    -0.259 OA
BRANCH   8  11
HETATM   11  S1  UNL     1      16.806  14.514  63.045  1.00  0.00     0.234 S 
HETATM   12  O1  UNL     1      18.131  14.564  63.700  1.00  0.00    -0.206 OA
HETATM   13  O2  UNL     1      16.632  13.153  62.471  1.00  0.00    -0.206 OA
BRANCH  11  14
HETATM   14  C11 UNL     1      16.460  15.854  61.970  1.00  0.00     0.174 C 
BRANCH  14  15
HETATM   15  C9  UNL     1      17.207  17.111  62.151  1.00  0.00    -0.008 C 
HETATM   16  C7  UNL     1      18.158  17.556  61.105  1.00  0.00    -0.028 C 
HETATM   17  C2  UNL     1      18.210  19.087  61.229  1.00  0.00    -0.035 C 
HETATM   18  C6  UNL     1      17.474  17.440  59.753  1.00  0.00     0.011 C 
HETATM   19  C8  UNL     1      19.504  16.993  61.046  1.00  0.00     0.016 C 
HETATM   20  C1  UNL     1      18.831  19.610  62.454  1.00  0.00     0.016 C 
HETATM   21  C3  UNL     1      18.871  19.759  60.063  1.00  0.00     0.016 C 
HETATM   22  C4  UNL     1      16.678  19.236  61.150  1.00  0.00     0.009 C 
HETATM   23  C5  UNL     1      16.528  18.636  59.769  1.00  0.00     0.007 C 
HETATM   24  C17 UNL     1      16.261  18.285  62.240  1.00  0.00     0.101 C 
HETATM   25  C10 UNL     1      17.847  16.990  63.531  1.00  0.00     0.018 C 
BRANCH  24  26
HETATM   26  C18 UNL     1      14.847  18.017  62.367  1.00  0.00     0.178 C 
HETATM   27  O4  UNL     1      14.363  17.069  63.036  1.00  0.00    -0.648 OA
HETATM   28  O5  UNL     1      13.894  18.798  61.752  1.00  0.00    -0.648 OA
ENDBRANCH  24  26
ENDBRANCH  14  15
ENDBRANCH  11  14
ENDBRANCH   8  11
ENDBRANCH   6   7
ENDBRANCH   5   6
ENDBRANCH   4   5
ENDBRANCH   1   4
TORSDOF 8
ENDMDL
MODEL 4
REMARK VINA RESULT: -6.599666337      2.054      2.741
REMARK  8 active torsions:
REMARK  status: ('A' for Active; 'I' for Inactive)
REMARK    1  A    between atoms: C9_9  and  C11_11 
REMARK    2  A    between atoms: C11_11  and  S1_12 
REMARK    3  A    between atoms: S1_12  and  N1_15 
REMARK       I    between atoms: N1_15  and  C12_17 
REMARK    4  A    between atoms: C12_17  and  S2_19 
REMARK    5  A    between atoms: S2_19  and  C13_20 
REMARK    6  A    between atoms: C13_20  and  C14_21 
REMARK    7  A    between atoms: C14_21  and  C15_22 
REMARK    8  A    between atoms: C17_25  and  C18_26 
ROOT
HETATM    1  C15 UNL     1      11.375  15.187  64.878  1.00  0.00     0.124 C 
HETATM    2  C16 UNL     1       9.921  15.060  64.918  1.00  0.00     0.059 C 
HETATM    3  N2  UNL     1       8.756  14.941  64.960  1.00  0.00    -0.197 NA
ENDROOT
BRANCH   1   4
HETATM    4  C14 UNL     1      11.861  15.561  63.497  1.00  0.00     0.025 C 
BRANCH   4   5
HETATM    5  C13 UNL     1      13.349  15.628  63.410  1.00  0.00     0.085 C 
BRANCH   5   6
HETATM    6  S2  UNL     1      14.199  14.511  64.514  1.00  0.00    -0.068 SA
BRANCH   6   7
HETATM    7  C12 UNL     1      15.264  13.429  63.596  1.00  0.00     0.293 C 
HETATM    8  N1  UNL     1      16.613  13.331  63.938  1.00  0.00    -0.245 N 
ATOM      9  H1  UNL     1      16.966  13.886  64.718  1.00  0.00     0.182 HD
HETATM   10  O3  UNL     1      14.803  12.765  62.652  1.00  0.00    -0.259 OA
BRANCH   8  11
HETATM   11  S1  UNL     1      17.721  12.281  63.069  1.00  0.00     0.234 S 
HETATM   12  O1  UNL     1      18.693  11.777  64.064  1.00  0.00    -0.206 OA
HETATM   13  O2  UNL     1      16.861  11.140  62.654  1.00  0.00    -0.206 OA
BRANCH  11  14
HETATM   14  C11 UNL     1      18.415  13.235  61.772  1.00  0.00     0.174 C 
BRANCH  14  15
HETATM   15  C9  UNL     1      19.665  13.970  62.033  1.00  0.00    -0.008 C 
HETATM   16  C7  UNL     1      20.745  13.963  61.018  1.00  0.00    -0.028 C 
HETATM   17  C2  UNL     1      21.516  15.274  61.238  1.00  0.00    -0.035 C 
HETATM   18  C6  UNL     1      20.131  14.262  59.661  1.00  0.00     0.011 C 
HETATM   19  C8  UNL     1      21.662  12.830  60.926  1.00  0.00     0.016 C 
HETATM   20  C1  UNL     1      22.273  15.370  62.494  1.00  0.00     0.016 C 
HETATM   21  C3  UNL     1      22.454  15.612  60.117  1.00  0.00     0.016 C 
HETATM   22  C4  UNL     1      20.244  16.141  61.167  1.00  0.00     0.009 C 
HETATM   23  C5  UNL     1      19.870  15.762  59.750  1.00  0.00     0.007 C 
HETATM   24  C17 UNL     1      19.390  15.447  62.194  1.00  0.00     0.101 C 
HETATM   25  C10 UNL     1      20.127  13.483  63.403  1.00  0.00     0.018 C 
BRANCH  24  26
HETATM   26  C18 UNL     1      18.017  15.880  62.301  1.00  0.00     0.178 C 
HETATM   27  O4  UNL     1      17.439  16.140  63.388  1.00  0.00    -0.648 OA
HETATM   28  O5  UNL     1      17.211  16.049  61.198  1.00  0.00    -0.648 OA
ENDBRANCH  24  26
ENDBRANCH  14  15
ENDBRANCH  11  14
ENDBRANCH   8  11
ENDBRANCH   6   7
ENDBRANCH   5   6
ENDBRANCH   4   5
ENDBRANCH   1   4
TORSDOF 8
ENDMDL
MODEL 5
REMARK VINA RESULT: -6.502041911      1.462      1.982
REMARK  8 active torsions:
REMARK  status: ('A' for Active; 'I' for Inactive)
REMARK    1  A    between atoms: C9_9  and  C11_11 
REMARK    2  A    between atoms: C11_11  and  S1_12 
REMARK    3  A    between atoms: S1_12  and  N1_15 
REMARK       I    between atoms: N1_15  and  C12_17 
REMARK    4  A    between atoms: C12_17  and  S2_19 
REMARK    5  A    between atoms: S2_19  and  C13_20 
REMARK    6  A    between atoms: C13_20  and  C14_21 
REMARK    7  A    between atoms: C14_21  and  C15_22 
REMARK    8  A    between atoms: C17_25  and  C18_26 
ROOT
HETATM    1  C15 UNL     1       9.883  15.443  65.123  1.00  0.00     0.124 C 
HETATM    2  C16 UNL     1       8.966  14.846  64.157  1.00  0.00     0.059 C 
HETATM    3  N2  UNL     1       8.218  14.384  63.382  1.00  0.00    -0.197 NA
ENDROOT
BRANCH   1   4
HETATM    4  C14 UNL     1      10.286  14.451  66.190  1.00  0.00     0.025 C 
BRANCH   4   5
HETATM    5  C13 UNL     1      11.750  14.161  66.180  1.00  0.00     0.085 C 
BRANCH   5   6
HETATM    6  S2  UNL     1      12.669  15.065  64.944  1.00  0.00    -0.068 SA
BRANCH   6   7
HETATM    7  C12 UNL     1      14.125  14.167  64.478  1.00  0.00     0.293 C 
HETATM    8  N1  UNL     1      15.159  14.823  63.809  1.00  0.00    -0.245 N 
ATOM      9  H1  UNL     1      15.061  15.816  63.600  1.00  0.00     0.182 HD
HETATM   10  O3  UNL     1      14.216  12.957  64.748  1.00  0.00    -0.259 OA
BRANCH   8  11
HETATM   11  S1  UNL     1      16.627  13.990  63.318  1.00  0.00     0.234 S 
HETATM   12  O1  UNL     1      17.391  13.718  64.555  1.00  0.00    -0.206 OA
HETATM   13  O2  UNL     1      16.127  12.690  62.795  1.00  0.00    -0.206 OA
BRANCH  11  14
HETATM   14  C11 UNL     1      17.437  15.027  62.159  1.00  0.00     0.174 C 
BRANCH  14  15
HETATM   15  C9  UNL     1      18.889  15.235  62.298  1.00  0.00    -0.008 C 
HETATM   16  C7  UNL     1      19.822  14.130  61.975  1.00  0.00    -0.028 C 
HETATM   17  C2  UNL     1      21.131  14.816  61.554  1.00  0.00    -0.035 C 
HETATM   18  C6  UNL     1      19.415  13.533  60.638  1.00  0.00     0.011 C 
HETATM   19  C8  UNL     1      20.079  13.073  62.949  1.00  0.00     0.016 C 
HETATM   20  C1  UNL     1      21.853  15.528  62.618  1.00  0.00     0.016 C 
HETATM   21  C3  UNL     1      22.105  13.889  60.889  1.00  0.00     0.016 C 
HETATM   22  C4  UNL     1      20.433  15.714  60.515  1.00  0.00     0.009 C 
HETATM   23  C5  UNL     1      19.909  14.586  59.652  1.00  0.00     0.007 C 
HETATM   24  C17 UNL     1      19.361  16.331  61.373  1.00  0.00     0.101 C 
HETATM   25  C10 UNL     1      19.072  15.779  63.712  1.00  0.00     0.018 C 
BRANCH  24  26
HETATM   26  C18 UNL     1      18.367  17.133  60.698  1.00  0.00     0.178 C 
HETATM   27  O4  UNL     1      17.705  18.050  61.249  1.00  0.00    -0.648 OA
HETATM   28  O5  UNL     1      18.058  16.956  59.368  1.00  0.00    -0.648 OA
ENDBRANCH  24  26
ENDBRANCH  14  15
ENDBRANCH  11  14
ENDBRANCH   8  11
ENDBRANCH   6   7
ENDBRANCH   5   6
ENDBRANCH   4   5
ENDBRANCH   1   4
TORSDOF 8
ENDMDL
