MODEL 1
REMARK VINA RESULT: -5.896265778      0.000      0.000
REMARK  4 active torsions:
REMARK  status: ('A' for Active; 'I' for Inactive)
REMARK    1  A    between atoms: C2_2  and  C3_3 
REMARK    2  A    between atoms: C3_3  and  C4_4 
REMARK    3  A    between atoms: C16_17  and  O1_19 
REMARK    4  A    between atoms: C20_23  and  O2_24 
ROOT
HETATM    1  C4  UNL     1     -32.691 -10.543   0.806  1.00  0.00     0.019 C 
HETATM    2  C5  UNL     1     -32.836 -11.287  -0.508  1.00  0.00     0.027 C 
HETATM    3  C6  UNL     1     -32.248 -12.666  -0.449  1.00  0.00     0.102 C 
HETATM    4  C7  UNL     1     -31.166 -12.705  -1.452  1.00  0.00     0.064 C 
HETATM    5  N1  UNL     1     -30.326 -12.716  -2.243  1.00  0.00    -0.197 NA
HETATM    6  C8  UNL     1     -33.236 -13.793  -0.630  1.00  0.00    -0.024 C 
HETATM    7  C9  UNL     1     -34.104 -13.590  -1.836  1.00  0.00     0.017 C 
HETATM    8  C10 UNL     1     -32.433 -15.063  -0.953  1.00  0.00     0.011 C 
HETATM    9  C11 UNL     1     -32.228 -15.769   0.348  1.00  0.00     0.001 C 
HETATM   10  C12 UNL     1     -33.527 -15.556   1.036  1.00  0.00     0.005 C 
HETATM   11  C13 UNL     1     -33.963 -14.133   0.630  1.00  0.00    -0.005 C 
HETATM   12  C14 UNL     1     -35.428 -14.143   0.615  1.00  0.00     0.008 C 
HETATM   13  C15 UNL     1     -36.135 -12.843   0.931  1.00  0.00     0.038 C 
HETATM   14  C16 UNL     1     -36.022 -12.368   2.324  1.00  0.00     0.054 C 
HETATM   15  C17 UNL     1     -37.388 -11.939   2.891  1.00  0.00     0.045 C 
HETATM   16  C18 UNL     1     -35.049 -11.249   2.600  1.00  0.00     0.040 C 
HETATM   17  C19 UNL     1     -35.053 -10.104   1.704  1.00  0.00     0.035 C 
HETATM   18  C20 UNL     1     -33.811  -9.613   1.083  1.00  0.00     0.122 C 
ENDROOT
BRANCH   1  19
HETATM   19  C3  UNL     1     -31.350  -9.842   0.785  1.00  0.00     0.033 C 
BRANCH  19  20
HETATM   20  C2  UNL     1     -30.968  -9.276  -0.514  1.00  0.00    -0.036 C 
HETATM   21  C1  UNL     1     -29.702  -9.255  -0.859  1.00  0.00     0.007 C 
ENDBRANCH  19  20
ENDBRANCH   1  19
BRANCH  18  22
HETATM   22  O2  UNL     1     -33.279  -8.577   1.901  1.00  0.00    -0.395 OA
ATOM     23  H2  UNL     1     -33.833  -7.817   1.767  1.00  0.00     0.210 HD
ENDBRANCH  18  22
BRANCH  14  24
HETATM   24  O1  UNL     1     -35.641 -13.448   3.157  1.00  0.00    -0.390 OA
ATOM     25  H1  UNL     1     -35.827 -13.228   4.062  1.00  0.00     0.210 HD
ENDBRANCH  14  24
TORSDOF 4
ENDMDL
MODEL 2
REMARK VINA RESULT: -5.352148259      2.042      4.570
REMARK  4 active torsions:
REMARK  status: ('A' for Active; 'I' for Inactive)
REMARK    1  A    between atoms: C2_2  and  C3_3 
REMARK    2  A    between atoms: C3_3  and  C4_4 
REMARK    3  A    between atoms: C16_17  and  O1_19 
REMARK    4  A    between atoms: C20_23  and  O2_24 
ROOT
HETATM    1  C4  UNL     1     -32.406 -12.220  -0.577  1.00  0.00     0.019 C 
HETATM    2  C5  UNL     1     -31.828 -11.215   0.402  1.00  0.00     0.027 C 
HETATM    3  C6  UNL     1     -32.248  -9.809   0.088  1.00  0.00     0.102 C 
HETATM    4  C7  UNL     1     -31.012  -9.056  -0.200  1.00  0.00     0.064 C 
HETATM    5  N1  UNL     1     -30.035  -8.484  -0.419  1.00  0.00    -0.197 NA
HETATM    6  C8  UNL     1     -33.092  -9.141   1.145  1.00  0.00    -0.024 C 
HETATM    7  C9  UNL     1     -32.485  -9.268   2.511  1.00  0.00     0.017 C 
HETATM    8  C10 UNL     1     -33.074  -7.630   0.863  1.00  0.00     0.011 C 
HETATM    9  C11 UNL     1     -34.293  -7.343   0.048  1.00  0.00     0.001 C 
HETATM   10  C12 UNL     1     -35.308  -8.232   0.668  1.00  0.00     0.005 C 
HETATM   11  C13 UNL     1     -34.536  -9.511   1.053  1.00  0.00    -0.005 C 
HETATM   12  C14 UNL     1     -35.203 -10.048   2.242  1.00  0.00     0.008 C 
HETATM   13  C15 UNL     1     -35.157 -11.546   2.447  1.00  0.00     0.038 C 
HETATM   14  C16 UNL     1     -35.935 -12.353   1.487  1.00  0.00     0.054 C 
HETATM   15  C17 UNL     1     -36.790 -13.418   2.199  1.00  0.00     0.045 C 
HETATM   16  C18 UNL     1     -35.174 -13.050   0.387  1.00  0.00     0.040 C 
HETATM   17  C19 UNL     1     -33.963 -13.771   0.745  1.00  0.00     0.035 C 
HETATM   18  C20 UNL     1     -32.694 -13.539   0.035  1.00  0.00     0.122 C 
ENDROOT
BRANCH   1  19
HETATM   19  C3  UNL     1     -31.446 -12.322  -1.743  1.00  0.00     0.033 C 
BRANCH  19  20
HETATM   20  C2  UNL     1     -30.070 -11.905  -1.450  1.00  0.00    -0.036 C 
HETATM   21  C1  UNL     1     -29.444 -11.116  -2.290  1.00  0.00     0.007 C 
ENDBRANCH  19  20
ENDBRANCH   1  19
BRANCH  18  22
HETATM   22  O2  UNL     1     -32.583 -14.499  -1.011  1.00  0.00    -0.395 OA
ATOM     23  H2  UNL     1     -31.769 -14.965  -0.862  1.00  0.00     0.210 HD
ENDBRANCH  18  22
BRANCH  14  24
HETATM   24  O1  UNL     1     -36.895 -11.527   0.851  1.00  0.00    -0.390 OA
ATOM     25  H1  UNL     1     -36.694 -10.616   1.032  1.00  0.00     0.210 HD
ENDBRANCH  14  24
TORSDOF 4
ENDMDL
MODEL 3
REMARK VINA RESULT: -4.726581147      2.449      4.789
REMARK  4 active torsions:
REMARK  status: ('A' for Active; 'I' for Inactive)
REMARK    1  A    between atoms: C2_2  and  C3_3 
REMARK    2  A    between atoms: C3_3  and  C4_4 
REMARK    3  A    between atoms: C16_17  and  O1_19 
REMARK    4  A    between atoms: C20_23  and  O2_24 
ROOT
HETATM    1  C4  UNL     1     -31.215 -10.947  -1.015  1.00  0.00     0.019 C 
HETATM    2  C5  UNL     1     -31.255 -10.292   0.353  1.00  0.00     0.027 C 
HETATM    3  C6  UNL     1     -32.254  -9.175   0.420  1.00  0.00     0.102 C 
HETATM    4  C7  UNL     1     -31.491  -7.948   0.725  1.00  0.00     0.064 C 
HETATM    5  N1  UNL     1     -30.879  -7.001   0.967  1.00  0.00    -0.197 NA
HETATM    6  C8  UNL     1     -33.396  -9.393   1.382  1.00  0.00    -0.024 C 
HETATM    7  C9  UNL     1     -32.914  -9.815   2.739  1.00  0.00     0.017 C 
HETATM    8  C10 UNL     1     -34.061  -8.028   1.626  1.00  0.00     0.011 C 
HETATM    9  C11 UNL     1     -35.201  -7.943   0.664  1.00  0.00     0.001 C 
HETATM   10  C12 UNL     1     -35.732  -9.329   0.674  1.00  0.00     0.005 C 
HETATM   11  C13 UNL     1     -34.488 -10.231   0.804  1.00  0.00    -0.005 C 
HETATM   12  C14 UNL     1     -34.923 -11.424   1.536  1.00  0.00     0.008 C 
HETATM   13  C15 UNL     1     -34.201 -12.721   1.243  1.00  0.00     0.038 C 
HETATM   14  C16 UNL     1     -34.432 -13.299  -0.095  1.00  0.00     0.054 C 
HETATM   15  C17 UNL     1     -34.748 -14.804  -0.018  1.00  0.00     0.045 C 
HETATM   16  C18 UNL     1     -33.346 -13.120  -1.126  1.00  0.00     0.040 C 
HETATM   17  C19 UNL     1     -31.973 -13.379  -0.724  1.00  0.00     0.035 C 
HETATM   18  C20 UNL     1     -30.904 -12.395  -0.966  1.00  0.00     0.122 C 
ENDROOT
BRANCH   1  19
HETATM   19  C3  UNL     1     -30.226 -10.173  -1.860  1.00  0.00     0.033 C 
BRANCH  19  20
HETATM   20  C2  UNL     1     -28.950  -9.871  -1.200  1.00  0.00    -0.036 C 
HETATM   21  C1  UNL     1     -28.394  -8.697  -1.381  1.00  0.00     0.007 C 
ENDBRANCH  19  20
ENDBRANCH   1  19
BRANCH  18  22
HETATM   22  O2  UNL     1     -30.273 -12.712  -2.202  1.00  0.00    -0.395 OA
ATOM     23  H2  UNL     1     -30.005 -13.621  -2.141  1.00  0.00     0.210 HD
ENDBRANCH  18  22
BRANCH  14  24
HETATM   24  O1  UNL     1     -35.610 -12.741  -0.650  1.00  0.00    -0.390 OA
ATOM     25  H1  UNL     1     -35.552 -12.764  -1.598  1.00  0.00     0.210 HD
ENDBRANCH  14  24
TORSDOF 4
ENDMDL
MODEL 4
REMARK VINA RESULT: -4.125509401      1.814      4.613
REMARK  4 active torsions:
REMARK  status: ('A' for Active; 'I' for Inactive)
REMARK    1  A    between atoms: C2_2  and  C3_3 
REMARK    2  A    between atoms: C3_3  and  C4_4 
REMARK    3  A    between atoms: C16_17  and  O1_19 
REMARK    4  A    between atoms: C20_23  and  O2_24 
ROOT
HETATM    1  C4  UNL     1     -32.867 -12.810  -0.556  1.00  0.00     0.019 C 
HETATM    2  C5  UNL     1     -32.041 -11.846   0.275  1.00  0.00     0.027 C 
HETATM    3  C6  UNL     1     -32.239 -10.420  -0.144  1.00  0.00     0.102 C 
HETATM    4  C7  UNL     1     -30.922  -9.927  -0.594  1.00  0.00     0.064 C 
HETATM    5  N1  UNL     1     -29.885  -9.559  -0.938  1.00  0.00    -0.197 NA
HETATM    6  C8  UNL     1     -32.858  -9.524   0.901  1.00  0.00    -0.024 C 
HETATM    7  C9  UNL     1     -32.163  -9.643   2.225  1.00  0.00     0.017 C 
HETATM    8  C10 UNL     1     -32.606  -8.070   0.471  1.00  0.00     0.011 C 
HETATM    9  C11 UNL     1     -33.826  -7.639  -0.278  1.00  0.00     0.001 C 
HETATM   10  C12 UNL     1     -34.919  -8.277   0.499  1.00  0.00     0.005 C 
HETATM   11  C13 UNL     1     -34.347  -9.636   0.950  1.00  0.00    -0.005 C 
HETATM   12  C14 UNL     1     -34.987  -9.943   2.232  1.00  0.00     0.008 C 
HETATM   13  C15 UNL     1     -35.181 -11.403   2.579  1.00  0.00     0.038 C 
HETATM   14  C16 UNL     1     -36.169 -12.135   1.762  1.00  0.00     0.054 C 
HETATM   15  C17 UNL     1     -37.127 -12.966   2.636  1.00  0.00     0.045 C 
HETATM   16  C18 UNL     1     -35.639 -13.047   0.684  1.00  0.00     0.040 C 
HETATM   17  C19 UNL     1     -34.543 -13.940   1.022  1.00  0.00     0.035 C 
HETATM   18  C20 UNL     1     -33.322 -14.000   0.202  1.00  0.00     0.122 C 
ENDROOT
BRANCH   1  19
HETATM   19  C3  UNL     1     -32.047 -13.179  -1.773  1.00  0.00     0.033 C 
BRANCH  19  20
HETATM   20  C2  UNL     1     -30.701 -13.689  -1.481  1.00  0.00    -0.036 C 
HETATM   21  C1  UNL     1     -30.502 -14.984  -1.429  1.00  0.00     0.007 C 
ENDBRANCH  19  20
ENDBRANCH   1  19
BRANCH  18  22
HETATM   22  O2  UNL     1     -33.470 -15.048  -0.750  1.00  0.00    -0.395 OA
ATOM     23  H2  UNL     1     -33.669 -15.834  -0.254  1.00  0.00     0.210 HD
ENDBRANCH  18  22
BRANCH  14  24
HETATM   24  O1  UNL     1     -37.025 -11.207   1.120  1.00  0.00    -0.390 OA
ATOM     25  H1  UNL     1     -37.580 -11.668   0.501  1.00  0.00     0.210 HD
ENDBRANCH  14  24
TORSDOF 4
ENDMDL
MODEL 5
REMARK VINA RESULT: -3.886686582      2.677      6.504
REMARK  4 active torsions:
REMARK  status: ('A' for Active; 'I' for Inactive)
REMARK    1  A    between atoms: C2_2  and  C3_3 
REMARK    2  A    between atoms: C3_3  and  C4_4 
REMARK    3  A    between atoms: C16_17  and  O1_19 
REMARK    4  A    between atoms: C20_23  and  O2_24 
ROOT
HETATM    1  C4  UNL     1     -32.329 -12.532  -0.207  1.00  0.00     0.019 C 
HETATM    2  C5  UNL     1     -33.364 -11.428  -0.315  1.00  0.00     0.027 C 
HETATM    3  C6  UNL     1     -33.438 -10.593   0.928  1.00  0.00     0.102 C 
HETATM    4  C7  UNL     1     -34.807 -10.747   1.458  1.00  0.00     0.064 C 
HETATM    5  N1  UNL     1     -35.882 -10.878   1.854  1.00  0.00    -0.197 NA
HETATM    6  C8  UNL     1     -33.053  -9.144   0.752  1.00  0.00    -0.024 C 
HETATM    7  C9  UNL     1     -33.764  -8.512  -0.408  1.00  0.00     0.017 C 
HETATM    8  C10 UNL     1     -33.573  -8.376   1.978  1.00  0.00     0.011 C 
HETATM    9  C11 UNL     1     -32.434  -8.313   2.944  1.00  0.00     0.001 C 
HETATM   10  C12 UNL     1     -31.268  -8.098   2.050  1.00  0.00     0.005 C 
HETATM   11  C13 UNL     1     -31.576  -8.930   0.788  1.00  0.00    -0.005 C 
HETATM   12  C14 UNL     1     -30.939  -8.226  -0.329  1.00  0.00     0.008 C 
HETATM   13  C15 UNL     1     -30.472  -9.062  -1.501  1.00  0.00     0.038 C 
HETATM   14  C16 UNL     1     -29.326  -9.955  -1.240  1.00  0.00     0.054 C 
HETATM   15  C17 UNL     1     -28.258  -9.847  -2.344  1.00  0.00     0.045 C 
HETATM   16  C18 UNL     1     -29.618 -11.421  -1.040  1.00  0.00     0.040 C 
HETATM   17  C19 UNL     1     -30.527 -12.070  -1.971  1.00  0.00     0.035 C 
HETATM   18  C20 UNL     1     -31.677 -12.857  -1.498  1.00  0.00     0.122 C 
ENDROOT
BRANCH   1  19
HETATM   19  C3  UNL     1     -33.009 -13.733   0.415  1.00  0.00     0.033 C 
BRANCH  19  20
HETATM   20  C2  UNL     1     -34.375 -13.985  -0.059  1.00  0.00    -0.036 C 
HETATM   21  C1  UNL     1     -34.611 -15.035  -0.809  1.00  0.00     0.007 C 
ENDBRANCH  19  20
ENDBRANCH   1  19
BRANCH  18  22
HETATM   22  O2  UNL     1     -31.284 -14.223  -1.415  1.00  0.00    -0.395 OA
ATOM     23  H2  UNL     1     -30.346 -14.241  -1.568  1.00  0.00     0.210 HD
ENDBRANCH  18  22
BRANCH  14  24
HETATM   24  O1  UNL     1     -28.647  -9.517  -0.077  1.00  0.00    -0.390 OA
ATOM     25  H1  UNL     1     -27.781  -9.207  -0.316  1.00  0.00     0.210 HD
ENDBRANCH  14  24
TORSDOF 4
ENDMDL
