MODEL 1
REMARK VINA RESULT: -7.739797078      0.000      0.000
REMARK  3 active torsions:
REMARK  status: ('A' for Active; 'I' for Inactive)
REMARK    1  A    between atoms: N1_1  and  C1_4 
REMARK    2  A    between atoms: N3_8  and  C3_10 
REMARK    3  A    between atoms: C3_10  and  C4_11 
ROOT
HETATM    1  C1  UNL     1     -13.821 -28.437 -27.978  1.00  0.00     0.693 A 
HETATM    2  N2  UNL     1     -14.164 -27.650 -26.946  1.00  0.00    -0.172 N 
ATOM      3  H2  UNL     1     -15.107 -27.262 -26.913  1.00  0.00     0.186 HD
HETATM    4  C2  UNL     1     -13.299 -27.355 -25.947  1.00  0.00     0.165 A 
HETATM    5  N3  UNL     1     -13.613 -26.601 -24.947  1.00  0.00    -0.367 N 
ATOM      6  H3  UNL     1     -12.944 -26.393 -24.205  1.00  0.00     0.161 HD
HETATM    7  C8  UNL     1     -12.035 -27.912 -26.048  1.00  0.00     0.191 A 
HETATM    8  N5  UNL     1     -10.970 -27.812 -25.232  1.00  0.00    -0.332 N 
ATOM      9  H5  UNL     1     -10.916 -27.282 -24.361  1.00  0.00     0.168 HD
HETATM   10  C9  UNL     1      -9.989 -28.546 -25.789  1.00  0.00     0.201 A 
HETATM   11  N6  UNL     1     -10.466 -29.073 -26.917  1.00  0.00    -0.273 N 
ATOM     12  H6  UNL     1      -9.937 -29.677 -27.547  1.00  0.00     0.190 HD
HETATM   13  N7  UNL     1     -11.733 -28.698 -27.103  1.00  0.00    -0.161 N 
HETATM   14  N8  UNL     1     -12.594 -28.971 -28.066  1.00  0.00    -0.109 N 
ATOM     15  H8  UNL     1     -12.334 -29.569 -28.851  1.00  0.00     0.208 HD
ENDROOT
BRANCH   5  16
HETATM   16  C3  UNL     1     -14.959 -26.063 -24.927  1.00  0.00     0.178 C 
BRANCH  16  17
HETATM   17  C4  UNL     1     -15.245 -25.358 -23.645  1.00  0.00     0.026 A 
HETATM   18  C5  UNL     1     -15.846 -24.122 -23.525  1.00  0.00     0.028 A 
HETATM   19  C6  UNL     1     -15.947 -23.788 -22.183  1.00  0.00     0.019 A 
HETATM   20  C7  UNL     1     -15.390 -24.859 -21.511  1.00  0.00     0.088 A 
HETATM   21  N4  UNL     1     -14.979 -25.780 -22.402  1.00  0.00    -0.368 N 
ATOM     22  H4  UNL     1     -14.533 -26.666 -22.166  1.00  0.00     0.165 HD
ENDBRANCH  16  17
ENDBRANCH   5  16
BRANCH   1  23
HETATM   23  N1  UNL     1     -14.665 -28.699 -28.912  1.00  0.00    -0.233 N 
ATOM     24  H12 UNL     1     -15.137 -27.917 -29.367  1.00  0.00     0.174 HD
ATOM     25  H11 UNL     1     -14.855 -29.663 -29.186  1.00  0.00     0.174 HD
ENDBRANCH   1  23
TORSDOF 3
ENDMDL
MODEL 2
REMARK VINA RESULT: -7.537620898      0.854      1.029
REMARK  3 active torsions:
REMARK  status: ('A' for Active; 'I' for Inactive)
REMARK    1  A    between atoms: N1_1  and  C1_4 
REMARK    2  A    between atoms: N3_8  and  C3_10 
REMARK    3  A    between atoms: C3_10  and  C4_11 
ROOT
HETATM    1  C1  UNL     1     -13.896 -28.470 -28.077  1.00  0.00     0.693 A 
HETATM    2  N2  UNL     1     -14.285 -27.736 -27.022  1.00  0.00    -0.172 N 
ATOM      3  H2  UNL     1     -15.244 -27.388 -26.989  1.00  0.00     0.186 HD
HETATM    4  C2  UNL     1     -13.446 -27.442 -26.000  1.00  0.00     0.165 A 
HETATM    5  N3  UNL     1     -13.804 -26.739 -24.979  1.00  0.00    -0.367 N 
ATOM      6  H3  UNL     1     -13.155 -26.531 -24.220  1.00  0.00     0.161 HD
HETATM    7  C8  UNL     1     -12.159 -27.943 -26.103  1.00  0.00     0.191 A 
HETATM    8  N5  UNL     1     -11.110 -27.829 -25.268  1.00  0.00    -0.332 N 
ATOM      9  H5  UNL     1     -11.089 -27.330 -24.378  1.00  0.00     0.168 HD
HETATM   10  C9  UNL     1     -10.093 -28.502 -25.837  1.00  0.00     0.201 A 
HETATM   11  N6  UNL     1     -10.532 -29.007 -26.990  1.00  0.00    -0.273 N 
ATOM     12  H6  UNL     1      -9.970 -29.565 -27.633  1.00  0.00     0.190 HD
HETATM   13  N7  UNL     1     -11.811 -28.677 -27.181  1.00  0.00    -0.161 N 
HETATM   14  N8  UNL     1     -12.647 -28.950 -28.166  1.00  0.00    -0.109 N 
ATOM     15  H8  UNL     1     -12.352 -29.508 -28.967  1.00  0.00     0.208 HD
ENDROOT
BRANCH   5  16
HETATM   16  C3  UNL     1     -15.171 -26.257 -24.959  1.00  0.00     0.178 C 
BRANCH  16  17
HETATM   17  C4  UNL     1     -15.703 -26.184 -23.568  1.00  0.00     0.026 A 
HETATM   18  C5  UNL     1     -16.962 -26.581 -23.168  1.00  0.00     0.028 A 
HETATM   19  C6  UNL     1     -17.100 -26.366 -21.805  1.00  0.00     0.019 A 
HETATM   20  C7  UNL     1     -15.890 -25.831 -21.408  1.00  0.00     0.088 A 
HETATM   21  N4  UNL     1     -15.075 -25.733 -22.475  1.00  0.00    -0.368 N 
ATOM     22  H4  UNL     1     -14.122 -25.370 -22.453  1.00  0.00     0.165 HD
ENDBRANCH  16  17
ENDBRANCH   5  16
BRANCH   1  23
HETATM   23  N1  UNL     1     -14.716 -28.731 -29.031  1.00  0.00    -0.233 N 
ATOM     24  H12 UNL     1     -14.432 -28.508 -29.985  1.00  0.00     0.174 HD
ATOM     25  H11 UNL     1     -15.626 -29.151 -28.836  1.00  0.00     0.174 HD
ENDBRANCH   1  23
TORSDOF 3
ENDMDL
MODEL 3
REMARK VINA RESULT: -7.421139741      1.140      1.205
REMARK  3 active torsions:
REMARK  status: ('A' for Active; 'I' for Inactive)
REMARK    1  A    between atoms: N1_1  and  C1_4 
REMARK    2  A    between atoms: N3_8  and  C3_10 
REMARK    3  A    between atoms: C3_10  and  C4_11 
ROOT
HETATM    1  C1  UNL     1     -13.920 -28.576 -28.271  1.00  0.00     0.693 A 
HETATM    2  N2  UNL     1     -14.423 -28.093 -27.124  1.00  0.00    -0.172 N 
ATOM      3  H2  UNL     1     -15.416 -27.862 -27.078  1.00  0.00     0.186 HD
HETATM    4  C2  UNL     1     -13.655 -27.901 -26.025  1.00  0.00     0.165 A 
HETATM    5  N3  UNL     1     -14.122 -27.437 -24.914  1.00  0.00    -0.367 N 
ATOM      6  H3  UNL     1     -13.525 -27.302 -24.099  1.00  0.00     0.161 HD
HETATM    7  C8  UNL     1     -12.316 -28.232 -26.150  1.00  0.00     0.191 A 
HETATM    8  N5  UNL     1     -11.312 -28.158 -25.256  1.00  0.00    -0.332 N 
ATOM      9  H5  UNL     1     -11.377 -27.830 -24.292  1.00  0.00     0.168 HD
HETATM   10  C9  UNL     1     -10.208 -28.602 -25.882  1.00  0.00     0.201 A 
HETATM   11  N6  UNL     1     -10.550 -28.934 -27.127  1.00  0.00    -0.273 N 
ATOM     12  H6  UNL     1      -9.909 -29.301 -27.831  1.00  0.00     0.190 HD
HETATM   13  N7  UNL     1     -11.852 -28.715 -27.321  1.00  0.00    -0.161 N 
HETATM   14  N8  UNL     1     -12.621 -28.894 -28.381  1.00  0.00    -0.109 N 
ATOM     15  H8  UNL     1     -12.240 -29.261 -29.252  1.00  0.00     0.208 HD
ENDROOT
BRANCH   5  16
HETATM   16  C3  UNL     1     -15.536 -27.119 -24.879  1.00  0.00     0.178 C 
BRANCH  16  17
HETATM   17  C4  UNL     1     -15.767 -25.715 -24.434  1.00  0.00     0.026 A 
HETATM   18  C5  UNL     1     -14.825 -24.708 -24.432  1.00  0.00     0.028 A 
HETATM   19  C6  UNL     1     -15.401 -23.541 -23.952  1.00  0.00     0.019 A 
HETATM   20  C7  UNL     1     -16.708 -23.883 -23.670  1.00  0.00     0.088 A 
HETATM   21  N4  UNL     1     -16.903 -25.182 -23.965  1.00  0.00    -0.368 N 
ATOM     22  H4  UNL     1     -17.783 -25.685 -23.848  1.00  0.00     0.165 HD
ENDBRANCH  16  17
ENDBRANCH   5  16
BRANCH   1  23
HETATM   23  N1  UNL     1     -14.675 -28.747 -29.297  1.00  0.00    -0.233 N 
ATOM     24  H12 UNL     1     -14.764 -29.689 -29.678  1.00  0.00     0.174 HD
ATOM     25  H11 UNL     1     -15.169 -27.959 -29.716  1.00  0.00     0.174 HD
ENDBRANCH   1  23
TORSDOF 3
ENDMDL
MODEL 4
REMARK VINA RESULT: -7.242414989      3.195      5.466
REMARK  3 active torsions:
REMARK  status: ('A' for Active; 'I' for Inactive)
REMARK    1  A    between atoms: N1_1  and  C1_4 
REMARK    2  A    between atoms: N3_8  and  C3_10 
REMARK    3  A    between atoms: C3_10  and  C4_11 
ROOT
HETATM    1  C1  UNL     1     -14.586 -26.472 -24.909  1.00  0.00     0.693 A 
HETATM    2  N2  UNL     1     -15.477 -27.093 -25.698  1.00  0.00    -0.172 N 
ATOM      3  H2  UNL     1     -16.459 -27.101 -25.423  1.00  0.00     0.186 HD
HETATM    4  C2  UNL     1     -15.114 -27.709 -26.848  1.00  0.00     0.165 A 
HETATM    5  N3  UNL     1     -15.958 -28.310 -27.619  1.00  0.00    -0.367 N 
ATOM      6  H3  UNL     1     -15.662 -28.767 -28.481  1.00  0.00     0.161 HD
HETATM    7  C8  UNL     1     -13.768 -27.664 -27.167  1.00  0.00     0.191 A 
HETATM    8  N5  UNL     1     -13.104 -28.171 -28.223  1.00  0.00    -0.332 N 
ATOM      9  H5  UNL     1     -13.504 -28.698 -28.999  1.00  0.00     0.168 HD
HETATM   10  C9  UNL     1     -11.809 -27.846 -28.054  1.00  0.00     0.201 A 
HETATM   11  N6  UNL     1     -11.707 -27.158 -26.917  1.00  0.00    -0.273 N 
ATOM     12  H6  UNL     1     -10.836 -26.784 -26.538  1.00  0.00     0.190 HD
HETATM   13  N7  UNL     1     -12.906 -27.028 -26.346  1.00  0.00    -0.161 N 
HETATM   14  N8  UNL     1     -13.283 -26.434 -25.228  1.00  0.00    -0.109 N 
ATOM     15  H8  UNL     1     -12.607 -25.962 -24.628  1.00  0.00     0.208 HD
ENDROOT
BRANCH   5  16
HETATM   16  C3  UNL     1     -17.347 -28.306 -27.202  1.00  0.00     0.178 C 
BRANCH  16  17
HETATM   17  C4  UNL     1     -18.042 -29.559 -27.610  1.00  0.00     0.026 A 
HETATM   18  C5  UNL     1     -18.021 -30.114 -28.872  1.00  0.00     0.028 A 
HETATM   19  C6  UNL     1     -18.778 -31.277 -28.876  1.00  0.00     0.019 A 
HETATM   20  C7  UNL     1     -19.248 -31.395 -27.583  1.00  0.00     0.088 A 
HETATM   21  N4  UNL     1     -18.797 -30.362 -26.849  1.00  0.00    -0.368 N 
ATOM     22  H4  UNL     1     -18.999 -30.212 -25.860  1.00  0.00     0.165 HD
ENDBRANCH  16  17
ENDBRANCH   5  16
BRANCH   1  23
HETATM   23  N1  UNL     1     -14.961 -25.896 -23.823  1.00  0.00    -0.233 N 
ATOM     24  H12 UNL     1     -15.423 -26.464 -23.112  1.00  0.00     0.174 HD
ATOM     25  H11 UNL     1     -14.800 -24.899 -23.680  1.00  0.00     0.174 HD
ENDBRANCH   1  23
TORSDOF 3
ENDMDL
MODEL 5
REMARK VINA RESULT: -7.065580735      2.451      5.913
REMARK  3 active torsions:
REMARK  status: ('A' for Active; 'I' for Inactive)
REMARK    1  A    between atoms: N1_1  and  C1_4 
REMARK    2  A    between atoms: N3_8  and  C3_10 
REMARK    3  A    between atoms: C3_10  and  C4_11 
ROOT
HETATM    1  C1  UNL     1     -17.133 -26.614 -24.797  1.00  0.00     0.693 A 
HETATM    2  N2  UNL     1     -15.852 -26.731 -25.183  1.00  0.00    -0.172 N 
ATOM      3  H2  UNL     1     -15.124 -26.295 -24.617  1.00  0.00     0.186 HD
HETATM    4  C2  UNL     1     -15.495 -27.408 -26.300  1.00  0.00     0.165 A 
HETATM    5  N3  UNL     1     -14.269 -27.530 -26.685  1.00  0.00    -0.367 N 
ATOM      6  H3  UNL     1     -14.023 -28.046 -27.530  1.00  0.00     0.161 HD
HETATM    7  C8  UNL     1     -16.528 -27.977 -27.026  1.00  0.00     0.191 A 
HETATM    8  N5  UNL     1     -16.501 -28.700 -28.161  1.00  0.00    -0.332 N 
ATOM      9  H5  UNL     1     -15.675 -28.960 -28.699  1.00  0.00     0.168 HD
HETATM   10  C9  UNL     1     -17.778 -29.012 -28.448  1.00  0.00     0.201 A 
HETATM   11  N6  UNL     1     -18.550 -28.482 -27.498  1.00  0.00    -0.273 N 
ATOM     12  H6  UNL     1     -19.567 -28.561 -27.461  1.00  0.00     0.190 HD
HETATM   13  N7  UNL     1     -17.801 -27.835 -26.602  1.00  0.00    -0.161 N 
HETATM   14  N8  UNL     1     -18.126 -27.169 -25.509  1.00  0.00    -0.109 N 
ATOM     15  H8  UNL     1     -19.098 -27.080 -25.215  1.00  0.00     0.208 HD
ENDROOT
BRANCH   5  16
HETATM   16  C3  UNL     1     -13.256 -26.901 -25.860  1.00  0.00     0.178 C 
BRANCH  16  17
HETATM   17  C4  UNL     1     -11.960 -27.634 -25.935  1.00  0.00     0.026 A 
HETATM   18  C5  UNL     1     -11.622 -28.572 -26.887  1.00  0.00     0.028 A 
HETATM   19  C6  UNL     1     -10.340 -29.039 -26.639  1.00  0.00     0.019 A 
HETATM   20  C7  UNL     1      -9.928 -28.353 -25.514  1.00  0.00     0.088 A 
HETATM   21  N4  UNL     1     -10.908 -27.523 -25.113  1.00  0.00    -0.368 N 
ATOM     22  H4  UNL     1     -10.858 -26.902 -24.305  1.00  0.00     0.165 HD
ENDBRANCH  16  17
ENDBRANCH   5  16
BRANCH   1  23
HETATM   23  N1  UNL     1     -17.440 -25.964 -23.732  1.00  0.00    -0.233 N 
ATOM     24  H12 UNL     1     -17.294 -24.955 -23.725  1.00  0.00     0.174 HD
ATOM     25  H11 UNL     1     -17.819 -26.449 -22.918  1.00  0.00     0.174 HD
ENDBRANCH   1  23
TORSDOF 3
ENDMDL
