MODEL 1
REMARK VINA RESULT: -7.542935840      0.000      0.000
REMARK  4 active torsions:
REMARK  status: ('A' for Active; 'I' for Inactive)
REMARK    1  A    between atoms: C2_5  and  C3_6 
REMARK    2  A    between atoms: C3_6  and  N2_7 
REMARK    3  A    between atoms: N2_7  and  N3_9 
REMARK       I    between atoms: N3_9  and  C4_11 
REMARK    4  A    between atoms: N6_17  and  C6_18 
ROOT
HETATM    1  N1  UNL     1     -12.869 -26.535 -25.472  1.00  0.00    -0.383 N 
ATOM      2  H11 UNL     1     -12.634 -25.961 -24.662  1.00  0.00     0.157 HD
ATOM      3  H12 UNL     1     -12.020 -26.765 -25.989  1.00  0.00     0.157 HD
HETATM    4  C1  UNL     1     -14.067 -26.898 -25.770  1.00  0.00     0.136 A 
HETATM    5  C2  UNL     1     -14.389 -27.685 -26.880  1.00  0.00     0.043 A 
HETATM    6  C5  UNL     1     -15.757 -27.832 -26.821  1.00  0.00     0.124 A 
HETATM    7  N5  UNL     1     -16.181 -27.166 -25.738  1.00  0.00    -0.301 N 
ATOM      8  H5  UNL     1     -17.159 -27.109 -25.451  1.00  0.00     0.186 HD
HETATM    9  N6  UNL     1     -15.188 -26.595 -25.087  1.00  0.00    -0.222 N 
ENDROOT
BRANCH   5  10
HETATM   10  C3  UNL     1     -13.475 -28.220 -27.868  1.00  0.00     0.124 C 
BRANCH  10  11
HETATM   11  N2  UNL     1     -12.599 -29.106 -27.698  1.00  0.00    -0.307 N 
ATOM     12  H2  UNL     1     -12.914 -30.059 -27.885  1.00  0.00     0.186 HD
BRANCH  11  13
HETATM   13  N3  UNL     1     -11.289 -29.002 -27.303  1.00  0.00    -0.254 N 
HETATM   14  C4  UNL     1     -10.904 -29.280 -25.965  1.00  0.00     0.347 C 
HETATM   15  N4  UNL     1      -9.565 -29.186 -25.509  1.00  0.00    -0.038 NA
HETATM   16  O1  UNL     1     -11.784 -29.624 -25.145  1.00  0.00    -0.249 OA
ATOM     17  H3  UNL     1     -10.580 -28.720 -27.981  1.00  0.00     0.191 HD
ENDBRANCH  11  13
ENDBRANCH  10  11
ENDBRANCH   5  10
BRANCH   9  18
HETATM   18  C6  UNL     1     -15.266 -25.807 -23.894  1.00  0.00     0.143 A 
HETATM   19  C7  UNL     1     -15.695 -24.502 -23.908  1.00  0.00     0.053 A 
HETATM   20  C8  UNL     1     -15.734 -23.826 -22.709  1.00  0.00     0.022 A 
HETATM   21  C9  UNL     1     -15.355 -24.446 -21.540  1.00  0.00     0.107 A 
HETATM   22  N7  UNL     1     -14.945 -25.719 -21.580  1.00  0.00    -0.310 N 
HETATM   23  N8  UNL     1     -14.910 -26.355 -22.723  1.00  0.00    -0.284 N 
ATOM     24  H7  UNL     1     -14.662 -26.192 -20.722  1.00  0.00     0.186 HD
ATOM     25  H8  UNL     1     -14.593 -27.324 -22.723  1.00  0.00     0.188 HD
ENDBRANCH   9  18
TORSDOF 4
ENDMDL
MODEL 2
REMARK VINA RESULT: -7.253045866      1.343      1.449
REMARK  4 active torsions:
REMARK  status: ('A' for Active; 'I' for Inactive)
REMARK    1  A    between atoms: C2_5  and  C3_6 
REMARK    2  A    between atoms: C3_6  and  N2_7 
REMARK    3  A    between atoms: N2_7  and  N3_9 
REMARK       I    between atoms: N3_9  and  C4_11 
REMARK    4  A    between atoms: N6_17  and  C6_18 
ROOT
HETATM    1  N1  UNL     1     -13.184 -26.464 -25.302  1.00  0.00    -0.383 N 
ATOM      2  H11 UNL     1     -12.993 -25.835 -24.522  1.00  0.00     0.157 HD
ATOM      3  H12 UNL     1     -12.310 -26.716 -25.763  1.00  0.00     0.157 HD
HETATM    4  C1  UNL     1     -14.363 -26.862 -25.629  1.00  0.00     0.136 A 
HETATM    5  C2  UNL     1     -14.626 -27.725 -26.699  1.00  0.00     0.043 A 
HETATM    6  C5  UNL     1     -15.992 -27.886 -26.692  1.00  0.00     0.124 A 
HETATM    7  N5  UNL     1     -16.474 -27.155 -25.676  1.00  0.00    -0.301 N 
ATOM      8  H5  UNL     1     -17.464 -27.092 -25.438  1.00  0.00     0.186 HD
HETATM    9  N6  UNL     1     -15.518 -26.528 -25.020  1.00  0.00    -0.222 N 
ENDROOT
BRANCH   5  10
HETATM   10  C3  UNL     1     -13.661 -28.312 -27.606  1.00  0.00     0.124 C 
BRANCH  10  11
HETATM   11  N2  UNL     1     -12.856 -29.247 -27.365  1.00  0.00    -0.307 N 
ATOM     12  H2  UNL     1     -12.969 -30.071 -27.956  1.00  0.00     0.186 HD
BRANCH  11  13
HETATM   13  N3  UNL     1     -11.850 -29.342 -26.435  1.00  0.00    -0.254 N 
HETATM   14  C4  UNL     1     -10.680 -28.544 -26.539  1.00  0.00     0.347 C 
HETATM   15  N4  UNL     1      -9.616 -28.605 -25.605  1.00  0.00    -0.038 NA
HETATM   16  O1  UNL     1     -10.578 -27.747 -27.498  1.00  0.00    -0.249 OA
ATOM     17  H3  UNL     1     -11.944 -29.996 -25.657  1.00  0.00     0.191 HD
ENDBRANCH  11  13
ENDBRANCH  10  11
ENDBRANCH   5  10
BRANCH   9  18
HETATM   18  C6  UNL     1     -15.658 -25.665 -23.888  1.00  0.00     0.143 A 
HETATM   19  C7  UNL     1     -15.540 -26.126 -22.599  1.00  0.00     0.053 A 
HETATM   20  C8  UNL     1     -15.692 -25.218 -21.575  1.00  0.00     0.022 A 
HETATM   21  C9  UNL     1     -15.954 -23.893 -21.844  1.00  0.00     0.107 A 
HETATM   22  N7  UNL     1     -16.059 -23.495 -23.116  1.00  0.00    -0.310 N 
HETATM   23  N8  UNL     1     -15.914 -24.363 -24.084  1.00  0.00    -0.284 N 
ATOM     24  H7  UNL     1     -16.252 -22.516 -23.331  1.00  0.00     0.186 HD
ATOM     25  H8  UNL     1     -16.000 -24.030 -25.044  1.00  0.00     0.188 HD
ENDBRANCH   9  18
TORSDOF 4
ENDMDL
MODEL 3
REMARK VINA RESULT: -7.194881554      2.427      5.799
REMARK  4 active torsions:
REMARK  status: ('A' for Active; 'I' for Inactive)
REMARK    1  A    between atoms: C2_5  and  C3_6 
REMARK    2  A    between atoms: C3_6  and  N2_7 
REMARK    3  A    between atoms: N2_7  and  N3_9 
REMARK       I    between atoms: N3_9  and  C4_11 
REMARK    4  A    between atoms: N6_17  and  C6_18 
ROOT
HETATM    1  N1  UNL     1     -14.507 -26.753 -24.035  1.00  0.00    -0.383 N 
ATOM      2  H11 UNL     1     -13.505 -26.836 -23.865  1.00  0.00     0.157 HD
ATOM      3  H12 UNL     1     -14.950 -26.269 -23.254  1.00  0.00     0.157 HD
HETATM    4  C1  UNL     1     -15.094 -27.199 -25.090  1.00  0.00     0.136 A 
HETATM    5  C2  UNL     1     -16.468 -27.084 -25.324  1.00  0.00     0.043 A 
HETATM    6  C5  UNL     1     -16.668 -27.685 -26.546  1.00  0.00     0.124 A 
HETATM    7  N5  UNL     1     -15.473 -28.115 -26.977  1.00  0.00    -0.301 N 
ATOM      8  H5  UNL     1     -15.327 -28.600 -27.863  1.00  0.00     0.186 HD
HETATM    9  N6  UNL     1     -14.509 -27.837 -26.122  1.00  0.00    -0.222 N 
ENDROOT
BRANCH   5  10
HETATM   10  C3  UNL     1     -17.454 -26.466 -24.460  1.00  0.00     0.124 C 
BRANCH  10  11
HETATM   11  N2  UNL     1     -17.484 -25.271 -24.067  1.00  0.00    -0.307 N 
ATOM     12  H2  UNL     1     -17.887 -24.612 -24.734  1.00  0.00     0.186 HD
BRANCH  11  13
HETATM   13  N3  UNL     1     -17.063 -24.710 -22.887  1.00  0.00    -0.254 N 
HETATM   14  C4  UNL     1     -15.903 -23.893 -22.839  1.00  0.00     0.347 C 
HETATM   15  N4  UNL     1     -15.428 -23.291 -21.647  1.00  0.00    -0.038 NA
HETATM   16  O1  UNL     1     -15.265 -23.690 -23.896  1.00  0.00    -0.249 OA
ATOM     17  H3  UNL     1     -17.591 -24.882 -22.032  1.00  0.00     0.191 HD
ENDBRANCH  11  13
ENDBRANCH  10  11
ENDBRANCH   5  10
BRANCH   9  18
HETATM   18  C6  UNL     1     -13.117 -28.143 -26.248  1.00  0.00     0.143 A 
HETATM   19  C7  UNL     1     -12.325 -27.560 -27.208  1.00  0.00     0.053 A 
HETATM   20  C8  UNL     1     -10.996 -27.920 -27.250  1.00  0.00     0.022 A 
HETATM   21  C9  UNL     1     -10.487 -28.833 -26.355  1.00  0.00     0.107 A 
HETATM   22  N7  UNL     1     -11.299 -29.371 -25.439  1.00  0.00    -0.310 N 
HETATM   23  N8  UNL     1     -12.561 -29.026 -25.405  1.00  0.00    -0.284 N 
ATOM     24  H7  UNL     1     -10.936 -30.050 -24.768  1.00  0.00     0.186 HD
ATOM     25  H8  UNL     1     -13.157 -29.453 -24.696  1.00  0.00     0.188 HD
ENDBRANCH   9  18
TORSDOF 4
ENDMDL
MODEL 4
REMARK VINA RESULT: -7.188606078      2.394      5.900
REMARK  4 active torsions:
REMARK  status: ('A' for Active; 'I' for Inactive)
REMARK    1  A    between atoms: C2_5  and  C3_6 
REMARK    2  A    between atoms: C3_6  and  N2_7 
REMARK    3  A    between atoms: N2_7  and  N3_9 
REMARK       I    between atoms: N3_9  and  C4_11 
REMARK    4  A    between atoms: N6_17  and  C6_18 
ROOT
HETATM    1  N1  UNL     1     -14.520 -26.689 -24.081  1.00  0.00    -0.383 N 
ATOM      2  H11 UNL     1     -13.509 -26.731 -23.946  1.00  0.00     0.157 HD
ATOM      3  H12 UNL     1     -14.958 -26.257 -23.267  1.00  0.00     0.157 HD
HETATM    4  C1  UNL     1     -15.122 -27.123 -25.132  1.00  0.00     0.136 A 
HETATM    5  C2  UNL     1     -16.507 -27.066 -25.317  1.00  0.00     0.043 A 
HETATM    6  C5  UNL     1     -16.720 -27.629 -26.554  1.00  0.00     0.124 A 
HETATM    7  N5  UNL     1     -15.522 -27.984 -27.040  1.00  0.00    -0.301 N 
ATOM      8  H5  UNL     1     -15.384 -28.428 -27.949  1.00  0.00     0.186 HD
HETATM    9  N6  UNL     1     -14.543 -27.693 -26.207  1.00  0.00    -0.222 N 
ENDROOT
BRANCH   5  10
HETATM   10  C3  UNL     1     -17.490 -26.528 -24.398  1.00  0.00     0.124 C 
BRANCH  10  11
HETATM   11  N2  UNL     1     -17.588 -25.342 -23.991  1.00  0.00    -0.307 N 
ATOM     12  H2  UNL     1     -18.081 -24.713 -24.625  1.00  0.00     0.186 HD
BRANCH  11  13
HETATM   13  N3  UNL     1     -17.140 -24.756 -22.833  1.00  0.00    -0.254 N 
HETATM   14  C4  UNL     1     -15.989 -23.925 -22.832  1.00  0.00     0.347 C 
HETATM   15  N4  UNL     1     -15.488 -23.299 -21.663  1.00  0.00    -0.038 NA
HETATM   16  O1  UNL     1     -15.384 -23.733 -23.910  1.00  0.00    -0.249 OA
ATOM     17  H3  UNL     1     -17.642 -24.921 -21.961  1.00  0.00     0.191 HD
ENDBRANCH  11  13
ENDBRANCH  10  11
ENDBRANCH   5  10
BRANCH   9  18
HETATM   18  C6  UNL     1     -13.143 -27.927 -26.390  1.00  0.00     0.143 A 
HETATM   19  C7  UNL     1     -12.502 -28.999 -25.819  1.00  0.00     0.053 A 
HETATM   20  C8  UNL     1     -11.151 -29.139 -26.053  1.00  0.00     0.022 A 
HETATM   21  C9  UNL     1     -10.476 -28.230 -26.835  1.00  0.00     0.107 A 
HETATM   22  N7  UNL     1     -11.147 -27.203 -27.369  1.00  0.00    -0.310 N 
HETATM   23  N8  UNL     1     -12.429 -27.076 -27.142  1.00  0.00    -0.284 N 
ATOM     24  H7  UNL     1     -10.660 -26.521 -27.951  1.00  0.00     0.186 HD
ATOM     25  H8  UNL     1     -12.914 -26.283 -27.561  1.00  0.00     0.188 HD
ENDBRANCH   9  18
TORSDOF 4
ENDMDL
MODEL 5
REMARK VINA RESULT: -6.928492148      2.803      5.720
REMARK  4 active torsions:
REMARK  status: ('A' for Active; 'I' for Inactive)
REMARK    1  A    between atoms: C2_5  and  C3_6 
REMARK    2  A    between atoms: C3_6  and  N2_7 
REMARK    3  A    between atoms: N2_7  and  N3_9 
REMARK       I    between atoms: N3_9  and  C4_11 
REMARK    4  A    between atoms: N6_17  and  C6_18 
ROOT
HETATM    1  N1  UNL     1     -15.682 -28.175 -27.152  1.00  0.00    -0.383 N 
ATOM      2  H11 UNL     1     -14.930 -28.566 -27.719  1.00  0.00     0.157 HD
ATOM      3  H12 UNL     1     -16.574 -28.293 -27.632  1.00  0.00     0.157 HD
HETATM    4  C1  UNL     1     -15.500 -27.622 -26.003  1.00  0.00     0.136 A 
HETATM    5  C2  UNL     1     -16.530 -27.085 -25.225  1.00  0.00     0.043 A 
HETATM    6  C5  UNL     1     -15.904 -26.604 -24.098  1.00  0.00     0.124 A 
HETATM    7  N5  UNL     1     -14.594 -26.856 -24.233  1.00  0.00    -0.301 N 
ATOM      8  H5  UNL     1     -13.890 -26.604 -23.538  1.00  0.00     0.186 HD
HETATM    9  N6  UNL     1     -14.321 -27.466 -25.369  1.00  0.00    -0.222 N 
ENDROOT
BRANCH   5  10
HETATM   10  C3  UNL     1     -17.942 -27.050 -25.547  1.00  0.00     0.124 C 
BRANCH  10  11
HETATM   11  N2  UNL     1     -18.621 -27.948 -26.108  1.00  0.00    -0.307 N 
ATOM     12  H2  UNL     1     -19.081 -27.658 -26.972  1.00  0.00     0.186 HD
BRANCH  11  13
HETATM   13  N3  UNL     1     -18.844 -29.254 -25.749  1.00  0.00    -0.254 N 
HETATM   14  C4  UNL     1     -18.514 -30.320 -26.625  1.00  0.00     0.347 C 
HETATM   15  N4  UNL     1     -18.726 -31.684 -26.300  1.00  0.00    -0.038 NA
HETATM   16  O1  UNL     1     -18.013 -30.051 -27.740  1.00  0.00    -0.249 OA
ATOM     17  H3  UNL     1     -19.254 -29.461 -24.838  1.00  0.00     0.191 HD
ENDBRANCH  11  13
ENDBRANCH  10  11
ENDBRANCH   5  10
BRANCH   9  18
HETATM   18  C6  UNL     1     -13.040 -27.886 -25.848  1.00  0.00     0.143 A 
HETATM   19  C7  UNL     1     -12.463 -27.335 -26.967  1.00  0.00     0.053 A 
HETATM   20  C8  UNL     1     -11.226 -27.806 -27.349  1.00  0.00     0.022 A 
HETATM   21  C9  UNL     1     -10.598 -28.796 -26.629  1.00  0.00     0.107 A 
HETATM   22  N7  UNL     1     -11.202 -29.299 -25.547  1.00  0.00    -0.310 N 
HETATM   23  N8  UNL     1     -12.377 -28.847 -25.189  1.00  0.00    -0.284 N 
ATOM     24  H7  UNL     1     -10.748 -30.033 -25.002  1.00  0.00     0.186 HD
ATOM     25  H8  UNL     1     -12.814 -29.250 -24.360  1.00  0.00     0.188 HD
ENDBRANCH   9  18
TORSDOF 4
ENDMDL
