MODEL 1
REMARK VINA RESULT: -6.343704334      0.000      0.000
REMARK  3 active torsions:
REMARK  status: ('A' for Active; 'I' for Inactive)
REMARK    1  A    between atoms: N1_1  and  N2_4 
REMARK    2  A    between atoms: N2_4  and  N3_6 
REMARK       I    between atoms: N3_6  and  C1_8 
REMARK       I    between atoms: C1_8  and  N4_10 
REMARK    3  A    between atoms: C3_16  and  C4_17 
ROOT
HETATM    1  N3  UNL     1     -11.141 -27.157 -24.911  1.00  0.00    -0.236 N 
ATOM      2  H3  UNL     1     -11.060 -26.274 -24.406  1.00  0.00     0.193 HD
HETATM    3  C1  UNL     1     -12.442 -27.581 -25.357  1.00  0.00     0.363 C 
HETATM    4  O1  UNL     1     -12.475 -28.651 -25.946  1.00  0.00    -0.243 OA
HETATM    5  N4  UNL     1     -13.585 -26.763 -25.100  1.00  0.00    -0.181 N 
HETATM    6  N5  UNL     1     -13.464 -25.570 -24.450  1.00  0.00    -0.284 N 
ATOM      7  H5  UNL     1     -12.587 -25.193 -24.089  1.00  0.00     0.188 HD
HETATM    8  C2  UNL     1     -14.638 -24.968 -24.354  1.00  0.00     0.199 A 
HETATM    9  N6  UNL     1     -15.507 -25.780 -24.944  1.00  0.00    -0.332 N 
ATOM     10  H6  UNL     1     -16.507 -25.601 -25.037  1.00  0.00     0.168 HD
HETATM   11  C3  UNL     1     -14.850 -26.910 -25.415  1.00  0.00     0.198 A 
ENDROOT
BRANCH  11  12
HETATM   12  C4  UNL     1     -15.542 -28.003 -26.057  1.00  0.00     0.300 C 
HETATM   13  N7  UNL     1     -15.898 -29.241 -25.486  1.00  0.00    -0.054 NA
HETATM   14  O2  UNL     1     -15.886 -27.837 -27.296  1.00  0.00    -0.268 OA
ENDBRANCH  11  12
BRANCH   1  15
HETATM   15  N2  UNL     1     -10.007 -27.891 -25.139  1.00  0.00    -0.245 N 
ATOM     16  H2  UNL     1      -9.483 -28.308 -24.369  1.00  0.00     0.208 HD
BRANCH  15  17
HETATM   17  N1  UNL     1      -9.604 -28.042 -26.434  1.00  0.00    -0.331 N 
ATOM     18  H12 UNL     1      -9.856 -28.881 -26.956  1.00  0.00     0.178 HD
ATOM     19  H11 UNL     1      -9.051 -27.291 -26.845  1.00  0.00     0.178 HD
ENDBRANCH  15  17
ENDBRANCH   1  15
TORSDOF 3
ENDMDL
MODEL 2
REMARK VINA RESULT: -6.123387721      1.903      2.702
REMARK  3 active torsions:
REMARK  status: ('A' for Active; 'I' for Inactive)
REMARK    1  A    between atoms: N1_1  and  N2_4 
REMARK    2  A    between atoms: N2_4  and  N3_6 
REMARK       I    between atoms: N3_6  and  C1_8 
REMARK       I    between atoms: C1_8  and  N4_10 
REMARK    3  A    between atoms: C3_16  and  C4_17 
ROOT
HETATM    1  N3  UNL     1     -11.469 -27.918 -26.623  1.00  0.00    -0.236 N 
ATOM      2  H3  UNL     1     -11.882 -28.466 -27.378  1.00  0.00     0.193 HD
HETATM    3  C1  UNL     1     -12.341 -27.166 -25.758  1.00  0.00     0.363 C 
HETATM    4  O1  UNL     1     -11.786 -26.523 -24.881  1.00  0.00    -0.243 OA
HETATM    5  N4  UNL     1     -13.755 -27.211 -25.959  1.00  0.00    -0.181 N 
HETATM    6  N5  UNL     1     -14.300 -27.970 -26.952  1.00  0.00    -0.284 N 
ATOM      7  H5  UNL     1     -13.764 -28.525 -27.619  1.00  0.00     0.188 HD
HETATM    8  C2  UNL     1     -15.621 -27.888 -26.931  1.00  0.00     0.199 A 
HETATM    9  N6  UNL     1     -15.915 -27.076 -25.923  1.00  0.00    -0.332 N 
ATOM     10  H6  UNL     1     -16.857 -26.807 -25.642  1.00  0.00     0.168 HD
HETATM   11  C3  UNL     1     -14.744 -26.648 -25.309  1.00  0.00     0.198 A 
ENDROOT
BRANCH  11  12
HETATM   12  C4  UNL     1     -14.740 -25.709 -24.210  1.00  0.00     0.300 C 
HETATM   13  N7  UNL     1     -14.966 -25.990 -22.847  1.00  0.00    -0.054 NA
HETATM   14  O2  UNL     1     -14.496 -24.468 -24.495  1.00  0.00    -0.268 OA
ENDBRANCH  11  12
BRANCH   1  15
HETATM   15  N2  UNL     1     -10.108 -27.927 -26.473  1.00  0.00    -0.245 N 
ATOM     16  H2  UNL     1      -9.488 -27.700 -27.252  1.00  0.00     0.208 HD
BRANCH  15  17
HETATM   17  N1  UNL     1      -9.612 -28.250 -25.244  1.00  0.00    -0.331 N 
ATOM     18  H12 UNL     1      -9.802 -29.165 -24.837  1.00  0.00     0.178 HD
ATOM     19  H11 UNL     1      -9.053 -27.546 -24.762  1.00  0.00     0.178 HD
ENDBRANCH  15  17
ENDBRANCH   1  15
TORSDOF 3
ENDMDL
MODEL 3
REMARK VINA RESULT: -6.082719211      2.209      4.522
REMARK  3 active torsions:
REMARK  status: ('A' for Active; 'I' for Inactive)
REMARK    1  A    between atoms: N1_1  and  N2_4 
REMARK    2  A    between atoms: N2_4  and  N3_6 
REMARK       I    between atoms: N3_6  and  C1_8 
REMARK       I    between atoms: C1_8  and  N4_10 
REMARK    3  A    between atoms: C3_16  and  C4_17 
ROOT
HETATM    1  N3  UNL     1     -13.165 -26.923 -24.186  1.00  0.00    -0.236 N 
ATOM      2  H3  UNL     1     -12.444 -27.118 -23.492  1.00  0.00     0.193 HD
HETATM    3  C1  UNL     1     -12.867 -27.158 -25.575  1.00  0.00     0.363 C 
HETATM    4  O1  UNL     1     -13.766 -26.895 -26.359  1.00  0.00    -0.243 OA
HETATM    5  N4  UNL     1     -11.587 -27.670 -25.952  1.00  0.00    -0.181 N 
HETATM    6  N5  UNL     1     -10.641 -27.956 -25.014  1.00  0.00    -0.284 N 
ATOM      7  H5  UNL     1     -10.756 -27.812 -24.010  1.00  0.00     0.188 HD
HETATM    8  C2  UNL     1      -9.552 -28.448 -25.583  1.00  0.00     0.199 A 
HETATM    9  N6  UNL     1      -9.807 -28.474 -26.885  1.00  0.00    -0.332 N 
ATOM     10  H6  UNL     1      -9.162 -28.803 -27.603  1.00  0.00     0.168 HD
HETATM   11  C3  UNL     1     -11.087 -27.985 -27.122  1.00  0.00     0.198 A 
ENDROOT
BRANCH  11  12
HETATM   12  C4  UNL     1     -11.630 -27.840 -28.453  1.00  0.00     0.300 C 
HETATM   13  N7  UNL     1     -11.738 -28.836 -29.444  1.00  0.00    -0.054 NA
HETATM   14  O2  UNL     1     -12.078 -26.669 -28.783  1.00  0.00    -0.268 OA
ENDBRANCH  11  12
BRANCH   1  15
HETATM   15  N2  UNL     1     -14.377 -26.446 -23.762  1.00  0.00    -0.245 N 
ATOM     16  H2  UNL     1     -15.001 -27.019 -23.192  1.00  0.00     0.208 HD
BRANCH  15  17
HETATM   17  N1  UNL     1     -14.718 -25.177 -24.128  1.00  0.00    -0.331 N 
ATOM     18  H12 UNL     1     -14.313 -24.756 -24.964  1.00  0.00     0.178 HD
ATOM     19  H11 UNL     1     -15.386 -24.681 -23.538  1.00  0.00     0.178 HD
ENDBRANCH  15  17
ENDBRANCH   1  15
TORSDOF 3
ENDMDL
MODEL 4
REMARK VINA RESULT: -6.006947243      1.421      1.445
REMARK  3 active torsions:
REMARK  status: ('A' for Active; 'I' for Inactive)
REMARK    1  A    between atoms: N1_1  and  N2_4 
REMARK    2  A    between atoms: N2_4  and  N3_6 
REMARK       I    between atoms: N3_6  and  C1_8 
REMARK       I    between atoms: C1_8  and  N4_10 
REMARK    3  A    between atoms: C3_16  and  C4_17 
ROOT
HETATM    1  N3  UNL     1     -11.792 -26.911 -26.940  1.00  0.00    -0.236 N 
ATOM      2  H3  UNL     1     -11.439 -26.124 -26.395  1.00  0.00     0.193 HD
HETATM    3  C1  UNL     1     -13.151 -27.337 -26.737  1.00  0.00     0.363 C 
HETATM    4  O1  UNL     1     -13.511 -28.291 -27.411  1.00  0.00    -0.243 OA
HETATM    5  N4  UNL     1     -13.980 -26.652 -25.796  1.00  0.00    -0.181 N 
HETATM    6  N5  UNL     1     -13.509 -25.582 -25.094  1.00  0.00    -0.284 N 
ATOM      7  H5  UNL     1     -12.559 -25.216 -25.162  1.00  0.00     0.188 HD
HETATM    8  C2  UNL     1     -14.452 -25.084 -24.311  1.00  0.00     0.199 A 
HETATM    9  N6  UNL     1     -15.525 -25.839 -24.517  1.00  0.00    -0.332 N 
ATOM     10  H6  UNL     1     -16.428 -25.712 -24.060  1.00  0.00     0.168 HD
HETATM   11  C3  UNL     1     -15.233 -26.825 -25.451  1.00  0.00     0.198 A 
ENDROOT
BRANCH  11  12
HETATM   12  C4  UNL     1     -16.189 -27.836 -25.841  1.00  0.00     0.300 C 
HETATM   13  N7  UNL     1     -16.112 -29.222 -25.599  1.00  0.00    -0.054 NA
HETATM   14  O2  UNL     1     -17.243 -27.435 -26.481  1.00  0.00    -0.268 OA
ENDBRANCH  11  12
BRANCH   1  15
HETATM   15  N2  UNL     1     -10.953 -27.519 -27.837  1.00  0.00    -0.245 N 
ATOM     16  H2  UNL     1     -10.470 -26.983 -28.559  1.00  0.00     0.208 HD
BRANCH  15  17
HETATM   17  N1  UNL     1     -10.788 -28.869 -27.728  1.00  0.00    -0.331 N 
ATOM     18  H12 UNL     1     -11.592 -29.475 -27.564  1.00  0.00     0.178 HD
ATOM     19  H11 UNL     1      -9.840 -29.236 -27.818  1.00  0.00     0.178 HD
ENDBRANCH  15  17
ENDBRANCH   1  15
TORSDOF 3
ENDMDL
MODEL 5
REMARK VINA RESULT: -5.938365389      2.479      4.947
REMARK  3 active torsions:
REMARK  status: ('A' for Active; 'I' for Inactive)
REMARK    1  A    between atoms: N1_1  and  N2_4 
REMARK    2  A    between atoms: N2_4  and  N3_6 
REMARK       I    between atoms: N3_6  and  C1_8 
REMARK       I    between atoms: C1_8  and  N4_10 
REMARK    3  A    between atoms: C3_16  and  C4_17 
ROOT
HETATM    1  N3  UNL     1     -15.087 -28.841 -25.382  1.00  0.00    -0.236 N 
ATOM      2  H3  UNL     1     -14.687 -29.290 -24.558  1.00  0.00     0.193 HD
HETATM    3  C1  UNL     1     -14.225 -28.548 -26.497  1.00  0.00     0.363 C 
HETATM    4  O1  UNL     1     -14.761 -28.001 -27.449  1.00  0.00    -0.243 OA
HETATM    5  N4  UNL     1     -12.841 -28.900 -26.439  1.00  0.00    -0.181 N 
HETATM    6  N5  UNL     1     -12.321 -29.527 -25.346  1.00  0.00    -0.284 N 
ATOM      7  H5  UNL     1     -12.850 -29.764 -24.506  1.00  0.00     0.188 HD
HETATM    8  C2  UNL     1     -11.035 -29.786 -25.523  1.00  0.00     0.199 A 
HETATM    9  N6  UNL     1     -10.739 -29.324 -26.732  1.00  0.00    -0.332 N 
ATOM     10  H6  UNL     1      -9.819 -29.371 -27.169  1.00  0.00     0.168 HD
HETATM   11  C3  UNL     1     -11.872 -28.766 -27.312  1.00  0.00     0.198 A 
ENDROOT
BRANCH  11  12
HETATM   12  C4  UNL     1     -11.850 -28.130 -28.609  1.00  0.00     0.300 C 
HETATM   13  N7  UNL     1     -11.776 -28.761 -29.867  1.00  0.00    -0.054 NA
HETATM   14  O2  UNL     1     -11.910 -26.835 -28.633  1.00  0.00    -0.268 OA
ENDBRANCH  11  12
BRANCH   1  15
HETATM   15  N2  UNL     1     -16.424 -28.541 -25.383  1.00  0.00    -0.245 N 
ATOM     16  H2  UNL     1     -17.128 -29.259 -25.209  1.00  0.00     0.208 HD
BRANCH  15  17
HETATM   17  N1  UNL     1     -16.778 -27.246 -25.626  1.00  0.00    -0.331 N 
ATOM     18  H12 UNL     1     -16.910 -26.595 -24.853  1.00  0.00     0.178 HD
ATOM     19  H11 UNL     1     -16.901 -26.967 -26.599  1.00  0.00     0.178 HD
ENDBRANCH  15  17
ENDBRANCH   1  15
TORSDOF 3
ENDMDL
