MODEL 1
REMARK VINA RESULT: -8.248699811      0.000      0.000
REMARK  18 active torsions:
REMARK  status: ('A' for Active; 'I' for Inactive)
REMARK    1  A    between atoms: C3_3  and  C4_4 
REMARK    2  A    between atoms: C4_4  and  C5_5 
REMARK    3  A    between atoms: C5_5  and  C7_7 
REMARK    4  A    between atoms: C7_7  and  C8_8 
REMARK    5  A    between atoms: C8_8  and  N1_9 
REMARK       I    between atoms: N1_9  and  C10_11 
REMARK    6  A    between atoms: C10_11  and  C11_13 
REMARK    7  A    between atoms: C11_13  and  C12_14 
REMARK    8  A    between atoms: C11_13  and  N2_18 
REMARK    9  A    between atoms: C12_14  and  C13_15 
REMARK   10  A    between atoms: C13_15  and  C14_16 
REMARK   11  A    between atoms: N2_18  and  C16_19 
REMARK   12  A    between atoms: N2_18  and  C31_49 
REMARK   13  A    between atoms: C16_19  and  O2_20 
REMARK   14  A    between atoms: C16_19  and  C17_22 
REMARK   15  A    between atoms: N5_30  and  C21_31 
REMARK   16  A    between atoms: C22_32  and  O3_33 
REMARK   17  A    between atoms: C23_35  and  O4_36 
REMARK   18  A    between atoms: C29_43  and  N6_44 
ROOT
HETATM    1  C1  UNL     1      26.291  25.653  16.847  1.00  0.00     0.112 C 
HETATM    2  C2  UNL     1      25.418  26.670  16.251  1.00  0.00    -0.111 C 
HETATM    3  C3  UNL     1      24.684  27.491  15.761  1.00  0.00    -0.107 C 
ENDROOT
BRANCH   3   4
HETATM    4  C4  UNL     1      23.760  28.483  15.158  1.00  0.00     0.098 C 
BRANCH   4   5
HETATM    5  C5  UNL     1      22.337  28.066  15.464  1.00  0.00    -0.006 C 
HETATM    6  C6  UNL     1      21.993  26.753  14.799  1.00  0.00     0.011 C 
BRANCH   5   7
HETATM    7  C7  UNL     1      22.166  27.827  16.966  1.00  0.00     0.025 C 
BRANCH   7   8
HETATM    8  C8  UNL     1      20.850  27.131  17.179  1.00  0.00     0.126 C 
BRANCH   8   9
HETATM    9  N1  UNL     1      20.791  26.513  18.512  1.00  0.00    -0.351 N 
HETATM   10  C9  UNL     1      20.972  27.420  19.612  1.00  0.00     0.152 C 
HETATM   11  C10 UNL     1      20.540  25.139  18.658  1.00  0.00     0.266 C 
HETATM   12  O1  UNL     1      20.311  24.522  17.559  1.00  0.00    -0.266 OA
BRANCH  11  13
HETATM   13  C11 UNL     1      20.518  24.386  19.965  1.00  0.00     0.086 C 
BRANCH  13  14
HETATM   14  C12 UNL     1      21.835  23.920  20.287  1.00  0.00     0.063 C 
BRANCH  14  15
HETATM   15  C13 UNL     1      22.621  24.551  21.388  1.00  0.00     0.006 C 
BRANCH  15  16
HETATM   16  C14 UNL     1      23.899  25.105  20.733  1.00  0.00    -0.004 C 
HETATM   17  C15 UNL     1      24.389  24.161  19.660  1.00  0.00     0.005 C 
ENDBRANCH  15  16
ENDBRANCH  14  15
ENDBRANCH  13  14
BRANCH  13  18
HETATM   18  N2  UNL     1      19.296  23.630  20.158  1.00  0.00    -0.296 N 
BRANCH  18  19
HETATM   19  C16 UNL     1      18.096  24.309  19.805  1.00  0.00     0.192 C 
BRANCH  19  20
HETATM   20  O2  UNL     1      17.638  25.041  20.784  1.00  0.00    -0.343 OA
ATOM     21  H2  UNL     1      16.690  25.030  20.825  1.00  0.00     0.219 HD
ENDBRANCH  19  20
BRANCH  19  22
HETATM   22  C17 UNL     1      17.270  24.387  18.637  1.00  0.00     0.161 A 
HETATM   23  N3  UNL     1      16.341  23.360  18.539  1.00  0.00    -0.323 N 
HETATM   24  C18 UNL     1      15.530  23.155  17.516  1.00  0.00     0.141 A 
ATOM     25  H3  UNL     1      16.278  22.710  19.323  1.00  0.00     0.169 HD
HETATM   26  C19 UNL     1      15.613  24.033  16.458  1.00  0.00     0.122 A 
HETATM   27  N5  UNL     1      14.574  22.238  17.226  1.00  0.00    -0.319 N 
HETATM   28  N4  UNL     1      14.705  23.613  15.571  1.00  0.00    -0.346 N 
HETATM   29  C29 UNL     1      16.524  25.062  16.529  1.00  0.00     0.133 A 
HETATM   30  C20 UNL     1      14.064  22.524  16.021  1.00  0.00     0.185 A 
ATOM     31  H4  UNL     1      14.524  24.061  14.673  1.00  0.00     0.167 HD
HETATM   32  N7  UNL     1      17.313  25.202  17.609  1.00  0.00    -0.323 N 
ATOM     33  H7  UNL     1      17.976  25.977  17.630  1.00  0.00     0.169 HD
BRANCH  29  34
HETATM   34  N6  UNL     1      16.618  25.889  15.557  1.00  0.00    -0.379 N 
HETATM   35  C30 UNL     1      17.787  26.100  14.759  1.00  0.00     0.147 C 
ATOM     36  H6  UNL     1      15.793  26.445  15.334  1.00  0.00     0.160 HD
ENDBRANCH  29  34
BRANCH  27  37
HETATM   37  C21 UNL     1      14.235  21.177  18.133  1.00  0.00     0.129 C 
HETATM   38  C22 UNL     1      15.252  20.102  18.281  1.00  0.00     0.170 C 
HETATM   39  C23 UNL     1      14.725  18.883  17.557  1.00  0.00     0.154 C 
HETATM   40  C24 UNL     1      13.265  19.091  17.342  1.00  0.00     0.032 A 
HETATM   41  C25 UNL     1      12.969  20.514  17.623  1.00  0.00     0.027 A 
HETATM   42  C26 UNL     1      12.331  19.422  18.427  1.00  0.00    -0.035 A 
HETATM   43  C27 UNL     1      10.845  19.276  18.158  1.00  0.00     0.016 C 
HETATM   44  C28 UNL     1      12.742  19.187  19.843  1.00  0.00     0.016 C 
BRANCH  38  45
HETATM   45  O3  UNL     1      16.522  20.403  17.864  1.00  0.00    -0.391 OA
ATOM     46  H3  UNL     1      16.808  19.995  17.056  1.00  0.00     0.210 HD
ENDBRANCH  38  45
BRANCH  39  47
HETATM   47  O4  UNL     1      15.062  17.689  18.157  1.00  0.00    -0.393 OA
ATOM     48  H4  UNL     1      14.422  17.383  18.789  1.00  0.00     0.210 HD
ENDBRANCH  39  47
ENDBRANCH  27  37
ENDBRANCH  19  22
ENDBRANCH  18  19
BRANCH  18  49
HETATM   49  C31 UNL     1      19.194  22.384  20.818  1.00  0.00    -0.011 C 
HETATM   50  C32 UNL     1      19.505  21.153  20.033  1.00  0.00     0.063 C 
HETATM   51  C33 UNL     1      19.820  22.278  22.205  1.00  0.00     0.063 C 
ENDBRANCH  18  49
ENDBRANCH  13  18
ENDBRANCH  11  13
ENDBRANCH   8   9
ENDBRANCH   7   8
ENDBRANCH   5   7
ENDBRANCH   4   5
ENDBRANCH   3   4
TORSDOF 18
ENDMDL
MODEL 2
REMARK VINA RESULT: -8.131319691      2.176      9.331
REMARK  18 active torsions:
REMARK  status: ('A' for Active; 'I' for Inactive)
REMARK    1  A    between atoms: C3_3  and  C4_4 
REMARK    2  A    between atoms: C4_4  and  C5_5 
REMARK    3  A    between atoms: C5_5  and  C7_7 
REMARK    4  A    between atoms: C7_7  and  C8_8 
REMARK    5  A    between atoms: C8_8  and  N1_9 
REMARK       I    between atoms: N1_9  and  C10_11 
REMARK    6  A    between atoms: C10_11  and  C11_13 
REMARK    7  A    between atoms: C11_13  and  C12_14 
REMARK    8  A    between atoms: C11_13  and  N2_18 
REMARK    9  A    between atoms: C12_14  and  C13_15 
REMARK   10  A    between atoms: C13_15  and  C14_16 
REMARK   11  A    between atoms: N2_18  and  C16_19 
REMARK   12  A    between atoms: N2_18  and  C31_49 
REMARK   13  A    between atoms: C16_19  and  O2_20 
REMARK   14  A    between atoms: C16_19  and  C17_22 
REMARK   15  A    between atoms: N5_30  and  C21_31 
REMARK   16  A    between atoms: C22_32  and  O3_33 
REMARK   17  A    between atoms: C23_35  and  O4_36 
REMARK   18  A    between atoms: C29_43  and  N6_44 
ROOT
HETATM    1  C1  UNL     1      12.255  21.051  14.639  1.00  0.00     0.112 C 
HETATM    2  C2  UNL     1      12.065  20.204  15.821  1.00  0.00    -0.111 C 
HETATM    3  C3  UNL     1      11.905  19.492  16.781  1.00  0.00    -0.107 C 
ENDROOT
BRANCH   3   4
HETATM    4  C4  UNL     1      11.703  18.593  17.944  1.00  0.00     0.098 C 
BRANCH   4   5
HETATM    5  C5  UNL     1      12.367  19.214  19.155  1.00  0.00    -0.006 C 
HETATM    6  C6  UNL     1      12.078  18.421  20.409  1.00  0.00     0.011 C 
BRANCH   5   7
HETATM    7  C7  UNL     1      13.889  19.193  18.993  1.00  0.00     0.025 C 
BRANCH   7   8
HETATM    8  C8  UNL     1      14.400  20.588  19.225  1.00  0.00     0.126 C 
BRANCH   8   9
HETATM    9  N1  UNL     1      15.486  20.913  18.288  1.00  0.00    -0.351 N 
HETATM   10  C9  UNL     1      15.868  19.845  17.405  1.00  0.00     0.152 C 
HETATM   11  C10 UNL     1      16.058  22.195  18.265  1.00  0.00     0.266 C 
HETATM   12  O1  UNL     1      15.512  23.033  19.066  1.00  0.00    -0.266 OA
BRANCH  11  13
HETATM   13  C11 UNL     1      17.213  22.624  17.395  1.00  0.00     0.086 C 
BRANCH  13  14
HETATM   14  C12 UNL     1      18.448  22.477  18.108  1.00  0.00     0.063 C 
BRANCH  14  15
HETATM   15  C13 UNL     1      18.470  21.917  19.492  1.00  0.00     0.006 C 
BRANCH  15  16
HETATM   16  C14 UNL     1      19.263  22.923  20.344  1.00  0.00    -0.004 C 
HETATM   17  C15 UNL     1      18.386  24.093  20.725  1.00  0.00     0.005 C 
ENDBRANCH  15  16
ENDBRANCH  14  15
ENDBRANCH  13  14
BRANCH  13  18
HETATM   18  N2  UNL     1      16.880  23.737  16.527  1.00  0.00    -0.296 N 
BRANCH  18  19
HETATM   19  C16 UNL     1      17.373  25.006  16.943  1.00  0.00     0.192 C 
BRANCH  19  20
HETATM   20  O2  UNL     1      16.567  25.594  17.785  1.00  0.00    -0.343 OA
ATOM     21  H2  UNL     1      16.820  26.494  17.953  1.00  0.00     0.219 HD
ENDBRANCH  19  20
BRANCH  19  22
HETATM   22  C17 UNL     1      18.537  25.793  16.667  1.00  0.00     0.161 A 
HETATM   23  N3  UNL     1      19.494  25.748  17.671  1.00  0.00    -0.323 N 
HETATM   24  C18 UNL     1      20.609  26.456  17.699  1.00  0.00     0.141 A 
ATOM     25  H3  UNL     1      19.322  25.116  18.453  1.00  0.00     0.169 HD
HETATM   26  C19 UNL     1      20.843  27.309  16.644  1.00  0.00     0.122 A 
HETATM   27  N5  UNL     1      21.650  26.561  18.562  1.00  0.00    -0.319 N 
HETATM   28  N4  UNL     1      22.014  27.896  16.909  1.00  0.00    -0.346 N 
HETATM   29  C29 UNL     1      19.912  27.372  15.632  1.00  0.00     0.133 A 
HETATM   30  C20 UNL     1      22.520  27.454  18.070  1.00  0.00     0.185 A 
ATOM     31  H4  UNL     1      22.464  28.587  16.308  1.00  0.00     0.167 HD
HETATM   32  N7  UNL     1      18.801  26.616  15.679  1.00  0.00    -0.323 N 
ATOM     33  H7  UNL     1      18.133  26.685  14.911  1.00  0.00     0.169 HD
BRANCH  29  34
HETATM   34  N6  UNL     1      20.108  28.158  14.641  1.00  0.00    -0.379 N 
HETATM   35  C30 UNL     1      21.160  28.032  13.679  1.00  0.00     0.147 C 
ATOM     36  H6  UNL     1      19.462  28.939  14.528  1.00  0.00     0.160 HD
ENDBRANCH  29  34
BRANCH  27  37
HETATM   37  C21 UNL     1      21.717  25.793  19.774  1.00  0.00     0.129 C 
HETATM   38  C22 UNL     1      21.139  26.439  20.983  1.00  0.00     0.170 C 
HETATM   39  C23 UNL     1      22.297  26.863  21.860  1.00  0.00     0.154 C 
HETATM   40  C24 UNL     1      23.504  26.125  21.391  1.00  0.00     0.032 A 
HETATM   41  C25 UNL     1      23.179  25.526  20.077  1.00  0.00     0.027 A 
HETATM   42  C26 UNL     1      23.547  24.663  21.246  1.00  0.00    -0.035 A 
HETATM   43  C27 UNL     1      24.904  24.001  21.094  1.00  0.00     0.016 C 
HETATM   44  C28 UNL     1      22.511  23.830  21.925  1.00  0.00     0.016 C 
BRANCH  38  45
HETATM   45  O3  UNL     1      20.286  27.488  20.764  1.00  0.00    -0.391 OA
ATOM     46  H3  UNL     1      20.382  28.237  21.340  1.00  0.00     0.210 HD
ENDBRANCH  38  45
BRANCH  39  47
HETATM   47  O4  UNL     1      22.039  26.761  23.210  1.00  0.00    -0.393 OA
ATOM     48  H4  UNL     1      21.284  27.262  23.497  1.00  0.00     0.210 HD
ENDBRANCH  39  47
ENDBRANCH  27  37
ENDBRANCH  19  22
ENDBRANCH  18  19
BRANCH  18  49
HETATM   49  C31 UNL     1      15.981  23.690  15.437  1.00  0.00    -0.011 C 
HETATM   50  C32 UNL     1      16.212  22.652  14.389  1.00  0.00     0.063 C 
HETATM   51  C33 UNL     1      14.492  23.769  15.758  1.00  0.00     0.063 C 
ENDBRANCH  18  49
ENDBRANCH  13  18
ENDBRANCH  11  13
ENDBRANCH   8   9
ENDBRANCH   7   8
ENDBRANCH   5   7
ENDBRANCH   4   5
ENDBRANCH   3   4
TORSDOF 18
ENDMDL
MODEL 3
REMARK VINA RESULT: -8.127757893      2.059      9.564
REMARK  18 active torsions:
REMARK  status: ('A' for Active; 'I' for Inactive)
REMARK    1  A    between atoms: C3_3  and  C4_4 
REMARK    2  A    between atoms: C4_4  and  C5_5 
REMARK    3  A    between atoms: C5_5  and  C7_7 
REMARK    4  A    between atoms: C7_7  and  C8_8 
REMARK    5  A    between atoms: C8_8  and  N1_9 
REMARK       I    between atoms: N1_9  and  C10_11 
REMARK    6  A    between atoms: C10_11  and  C11_13 
REMARK    7  A    between atoms: C11_13  and  C12_14 
REMARK    8  A    between atoms: C11_13  and  N2_18 
REMARK    9  A    between atoms: C12_14  and  C13_15 
REMARK   10  A    between atoms: C13_15  and  C14_16 
REMARK   11  A    between atoms: N2_18  and  C16_19 
REMARK   12  A    between atoms: N2_18  and  C31_49 
REMARK   13  A    between atoms: C16_19  and  O2_20 
REMARK   14  A    between atoms: C16_19  and  C17_22 
REMARK   15  A    between atoms: N5_30  and  C21_31 
REMARK   16  A    between atoms: C22_32  and  O3_33 
REMARK   17  A    between atoms: C23_35  and  O4_36 
REMARK   18  A    between atoms: C29_43  and  N6_44 
ROOT
HETATM    1  C1  UNL     1      10.399  17.255  15.991  1.00  0.00     0.112 C 
HETATM    2  C2  UNL     1      11.095  17.358  17.278  1.00  0.00    -0.111 C 
HETATM    3  C3  UNL     1      11.679  17.457  18.328  1.00  0.00    -0.107 C 
ENDROOT
BRANCH   3   4
HETATM    4  C4  UNL     1      12.414  17.599  19.608  1.00  0.00     0.098 C 
BRANCH   4   5
HETATM    5  C5  UNL     1      13.794  18.149  19.315  1.00  0.00    -0.006 C 
HETATM    6  C6  UNL     1      14.425  17.451  18.131  1.00  0.00     0.011 C 
BRANCH   5   7
HETATM    7  C7  UNL     1      13.703  19.627  18.924  1.00  0.00     0.025 C 
BRANCH   7   8
HETATM    8  C8  UNL     1      14.790  19.910  17.925  1.00  0.00     0.126 C 
BRANCH   8   9
HETATM    9  N1  UNL     1      15.384  21.235  18.155  1.00  0.00    -0.351 N 
HETATM   10  C9  UNL     1      14.521  22.185  18.803  1.00  0.00     0.152 C 
HETATM   11  C10 UNL     1      16.712  21.503  17.786  1.00  0.00     0.266 C 
HETATM   12  O1  UNL     1      17.344  20.495  17.310  1.00  0.00    -0.266 OA
BRANCH  11  13
HETATM   13  C11 UNL     1      17.406  22.837  17.917  1.00  0.00     0.086 C 
BRANCH  13  14
HETATM   14  C12 UNL     1      17.472  23.225  19.295  1.00  0.00     0.063 C 
BRANCH  14  15
HETATM   15  C13 UNL     1      17.977  22.278  20.332  1.00  0.00     0.006 C 
BRANCH  15  16
HETATM   16  C14 UNL     1      19.405  22.740  20.669  1.00  0.00    -0.004 C 
HETATM   17  C15 UNL     1      19.885  22.075  21.938  1.00  0.00     0.005 C 
ENDBRANCH  15  16
ENDBRANCH  14  15
ENDBRANCH  13  14
BRANCH  13  18
HETATM   18  N2  UNL     1      17.117  23.730  16.812  1.00  0.00    -0.296 N 
BRANCH  18  19
HETATM   19  C16 UNL     1      17.515  25.084  17.001  1.00  0.00     0.192 C 
BRANCH  19  20
HETATM   20  O2  UNL     1      16.586  25.792  17.585  1.00  0.00    -0.343 OA
ATOM     21  H2  UNL     1      16.437  26.620  17.143  1.00  0.00     0.219 HD
ENDBRANCH  19  20
BRANCH  19  22
HETATM   22  C17 UNL     1      18.685  25.858  16.710  1.00  0.00     0.161 A 
HETATM   23  N3  UNL     1      19.665  25.779  17.690  1.00  0.00    -0.323 N 
HETATM   24  C18 UNL     1      20.792  26.468  17.703  1.00  0.00     0.141 A 
ATOM     25  H3  UNL     1      19.502  25.135  18.464  1.00  0.00     0.169 HD
HETATM   26  C19 UNL     1      21.015  27.337  16.658  1.00  0.00     0.122 A 
HETATM   27  N5  UNL     1      21.855  26.540  18.542  1.00  0.00    -0.319 N 
HETATM   28  N4  UNL     1      22.201  27.900  16.905  1.00  0.00    -0.346 N 
HETATM   29  C29 UNL     1      20.060  27.434  15.671  1.00  0.00     0.133 A 
HETATM   30  C20 UNL     1      22.727  27.428  18.045  1.00  0.00     0.185 A 
ATOM     31  H4  UNL     1      22.647  28.595  16.307  1.00  0.00     0.167 HD
HETATM   32  N7  UNL     1      18.938  26.695  15.731  1.00  0.00    -0.323 N 
ATOM     33  H7  UNL     1      18.253  26.789  14.982  1.00  0.00     0.169 HD
BRANCH  29  34
HETATM   34  N6  UNL     1      20.245  28.235  14.690  1.00  0.00    -0.379 N 
HETATM   35  C30 UNL     1      21.292  28.129  13.720  1.00  0.00     0.147 C 
ATOM     36  H6  UNL     1      19.593  29.013  14.592  1.00  0.00     0.160 HD
ENDBRANCH  29  34
BRANCH  27  37
HETATM   37  C21 UNL     1      21.939  25.749  19.738  1.00  0.00     0.129 C 
HETATM   38  C22 UNL     1      21.228  26.293  20.926  1.00  0.00     0.170 C 
HETATM   39  C23 UNL     1      22.281  26.814  21.878  1.00  0.00     0.154 C 
HETATM   40  C24 UNL     1      23.586  26.225  21.463  1.00  0.00     0.032 A 
HETATM   41  C25 UNL     1      23.403  25.633  20.119  1.00  0.00     0.027 A 
HETATM   42  C26 UNL     1      23.797  24.781  21.288  1.00  0.00    -0.035 A 
HETATM   43  C27 UNL     1      25.224  24.275  21.200  1.00  0.00     0.016 C 
HETATM   44  C28 UNL     1      22.823  23.821  21.886  1.00  0.00     0.016 C 
BRANCH  38  45
HETATM   45  O3  UNL     1      20.278  27.250  20.682  1.00  0.00    -0.391 OA
ATOM     46  H3  UNL     1      19.406  27.074  21.016  1.00  0.00     0.210 HD
ENDBRANCH  38  45
BRANCH  39  47
HETATM   47  O4  UNL     1      21.962  26.645  23.209  1.00  0.00    -0.393 OA
ATOM     48  H4  UNL     1      22.701  26.401  23.754  1.00  0.00     0.210 HD
ENDBRANCH  39  47
ENDBRANCH  27  37
ENDBRANCH  19  22
ENDBRANCH  18  19
BRANCH  18  49
HETATM   49  C31 UNL     1      16.335  23.412  15.678  1.00  0.00    -0.011 C 
HETATM   50  C32 UNL     1      14.912  23.864  15.666  1.00  0.00     0.063 C 
HETATM   51  C33 UNL     1      16.961  23.656  14.309  1.00  0.00     0.063 C 
ENDBRANCH  18  49
ENDBRANCH  13  18
ENDBRANCH  11  13
ENDBRANCH   8   9
ENDBRANCH   7   8
ENDBRANCH   5   7
ENDBRANCH   4   5
ENDBRANCH   3   4
TORSDOF 18
ENDMDL
MODEL 4
REMARK VINA RESULT: -8.058506073      2.190      9.467
REMARK  18 active torsions:
REMARK  status: ('A' for Active; 'I' for Inactive)
REMARK    1  A    between atoms: C3_3  and  C4_4 
REMARK    2  A    between atoms: C4_4  and  C5_5 
REMARK    3  A    between atoms: C5_5  and  C7_7 
REMARK    4  A    between atoms: C7_7  and  C8_8 
REMARK    5  A    between atoms: C8_8  and  N1_9 
REMARK       I    between atoms: N1_9  and  C10_11 
REMARK    6  A    between atoms: C10_11  and  C11_13 
REMARK    7  A    between atoms: C11_13  and  C12_14 
REMARK    8  A    between atoms: C11_13  and  N2_18 
REMARK    9  A    between atoms: C12_14  and  C13_15 
REMARK   10  A    between atoms: C13_15  and  C14_16 
REMARK   11  A    between atoms: N2_18  and  C16_19 
REMARK   12  A    between atoms: N2_18  and  C31_49 
REMARK   13  A    between atoms: C16_19  and  O2_20 
REMARK   14  A    between atoms: C16_19  and  C17_22 
REMARK   15  A    between atoms: N5_30  and  C21_31 
REMARK   16  A    between atoms: C22_32  and  O3_33 
REMARK   17  A    between atoms: C23_35  and  O4_36 
REMARK   18  A    between atoms: C29_43  and  N6_44 
ROOT
HETATM    1  C1  UNL     1      10.574  17.570  17.022  1.00  0.00     0.112 C 
HETATM    2  C2  UNL     1      10.719  18.845  16.311  1.00  0.00    -0.111 C 
HETATM    3  C3  UNL     1      10.854  19.885  15.717  1.00  0.00    -0.107 C 
ENDROOT
BRANCH   3   4
HETATM    4  C4  UNL     1      11.043  21.154  14.972  1.00  0.00     0.098 C 
BRANCH   4   5
HETATM    5  C5  UNL     1      12.427  21.153  14.359  1.00  0.00    -0.006 C 
HETATM    6  C6  UNL     1      12.455  20.375  13.063  1.00  0.00     0.011 C 
BRANCH   5   7
HETATM    7  C7  UNL     1      12.846  22.580  13.994  1.00  0.00     0.025 C 
BRANCH   7   8
HETATM    8  C8  UNL     1      13.551  23.175  15.181  1.00  0.00     0.126 C 
BRANCH   8   9
HETATM    9  N1  UNL     1      14.666  22.320  15.613  1.00  0.00    -0.351 N 
HETATM   10  C9  UNL     1      15.538  21.878  14.558  1.00  0.00     0.152 C 
HETATM   11  C10 UNL     1      14.853  22.008  16.970  1.00  0.00     0.266 C 
HETATM   12  O1  UNL     1      14.023  22.578  17.763  1.00  0.00    -0.266 OA
BRANCH  11  13
HETATM   13  C11 UNL     1      15.920  21.095  17.521  1.00  0.00     0.086 C 
BRANCH  13  14
HETATM   14  C12 UNL     1      15.317  19.956  18.149  1.00  0.00     0.063 C 
BRANCH  14  15
HETATM   15  C13 UNL     1      14.316  19.123  17.420  1.00  0.00     0.006 C 
BRANCH  15  16
HETATM   16  C14 UNL     1      14.156  17.834  18.245  1.00  0.00    -0.004 C 
HETATM   17  C15 UNL     1      13.412  18.122  19.528  1.00  0.00     0.005 C 
ENDBRANCH  15  16
ENDBRANCH  14  15
ENDBRANCH  13  14
BRANCH  13  18
HETATM   18  N2  UNL     1      17.069  21.818  18.031  1.00  0.00    -0.296 N 
BRANCH  18  19
HETATM   19  C16 UNL     1      17.984  22.285  17.046  1.00  0.00     0.192 C 
BRANCH  19  20
HETATM   20  O2  UNL     1      18.473  21.311  16.328  1.00  0.00    -0.343 OA
ATOM     21  H2  UNL     1      17.793  20.812  15.891  1.00  0.00     0.219 HD
ENDBRANCH  19  20
BRANCH  19  22
HETATM   22  C17 UNL     1      18.496  23.562  16.648  1.00  0.00     0.161 A 
HETATM   23  N3  UNL     1      19.475  24.061  17.496  1.00  0.00    -0.323 N 
HETATM   24  C18 UNL     1      20.035  25.254  17.400  1.00  0.00     0.141 A 
ATOM     25  H3  UNL     1      19.789  23.457  18.255  1.00  0.00     0.169 HD
HETATM   26  C19 UNL     1      19.615  26.071  16.375  1.00  0.00     0.122 A 
HETATM   27  N5  UNL     1      20.984  25.920  18.105  1.00  0.00    -0.319 N 
HETATM   28  N4  UNL     1      20.323  27.197  16.498  1.00  0.00    -0.346 N 
HETATM   29  C29 UNL     1      18.646  25.601  15.518  1.00  0.00     0.133 A 
HETATM   30  C20 UNL     1      21.160  27.124  17.544  1.00  0.00     0.185 A 
ATOM     31  H4  UNL     1      20.238  28.005  15.881  1.00  0.00     0.167 HD
HETATM   32  N7  UNL     1      18.126  24.371  15.682  1.00  0.00    -0.323 N 
ATOM     33  H7  UNL     1      17.412  24.053  15.028  1.00  0.00     0.169 HD
BRANCH  29  34
HETATM   34  N6  UNL     1      18.239  26.342  14.557  1.00  0.00    -0.379 N 
HETATM   35  C30 UNL     1      19.079  27.110  13.689  1.00  0.00     0.147 C 
ATOM     36  H6  UNL     1      17.233  26.390  14.396  1.00  0.00     0.160 HD
ENDBRANCH  29  34
BRANCH  27  37
HETATM   37  C21 UNL     1      21.635  25.340  19.246  1.00  0.00     0.129 C 
HETATM   38  C22 UNL     1      20.878  25.401  20.525  1.00  0.00     0.170 C 
HETATM   39  C23 UNL     1      21.544  26.448  21.390  1.00  0.00     0.154 C 
HETATM   40  C24 UNL     1      22.897  26.703  20.817  1.00  0.00     0.032 A 
HETATM   41  C25 UNL     1      22.935  26.089  19.471  1.00  0.00     0.027 A 
HETATM   42  C26 UNL     1      23.872  25.636  20.551  1.00  0.00    -0.035 A 
HETATM   43  C27 UNL     1      25.313  26.035  20.294  1.00  0.00     0.016 C 
HETATM   44  C28 UNL     1      23.692  24.303  21.197  1.00  0.00     0.016 C 
BRANCH  38  45
HETATM   45  O3  UNL     1      19.533  25.639  20.425  1.00  0.00    -0.391 OA
ATOM     46  H3  UNL     1      19.253  26.539  20.540  1.00  0.00     0.210 HD
ENDBRANCH  38  45
BRANCH  39  47
HETATM   47  O4  UNL     1      21.528  26.150  22.736  1.00  0.00    -0.393 OA
ATOM     48  H4  UNL     1      22.138  26.665  23.251  1.00  0.00     0.210 HD
ENDBRANCH  39  47
ENDBRANCH  27  37
ENDBRANCH  19  22
ENDBRANCH  18  19
BRANCH  18  49
HETATM   49  C31 UNL     1      17.432  21.931  19.393  1.00  0.00    -0.011 C 
HETATM   50  C32 UNL     1      18.802  21.488  19.787  1.00  0.00     0.063 C 
HETATM   51  C33 UNL     1      17.097  23.243  20.096  1.00  0.00     0.063 C 
ENDBRANCH  18  49
ENDBRANCH  13  18
ENDBRANCH  11  13
ENDBRANCH   8   9
ENDBRANCH   7   8
ENDBRANCH   5   7
ENDBRANCH   4   5
ENDBRANCH   3   4
TORSDOF 18
ENDMDL
MODEL 5
REMARK VINA RESULT: -8.039558053      3.503      6.393
REMARK  18 active torsions:
REMARK  status: ('A' for Active; 'I' for Inactive)
REMARK    1  A    between atoms: C3_3  and  C4_4 
REMARK    2  A    between atoms: C4_4  and  C5_5 
REMARK    3  A    between atoms: C5_5  and  C7_7 
REMARK    4  A    between atoms: C7_7  and  C8_8 
REMARK    5  A    between atoms: C8_8  and  N1_9 
REMARK       I    between atoms: N1_9  and  C10_11 
REMARK    6  A    between atoms: C10_11  and  C11_13 
REMARK    7  A    between atoms: C11_13  and  C12_14 
REMARK    8  A    between atoms: C11_13  and  N2_18 
REMARK    9  A    between atoms: C12_14  and  C13_15 
REMARK   10  A    between atoms: C13_15  and  C14_16 
REMARK   11  A    between atoms: N2_18  and  C16_19 
REMARK   12  A    between atoms: N2_18  and  C31_49 
REMARK   13  A    between atoms: C16_19  and  O2_20 
REMARK   14  A    between atoms: C16_19  and  C17_22 
REMARK   15  A    between atoms: N5_30  and  C21_31 
REMARK   16  A    between atoms: C22_32  and  O3_33 
REMARK   17  A    between atoms: C23_35  and  O4_36 
REMARK   18  A    between atoms: C29_43  and  N6_44 
ROOT
HETATM    1  C1  UNL     1      21.668  26.527  15.412  1.00  0.00     0.112 C 
HETATM    2  C2  UNL     1      21.311  26.334  16.822  1.00  0.00    -0.111 C 
HETATM    3  C3  UNL     1      20.999  26.172  17.975  1.00  0.00    -0.107 C 
ENDROOT
BRANCH   3   4
HETATM    4  C4  UNL     1      20.587  25.970  19.386  1.00  0.00     0.098 C 
BRANCH   4   5
HETATM    5  C5  UNL     1      20.253  24.506  19.586  1.00  0.00    -0.006 C 
HETATM    6  C6  UNL     1      21.504  23.659  19.647  1.00  0.00     0.011 C 
BRANCH   5   7
HETATM    7  C7  UNL     1      19.550  24.303  20.931  1.00  0.00     0.025 C 
BRANCH   7   8
HETATM    8  C8  UNL     1      18.071  24.219  20.672  1.00  0.00     0.126 C 
BRANCH   8   9
HETATM    9  N1  UNL     1      17.772  23.203  19.652  1.00  0.00    -0.351 N 
HETATM   10  C9  UNL     1      18.211  21.872  19.971  1.00  0.00     0.152 C 
HETATM   11  C10 UNL     1      17.076  23.543  18.480  1.00  0.00     0.266 C 
HETATM   12  O1  UNL     1      16.689  24.763  18.428  1.00  0.00    -0.266 OA
BRANCH  11  13
HETATM   13  C11 UNL     1      16.769  22.603  17.340  1.00  0.00     0.086 C 
BRANCH  13  14
HETATM   14  C12 UNL     1      17.943  22.393  16.544  1.00  0.00     0.063 C 
BRANCH  14  15
HETATM   15  C13 UNL     1      18.915  23.501  16.310  1.00  0.00     0.006 C 
BRANCH  15  16
HETATM   16  C14 UNL     1      18.400  24.264  15.077  1.00  0.00    -0.004 C 
HETATM   17  C15 UNL     1      17.975  25.661  15.465  1.00  0.00     0.005 C 
ENDBRANCH  15  16
ENDBRANCH  14  15
ENDBRANCH  13  14
BRANCH  13  18
HETATM   18  N2  UNL     1      15.427  22.774  16.817  1.00  0.00    -0.296 N 
BRANCH  18  19
HETATM   19  C16 UNL     1      14.376  22.375  17.690  1.00  0.00     0.192 C 
BRANCH  19  20
HETATM   20  O2  UNL     1      14.090  23.297  18.569  1.00  0.00    -0.343 OA
ATOM     21  H2  UNL     1      13.732  22.929  19.369  1.00  0.00     0.219 HD
ENDBRANCH  19  20
BRANCH  19  22
HETATM   22  C17 UNL     1      13.553  21.211  17.836  1.00  0.00     0.161 A 
HETATM   23  N3  UNL     1      12.926  20.818  16.662  1.00  0.00    -0.323 N 
HETATM   24  C18 UNL     1      12.048  19.837  16.555  1.00  0.00     0.141 A 
ATOM     25  H3  UNL     1      13.163  21.329  15.812  1.00  0.00     0.169 HD
HETATM   26  C19 UNL     1      11.727  19.146  17.702  1.00  0.00     0.122 A 
HETATM   27  N5  UNL     1      11.335  19.304  15.532  1.00  0.00    -0.319 N 
HETATM   28  N4  UNL     1      10.835  18.224  17.329  1.00  0.00    -0.346 N 
HETATM   29  C29 UNL     1      12.336  19.513  18.880  1.00  0.00     0.133 A 
HETATM   30  C20 UNL     1      10.584  18.304  16.013  1.00  0.00     0.185 A 
ATOM     31  H4  UNL     1      10.403  17.549  17.959  1.00  0.00     0.167 HD
HETATM   32  N7  UNL     1      13.222  20.524  18.905  1.00  0.00    -0.323 N 
ATOM     33  H7  UNL     1      13.657  20.769  19.795  1.00  0.00     0.169 HD
BRANCH  29  34
HETATM   34  N6  UNL     1      12.054  18.885  19.959  1.00  0.00    -0.379 N 
HETATM   35  C30 UNL     1      12.666  17.666  20.392  1.00  0.00     0.147 C 
ATOM     36  H6  UNL     1      11.334  19.286  20.560  1.00  0.00     0.160 HD
ENDBRANCH  29  34
BRANCH  27  37
HETATM   37  C21 UNL     1      11.443  19.799  14.187  1.00  0.00     0.129 C 
HETATM   38  C22 UNL     1      10.777  21.102  13.921  1.00  0.00     0.170 C 
HETATM   39  C23 UNL     1       9.534  20.813  13.109  1.00  0.00     0.154 C 
HETATM   40  C24 UNL     1       9.677  19.436  12.554  1.00  0.00     0.032 A 
HETATM   41  C25 UNL     1      10.800  18.783  13.263  1.00  0.00     0.027 A 
HETATM   42  C26 UNL     1      10.846  18.998  11.780  1.00  0.00    -0.035 A 
HETATM   43  C27 UNL     1      10.735  17.709  10.988  1.00  0.00     0.016 C 
HETATM   44  C28 UNL     1      11.761  20.021  11.194  1.00  0.00     0.016 C 
BRANCH  38  45
HETATM   45  O3  UNL     1      10.473  21.866  15.017  1.00  0.00    -0.391 OA
ATOM     46  H3  UNL     1       9.924  22.626  14.863  1.00  0.00     0.210 HD
ENDBRANCH  38  45
BRANCH  39  47
HETATM   47  O4  UNL     1       9.236  21.787  12.180  1.00  0.00    -0.393 OA
ATOM     48  H4  UNL     1       8.890  21.447  11.363  1.00  0.00     0.210 HD
ENDBRANCH  39  47
ENDBRANCH  27  37
ENDBRANCH  19  22
ENDBRANCH  18  19
BRANCH  18  49
HETATM   49  C31 UNL     1      15.100  23.122  15.487  1.00  0.00    -0.011 C 
HETATM   50  C32 UNL     1      15.344  22.105  14.421  1.00  0.00     0.063 C 
HETATM   51  C33 UNL     1      13.750  23.793  15.254  1.00  0.00     0.063 C 
ENDBRANCH  18  49
ENDBRANCH  13  18
ENDBRANCH  11  13
ENDBRANCH   8   9
ENDBRANCH   7   8
ENDBRANCH   5   7
ENDBRANCH   4   5
ENDBRANCH   3   4
TORSDOF 18
ENDMDL
