MODEL 1
REMARK VINA RESULT: -7.925471990      0.000      0.000
REMARK  3 active torsions:
REMARK  status: ('A' for Active; 'I' for Inactive)
REMARK    1  A    between atoms: C11_12  and  O2_14 
REMARK    2  A    between atoms: C16_19  and  O3_20 
REMARK    3  A    between atoms: C21_28  and  O6_29 
ROOT
HETATM    1  C1  UNL     1     -15.771  -1.966  -6.263  1.00  0.00     0.013 C 
HETATM    2  C2  UNL     1     -14.419  -1.978  -6.945  1.00  0.00     0.016 C 
HETATM    3  C3  UNL     1     -14.419  -0.832  -7.936  1.00  0.00     0.010 C 
HETATM    4  C4  UNL     1     -13.293  -1.096  -8.893  1.00  0.00     0.038 C 
HETATM    5  C5  UNL     1     -13.695  -2.259  -9.780  1.00  0.00     0.064 C 
HETATM    6  C6  UNL     1     -14.669  -1.645 -10.798  1.00  0.00     0.046 C 
HETATM    7  O1  UNL     1     -12.546  -2.717 -10.420  1.00  0.00    -0.379 OA
HETATM    8  C7  UNL     1     -12.960  -3.599 -11.399  1.00  0.00     0.183 C 
HETATM    9  C8  UNL     1     -13.311  -4.982 -10.796  1.00  0.00     0.040 C 
HETATM   10  C9  UNL     1     -13.865  -4.763  -9.434  1.00  0.00     0.027 C 
HETATM   11  C10 UNL     1     -14.283  -3.403  -9.034  1.00  0.00     0.055 C 
HETATM   12  C11 UNL     1     -14.053  -3.290  -7.518  1.00  0.00     0.064 C 
HETATM   13  C12 UNL     1     -12.660  -3.645  -7.123  1.00  0.00     0.046 C 
HETATM   14  C13 UNL     1     -14.311  -5.551 -11.742  1.00  0.00     0.173 C 
HETATM   15  C14 UNL     1     -15.215  -6.606 -11.340  1.00  0.00     0.038 C 
HETATM   16  C15 UNL     1     -14.821  -7.826 -10.649  1.00  0.00     0.034 C 
HETATM   17  C16 UNL     1     -14.087  -8.867 -11.470  1.00  0.00     0.118 C 
HETATM   18  C17 UNL     1     -12.678  -9.055 -11.024  1.00  0.00     0.035 C 
HETATM   19  C18 UNL     1     -11.609  -8.169 -11.405  1.00  0.00     0.046 C 
HETATM   20  C19 UNL     1     -11.867  -6.771 -11.872  1.00  0.00     0.119 C 
HETATM   21  C20 UNL     1     -10.668  -6.432 -12.804  1.00  0.00     0.052 C 
HETATM   22  O4  UNL     1     -12.898  -6.817 -12.778  1.00  0.00    -0.227 OA
HETATM   23  O5  UNL     1     -13.608  -5.786 -12.952  1.00  0.00    -0.234 OA
HETATM   24  C21 UNL     1     -11.977  -5.738 -10.805  1.00  0.00     0.168 C 
ENDROOT
BRANCH  24  25
HETATM   25  O6  UNL     1     -11.611  -6.173  -9.527  1.00  0.00    -0.391 OA
ATOM     26  H6  UNL     1     -10.826  -5.739  -9.214  1.00  0.00     0.210 HD
ENDBRANCH  24  25
BRANCH  12  27
HETATM   27  O2  UNL     1     -14.905  -4.260  -6.942  1.00  0.00    -0.389 OA
ATOM     28  H2  UNL     1     -14.461  -5.099  -6.995  1.00  0.00     0.210 HD
ENDBRANCH  12  27
BRANCH  17  29
HETATM   29  O3  UNL     1     -14.723 -10.108 -11.146  1.00  0.00    -0.396 OA
ATOM     30  H3  UNL     1     -14.012 -10.694 -10.912  1.00  0.00     0.210 HD
ENDBRANCH  17  29
TORSDOF 3
ENDMDL
MODEL 2
REMARK VINA RESULT: -7.858296892      3.602      5.859
REMARK  3 active torsions:
REMARK  status: ('A' for Active; 'I' for Inactive)
REMARK    1  A    between atoms: C11_12  and  O2_14 
REMARK    2  A    between atoms: C16_19  and  O3_20 
REMARK    3  A    between atoms: C21_28  and  O6_29 
ROOT
HETATM    1  C1  UNL     1     -15.870  -3.229 -12.180  1.00  0.00     0.013 C 
HETATM    2  C2  UNL     1     -15.859  -2.301 -10.984  1.00  0.00     0.016 C 
HETATM    3  C3  UNL     1     -15.444  -0.936 -11.491  1.00  0.00     0.010 C 
HETATM    4  C4  UNL     1     -15.019  -0.144 -10.289  1.00  0.00     0.038 C 
HETATM    5  C5  UNL     1     -13.692  -0.700  -9.808  1.00  0.00     0.064 C 
HETATM    6  C6  UNL     1     -12.658  -0.126 -10.789  1.00  0.00     0.046 C 
HETATM    7  O1  UNL     1     -13.470  -0.210  -8.523  1.00  0.00    -0.379 OA
HETATM    8  C7  UNL     1     -12.163  -0.516  -8.199  1.00  0.00     0.183 C 
HETATM    9  C8  UNL     1     -12.023  -1.999  -7.778  1.00  0.00     0.040 C 
HETATM   10  C9  UNL     1     -13.009  -2.795  -8.556  1.00  0.00     0.027 C 
HETATM   11  C10 UNL     1     -13.658  -2.185  -9.736  1.00  0.00     0.055 C 
HETATM   12  C11 UNL     1     -15.061  -2.806  -9.847  1.00  0.00     0.064 C 
HETATM   13  C12 UNL     1     -15.842  -2.683  -8.584  1.00  0.00     0.046 C 
HETATM   14  C13 UNL     1     -10.612  -2.342  -8.109  1.00  0.00     0.173 C 
HETATM   15  C14 UNL     1     -10.192  -3.715  -8.291  1.00  0.00     0.038 C 
HETATM   16  C15 UNL     1     -10.494  -4.808  -7.377  1.00  0.00     0.034 C 
HETATM   17  C16 UNL     1      -9.739  -4.826  -6.063  1.00  0.00     0.118 C 
HETATM   18  C17 UNL     1     -10.630  -4.600  -4.890  1.00  0.00     0.035 C 
HETATM   19  C18 UNL     1     -11.075  -3.293  -4.483  1.00  0.00     0.046 C 
HETATM   20  C19 UNL     1     -11.081  -2.130  -5.424  1.00  0.00     0.119 C 
HETATM   21  C20 UNL     1     -10.924  -0.878  -4.514  1.00  0.00     0.052 C 
HETATM   22  O4  UNL     1      -9.879  -2.123  -6.088  1.00  0.00    -0.227 OA
HETATM   23  O5  UNL     1      -9.810  -1.576  -7.225  1.00  0.00    -0.234 OA
HETATM   24  C21 UNL     1     -12.298  -1.982  -6.269  1.00  0.00     0.168 C 
ENDROOT
BRANCH  24  25
HETATM   25  O6  UNL     1     -13.361  -2.821  -5.919  1.00  0.00    -0.391 OA
ATOM     26  H6  UNL     1     -13.073  -3.562  -5.398  1.00  0.00     0.210 HD
ENDBRANCH  24  25
BRANCH  12  27
HETATM   27  O2  UNL     1     -14.837  -4.186 -10.061  1.00  0.00    -0.389 OA
ATOM     28  H2  UNL     1     -13.938  -4.289 -10.349  1.00  0.00     0.210 HD
ENDBRANCH  12  27
BRANCH  17  29
HETATM   29  O3  UNL     1      -9.298  -6.180  -5.909  1.00  0.00    -0.396 OA
ATOM     30  H3  UNL     1      -9.987  -6.608  -5.415  1.00  0.00     0.210 HD
ENDBRANCH  17  29
TORSDOF 3
ENDMDL
MODEL 3
REMARK VINA RESULT: -7.827001301      3.159      6.185
REMARK  3 active torsions:
REMARK  status: ('A' for Active; 'I' for Inactive)
REMARK    1  A    between atoms: C11_12  and  O2_14 
REMARK    2  A    between atoms: C16_19  and  O3_20 
REMARK    3  A    between atoms: C21_28  and  O6_29 
ROOT
HETATM    1  C1  UNL     1     -15.522  -0.827 -11.161  1.00  0.00     0.013 C 
HETATM    2  C2  UNL     1     -15.386  -2.149 -10.436  1.00  0.00     0.016 C 
HETATM    3  C3  UNL     1     -16.346  -2.109  -9.266  1.00  0.00     0.010 C 
HETATM    4  C4  UNL     1     -15.917  -3.195  -8.323  1.00  0.00     0.038 C 
HETATM    5  C5  UNL     1     -14.623  -2.757  -7.663  1.00  0.00     0.064 C 
HETATM    6  C6  UNL     1     -15.062  -1.742  -6.596  1.00  0.00     0.046 C 
HETATM    7  O1  UNL     1     -14.055  -3.879  -7.064  1.00  0.00    -0.379 OA
HETATM    8  C7  UNL     1     -13.022  -3.426  -6.267  1.00  0.00     0.183 C 
HETATM    9  C8  UNL     1     -11.765  -3.100  -7.109  1.00  0.00     0.040 C 
HETATM   10  C9  UNL     1     -12.215  -2.603  -8.436  1.00  0.00     0.027 C 
HETATM   11  C10 UNL     1     -13.626  -2.201  -8.616  1.00  0.00     0.055 C 
HETATM   12  C11 UNL     1     -13.993  -2.493 -10.080  1.00  0.00     0.064 C 
HETATM   13  C12 UNL     1     -13.701  -3.900 -10.473  1.00  0.00     0.046 C 
HETATM   14  C13 UNL     1     -11.050  -2.063  -6.315  1.00  0.00     0.173 C 
HETATM   15  C14 UNL     1     -10.084  -1.176  -6.927  1.00  0.00     0.038 C 
HETATM   16  C15 UNL     1      -8.997  -1.600  -7.798  1.00  0.00     0.034 C 
HETATM   17  C16 UNL     1      -7.827  -2.300  -7.137  1.00  0.00     0.118 C 
HETATM   18  C17 UNL     1      -7.708  -3.726  -7.551  1.00  0.00     0.035 C 
HETATM   19  C18 UNL     1      -8.510  -4.778  -6.982  1.00  0.00     0.046 C 
HETATM   20  C19 UNL     1      -9.810  -4.500  -6.296  1.00  0.00     0.119 C 
HETATM   21  C20 UNL     1      -9.978  -5.659  -5.271  1.00  0.00     0.052 C 
HETATM   22  O4  UNL     1      -9.617  -3.432  -5.453  1.00  0.00    -0.227 OA
HETATM   23  O5  UNL     1     -10.608  -2.716  -5.136  1.00  0.00    -0.234 OA
HETATM   24  C21 UNL     1     -11.010  -4.433  -7.175  1.00  0.00     0.168 C 
ENDROOT
BRANCH  24  25
HETATM   25  O6  UNL     1     -10.795  -4.852  -8.492  1.00  0.00    -0.391 OA
ATOM     26  H6  UNL     1     -11.409  -4.453  -9.098  1.00  0.00     0.210 HD
ENDBRANCH  24  25
BRANCH  12  27
HETATM   27  O2  UNL     1     -13.140  -1.665 -10.847  1.00  0.00    -0.389 OA
ATOM     28  H2  UNL     1     -13.296  -1.863 -11.763  1.00  0.00     0.210 HD
ENDBRANCH  12  27
BRANCH  17  29
HETATM   29  O3  UNL     1      -6.663  -1.678  -7.693  1.00  0.00    -0.396 OA
ATOM     30  H3  UNL     1      -6.997  -1.051  -8.323  1.00  0.00     0.210 HD
ENDBRANCH  17  29
TORSDOF 3
ENDMDL
MODEL 4
REMARK VINA RESULT: -7.785248990      1.936      6.710
REMARK  3 active torsions:
REMARK  status: ('A' for Active; 'I' for Inactive)
REMARK    1  A    between atoms: C11_12  and  O2_14 
REMARK    2  A    between atoms: C16_19  and  O3_20 
REMARK    3  A    between atoms: C21_28  and  O6_29 
ROOT
HETATM    1  C1  UNL     1     -10.487  -6.611 -13.004  1.00  0.00     0.013 C 
HETATM    2  C2  UNL     1     -11.278  -6.748 -11.720  1.00  0.00     0.016 C 
HETATM    3  C3  UNL     1     -12.604  -7.381 -12.088  1.00  0.00     0.010 C 
HETATM    4  C4  UNL     1     -13.533  -7.127 -10.937  1.00  0.00     0.038 C 
HETATM    5  C5  UNL     1     -13.893  -5.653 -10.943  1.00  0.00     0.064 C 
HETATM    6  C6  UNL     1     -14.937  -5.519 -12.063  1.00  0.00     0.046 C 
HETATM    7  O1  UNL     1     -14.462  -5.354  -9.708  1.00  0.00    -0.379 OA
HETATM    8  C7  UNL     1     -15.006  -4.088  -9.816  1.00  0.00     0.183 C 
HETATM    9  C8  UNL     1     -13.913  -2.997  -9.704  1.00  0.00     0.040 C 
HETATM   10  C9  UNL     1     -12.662  -3.535 -10.298  1.00  0.00     0.027 C 
HETATM   11  C10 UNL     1     -12.724  -4.754 -11.132  1.00  0.00     0.055 C 
HETATM   12  C11 UNL     1     -11.387  -5.492 -10.951  1.00  0.00     0.064 C 
HETATM   13  C12 UNL     1     -11.062  -5.744  -9.518  1.00  0.00     0.046 C 
HETATM   14  C13 UNL     1     -14.467  -1.844 -10.466  1.00  0.00     0.173 C 
HETATM   15  C14 UNL     1     -13.610  -0.800 -10.983  1.00  0.00     0.038 C 
HETATM   16  C15 UNL     1     -12.584  -0.106 -10.217  1.00  0.00     0.034 C 
HETATM   17  C16 UNL     1     -13.063   0.897  -9.186  1.00  0.00     0.118 C 
HETATM   18  C17 UNL     1     -12.753   0.473  -7.792  1.00  0.00     0.035 C 
HETATM   19  C18 UNL     1     -13.550  -0.480  -7.065  1.00  0.00     0.046 C 
HETATM   20  C19 UNL     1     -14.449  -1.454  -7.760  1.00  0.00     0.119 C 
HETATM   21  C20 UNL     1     -15.578  -1.760  -6.734  1.00  0.00     0.052 C 
HETATM   22  O4  UNL     1     -15.148  -0.766  -8.721  1.00  0.00    -0.227 OA
HETATM   23  O5  UNL     1     -15.589  -1.393  -9.725  1.00  0.00    -0.234 OA
HETATM   24  C21 UNL     1     -13.814  -2.729  -8.197  1.00  0.00     0.168 C 
ENDROOT
BRANCH  24  25
HETATM   25  O6  UNL     1     -12.519  -2.935  -7.710  1.00  0.00    -0.391 OA
ATOM     26  H6  UNL     1     -12.303  -2.336  -7.005  1.00  0.00     0.210 HD
ENDBRANCH  24  25
BRANCH  12  27
HETATM   27  O2  UNL     1     -10.405  -4.601 -11.445  1.00  0.00    -0.389 OA
ATOM     28  H2  UNL     1      -9.583  -5.076 -11.487  1.00  0.00     0.210 HD
ENDBRANCH  12  27
BRANCH  17  29
HETATM   29  O3  UNL     1     -12.244   2.054  -9.389  1.00  0.00    -0.396 OA
ATOM     30  H3  UNL     1     -12.152   2.443  -8.527  1.00  0.00     0.210 HD
ENDBRANCH  17  29
TORSDOF 3
ENDMDL
MODEL 5
REMARK VINA RESULT: -7.665668613      2.990      5.730
REMARK  3 active torsions:
REMARK  status: ('A' for Active; 'I' for Inactive)
REMARK    1  A    between atoms: C11_12  and  O2_14 
REMARK    2  A    between atoms: C16_19  and  O3_20 
REMARK    3  A    between atoms: C21_28  and  O6_29 
ROOT
HETATM    1  C1  UNL     1     -15.350  -3.403 -12.899  1.00  0.00     0.013 C 
HETATM    2  C2  UNL     1     -15.549  -3.352 -11.399  1.00  0.00     0.016 C 
HETATM    3  C3  UNL     1     -16.031  -1.955 -11.068  1.00  0.00     0.010 C 
HETATM    4  C4  UNL     1     -15.817  -1.767  -9.594  1.00  0.00     0.038 C 
HETATM    5  C5  UNL     1     -14.325  -1.635  -9.351  1.00  0.00     0.064 C 
HETATM    6  C6  UNL     1     -13.995  -0.195  -9.776  1.00  0.00     0.046 C 
HETATM    7  O1  UNL     1     -14.104  -1.803  -7.986  1.00  0.00    -0.379 OA
HETATM    8  C7  UNL     1     -12.794  -1.437  -7.747  1.00  0.00     0.183 C 
HETATM    9  C8  UNL     1     -11.813  -2.561  -8.158  1.00  0.00     0.040 C 
HETATM   10  C9  UNL     1     -12.391  -3.270  -9.330  1.00  0.00     0.027 C 
HETATM   11  C10 UNL     1     -13.511  -2.650 -10.069  1.00  0.00     0.055 C 
HETATM   12  C11 UNL     1     -14.371  -3.798 -10.627  1.00  0.00     0.064 C 
HETATM   13  C12 UNL     1     -14.790  -4.763  -9.572  1.00  0.00     0.046 C 
HETATM   14  C13 UNL     1     -10.549  -1.845  -8.481  1.00  0.00     0.173 C 
HETATM   15  C14 UNL     1      -9.532  -2.447  -9.315  1.00  0.00     0.038 C 
HETATM   16  C15 UNL     1      -9.005  -3.795  -9.149  1.00  0.00     0.034 C 
HETATM   17  C16 UNL     1      -8.074  -4.023  -7.975  1.00  0.00     0.118 C 
HETATM   18  C17 UNL     1      -8.658  -4.936  -6.953  1.00  0.00     0.035 C 
HETATM   19  C18 UNL     1      -9.610  -4.501  -5.965  1.00  0.00     0.046 C 
HETATM   20  C19 UNL     1     -10.433  -3.265  -6.147  1.00  0.00     0.119 C 
HETATM   21  C20 UNL     1     -10.745  -2.775  -4.704  1.00  0.00     0.052 C 
HETATM   22  O4  UNL     1      -9.597  -2.268  -6.587  1.00  0.00    -0.227 OA
HETATM   23  O5  UNL     1     -10.083  -1.310  -7.252  1.00  0.00    -0.234 OA
HETATM   24  C21 UNL     1     -11.705  -3.434  -6.902  1.00  0.00     0.168 C 
ENDROOT
BRANCH  24  25
HETATM   25  O6  UNL     1     -12.066  -4.763  -7.152  1.00  0.00    -0.391 OA
ATOM     26  H6  UNL     1     -11.634  -5.367  -6.559  1.00  0.00     0.210 HD
ENDBRANCH  24  25
BRANCH  12  27
HETATM   27  O2  UNL     1     -13.519  -4.499 -11.513  1.00  0.00    -0.389 OA
ATOM     28  H2  UNL     1     -14.050  -5.136 -11.976  1.00  0.00     0.210 HD
ENDBRANCH  12  27
BRANCH  17  29
HETATM   29  O3  UNL     1      -6.974  -4.763  -8.515  1.00  0.00    -0.396 OA
ATOM     30  H3  UNL     1      -6.274  -4.128  -8.609  1.00  0.00     0.210 HD
ENDBRANCH  17  29
TORSDOF 3
ENDMDL
