MODEL 1
REMARK VINA RESULT: -6.627803135      0.000      0.000
REMARK  5 active torsions:
REMARK  status: ('A' for Active; 'I' for Inactive)
REMARK    1  A    between atoms: C2_2  and  C4_4 
REMARK    2  A    between atoms: C7_9  and  N2_10 
REMARK    3  A    between atoms: C11_15  and  N3_16 
REMARK    4  A    between atoms: C13_24  and  N5_25 
REMARK    5  A    between atoms: C14_27  and  C15_28 
ROOT
HETATM    1  C4  UNL     1     -29.288  -4.256  -5.288  1.00  0.00     0.013 A 
HETATM    2  C5  UNL     1     -28.969  -4.937  -6.434  1.00  0.00     0.130 A 
HETATM    3  C6  UNL     1     -29.174  -6.337  -6.717  1.00  0.00     0.143 A 
HETATM    4  N1  UNL     1     -29.699  -7.161  -5.829  1.00  0.00    -0.325 N 
ATOM      5  H1  UNL     1     -29.969  -6.781  -4.922  1.00  0.00     0.169 HD
HETATM    6  C7  UNL     1     -29.900  -8.482  -6.051  1.00  0.00     0.125 A 
HETATM    7  C10 UNL     1     -29.545  -9.015  -7.262  1.00  0.00     0.098 A 
HETATM    8 BR1  UNL     1     -29.807 -10.868  -7.626  1.00  0.00    -0.043 Br
HETATM    9  C11 UNL     1     -28.988  -8.164  -8.215  1.00  0.00     0.121 A 
HETATM   10  N4  UNL     1     -28.826  -6.885  -7.919  1.00  0.00    -0.325 N 
ATOM     11  H4  UNL     1     -28.418  -6.274  -8.627  1.00  0.00     0.169 HD
HETATM   12  O1  UNL     1     -28.409  -4.048  -7.275  1.00  0.00    -0.292 OA
HETATM   13  C12 UNL     1     -28.359  -2.869  -6.735  1.00  0.00     0.172 A 
HETATM   14 CL1  UNL     1     -27.702  -1.414  -7.492  1.00  0.00    -0.054 Cl
HETATM   15  C13 UNL     1     -28.908  -2.933  -5.457  1.00  0.00     0.087 A 
ENDROOT
BRANCH   1  16
HETATM   16  C2  UNL     1     -29.941  -4.769  -4.088  1.00  0.00     0.016 C 
HETATM   17  C1  UNL     1     -29.382  -4.192  -2.784  1.00  0.00     0.015 C 
HETATM   18  C3  UNL     1     -31.424  -4.480  -4.047  1.00  0.00     0.015 C 
ENDBRANCH   1  16
BRANCH  15  19
HETATM   19  N5  UNL     1     -29.014  -1.839  -4.607  1.00  0.00    -0.360 N 
HETATM   20  C14 UNL     1     -28.116  -1.114  -4.112  1.00  0.00     0.138 C 
ATOM     21  H5  UNL     1     -29.967  -1.586  -4.344  1.00  0.00     0.165 HD
BRANCH  20  22
HETATM   22  C15 UNL     1     -28.470   0.009  -3.223  1.00  0.00     0.272 C 
HETATM   23  C16 UNL     1     -29.955   0.303  -3.312  1.00  0.00     0.096 C 
HETATM   24  F1  UNL     1     -27.730   1.115  -3.651  1.00  0.00    -0.201 F 
HETATM   25  F2  UNL     1     -28.079  -0.258  -1.940  1.00  0.00    -0.201 F 
ENDBRANCH  20  22
ENDBRANCH  15  19
BRANCH   6  26
HETATM   26  N2  UNL     1     -30.468  -9.338  -5.073  1.00  0.00    -0.375 N 
HETATM   27  C8  UNL     1     -31.884  -9.622  -5.112  1.00  0.00     0.150 C 
HETATM   28  C9  UNL     1     -29.663  -9.946  -4.026  1.00  0.00     0.150 C 
ENDBRANCH   6  26
BRANCH   9  29
HETATM   29  N3  UNL     1     -28.670  -8.704  -9.339  1.00  0.00    -0.384 N 
ATOM     30  H32 UNL     1     -29.044  -9.586  -9.689  1.00  0.00     0.157 HD
ATOM     31  H31 UNL     1     -27.991  -8.196  -9.905  1.00  0.00     0.157 HD
ENDBRANCH   9  29
TORSDOF 5
ENDMDL
MODEL 2
REMARK VINA RESULT: -6.374798367     14.292     16.446
REMARK  5 active torsions:
REMARK  status: ('A' for Active; 'I' for Inactive)
REMARK    1  A    between atoms: C2_2  and  C4_4 
REMARK    2  A    between atoms: C7_9  and  N2_10 
REMARK    3  A    between atoms: C11_15  and  N3_16 
REMARK    4  A    between atoms: C13_24  and  N5_25 
REMARK    5  A    between atoms: C14_27  and  C15_28 
ROOT
HETATM    1  C4  UNL     1     -19.361   1.021 -13.898  1.00  0.00     0.013 A 
HETATM    2  C5  UNL     1     -18.853   2.097 -14.581  1.00  0.00     0.130 A 
HETATM    3  C6  UNL     1     -17.495   2.304 -15.020  1.00  0.00     0.143 A 
HETATM    4  N1  UNL     1     -16.535   1.434 -14.764  1.00  0.00    -0.325 N 
ATOM      5  H1  UNL     1     -16.779   0.590 -14.244  1.00  0.00     0.169 HD
HETATM    6  C7  UNL     1     -15.247   1.595 -15.149  1.00  0.00     0.125 A 
HETATM    7  C10 UNL     1     -14.897   2.721 -15.847  1.00  0.00     0.098 A 
HETATM    8 BR1  UNL     1     -13.097   2.997 -16.414  1.00  0.00    -0.043 Br
HETATM    9  C11 UNL     1     -15.894   3.654 -16.129  1.00  0.00     0.121 A 
HETATM   10  N4  UNL     1     -17.129   3.421 -15.717  1.00  0.00    -0.325 N 
ATOM     11  H4  UNL     1     -17.847   4.112 -15.931  1.00  0.00     0.169 HD
HETATM   12  O1  UNL     1     -19.873   2.953 -14.775  1.00  0.00    -0.292 OA
HETATM   13  C12 UNL     1     -20.971   2.489 -14.264  1.00  0.00     0.172 A 
HETATM   14 CL1  UNL     1     -22.544   3.292 -14.294  1.00  0.00    -0.054 Cl
HETATM   15  C13 UNL     1     -20.712   1.249 -13.684  1.00  0.00     0.087 A 
ENDROOT
BRANCH   1  16
HETATM   16  C2  UNL     1     -18.662  -0.188 -13.475  1.00  0.00     0.016 C 
HETATM   17  C1  UNL     1     -18.391  -1.177 -14.613  1.00  0.00     0.015 C 
HETATM   18  C3  UNL     1     -17.309   0.090 -12.860  1.00  0.00     0.015 C 
ENDBRANCH   1  16
BRANCH  15  19
HETATM   19  N5  UNL     1     -21.677   0.476 -13.051  1.00  0.00    -0.360 N 
HETATM   20  C14 UNL     1     -22.532  -0.303 -13.541  1.00  0.00     0.138 C 
ATOM     21  H5  UNL     1     -21.695   0.553 -12.034  1.00  0.00     0.165 HD
BRANCH  20  22
HETATM   22  C15 UNL     1     -23.468  -1.029 -12.660  1.00  0.00     0.272 C 
HETATM   23  C16 UNL     1     -22.705  -1.925 -11.705  1.00  0.00     0.096 C 
HETATM   24  F1  UNL     1     -24.292  -1.796 -13.490  1.00  0.00    -0.201 F 
HETATM   25  F2  UNL     1     -24.279  -0.149 -11.999  1.00  0.00    -0.201 F 
ENDBRANCH  20  22
ENDBRANCH  15  19
BRANCH   6  26
HETATM   26  N2  UNL     1     -14.242   0.639 -14.857  1.00  0.00    -0.375 N 
HETATM   27  C8  UNL     1     -13.704   0.558 -13.518  1.00  0.00     0.150 C 
HETATM   28  C9  UNL     1     -13.731  -0.271 -15.869  1.00  0.00     0.150 C 
ENDBRANCH   6  26
BRANCH   9  29
HETATM   29  N3  UNL     1     -15.523   4.696 -16.788  1.00  0.00    -0.384 N 
ATOM     30  H32 UNL     1     -15.893   5.636 -16.649  1.00  0.00     0.157 HD
ATOM     31  H31 UNL     1     -14.805   4.546 -17.497  1.00  0.00     0.157 HD
ENDBRANCH   9  29
TORSDOF 5
ENDMDL
MODEL 3
REMARK VINA RESULT: -6.039218290     13.544     15.705
REMARK  5 active torsions:
REMARK  status: ('A' for Active; 'I' for Inactive)
REMARK    1  A    between atoms: C2_2  and  C4_4 
REMARK    2  A    between atoms: C7_9  and  N2_10 
REMARK    3  A    between atoms: C11_15  and  N3_16 
REMARK    4  A    between atoms: C13_24  and  N5_25 
REMARK    5  A    between atoms: C14_27  and  C15_28 
ROOT
HETATM    1  C4  UNL     1     -20.255   0.872 -13.896  1.00  0.00     0.013 A 
HETATM    2  C5  UNL     1     -19.618   1.950 -14.456  1.00  0.00     0.130 A 
HETATM    3  C6  UNL     1     -18.214   2.091 -14.755  1.00  0.00     0.143 A 
HETATM    4  N1  UNL     1     -17.339   1.143 -14.472  1.00  0.00    -0.325 N 
ATOM      5  H1  UNL     1     -17.683   0.288 -14.035  1.00  0.00     0.169 HD
HETATM    6  C7  UNL     1     -16.013   1.239 -14.727  1.00  0.00     0.125 A 
HETATM    7  C10 UNL     1     -15.529   2.379 -15.312  1.00  0.00     0.098 A 
HETATM    8 BR1  UNL     1     -13.670   2.566 -15.693  1.00  0.00    -0.043 Br
HETATM    9  C11 UNL     1     -16.434   3.394 -15.620  1.00  0.00     0.121 A 
HETATM   10  N4  UNL     1     -17.715   3.221 -15.338  1.00  0.00    -0.325 N 
ATOM     11  H4  UNL     1     -18.365   3.971 -15.569  1.00  0.00     0.169 HD
HETATM   12  O1  UNL     1     -20.560   2.885 -14.683  1.00  0.00    -0.292 OA
HETATM   13  C12 UNL     1     -21.728   2.466 -14.306  1.00  0.00     0.172 A 
HETATM   14 CL1  UNL     1     -23.239   3.375 -14.424  1.00  0.00    -0.054 Cl
HETATM   15  C13 UNL     1     -21.603   1.178 -13.791  1.00  0.00     0.087 A 
ENDROOT
BRANCH   1  16
HETATM   16  C2  UNL     1     -19.676  -0.406 -13.494  1.00  0.00     0.016 C 
HETATM   17  C1  UNL     1     -20.579  -1.234 -12.576  1.00  0.00     0.015 C 
HETATM   18  C3  UNL     1     -19.361  -1.311 -14.663  1.00  0.00     0.015 C 
ENDBRANCH   1  16
BRANCH  15  19
HETATM   19  N5  UNL     1     -22.671   0.435 -13.302  1.00  0.00    -0.360 N 
HETATM   20  C14 UNL     1     -23.496  -0.286 -13.915  1.00  0.00     0.138 C 
ATOM     21  H5  UNL     1     -22.804   0.482 -12.292  1.00  0.00     0.165 HD
BRANCH  20  22
HETATM   22  C15 UNL     1     -24.561  -0.991 -13.176  1.00  0.00     0.272 C 
HETATM   23  C16 UNL     1     -24.025  -2.275 -12.575  1.00  0.00     0.096 C 
HETATM   24  F1  UNL     1     -25.575  -1.273 -14.096  1.00  0.00    -0.201 F 
HETATM   25  F2  UNL     1     -25.105  -0.171 -12.226  1.00  0.00    -0.201 F 
ENDBRANCH  20  22
ENDBRANCH  15  19
BRANCH   6  26
HETATM   26  N2  UNL     1     -15.101   0.200 -14.410  1.00  0.00    -0.375 N 
HETATM   27  C8  UNL     1     -15.180  -0.447 -13.120  1.00  0.00     0.150 C 
HETATM   28  C9  UNL     1     -14.083  -0.239 -15.350  1.00  0.00     0.150 C 
ENDBRANCH   6  26
BRANCH   9  29
HETATM   29  N3  UNL     1     -15.938   4.447 -16.170  1.00  0.00    -0.384 N 
ATOM     30  H32 UNL     1     -14.992   4.796 -16.014  1.00  0.00     0.157 HD
ATOM     31  H31 UNL     1     -16.555   4.955 -16.803  1.00  0.00     0.157 HD
ENDBRANCH   9  29
TORSDOF 5
ENDMDL
MODEL 4
REMARK VINA RESULT: -4.829602319      3.453      4.902
REMARK  5 active torsions:
REMARK  status: ('A' for Active; 'I' for Inactive)
REMARK    1  A    between atoms: C2_2  and  C4_4 
REMARK    2  A    between atoms: C7_9  and  N2_10 
REMARK    3  A    between atoms: C11_15  and  N3_16 
REMARK    4  A    between atoms: C13_24  and  N5_25 
REMARK    5  A    between atoms: C14_27  and  C15_28 
ROOT
HETATM    1  C4  UNL     1     -28.701  -5.384  -7.487  1.00  0.00     0.013 A 
HETATM    2  C5  UNL     1     -29.153  -5.368  -6.192  1.00  0.00     0.130 A 
HETATM    3  C6  UNL     1     -29.648  -6.478  -5.415  1.00  0.00     0.143 A 
HETATM    4  N1  UNL     1     -29.750  -7.695  -5.917  1.00  0.00    -0.325 N 
ATOM      5  H1  UNL     1     -29.458  -7.841  -6.884  1.00  0.00     0.169 HD
HETATM    6  C7  UNL     1     -30.217  -8.761  -5.226  1.00  0.00     0.125 A 
HETATM    7  C10 UNL     1     -30.614  -8.588  -3.926  1.00  0.00     0.098 A 
HETATM    8 BR1  UNL     1     -31.280 -10.056  -2.907  1.00  0.00    -0.043 Br
HETATM    9  C11 UNL     1     -30.517  -7.311  -3.374  1.00  0.00     0.121 A 
HETATM   10  N4  UNL     1     -30.048  -6.323  -4.118  1.00  0.00    -0.325 N 
ATOM     11  H4  UNL     1     -29.982  -5.395  -3.701  1.00  0.00     0.169 HD
HETATM   12  O1  UNL     1     -29.055  -4.097  -5.760  1.00  0.00    -0.292 OA
HETATM   13  C12 UNL     1     -28.577  -3.328  -6.689  1.00  0.00     0.172 A 
HETATM   14 CL1  UNL     1     -28.286  -1.591  -6.542  1.00  0.00    -0.054 Cl
HETATM   15  C13 UNL     1     -28.327  -4.092  -7.826  1.00  0.00     0.087 A 
ENDROOT
BRANCH   1  16
HETATM   16  C2  UNL     1     -28.581  -6.528  -8.384  1.00  0.00     0.016 C 
HETATM   17  C1  UNL     1     -27.292  -7.334  -8.191  1.00  0.00     0.015 C 
HETATM   18  C3  UNL     1     -29.702  -7.529  -8.228  1.00  0.00     0.015 C 
ENDBRANCH   1  16
BRANCH  15  19
HETATM   19  N5  UNL     1     -27.805  -3.574  -9.005  1.00  0.00    -0.360 N 
HETATM   20  C14 UNL     1     -27.045  -2.591  -9.184  1.00  0.00     0.138 C 
ATOM     21  H5  UNL     1     -28.081  -4.067  -9.853  1.00  0.00     0.165 HD
BRANCH  20  22
HETATM   22  C15 UNL     1     -26.614  -2.222 -10.546  1.00  0.00     0.272 C 
HETATM   23  C16 UNL     1     -27.810  -1.830 -11.390  1.00  0.00     0.096 C 
HETATM   24  F1  UNL     1     -25.985  -3.346 -11.090  1.00  0.00    -0.201 F 
HETATM   25  F2  UNL     1     -25.676  -1.228 -10.496  1.00  0.00    -0.201 F 
ENDBRANCH  20  22
ENDBRANCH  15  19
BRANCH   6  26
HETATM   26  N2  UNL     1     -30.311 -10.055  -5.797  1.00  0.00    -0.375 N 
HETATM   27  C8  UNL     1     -29.122 -10.868  -5.919  1.00  0.00     0.150 C 
HETATM   28  C9  UNL     1     -31.576 -10.595  -6.267  1.00  0.00     0.150 C 
ENDBRANCH   6  26
BRANCH   9  29
HETATM   29  N3  UNL     1     -30.899  -7.193  -2.150  1.00  0.00    -0.384 N 
ATOM     30  H32 UNL     1     -30.337  -6.791  -1.400  1.00  0.00     0.157 HD
ATOM     31  H31 UNL     1     -31.836  -7.535  -1.939  1.00  0.00     0.157 HD
ENDBRANCH   9  29
TORSDOF 5
ENDMDL
MODEL 5
REMARK VINA RESULT: -4.649320900     13.631     15.578
REMARK  5 active torsions:
REMARK  status: ('A' for Active; 'I' for Inactive)
REMARK    1  A    between atoms: C2_2  and  C4_4 
REMARK    2  A    between atoms: C7_9  and  N2_10 
REMARK    3  A    between atoms: C11_15  and  N3_16 
REMARK    4  A    between atoms: C13_24  and  N5_25 
REMARK    5  A    between atoms: C14_27  and  C15_28 
ROOT
HETATM    1  C4  UNL     1     -18.041   0.792 -14.209  1.00  0.00     0.013 A 
HETATM    2  C5  UNL     1     -19.192   1.537 -14.267  1.00  0.00     0.130 A 
HETATM    3  C6  UNL     1     -20.507   1.169 -13.803  1.00  0.00     0.143 A 
HETATM    4  N1  UNL     1     -20.757  -0.012 -13.268  1.00  0.00    -0.325 N 
ATOM      5  H1  UNL     1     -19.984  -0.672 -13.180  1.00  0.00     0.169 HD
HETATM    6  C7  UNL     1     -21.978  -0.400 -12.830  1.00  0.00     0.125 A 
HETATM    7  C10 UNL     1     -23.031   0.470 -12.938  1.00  0.00     0.098 A 
HETATM    8 BR1  UNL     1     -24.771  -0.026 -12.336  1.00  0.00    -0.043 Br
HETATM    9  C11 UNL     1     -22.792   1.723 -13.500  1.00  0.00     0.121 A 
HETATM   10  N4  UNL     1     -21.568   2.024 -13.904  1.00  0.00    -0.325 N 
ATOM     11  H4  UNL     1     -21.408   2.945 -14.312  1.00  0.00     0.169 HD
HETATM   12  O1  UNL     1     -18.872   2.706 -14.852  1.00  0.00    -0.292 OA
HETATM   13  C12 UNL     1     -17.612   2.739 -15.160  1.00  0.00     0.172 A 
HETATM   14 CL1  UNL     1     -16.776   4.085 -15.942  1.00  0.00    -0.054 Cl
HETATM   15  C13 UNL     1     -17.019   1.540 -14.773  1.00  0.00     0.087 A 
ENDROOT
BRANCH   1  16
HETATM   16  C2  UNL     1     -17.859  -0.538 -13.638  1.00  0.00     0.016 C 
HETATM   17  C1  UNL     1     -18.385  -1.670 -14.526  1.00  0.00     0.015 C 
HETATM   18  C3  UNL     1     -16.410  -0.880 -13.375  1.00  0.00     0.015 C 
ENDBRANCH   1  16
BRANCH  15  19
HETATM   19  N5  UNL     1     -15.672   1.251 -14.954  1.00  0.00    -0.360 N 
HETATM   20  C14 UNL     1     -15.020   1.086 -16.014  1.00  0.00     0.138 C 
ATOM     21  H5  UNL     1     -15.130   1.159 -14.095  1.00  0.00     0.165 HD
BRANCH  20  22
HETATM   22  C15 UNL     1     -13.576   0.783 -15.961  1.00  0.00     0.272 C 
HETATM   23  C16 UNL     1     -13.173  -0.074 -17.144  1.00  0.00     0.096 C 
HETATM   24  F1  UNL     1     -13.351   0.094 -14.765  1.00  0.00    -0.201 F 
HETATM   25  F2  UNL     1     -12.850   1.939 -15.896  1.00  0.00    -0.201 F 
ENDBRANCH  20  22
ENDBRANCH  15  19
BRANCH   6  26
HETATM   26  N2  UNL     1     -22.209  -1.677 -12.259  1.00  0.00    -0.375 N 
HETATM   27  C8  UNL     1     -21.836  -2.864 -12.995  1.00  0.00     0.150 C 
HETATM   28  C9  UNL     1     -22.814  -1.832 -10.946  1.00  0.00     0.150 C 
ENDBRANCH   6  26
BRANCH   9  29
HETATM   29  N3  UNL     1     -23.808   2.509 -13.583  1.00  0.00    -0.384 N 
ATOM     30  H32 UNL     1     -24.053   3.218 -12.892  1.00  0.00     0.157 HD
ATOM     31  H31 UNL     1     -24.397   2.395 -14.407  1.00  0.00     0.157 HD
ENDBRANCH   9  29
TORSDOF 5
ENDMDL
