MODEL 1
REMARK VINA RESULT: -9.405997970      0.000      0.000
REMARK  5 active torsions:
REMARK  status: ('A' for Active; 'I' for Inactive)
REMARK    1  A    between atoms: C3_5  and  N2_6 
REMARK    2  A    between atoms: C4_10  and  C5_11 
REMARK    3  A    between atoms: C6_16  and  S2_17 
REMARK    4  A    between atoms: S2_17  and  C7_18 
REMARK    5  A    between atoms: C7_18  and  C8_19 
ROOT
HETATM    1  C5  UNL     1     -28.870  -4.602  -6.527  1.00  0.00     0.089 A 
HETATM    2  N3  UNL     1     -28.364  -5.090  -7.714  1.00  0.00    -0.297 N 
ATOM      3  H3  UNL     1     -28.405  -6.097  -7.879  1.00  0.00     0.187 HD
HETATM    4  N4  UNL     1     -27.836  -4.336  -8.637  1.00  0.00    -0.294 N 
ATOM      5  H4  UNL     1     -27.483  -4.770  -9.490  1.00  0.00     0.187 HD
HETATM    6  C6  UNL     1     -27.742  -3.005  -8.499  1.00  0.00     0.086 A 
HETATM    7  C15 UNL     1     -28.237  -2.478  -7.331  1.00  0.00     0.064 A 
HETATM    8  C16 UNL     1     -28.813  -3.273  -6.322  1.00  0.00     0.066 A 
HETATM    9 CL3  UNL     1     -29.542  -2.438  -4.937  1.00  0.00    -0.082 Cl
ENDROOT
BRANCH   6  10
HETATM   10  S2  UNL     1     -27.016  -1.963  -9.759  1.00  0.00    -0.106 SA
BRANCH  10  11
HETATM   11  C7  UNL     1     -26.191  -3.006 -10.993  1.00  0.00     0.124 C 
BRANCH  11  12
HETATM   12  C8  UNL     1     -25.216  -2.217 -11.795  1.00  0.00     0.012 A 
HETATM   13  C9  UNL     1     -25.595  -1.613 -12.974  1.00  0.00     0.045 A 
HETATM   14 CL1  UNL     1     -27.251  -1.804 -13.496  1.00  0.00    -0.084 Cl
HETATM   15  C10 UNL     1     -24.723  -0.875 -13.745  1.00  0.00     0.049 A 
HETATM   16  C11 UNL     1     -23.413  -0.718 -13.342  1.00  0.00     0.044 A 
HETATM   17 CL2  UNL     1     -22.290   0.228 -14.326  1.00  0.00    -0.084 Cl
HETATM   18  C12 UNL     1     -23.005  -1.312 -12.165  1.00  0.00    -0.001 A 
HETATM   19  C13 UNL     1     -21.589  -1.124 -11.759  1.00  0.00     0.053 C 
HETATM   20  C14 UNL     1     -23.902  -2.051 -11.405  1.00  0.00     0.132 A 
HETATM   21  F1  UNL     1     -23.461  -2.614 -10.260  1.00  0.00    -0.205 F 
ENDBRANCH  11  12
ENDBRANCH  10  11
ENDBRANCH   6  10
BRANCH   1  22
HETATM   22  C4  UNL     1     -29.303  -5.621  -5.570  1.00  0.00     0.060 A 
HETATM   23  C2  UNL     1     -29.010  -5.936  -4.288  1.00  0.00     0.027 A 
HETATM   24  C1  UNL     1     -27.980  -5.136  -3.479  1.00  0.00     0.070 C 
HETATM   25  N1  UNL     1     -29.555  -7.021  -3.761  1.00  0.00    -0.340 N 
HETATM   26  C3  UNL     1     -30.362  -7.760  -4.509  1.00  0.00     0.143 A 
ATOM     27  H1  UNL     1     -29.357  -7.284  -2.796  1.00  0.00     0.168 HD
HETATM   28  S1  UNL     1     -30.383  -6.946  -5.988  1.00  0.00    -0.050 SA
BRANCH  26  29
HETATM   29  N2  UNL     1     -30.985  -8.870  -4.142  1.00  0.00    -0.380 N 
ATOM     30  H22 UNL     1     -30.726  -9.564  -3.441  1.00  0.00     0.158 HD
ATOM     31  H21 UNL     1     -31.864  -9.227  -4.516  1.00  0.00     0.158 HD
ENDBRANCH  26  29
ENDBRANCH   1  22
TORSDOF 5
ENDMDL
MODEL 2
REMARK VINA RESULT: -9.346434254      0.966      1.364
REMARK  5 active torsions:
REMARK  status: ('A' for Active; 'I' for Inactive)
REMARK    1  A    between atoms: C3_5  and  N2_6 
REMARK    2  A    between atoms: C4_10  and  C5_11 
REMARK    3  A    between atoms: C6_16  and  S2_17 
REMARK    4  A    between atoms: S2_17  and  C7_18 
REMARK    5  A    between atoms: C7_18  and  C8_19 
ROOT
HETATM    1  C5  UNL     1     -28.673  -4.629  -6.736  1.00  0.00     0.089 A 
HETATM    2  N3  UNL     1     -28.107  -5.109  -7.899  1.00  0.00    -0.297 N 
ATOM      3  H3  UNL     1     -28.068  -6.119  -8.036  1.00  0.00     0.187 HD
HETATM    4  N4  UNL     1     -27.619  -4.341  -8.833  1.00  0.00    -0.294 N 
ATOM      5  H4  UNL     1     -27.217  -4.770  -9.666  1.00  0.00     0.187 HD
HETATM    6  C6  UNL     1     -27.629  -3.004  -8.731  1.00  0.00     0.086 A 
HETATM    7  C15 UNL     1     -28.187  -2.485  -7.588  1.00  0.00     0.064 A 
HETATM    8  C16 UNL     1     -28.721  -3.294  -6.568  1.00  0.00     0.066 A 
HETATM    9 CL3  UNL     1     -29.541  -2.480  -5.221  1.00  0.00    -0.082 Cl
ENDROOT
BRANCH   6  10
HETATM   10  S2  UNL     1     -26.959  -1.944 -10.007  1.00  0.00    -0.106 SA
BRANCH  10  11
HETATM   11  C7  UNL     1     -26.050  -2.956 -11.208  1.00  0.00     0.124 C 
BRANCH  11  12
HETATM   12  C8  UNL     1     -25.051  -2.139 -11.949  1.00  0.00     0.012 A 
HETATM   13  C9  UNL     1     -25.390  -1.502 -13.122  1.00  0.00     0.045 A 
HETATM   14 CL1  UNL     1     -27.025  -1.682 -13.710  1.00  0.00    -0.084 Cl
HETATM   15  C10 UNL     1     -24.494  -0.736 -13.838  1.00  0.00     0.049 A 
HETATM   16  C11 UNL     1     -23.200  -0.587 -13.383  1.00  0.00     0.044 A 
HETATM   17 CL2  UNL     1     -22.047   0.393 -14.296  1.00  0.00    -0.084 Cl
HETATM   18  C12 UNL     1     -22.833  -1.216 -12.210  1.00  0.00    -0.001 A 
HETATM   19  C13 UNL     1     -21.433  -1.034 -11.748  1.00  0.00     0.053 C 
HETATM   20  C14 UNL     1     -23.753  -1.981 -11.507  1.00  0.00     0.132 A 
HETATM   21  F1  UNL     1     -23.350  -2.577 -10.364  1.00  0.00    -0.205 F 
ENDBRANCH  11  12
ENDBRANCH  10  11
ENDBRANCH   6  10
BRANCH   1  22
HETATM   22  C4  UNL     1     -29.047  -5.651  -5.758  1.00  0.00     0.060 A 
HETATM   23  C2  UNL     1     -29.821  -6.760  -5.761  1.00  0.00     0.027 A 
HETATM   24  C1  UNL     1     -30.579  -7.209  -7.017  1.00  0.00     0.070 C 
HETATM   25  N1  UNL     1     -30.000  -7.410  -4.622  1.00  0.00    -0.340 N 
HETATM   26  C3  UNL     1     -29.422  -6.949  -3.523  1.00  0.00     0.143 A 
ATOM     27  H1  UNL     1     -30.574  -8.253  -4.591  1.00  0.00     0.168 HD
HETATM   28  S1  UNL     1     -28.598  -5.577  -4.058  1.00  0.00    -0.050 SA
BRANCH  26  29
HETATM   29  N2  UNL     1     -29.498  -7.473  -2.308  1.00  0.00    -0.380 N 
ATOM     30  H22 UNL     1     -29.720  -7.029  -1.418  1.00  0.00     0.158 HD
ATOM     31  H21 UNL     1     -29.340  -8.448  -2.054  1.00  0.00     0.158 HD
ENDBRANCH  26  29
ENDBRANCH   1  22
TORSDOF 5
ENDMDL
MODEL 3
REMARK VINA RESULT: -8.889626266      3.725      9.897
REMARK  5 active torsions:
REMARK  status: ('A' for Active; 'I' for Inactive)
REMARK    1  A    between atoms: C3_5  and  N2_6 
REMARK    2  A    between atoms: C4_10  and  C5_11 
REMARK    3  A    between atoms: C6_16  and  S2_17 
REMARK    4  A    between atoms: S2_17  and  C7_18 
REMARK    5  A    between atoms: C7_18  and  C8_19 
ROOT
HETATM    1  C5  UNL     1     -24.887  -1.036 -12.067  1.00  0.00     0.089 A 
HETATM    2  N3  UNL     1     -24.861  -1.072 -10.688  1.00  0.00    -0.297 N 
ATOM      3  H3  UNL     1     -24.036  -0.707 -10.211  1.00  0.00     0.187 HD
HETATM    4  N4  UNL     1     -25.834  -1.545  -9.962  1.00  0.00    -0.294 N 
ATOM      5  H4  UNL     1     -25.742  -1.537  -8.946  1.00  0.00     0.187 HD
HETATM    6  C6  UNL     1     -26.953  -2.044 -10.509  1.00  0.00     0.086 A 
HETATM    7  C15 UNL     1     -27.020  -2.025 -11.881  1.00  0.00     0.064 A 
HETATM    8  C16 UNL     1     -25.982  -1.516 -12.685  1.00  0.00     0.066 A 
HETATM    9 CL3  UNL     1     -26.273  -1.421 -14.433  1.00  0.00    -0.082 Cl
ENDROOT
BRANCH   6  10
HETATM   10  S2  UNL     1     -28.291  -2.699  -9.518  1.00  0.00    -0.106 SA
BRANCH  10  11
HETATM   11  C7  UNL     1     -27.779  -2.743  -7.778  1.00  0.00     0.124 C 
BRANCH  11  12
HETATM   12  C8  UNL     1     -28.673  -3.625  -6.979  1.00  0.00     0.012 A 
HETATM   13  C9  UNL     1     -29.440  -3.113  -5.956  1.00  0.00     0.045 A 
HETATM   14 CL1  UNL     1     -29.330  -1.401  -5.626  1.00  0.00    -0.084 Cl
HETATM   15  C10 UNL     1     -30.280  -3.897  -5.193  1.00  0.00     0.049 A 
HETATM   16  C11 UNL     1     -30.375  -5.250  -5.445  1.00  0.00     0.044 A 
HETATM   17 CL2  UNL     1     -31.450  -6.260  -4.470  1.00  0.00    -0.084 Cl
HETATM   18  C12 UNL     1     -29.617  -5.789  -6.464  1.00  0.00    -0.001 A 
HETATM   19  C13 UNL     1     -29.742  -7.249  -6.709  1.00  0.00     0.053 C 
HETATM   20  C14 UNL     1     -28.778  -4.980  -7.219  1.00  0.00     0.132 A 
HETATM   21  F1  UNL     1     -28.056  -5.550  -8.207  1.00  0.00    -0.205 F 
ENDBRANCH  11  12
ENDBRANCH  10  11
ENDBRANCH   6  10
BRANCH   1  22
HETATM   22  C4  UNL     1     -23.648  -0.584 -12.701  1.00  0.00     0.060 A 
HETATM   23  C2  UNL     1     -22.406  -1.089 -12.875  1.00  0.00     0.027 A 
HETATM   24  C1  UNL     1     -22.016  -2.470 -12.331  1.00  0.00     0.070 C 
HETATM   25  N1  UNL     1     -21.485  -0.326 -13.442  1.00  0.00    -0.340 N 
HETATM   26  C3  UNL     1     -21.811   0.903 -13.812  1.00  0.00     0.143 A 
ATOM     27  H1  UNL     1     -20.540  -0.679 -13.592  1.00  0.00     0.168 HD
HETATM   28  S1  UNL     1     -23.437   1.028 -13.374  1.00  0.00    -0.050 SA
BRANCH  26  29
HETATM   29  N2  UNL     1     -21.017   1.794 -14.388  1.00  0.00    -0.380 N 
ATOM     30  H22 UNL     1     -20.308   1.667 -15.110  1.00  0.00     0.158 HD
ATOM     31  H21 UNL     1     -20.983   2.795 -14.196  1.00  0.00     0.158 HD
ENDBRANCH  26  29
ENDBRANCH   1  22
TORSDOF 5
ENDMDL
MODEL 4
REMARK VINA RESULT: -8.714367647      3.755      9.779
REMARK  5 active torsions:
REMARK  status: ('A' for Active; 'I' for Inactive)
REMARK    1  A    between atoms: C3_5  and  N2_6 
REMARK    2  A    between atoms: C4_10  and  C5_11 
REMARK    3  A    between atoms: C6_16  and  S2_17 
REMARK    4  A    between atoms: S2_17  and  C7_18 
REMARK    5  A    between atoms: C7_18  and  C8_19 
ROOT
HETATM    1  C5  UNL     1     -24.924  -1.033 -12.034  1.00  0.00     0.089 A 
HETATM    2  N3  UNL     1     -24.886  -1.051 -10.655  1.00  0.00    -0.297 N 
ATOM      3  H3  UNL     1     -24.048  -0.700 -10.190  1.00  0.00     0.187 HD
HETATM    4  N4  UNL     1     -25.864  -1.491  -9.914  1.00  0.00    -0.294 N 
ATOM      5  H4  UNL     1     -25.763  -1.472  -8.899  1.00  0.00     0.187 HD
HETATM    6  C6  UNL     1     -26.999  -1.970 -10.445  1.00  0.00     0.086 A 
HETATM    7  C15 UNL     1     -27.078  -1.967 -11.816  1.00  0.00     0.064 A 
HETATM    8  C16 UNL     1     -26.035  -1.494 -12.637  1.00  0.00     0.066 A 
HETATM    9 CL3  UNL     1     -26.340  -1.414 -14.383  1.00  0.00    -0.082 Cl
ENDROOT
BRANCH   6  10
HETATM   10  S2  UNL     1     -28.344  -2.579  -9.434  1.00  0.00    -0.106 SA
BRANCH  10  11
HETATM   11  C7  UNL     1     -27.713  -3.851  -8.305  1.00  0.00     0.124 C 
BRANCH  11  12
HETATM   12  C8  UNL     1     -28.455  -3.838  -7.015  1.00  0.00     0.012 A 
HETATM   13  C9  UNL     1     -29.246  -4.903  -6.644  1.00  0.00     0.045 A 
HETATM   14 CL1  UNL     1     -29.349  -6.266  -7.733  1.00  0.00    -0.084 Cl
HETATM   15  C10 UNL     1     -29.949  -4.930  -5.458  1.00  0.00     0.049 A 
HETATM   16  C11 UNL     1     -29.875  -3.859  -4.591  1.00  0.00     0.044 A 
HETATM   17 CL2  UNL     1     -30.774  -3.887  -3.070  1.00  0.00    -0.084 Cl
HETATM   18  C12 UNL     1     -29.091  -2.778  -4.938  1.00  0.00    -0.001 A 
HETATM   19  C13 UNL     1     -29.032  -1.642  -3.982  1.00  0.00     0.053 C 
HETATM   20  C14 UNL     1     -28.391  -2.774  -6.137  1.00  0.00     0.132 A 
HETATM   21  F1  UNL     1     -27.636  -1.696  -6.435  1.00  0.00    -0.205 F 
ENDBRANCH  11  12
ENDBRANCH  10  11
ENDBRANCH   6  10
BRANCH   1  22
HETATM   22  C4  UNL     1     -23.680  -0.619 -12.685  1.00  0.00     0.060 A 
HETATM   23  C2  UNL     1     -22.448  -1.150 -12.850  1.00  0.00     0.027 A 
HETATM   24  C1  UNL     1     -22.079  -2.522 -12.271  1.00  0.00     0.070 C 
HETATM   25  N1  UNL     1     -21.516  -0.418 -13.441  1.00  0.00    -0.340 N 
HETATM   26  C3  UNL     1     -21.823   0.806 -13.842  1.00  0.00     0.143 A 
ATOM     27  H1  UNL     1     -20.578  -0.791 -13.585  1.00  0.00     0.168 HD
HETATM   28  S1  UNL     1     -23.444   0.971 -13.401  1.00  0.00    -0.050 SA
BRANCH  26  29
HETATM   29  N2  UNL     1     -21.015   1.668 -14.445  1.00  0.00    -0.380 N 
ATOM     30  H22 UNL     1     -20.838   1.812 -15.439  1.00  0.00     0.158 HD
ATOM     31  H21 UNL     1     -20.414   2.356 -13.994  1.00  0.00     0.158 HD
ENDBRANCH  26  29
ENDBRANCH   1  22
TORSDOF 5
ENDMDL
MODEL 5
REMARK VINA RESULT: -8.666080340      0.938      1.023
REMARK  5 active torsions:
REMARK  status: ('A' for Active; 'I' for Inactive)
REMARK    1  A    between atoms: C3_5  and  N2_6 
REMARK    2  A    between atoms: C4_10  and  C5_11 
REMARK    3  A    between atoms: C6_16  and  S2_17 
REMARK    4  A    between atoms: S2_17  and  C7_18 
REMARK    5  A    between atoms: C7_18  and  C8_19 
ROOT
HETATM    1  C5  UNL     1     -29.229  -4.660  -6.337  1.00  0.00     0.089 A 
HETATM    2  N3  UNL     1     -29.346  -4.873  -7.695  1.00  0.00    -0.297 N 
ATOM      3  H3  UNL     1     -29.910  -5.662  -8.013  1.00  0.00     0.187 HD
HETATM    4  N4  UNL     1     -28.774  -4.122  -8.594  1.00  0.00    -0.294 N 
ATOM      5  H4  UNL     1     -28.907  -4.343  -9.581  1.00  0.00     0.187 HD
HETATM    6  C6  UNL     1     -28.015  -3.067  -8.261  1.00  0.00     0.086 A 
HETATM    7  C15 UNL     1     -27.876  -2.818  -6.917  1.00  0.00     0.064 A 
HETATM    8  C16 UNL     1     -28.486  -3.615  -5.929  1.00  0.00     0.066 A 
HETATM    9 CL3  UNL     1     -28.337  -3.083  -4.243  1.00  0.00    -0.082 Cl
ENDROOT
BRANCH   6  10
HETATM   10  S2  UNL     1     -27.225  -2.034  -9.489  1.00  0.00    -0.106 SA
BRANCH  10  11
HETATM   11  C7  UNL     1     -26.446  -3.087 -10.744  1.00  0.00     0.124 C 
BRANCH  11  12
HETATM   12  C8  UNL     1     -25.514  -2.302 -11.599  1.00  0.00     0.012 A 
HETATM   13  C9  UNL     1     -25.947  -1.733 -12.777  1.00  0.00     0.045 A 
HETATM   14 CL1  UNL     1     -27.617  -1.964 -13.234  1.00  0.00    -0.084 Cl
HETATM   15  C10 UNL     1     -25.116  -0.999 -13.597  1.00  0.00     0.049 A 
HETATM   16  C11 UNL     1     -23.795  -0.811 -13.246  1.00  0.00     0.044 A 
HETATM   17 CL2  UNL     1     -22.725   0.129 -14.292  1.00  0.00    -0.084 Cl
HETATM   18  C12 UNL     1     -23.335  -1.370 -12.071  1.00  0.00    -0.001 A 
HETATM   19  C13 UNL     1     -21.909  -1.148 -11.722  1.00  0.00     0.053 C 
HETATM   20  C14 UNL     1     -24.191  -2.105 -11.261  1.00  0.00     0.132 A 
HETATM   21  F1  UNL     1     -23.698  -2.633 -10.121  1.00  0.00    -0.205 F 
ENDBRANCH  11  12
ENDBRANCH  10  11
ENDBRANCH   6  10
BRANCH   1  22
HETATM   22  C4  UNL     1     -29.841  -5.686  -5.491  1.00  0.00     0.060 A 
HETATM   23  C2  UNL     1     -30.749  -5.703  -4.490  1.00  0.00     0.027 A 
HETATM   24  C1  UNL     1     -31.404  -4.414  -3.975  1.00  0.00     0.070 C 
HETATM   25  N1  UNL     1     -30.998  -6.851  -3.880  1.00  0.00    -0.340 N 
HETATM   26  C3  UNL     1     -30.346  -7.937  -4.268  1.00  0.00     0.143 A 
ATOM     27  H1  UNL     1     -31.681  -6.899  -3.124  1.00  0.00     0.168 HD
HETATM   28  S1  UNL     1     -29.355  -7.377  -5.514  1.00  0.00    -0.050 SA
BRANCH  26  29
HETATM   29  N2  UNL     1     -30.472  -9.158  -3.767  1.00  0.00    -0.380 N 
ATOM     30  H22 UNL     1     -31.311  -9.665  -3.486  1.00  0.00     0.158 HD
ATOM     31  H21 UNL     1     -29.719  -9.817  -3.573  1.00  0.00     0.158 HD
ENDBRANCH  26  29
ENDBRANCH   1  22
TORSDOF 5
ENDMDL
