MODEL 1
REMARK VINA RESULT: -9.728939026      0.000      0.000
REMARK  6 active torsions:
REMARK  status: ('A' for Active; 'I' for Inactive)
REMARK    1  A    between atoms: C2_2  and  C3_3 
REMARK    2  A    between atoms: C3_3  and  N1_4 
REMARK    3  A    between atoms: C4_5  and  C5_6 
REMARK    4  A    between atoms: N2_7  and  O1_9 
REMARK    5  A    between atoms: N3_12  and  C7_13 
REMARK    6  A    between atoms: C7_13  and  C8_14 
ROOT
HETATM    1  N1  UNL     1       9.796  10.525   6.790  1.00  0.00    -0.330 N 
HETATM    2  C4  UNL     1       9.272  11.388   5.877  1.00  0.00     0.070 A 
HETATM    3  C6  UNL     1       7.952  11.794   5.998  1.00  0.00     0.141 A 
HETATM    4  N3  UNL     1       7.167  11.351   7.011  1.00  0.00    -0.296 N 
HETATM    5  N4  UNL     1       7.711  10.530   7.860  1.00  0.00    -0.287 N 
ATOM      6  H4  UNL     1       7.134  10.189   8.629  1.00  0.00     0.188 HD
HETATM    7  C14 UNL     1       8.984  10.100   7.792  1.00  0.00     0.095 A 
HETATM    8  C15 UNL     1       9.452   9.168   8.829  1.00  0.00     0.091 C 
ENDROOT
BRANCH   4   9
HETATM    9  C7  UNL     1       5.785  11.798   7.108  1.00  0.00     0.186 C 
BRANCH   9  10
HETATM   10  C8  UNL     1       4.897  10.787   7.691  1.00  0.00    -0.038 A 
HETATM   11  C9  UNL     1       4.885   9.461   7.324  1.00  0.00     0.009 A 
HETATM   12  C10 UNL     1       4.022   8.563   7.916  1.00  0.00     0.001 A 
HETATM   13  C11 UNL     1       3.149   8.962   8.888  1.00  0.00     0.000 A 
HETATM   14  C12 UNL     1       3.144  10.286   9.271  1.00  0.00     0.001 A 
HETATM   15  C13 UNL     1       4.012  11.176   8.673  1.00  0.00     0.009 A 
ENDBRANCH   9  10
ENDBRANCH   4   9
BRANCH   2  16
HETATM   16  C5  UNL     1      10.135  11.879   4.817  1.00  0.00     0.144 C 
HETATM   17  N2  UNL     1       9.835  12.622   3.862  1.00  0.00    -0.278 N 
ATOM     18  H2  UNL     1      10.639  12.812   3.265  1.00  0.00     0.193 HD
BRANCH  17  19
HETATM   19  O1  UNL     1       8.746  13.227   3.420  1.00  0.00    -0.290 OA
ATOM     20  H1  UNL     1       8.475  13.668   2.623  1.00  0.00     0.244 HD
ENDBRANCH  17  19
ENDBRANCH   2  16
BRANCH   1  21
HETATM   21  C3  UNL     1      11.135  10.029   6.721  1.00  0.00     0.157 C 
BRANCH  21  22
HETATM   22  C2  UNL     1      12.083  10.723   7.639  1.00  0.00    -0.017 C 
HETATM   23  C1  UNL     1      13.017  11.546   7.181  1.00  0.00     0.008 C 
ENDBRANCH  21  22
ENDBRANCH   1  21
TORSDOF 6
ENDMDL
MODEL 2
REMARK VINA RESULT: -9.680977149      0.078      1.055
REMARK  6 active torsions:
REMARK  status: ('A' for Active; 'I' for Inactive)
REMARK    1  A    between atoms: C2_2  and  C3_3 
REMARK    2  A    between atoms: C3_3  and  N1_4 
REMARK    3  A    between atoms: C4_5  and  C5_6 
REMARK    4  A    between atoms: N2_7  and  O1_9 
REMARK    5  A    between atoms: N3_12  and  C7_13 
REMARK    6  A    between atoms: C7_13  and  C8_14 
ROOT
HETATM    1  N1  UNL     1       9.746  10.539   6.802  1.00  0.00    -0.330 N 
HETATM    2  C4  UNL     1       9.238  11.409   5.886  1.00  0.00     0.070 A 
HETATM    3  C6  UNL     1       7.926  11.838   6.004  1.00  0.00     0.141 A 
HETATM    4  N3  UNL     1       7.131  11.411   7.017  1.00  0.00    -0.296 N 
HETATM    5  N4  UNL     1       7.660  10.582   7.868  1.00  0.00    -0.287 N 
ATOM      6  H4  UNL     1       7.075  10.253   8.637  1.00  0.00     0.188 HD
HETATM    7  C14 UNL     1       8.924  10.130   7.804  1.00  0.00     0.095 A 
HETATM    8  C15 UNL     1       9.374   9.192   8.844  1.00  0.00     0.091 C 
ENDROOT
BRANCH   4   9
HETATM    9  C7  UNL     1       5.757  11.883   7.111  1.00  0.00     0.186 C 
BRANCH   9  10
HETATM   10  C8  UNL     1       4.858  10.903   7.731  1.00  0.00    -0.038 A 
HETATM   11  C9  UNL     1       3.933  11.205   8.702  1.00  0.00     0.009 A 
HETATM   12  C10 UNL     1       3.119  10.231   9.241  1.00  0.00     0.001 A 
HETATM   13  C11 UNL     1       3.205   8.933   8.827  1.00  0.00     0.000 A 
HETATM   14  C12 UNL     1       4.126   8.608   7.854  1.00  0.00     0.001 A 
HETATM   15  C13 UNL     1       4.935   9.590   7.321  1.00  0.00     0.009 A 
ENDBRANCH   9  10
ENDBRANCH   4   9
BRANCH   2  16
HETATM   16  C5  UNL     1      10.112  11.883   4.827  1.00  0.00     0.144 C 
HETATM   17  N2  UNL     1       9.823  12.621   3.864  1.00  0.00    -0.278 N 
ATOM     18  H2  UNL     1      10.633  12.797   3.270  1.00  0.00     0.193 HD
BRANCH  17  19
HETATM   19  O1  UNL     1       8.743  13.233   3.412  1.00  0.00    -0.290 OA
ATOM     20  H1  UNL     1       8.060  13.786   3.772  1.00  0.00     0.244 HD
ENDBRANCH  17  19
ENDBRANCH   2  16
BRANCH   1  21
HETATM   21  C3  UNL     1      11.075  10.019   6.736  1.00  0.00     0.157 C 
BRANCH  21  22
HETATM   22  C2  UNL     1      12.032  10.691   7.662  1.00  0.00    -0.017 C 
HETATM   23  C1  UNL     1      12.966  11.519   7.215  1.00  0.00     0.008 C 
ENDBRANCH  21  22
ENDBRANCH   1  21
TORSDOF 6
ENDMDL
MODEL 3
REMARK VINA RESULT: -8.710050083      2.049      2.893
REMARK  6 active torsions:
REMARK  status: ('A' for Active; 'I' for Inactive)
REMARK    1  A    between atoms: C2_2  and  C3_3 
REMARK    2  A    between atoms: C3_3  and  N1_4 
REMARK    3  A    between atoms: C4_5  and  C5_6 
REMARK    4  A    between atoms: N2_7  and  O1_9 
REMARK    5  A    between atoms: N3_12  and  C7_13 
REMARK    6  A    between atoms: C7_13  and  C8_14 
ROOT
HETATM    1  N1  UNL     1       9.757  10.921   6.483  1.00  0.00    -0.330 N 
HETATM    2  C4  UNL     1       9.167  11.115   7.694  1.00  0.00     0.070 A 
HETATM    3  C6  UNL     1       7.826  11.462   7.754  1.00  0.00     0.141 A 
HETATM    4  N3  UNL     1       7.084  11.611   6.629  1.00  0.00    -0.296 N 
HETATM    5  N4  UNL     1       7.690  11.414   5.495  1.00  0.00    -0.287 N 
ATOM      6  H4  UNL     1       7.145  11.522   4.639  1.00  0.00     0.188 HD
HETATM    7  C14 UNL     1       8.987  11.079   5.375  1.00  0.00     0.095 A 
HETATM    8  C15 UNL     1       9.527  10.893   4.020  1.00  0.00     0.091 C 
ENDROOT
BRANCH   4   9
HETATM    9  C7  UNL     1       5.678  11.975   6.728  1.00  0.00     0.186 C 
BRANCH   9  10
HETATM   10  C8  UNL     1       4.880  10.980   7.452  1.00  0.00    -0.038 A 
HETATM   11  C9  UNL     1       4.928   9.626   7.215  1.00  0.00     0.009 A 
HETATM   12  C10 UNL     1       4.148   8.746   7.935  1.00  0.00     0.001 A 
HETATM   13  C11 UNL     1       3.301   9.191   8.909  1.00  0.00     0.000 A 
HETATM   14  C12 UNL     1       3.237  10.544   9.164  1.00  0.00     0.001 A 
HETATM   15  C13 UNL     1       4.022  11.416   8.438  1.00  0.00     0.009 A 
ENDBRANCH   9  10
ENDBRANCH   4   9
BRANCH   2  16
HETATM   16  C5  UNL     1       9.966  10.919   8.891  1.00  0.00     0.144 C 
HETATM   17  N2  UNL     1      10.040   9.902   9.608  1.00  0.00    -0.278 N 
ATOM     18  H2  UNL     1      10.682  10.038  10.389  1.00  0.00     0.193 HD
BRANCH  17  19
HETATM   19  O1  UNL     1       9.505   8.693   9.622  1.00  0.00    -0.290 OA
ATOM     20  H1  UNL     1       9.780   7.813   9.395  1.00  0.00     0.244 HD
ENDBRANCH  17  19
ENDBRANCH   2  16
BRANCH   1  21
HETATM   21  C3  UNL     1      11.141  10.597   6.328  1.00  0.00     0.157 C 
BRANCH  21  22
HETATM   22  C2  UNL     1      12.059  11.749   6.558  1.00  0.00    -0.017 C 
HETATM   23  C1  UNL     1      13.177  11.618   7.258  1.00  0.00     0.008 C 
ENDBRANCH  21  22
ENDBRANCH   1  21
TORSDOF 6
ENDMDL
MODEL 4
REMARK VINA RESULT: -8.692232135      2.047      3.078
REMARK  6 active torsions:
REMARK  status: ('A' for Active; 'I' for Inactive)
REMARK    1  A    between atoms: C2_2  and  C3_3 
REMARK    2  A    between atoms: C3_3  and  N1_4 
REMARK    3  A    between atoms: C4_5  and  C5_6 
REMARK    4  A    between atoms: N2_7  and  O1_9 
REMARK    5  A    between atoms: N3_12  and  C7_13 
REMARK    6  A    between atoms: C7_13  and  C8_14 
ROOT
HETATM    1  N1  UNL     1       9.726  10.920   6.520  1.00  0.00    -0.330 N 
HETATM    2  C4  UNL     1       9.130  11.122   7.727  1.00  0.00     0.070 A 
HETATM    3  C6  UNL     1       7.792  11.478   7.778  1.00  0.00     0.141 A 
HETATM    4  N3  UNL     1       7.057  11.630   6.649  1.00  0.00    -0.296 N 
HETATM    5  N4  UNL     1       7.668  11.426   5.519  1.00  0.00    -0.287 N 
ATOM      6  H4  UNL     1       7.129  11.535   4.660  1.00  0.00     0.188 HD
HETATM    7  C14 UNL     1       8.963  11.081   5.407  1.00  0.00     0.095 A 
HETATM    8  C15 UNL     1       9.510  10.887   4.056  1.00  0.00     0.091 C 
ENDROOT
BRANCH   4   9
HETATM    9  C7  UNL     1       5.653  12.004   6.739  1.00  0.00     0.186 C 
BRANCH   9  10
HETATM   10  C8  UNL     1       4.852  11.038   7.497  1.00  0.00    -0.038 A 
HETATM   11  C9  UNL     1       3.994  11.373   8.518  1.00  0.00     0.009 A 
HETATM   12  C10 UNL     1       3.270  10.409   9.189  1.00  0.00     0.001 A 
HETATM   13  C11 UNL     1       3.383   9.088   8.862  1.00  0.00     0.000 A 
HETATM   14  C12 UNL     1       4.238   8.730   7.841  1.00  0.00     0.001 A 
HETATM   15  C13 UNL     1       4.956   9.701   7.176  1.00  0.00     0.009 A 
ENDBRANCH   9  10
ENDBRANCH   4   9
BRANCH   2  16
HETATM   16  C5  UNL     1       9.921  10.923   8.929  1.00  0.00     0.144 C 
HETATM   17  N2  UNL     1      10.023   9.891   9.621  1.00  0.00    -0.278 N 
ATOM     18  H2  UNL     1      10.650  10.029  10.413  1.00  0.00     0.193 HD
BRANCH  17  19
HETATM   19  O1  UNL     1       9.531   8.665   9.597  1.00  0.00    -0.290 OA
ATOM     20  H1  UNL     1       8.709   8.254   9.356  1.00  0.00     0.244 HD
ENDBRANCH  17  19
ENDBRANCH   2  16
BRANCH   1  21
HETATM   21  C3  UNL     1      11.108  10.586   6.374  1.00  0.00     0.157 C 
BRANCH  21  22
HETATM   22  C2  UNL     1      12.033  11.734   6.600  1.00  0.00    -0.017 C 
HETATM   23  C1  UNL     1      13.177  11.586   7.254  1.00  0.00     0.008 C 
ENDBRANCH  21  22
ENDBRANCH   1  21
TORSDOF 6
ENDMDL
MODEL 5
REMARK VINA RESULT: -8.573863491      0.951      1.429
REMARK  6 active torsions:
REMARK  status: ('A' for Active; 'I' for Inactive)
REMARK    1  A    between atoms: C2_2  and  C3_3 
REMARK    2  A    between atoms: C3_3  and  N1_4 
REMARK    3  A    between atoms: C4_5  and  C5_6 
REMARK    4  A    between atoms: N2_7  and  O1_9 
REMARK    5  A    between atoms: N3_12  and  C7_13 
REMARK    6  A    between atoms: C7_13  and  C8_14 
ROOT
HETATM    1  N1  UNL     1       9.875  10.801   7.818  1.00  0.00    -0.330 N 
HETATM    2  C4  UNL     1       9.398  11.557   6.791  1.00  0.00     0.070 A 
HETATM    3  C6  UNL     1       8.122  11.320   6.303  1.00  0.00     0.141 A 
HETATM    4  N3  UNL     1       7.333  10.350   6.829  1.00  0.00    -0.296 N 
HETATM    5  N4  UNL     1       7.831   9.655   7.809  1.00  0.00    -0.287 N 
ATOM      6  H4  UNL     1       7.250   8.922   8.216  1.00  0.00     0.188 HD
HETATM    7  C14 UNL     1       9.061   9.838   8.322  1.00  0.00     0.095 A 
HETATM    8  C15 UNL     1       9.481   8.968   9.431  1.00  0.00     0.091 C 
ENDROOT
BRANCH   4   9
HETATM    9  C7  UNL     1       5.998  10.129   6.293  1.00  0.00     0.186 C 
BRANCH   9  10
HETATM   10  C8  UNL     1       4.959  10.134   7.329  1.00  0.00    -0.038 A 
HETATM   11  C9  UNL     1       4.452  11.271   7.914  1.00  0.00     0.009 A 
HETATM   12  C10 UNL     1       3.474  11.200   8.883  1.00  0.00     0.001 A 
HETATM   13  C11 UNL     1       2.976   9.997   9.295  1.00  0.00     0.000 A 
HETATM   14  C12 UNL     1       3.469   8.845   8.722  1.00  0.00     0.001 A 
HETATM   15  C13 UNL     1       4.447   8.926   7.753  1.00  0.00     0.009 A 
ENDBRANCH   9  10
ENDBRANCH   4   9
BRANCH   2  16
HETATM   16  C5  UNL     1      10.241  12.613   6.261  1.00  0.00     0.144 C 
HETATM   17  N2  UNL     1      10.350  12.992   5.078  1.00  0.00    -0.278 N 
ATOM     18  H2  UNL     1      11.016  13.758   4.988  1.00  0.00     0.193 HD
BRANCH  17  19
HETATM   19  O1  UNL     1       9.827  12.660   3.911  1.00  0.00    -0.290 OA
ATOM     20  H1  UNL     1       9.944  11.965   3.274  1.00  0.00     0.244 HD
ENDBRANCH  17  19
ENDBRANCH   2  16
BRANCH   1  21
HETATM   21  C3  UNL     1      11.190  10.954   8.358  1.00  0.00     0.157 C 
BRANCH  21  22
HETATM   22  C2  UNL     1      12.279  10.625   7.393  1.00  0.00    -0.017 C 
HETATM   23  C1  UNL     1      13.299  11.447   7.189  1.00  0.00     0.008 C 
ENDBRANCH  21  22
ENDBRANCH   1  21
TORSDOF 6
ENDMDL
