MODEL 1
REMARK VINA RESULT: -10.170111481      0.000      0.000
REMARK  7 active torsions:
REMARK  status: ('A' for Active; 'I' for Inactive)
REMARK    1  A    between atoms: C4_4  and  N1_5 
REMARK       I    between atoms: N1_5  and  C5_7 
REMARK    2  A    between atoms: C5_7  and  C6_9 
REMARK    3  A    between atoms: C14_17  and  N2_18 
REMARK    4  A    between atoms: N2_18  and  C15_20 
REMARK    5  A    between atoms: C20_25  and  C21_26 
REMARK       I    between atoms: C21_26  and  N3_28 
REMARK    6  A    between atoms: N3_28  and  C22_30 
REMARK    7  A    between atoms: C22_30  and  C23_31 
ROOT
HETATM    1  N2  UNL     1     -12.928  24.428  -6.969  1.00  0.00    -0.355 N 
ATOM      2  H2  UNL     1     -12.992  24.963  -7.835  1.00  0.00     0.166 HD
ENDROOT
BRANCH   1   3
HETATM    3  C14 UNL     1     -13.570  24.963  -5.835  1.00  0.00     0.038 A 
HETATM    4  C2  UNL     1     -14.911  25.359  -5.941  1.00  0.00    -0.033 A 
HETATM    5  C1  UNL     1     -15.620  25.128  -7.195  1.00  0.00     0.050 C 
HETATM    6  C3  UNL     1     -15.590  25.964  -4.887  1.00  0.00     0.038 A 
HETATM    7  C4  UNL     1     -14.972  26.196  -3.703  1.00  0.00     0.035 A 
HETATM    8  C12 UNL     1     -13.616  25.802  -3.579  1.00  0.00     0.032 A 
HETATM    9  C13 UNL     1     -12.960  25.206  -4.631  1.00  0.00     0.032 A 
BRANCH   7  10
HETATM   10  N1  UNL     1     -15.604  26.791  -2.589  1.00  0.00    -0.323 N 
HETATM   11  C5  UNL     1     -15.570  26.332  -1.276  1.00  0.00     0.256 C 
HETATM   12  O1  UNL     1     -14.962  25.306  -0.848  1.00  0.00    -0.267 OA
ATOM     13  H1  UNL     1     -16.138  27.641  -2.765  1.00  0.00     0.169 HD
BRANCH  11  14
HETATM   14  C6  UNL     1     -16.307  27.086  -0.220  1.00  0.00     0.032 A 
HETATM   15  C7  UNL     1     -16.490  28.456  -0.343  1.00  0.00     0.017 A 
HETATM   16  C8  UNL     1     -17.153  29.185   0.608  1.00  0.00     0.001 A 
HETATM   17  C9  UNL     1     -17.657  28.552   1.723  1.00  0.00     0.000 A 
HETATM   18  C10 UNL     1     -17.491  27.200   1.871  1.00  0.00     0.001 A 
HETATM   19  C11 UNL     1     -16.808  26.481   0.882  1.00  0.00     0.017 A 
ENDBRANCH  11  14
ENDBRANCH   7  10
ENDBRANCH   1   3
BRANCH   1  20
HETATM   20  C15 UNL     1     -12.203  23.211  -7.011  1.00  0.00     0.048 A 
HETATM   21  C16 UNL     1     -10.803  23.266  -7.017  1.00  0.00     0.030 A 
HETATM   22  C17 UNL     1      -9.994  22.156  -6.927  1.00  0.00     0.002 A 
HETATM   23  C18 UNL     1     -10.556  20.912  -6.821  1.00  0.00     0.001 A 
HETATM   24  C19 UNL     1     -11.918  20.842  -6.812  1.00  0.00     0.019 A 
HETATM   25  C20 UNL     1     -12.768  21.954  -6.904  1.00  0.00     0.058 A 
BRANCH  25  26
HETATM   26  C21 UNL     1     -14.189  21.789  -6.950  1.00  0.00     0.254 C 
HETATM   27  O2  UNL     1     -14.818  21.759  -8.023  1.00  0.00    -0.268 OA
HETATM   28  N3  UNL     1     -14.986  21.647  -5.755  1.00  0.00    -0.353 N 
ATOM     29  H3  UNL     1     -14.530  21.663  -4.843  1.00  0.00     0.163 HD
BRANCH  28  30
HETATM   30  C22 UNL     1     -16.436  21.481  -5.829  1.00  0.00     0.161 C 
BRANCH  30  31
HETATM   31  C23 UNL     1     -17.156  22.499  -5.031  1.00  0.00    -0.041 A 
HETATM   32  C24 UNL     1     -18.121  23.264  -5.631  1.00  0.00     0.009 A 
HETATM   33  C25 UNL     1     -18.842  24.233  -4.968  1.00  0.00     0.001 A 
HETATM   34  C26 UNL     1     -18.553  24.420  -3.632  1.00  0.00     0.000 A 
HETATM   35  C27 UNL     1     -17.591  23.677  -2.977  1.00  0.00     0.001 A 
HETATM   36  C28 UNL     1     -16.899  22.715  -3.697  1.00  0.00     0.009 A 
ENDBRANCH  30  31
ENDBRANCH  28  30
ENDBRANCH  25  26
ENDBRANCH   1  20
TORSDOF 7
ENDMDL
MODEL 2
REMARK VINA RESULT: -9.852508791      2.342      5.511
REMARK  7 active torsions:
REMARK  status: ('A' for Active; 'I' for Inactive)
REMARK    1  A    between atoms: C4_4  and  N1_5 
REMARK       I    between atoms: N1_5  and  C5_7 
REMARK    2  A    between atoms: C5_7  and  C6_9 
REMARK    3  A    between atoms: C14_17  and  N2_18 
REMARK    4  A    between atoms: N2_18  and  C15_20 
REMARK    5  A    between atoms: C20_25  and  C21_26 
REMARK       I    between atoms: C21_26  and  N3_28 
REMARK    6  A    between atoms: N3_28  and  C22_30 
REMARK    7  A    between atoms: C22_30  and  C23_31 
ROOT
HETATM    1  N2  UNL     1     -15.429  25.334  -4.650  1.00  0.00    -0.355 N 
ATOM      2  H2  UNL     1     -15.069  26.043  -5.288  1.00  0.00     0.166 HD
ENDROOT
BRANCH   1   3
HETATM    3  C14 UNL     1     -15.462  25.658  -3.280  1.00  0.00     0.038 A 
HETATM    4  C2  UNL     1     -16.251  26.738  -2.859  1.00  0.00    -0.033 A 
HETATM    5  C1  UNL     1     -17.074  27.437  -3.840  1.00  0.00     0.050 C 
HETATM    6  C3  UNL     1     -16.276  27.165  -1.534  1.00  0.00     0.038 A 
HETATM    7  C4  UNL     1     -15.529  26.544  -0.589  1.00  0.00     0.035 A 
HETATM    8  C12 UNL     1     -14.725  25.450  -0.997  1.00  0.00     0.032 A 
HETATM    9  C13 UNL     1     -14.712  25.042  -2.311  1.00  0.00     0.032 A 
BRANCH   7  10
HETATM   10  N1  UNL     1     -15.518  26.914   0.773  1.00  0.00    -0.323 N 
HETATM   11  C5  UNL     1     -15.531  28.211   1.279  1.00  0.00     0.256 C 
HETATM   12  O1  UNL     1     -15.561  29.284   0.607  1.00  0.00    -0.267 OA
ATOM     13  H1  UNL     1     -15.499  26.156   1.454  1.00  0.00     0.169 HD
BRANCH  11  14
HETATM   14  C6  UNL     1     -15.507  28.419   2.756  1.00  0.00     0.032 A 
HETATM   15  C7  UNL     1     -14.685  27.638   3.555  1.00  0.00     0.017 A 
HETATM   16  C8  UNL     1     -14.641  27.792   4.916  1.00  0.00     0.001 A 
HETATM   17  C9  UNL     1     -15.430  28.745   5.520  1.00  0.00     0.000 A 
HETATM   18  C10 UNL     1     -16.253  29.530   4.755  1.00  0.00     0.001 A 
HETATM   19  C11 UNL     1     -16.277  29.350   3.366  1.00  0.00     0.017 A 
ENDBRANCH  11  14
ENDBRANCH   7  10
ENDBRANCH   1   3
BRANCH   1  20
HETATM   20  C15 UNL     1     -15.854  24.107  -5.220  1.00  0.00     0.048 A 
HETATM   21  C16 UNL     1     -17.199  23.738  -5.089  1.00  0.00     0.030 A 
HETATM   22  C17 UNL     1     -17.753  22.640  -5.707  1.00  0.00     0.002 A 
HETATM   23  C18 UNL     1     -16.976  21.842  -6.502  1.00  0.00     0.001 A 
HETATM   24  C19 UNL     1     -15.663  22.188  -6.640  1.00  0.00     0.019 A 
HETATM   25  C20 UNL     1     -15.070  23.299  -6.023  1.00  0.00     0.058 A 
BRANCH  25  26
HETATM   26  C21 UNL     1     -13.670  23.559  -6.169  1.00  0.00     0.254 C 
HETATM   27  O2  UNL     1     -13.218  24.713  -6.278  1.00  0.00    -0.268 OA
HETATM   28  N3  UNL     1     -12.691  22.499  -6.202  1.00  0.00    -0.353 N 
ATOM     29  H3  UNL     1     -12.997  21.530  -6.117  1.00  0.00     0.163 HD
BRANCH  28  30
HETATM   30  C22 UNL     1     -11.267  22.791  -6.353  1.00  0.00     0.161 C 
BRANCH  30  31
HETATM   31  C23 UNL     1     -10.430  21.578  -6.206  1.00  0.00    -0.041 A 
HETATM   32  C24 UNL     1     -10.010  21.197  -4.959  1.00  0.00     0.009 A 
HETATM   33  C25 UNL     1      -9.231  20.086  -4.726  1.00  0.00     0.001 A 
HETATM   34  C26 UNL     1      -8.869  19.338  -5.827  1.00  0.00     0.000 A 
HETATM   35  C27 UNL     1      -9.263  19.675  -7.107  1.00  0.00     0.001 A 
HETATM   36  C28 UNL     1     -10.048  20.804  -7.278  1.00  0.00     0.009 A 
ENDBRANCH  30  31
ENDBRANCH  28  30
ENDBRANCH  25  26
ENDBRANCH   1  20
TORSDOF 7
ENDMDL
MODEL 3
REMARK VINA RESULT: -9.660771966      2.086      7.691
REMARK  7 active torsions:
REMARK  status: ('A' for Active; 'I' for Inactive)
REMARK    1  A    between atoms: C4_4  and  N1_5 
REMARK       I    between atoms: N1_5  and  C5_7 
REMARK    2  A    between atoms: C5_7  and  C6_9 
REMARK    3  A    between atoms: C14_17  and  N2_18 
REMARK    4  A    between atoms: N2_18  and  C15_20 
REMARK    5  A    between atoms: C20_25  and  C21_26 
REMARK       I    between atoms: C21_26  and  N3_28 
REMARK    6  A    between atoms: N3_28  and  C22_30 
REMARK    7  A    between atoms: C22_30  and  C23_31 
ROOT
HETATM    1  N2  UNL     1     -16.101  27.566  -5.337  1.00  0.00    -0.355 N 
ATOM      2  H2  UNL     1     -16.621  28.095  -6.037  1.00  0.00     0.166 HD
ENDROOT
BRANCH   1   3
HETATM    3  C14 UNL     1     -15.249  26.546  -5.805  1.00  0.00     0.038 A 
HETATM    4  C2  UNL     1     -15.745  25.625  -6.738  1.00  0.00    -0.033 A 
HETATM    5  C1  UNL     1     -17.098  25.800  -7.255  1.00  0.00     0.050 C 
HETATM    6  C3  UNL     1     -14.988  24.548  -7.190  1.00  0.00     0.038 A 
HETATM    7  C4  UNL     1     -13.726  24.347  -6.739  1.00  0.00     0.035 A 
HETATM    8  C12 UNL     1     -13.208  25.269  -5.795  1.00  0.00     0.032 A 
HETATM    9  C13 UNL     1     -13.971  26.328  -5.358  1.00  0.00     0.032 A 
BRANCH   7  10
HETATM   10  N1  UNL     1     -12.898  23.286  -7.165  1.00  0.00    -0.323 N 
HETATM   11  C5  UNL     1     -11.837  22.728  -6.457  1.00  0.00     0.256 C 
HETATM   12  O1  UNL     1     -11.433  23.069  -5.306  1.00  0.00    -0.267 OA
ATOM     13  H1  UNL     1     -13.097  22.888  -8.082  1.00  0.00     0.169 HD
BRANCH  11  14
HETATM   14  C6  UNL     1     -11.060  21.610  -7.067  1.00  0.00     0.032 A 
HETATM   15  C7  UNL     1     -11.083  20.350  -6.489  1.00  0.00     0.017 A 
HETATM   16  C8  UNL     1     -10.377  19.300  -7.014  1.00  0.00     0.001 A 
HETATM   17  C9  UNL     1      -9.617  19.488  -8.147  1.00  0.00     0.000 A 
HETATM   18  C10 UNL     1      -9.575  20.723  -8.740  1.00  0.00     0.001 A 
HETATM   19  C11 UNL     1     -10.308  21.778  -8.181  1.00  0.00     0.017 A 
ENDBRANCH  11  14
ENDBRANCH   7  10
ENDBRANCH   1   3
BRANCH   1  20
HETATM   20  C15 UNL     1     -16.300  27.919  -3.979  1.00  0.00     0.048 A 
HETATM   21  C16 UNL     1     -15.727  29.107  -3.505  1.00  0.00     0.030 A 
HETATM   22  C17 UNL     1     -15.957  29.616  -2.247  1.00  0.00     0.002 A 
HETATM   23  C18 UNL     1     -16.787  28.952  -1.385  1.00  0.00     0.001 A 
HETATM   24  C19 UNL     1     -17.354  27.794  -1.832  1.00  0.00     0.019 A 
HETATM   25  C20 UNL     1     -17.138  27.250  -3.106  1.00  0.00     0.058 A 
BRANCH  25  26
HETATM   26  C21 UNL     1     -17.722  25.996  -3.476  1.00  0.00     0.254 C 
HETATM   27  O2  UNL     1     -18.735  25.925  -4.196  1.00  0.00    -0.268 OA
HETATM   28  N3  UNL     1     -17.177  24.734  -3.039  1.00  0.00    -0.353 N 
ATOM     29  H3  UNL     1     -16.346  24.726  -2.447  1.00  0.00     0.163 HD
BRANCH  28  30
HETATM   30  C22 UNL     1     -17.792  23.468  -3.429  1.00  0.00     0.161 C 
BRANCH  30  31
HETATM   31  C23 UNL     1     -16.936  22.693  -4.356  1.00  0.00    -0.041 A 
HETATM   32  C24 UNL     1     -17.432  22.319  -5.577  1.00  0.00     0.009 A 
HETATM   33  C25 UNL     1     -16.710  21.598  -6.501  1.00  0.00     0.001 A 
HETATM   34  C26 UNL     1     -15.422  21.248  -6.150  1.00  0.00     0.000 A 
HETATM   35  C27 UNL     1     -14.871  21.598  -4.934  1.00  0.00     0.001 A 
HETATM   36  C28 UNL     1     -15.647  22.325  -4.044  1.00  0.00     0.009 A 
ENDBRANCH  30  31
ENDBRANCH  28  30
ENDBRANCH  25  26
ENDBRANCH   1  20
TORSDOF 7
ENDMDL
MODEL 4
REMARK VINA RESULT: -9.623299244      2.638      5.961
REMARK  7 active torsions:
REMARK  status: ('A' for Active; 'I' for Inactive)
REMARK    1  A    between atoms: C4_4  and  N1_5 
REMARK       I    between atoms: N1_5  and  C5_7 
REMARK    2  A    between atoms: C5_7  and  C6_9 
REMARK    3  A    between atoms: C14_17  and  N2_18 
REMARK    4  A    between atoms: N2_18  and  C15_20 
REMARK    5  A    between atoms: C20_25  and  C21_26 
REMARK       I    between atoms: C21_26  and  N3_28 
REMARK    6  A    between atoms: N3_28  and  C22_30 
REMARK    7  A    between atoms: C22_30  and  C23_31 
ROOT
HETATM    1  N2  UNL     1     -16.181  26.728  -3.515  1.00  0.00    -0.355 N 
ATOM      2  H2  UNL     1     -15.766  27.429  -4.129  1.00  0.00     0.166 HD
ENDROOT
BRANCH   1   3
HETATM    3  C14 UNL     1     -16.053  26.933  -2.127  1.00  0.00     0.038 A 
HETATM    4  C2  UNL     1     -16.107  28.243  -1.629  1.00  0.00    -0.033 A 
HETATM    5  C1  UNL     1     -16.376  29.340  -2.552  1.00  0.00     0.050 C 
HETATM    6  C3  UNL     1     -15.915  28.530  -0.281  1.00  0.00     0.038 A 
HETATM    7  C4  UNL     1     -15.665  27.542   0.613  1.00  0.00     0.035 A 
HETATM    8  C12 UNL     1     -15.606  26.212   0.126  1.00  0.00     0.032 A 
HETATM    9  C13 UNL     1     -15.798  25.946  -1.210  1.00  0.00     0.032 A 
BRANCH   7  10
HETATM   10  N1  UNL     1     -15.475  27.761   1.995  1.00  0.00    -0.323 N 
HETATM   11  C5  UNL     1     -16.153  28.681   2.788  1.00  0.00     0.256 C 
HETATM   12  O1  UNL     1     -17.063  29.478   2.413  1.00  0.00    -0.267 OA
ATOM     13  H1  UNL     1     -14.770  27.187   2.457  1.00  0.00     0.169 HD
BRANCH  11  14
HETATM   14  C6  UNL     1     -15.815  28.784   4.238  1.00  0.00     0.032 A 
HETATM   15  C7  UNL     1     -15.108  27.766   4.861  1.00  0.00     0.017 A 
HETATM   16  C8  UNL     1     -14.787  27.819   6.192  1.00  0.00     0.001 A 
HETATM   17  C9  UNL     1     -15.170  28.907   6.943  1.00  0.00     0.000 A 
HETATM   18  C10 UNL     1     -15.870  29.928   6.354  1.00  0.00     0.001 A 
HETATM   19  C11 UNL     1     -16.185  29.846   4.991  1.00  0.00     0.017 A 
ENDBRANCH  11  14
ENDBRANCH   7  10
ENDBRANCH   1   3
BRANCH   1  20
HETATM   20  C15 UNL     1     -16.838  25.634  -4.132  1.00  0.00     0.048 A 
HETATM   21  C16 UNL     1     -18.223  25.503  -3.965  1.00  0.00     0.030 A 
HETATM   22  C17 UNL     1     -18.985  24.561  -4.617  1.00  0.00     0.002 A 
HETATM   23  C18 UNL     1     -18.390  23.688  -5.488  1.00  0.00     0.001 A 
HETATM   24  C19 UNL     1     -17.042  23.804  -5.662  1.00  0.00     0.019 A 
HETATM   25  C20 UNL     1     -16.239  24.751  -5.011  1.00  0.00     0.058 A 
BRANCH  25  26
HETATM   26  C21 UNL     1     -14.820  24.766  -5.203  1.00  0.00     0.254 C 
HETATM   27  O2  UNL     1     -14.043  25.245  -4.358  1.00  0.00    -0.268 OA
HETATM   28  N3  UNL     1     -14.199  24.226  -6.389  1.00  0.00    -0.353 N 
ATOM     29  H3  UNL     1     -14.782  23.818  -7.119  1.00  0.00     0.163 HD
BRANCH  28  30
HETATM   30  C22 UNL     1     -12.748  24.254  -6.561  1.00  0.00     0.161 C 
BRANCH  30  31
HETATM   31  C23 UNL     1     -12.117  22.965  -6.194  1.00  0.00    -0.041 A 
HETATM   32  C24 UNL     1     -10.753  22.888  -6.096  1.00  0.00     0.009 A 
HETATM   33  C25 UNL     1     -10.080  21.734  -5.762  1.00  0.00     0.001 A 
HETATM   34  C26 UNL     1     -10.847  20.613  -5.520  1.00  0.00     0.000 A 
HETATM   35  C27 UNL     1     -12.225  20.634  -5.604  1.00  0.00     0.001 A 
HETATM   36  C28 UNL     1     -12.846  21.826  -5.944  1.00  0.00     0.009 A 
ENDBRANCH  30  31
ENDBRANCH  28  30
ENDBRANCH  25  26
ENDBRANCH   1  20
TORSDOF 7
ENDMDL
MODEL 5
REMARK VINA RESULT: -9.485956133      1.850      4.999
REMARK  7 active torsions:
REMARK  status: ('A' for Active; 'I' for Inactive)
REMARK    1  A    between atoms: C4_4  and  N1_5 
REMARK       I    between atoms: N1_5  and  C5_7 
REMARK    2  A    between atoms: C5_7  and  C6_9 
REMARK    3  A    between atoms: C14_17  and  N2_18 
REMARK    4  A    between atoms: N2_18  and  C15_20 
REMARK    5  A    between atoms: C20_25  and  C21_26 
REMARK       I    between atoms: C21_26  and  N3_28 
REMARK    6  A    between atoms: N3_28  and  C22_30 
REMARK    7  A    between atoms: C22_30  and  C23_31 
ROOT
HETATM    1  N2  UNL     1     -15.281  25.287  -6.321  1.00  0.00    -0.355 N 
ATOM      2  H2  UNL     1     -14.817  25.865  -7.022  1.00  0.00     0.166 HD
ENDROOT
BRANCH   1   3
HETATM    3  C14 UNL     1     -15.489  25.860  -5.051  1.00  0.00     0.038 A 
HETATM    4  C2  UNL     1     -15.741  27.237  -4.964  1.00  0.00    -0.033 A 
HETATM    5  C1  UNL     1     -15.861  28.014  -6.193  1.00  0.00     0.050 C 
HETATM    6  C3  UNL     1     -15.883  27.887  -3.741  1.00  0.00     0.038 A 
HETATM    7  C4  UNL     1     -15.781  27.205  -2.575  1.00  0.00     0.035 A 
HETATM    8  C12 UNL     1     -15.525  25.813  -2.644  1.00  0.00     0.032 A 
HETATM    9  C13 UNL     1     -15.387  25.186  -3.862  1.00  0.00     0.032 A 
BRANCH   7  10
HETATM   10  N1  UNL     1     -15.928  27.798  -1.302  1.00  0.00    -0.323 N 
HETATM   11  C5  UNL     1     -15.695  27.188  -0.072  1.00  0.00     0.256 C 
HETATM   12  O1  UNL     1     -15.305  25.998   0.120  1.00  0.00    -0.267 OA
ATOM     13  H1  UNL     1     -16.235  28.770  -1.281  1.00  0.00     0.169 HD
BRANCH  11  14
HETATM   14  C6  UNL     1     -15.911  27.966   1.182  1.00  0.00     0.032 A 
HETATM   15  C7  UNL     1     -15.380  27.514   2.381  1.00  0.00     0.017 A 
HETATM   16  C8  UNL     1     -15.563  28.196   3.555  1.00  0.00     0.001 A 
HETATM   17  C9  UNL     1     -16.293  29.364   3.559  1.00  0.00     0.000 A 
HETATM   18  C10 UNL     1     -16.830  29.834   2.389  1.00  0.00     0.001 A 
HETATM   19  C11 UNL     1     -16.626  29.116   1.204  1.00  0.00     0.017 A 
ENDBRANCH  11  14
ENDBRANCH   7  10
ENDBRANCH   1   3
BRANCH   1  20
HETATM   20  C15 UNL     1     -15.660  23.978  -6.710  1.00  0.00     0.048 A 
HETATM   21  C16 UNL     1     -17.020  23.643  -6.695  1.00  0.00     0.030 A 
HETATM   22  C17 UNL     1     -17.518  22.451  -7.170  1.00  0.00     0.002 A 
HETATM   23  C18 UNL     1     -16.666  21.519  -7.697  1.00  0.00     0.001 A 
HETATM   24  C19 UNL     1     -15.338  21.831  -7.719  1.00  0.00     0.019 A 
HETATM   25  C20 UNL     1     -14.801  23.035  -7.241  1.00  0.00     0.058 A 
BRANCH  25  26
HETATM   26  C21 UNL     1     -13.387  23.259  -7.245  1.00  0.00     0.254 C 
HETATM   27  O2  UNL     1     -12.849  24.084  -8.006  1.00  0.00    -0.268 OA
HETATM   28  N3  UNL     1     -12.492  22.544  -6.367  1.00  0.00    -0.353 N 
ATOM     29  H3  UNL     1     -12.871  21.855  -5.718  1.00  0.00     0.163 HD
BRANCH  28  30
HETATM   30  C22 UNL     1     -11.052  22.791  -6.391  1.00  0.00     0.161 C 
BRANCH  30  31
HETATM   31  C23 UNL     1     -10.270  21.560  -6.136  1.00  0.00    -0.041 A 
HETATM   32  C24 UNL     1      -9.939  20.744  -7.185  1.00  0.00     0.009 A 
HETATM   33  C25 UNL     1      -9.216  19.581  -7.044  1.00  0.00     0.001 A 
HETATM   34  C26 UNL     1      -8.817  19.247  -5.766  1.00  0.00     0.000 A 
HETATM   35  C27 UNL     1      -9.122  20.032  -4.672  1.00  0.00     0.001 A 
HETATM   36  C28 UNL     1      -9.853  21.192  -4.878  1.00  0.00     0.009 A 
ENDBRANCH  30  31
ENDBRANCH  28  30
ENDBRANCH  25  26
ENDBRANCH   1  20
TORSDOF 7
ENDMDL
