MODEL 1
REMARK VINA RESULT: -8.802127175      0.000      0.000
REMARK  5 active torsions:
REMARK  status: ('A' for Active; 'I' for Inactive)
REMARK    1  A    between atoms: C3_3  and  S1_4 
REMARK    2  A    between atoms: S1_4  and  C4_5 
REMARK    3  A    between atoms: C4_5  and  N1_6 
REMARK       I    between atoms: N1_6  and  C5_8 
REMARK    4  A    between atoms: C5_8  and  C6_10 
REMARK    5  A    between atoms: C8_12  and  C9_13 
ROOT
HETATM    1  N1  UNL     1       1.932  -9.366  12.771  1.00  0.00    -0.326 N 
ATOM      2  H1  UNL     1       1.841 -10.353  12.535  1.00  0.00     0.169 HD
HETATM    3  C5  UNL     1       3.156  -8.763  12.487  1.00  0.00     0.262 C 
HETATM    4  O1  UNL     1       3.381  -7.560  12.713  1.00  0.00    -0.267 OA
ENDROOT
BRANCH   1   5
HETATM    5  C4  UNL     1       0.802  -8.745  13.354  1.00  0.00     0.144 C 
BRANCH   5   6
HETATM    6  S1  UNL     1       0.831  -8.529  15.082  1.00  0.00    -0.059 SA
BRANCH   6   7
HETATM    7  C3  UNL     1      -0.622  -8.097  15.956  1.00  0.00     0.125 A 
HETATM    8  C2  UNL     1      -1.942  -8.150  15.516  1.00  0.00    -0.001 A 
HETATM    9  C1  UNL     1      -2.480  -8.575  14.218  1.00  0.00     0.053 C 
HETATM   10  C17 UNL     1      -2.698  -7.698  16.598  1.00  0.00     0.048 A 
HETATM   11  C14 UNL     1      -1.865  -7.395  17.625  1.00  0.00     0.095 A 
HETATM   12  S3  UNL     1      -4.242  -7.342  17.231  1.00  0.00    -0.099 SA
HETATM   13  O2  UNL     1      -0.624  -7.650  17.199  1.00  0.00    -0.301 OA
HETATM   14  C15 UNL     1      -2.429  -6.934  18.770  1.00  0.00     0.046 A 
HETATM   15  C16 UNL     1      -3.787  -6.815  18.790  1.00  0.00     0.053 A 
ENDBRANCH   6   7
ENDBRANCH   5   6
ENDBRANCH   1   5
BRANCH   3  16
HETATM   16  C6  UNL     1       4.236  -9.595  11.889  1.00  0.00     0.073 A 
HETATM   17  C7  UNL     1       4.377 -10.951  11.927  1.00  0.00     0.033 A 
HETATM   18  C8  UNL     1       5.459 -11.462  11.291  1.00  0.00    -0.043 A 
HETATM   19  C13 UNL     1       6.299 -10.601  10.677  1.00  0.00     0.058 A 
HETATM   20  S2  UNL     1       5.578  -9.071  10.989  1.00  0.00    -0.096 SA
BRANCH  18  21
HETATM   21  C9  UNL     1       5.702 -12.961  11.294  1.00  0.00    -0.024 C 
HETATM   22  C10 UNL     1       6.850 -13.155  10.288  1.00  0.00     0.019 C 
HETATM   23  C11 UNL     1       4.525 -13.691  10.761  1.00  0.00     0.019 C 
HETATM   24  C12 UNL     1       6.081 -13.431  12.660  1.00  0.00     0.019 C 
ENDBRANCH  18  21
ENDBRANCH   3  16
TORSDOF 5
ENDMDL
MODEL 2
REMARK VINA RESULT: -8.311019814      1.115      1.451
REMARK  5 active torsions:
REMARK  status: ('A' for Active; 'I' for Inactive)
REMARK    1  A    between atoms: C3_3  and  S1_4 
REMARK    2  A    between atoms: S1_4  and  C4_5 
REMARK    3  A    between atoms: C4_5  and  N1_6 
REMARK       I    between atoms: N1_6  and  C5_8 
REMARK    4  A    between atoms: C5_8  and  C6_10 
REMARK    5  A    between atoms: C8_12  and  C9_13 
ROOT
HETATM    1  N1  UNL     1       2.016  -9.194  12.867  1.00  0.00    -0.326 N 
ATOM      2  H1  UNL     1       2.546  -8.599  12.231  1.00  0.00     0.169 HD
HETATM    3  C5  UNL     1       2.524 -10.472  13.099  1.00  0.00     0.262 C 
HETATM    4  O1  UNL     1       1.976 -11.283  13.868  1.00  0.00    -0.267 OA
ENDROOT
BRANCH   1   5
HETATM    5  C4  UNL     1       0.839  -8.641  13.425  1.00  0.00     0.144 C 
BRANCH   5   6
HETATM    6  S1  UNL     1       0.861  -8.313  15.135  1.00  0.00    -0.059 SA
BRANCH   6   7
HETATM    7  C3  UNL     1      -0.620  -7.981  16.004  1.00  0.00     0.125 A 
HETATM    8  C2  UNL     1      -1.932  -8.103  15.552  1.00  0.00    -0.001 A 
HETATM    9  C1  UNL     1      -2.434  -8.538  14.242  1.00  0.00     0.053 C 
HETATM   10  C17 UNL     1      -2.721  -7.713  16.634  1.00  0.00     0.048 A 
HETATM   11  C14 UNL     1      -1.914  -7.378  17.673  1.00  0.00     0.095 A 
HETATM   12  S3  UNL     1      -4.287  -7.457  17.259  1.00  0.00    -0.099 SA
HETATM   13  O2  UNL     1      -0.658  -7.554  17.253  1.00  0.00    -0.301 OA
HETATM   14  C15 UNL     1      -2.513  -6.969  18.820  1.00  0.00     0.046 A 
HETATM   15  C16 UNL     1      -3.876  -6.929  18.830  1.00  0.00     0.053 A 
ENDBRANCH   6   7
ENDBRANCH   5   6
ENDBRANCH   1   5
BRANCH   3  16
HETATM   16  C6  UNL     1       3.772 -10.879  12.397  1.00  0.00     0.073 A 
HETATM   17  C7  UNL     1       4.216 -12.139  12.125  1.00  0.00     0.033 A 
HETATM   18  C8  UNL     1       5.394 -12.233  11.461  1.00  0.00    -0.043 A 
HETATM   19  C13 UNL     1       6.025 -11.087  11.125  1.00  0.00     0.058 A 
HETATM   20  S2  UNL     1       4.972  -9.873  11.738  1.00  0.00    -0.096 SA
BRANCH  18  21
HETATM   21  C9  UNL     1       5.969 -13.598  11.130  1.00  0.00    -0.024 C 
HETATM   22  C10 UNL     1       4.750 -14.414  10.667  1.00  0.00     0.019 C 
HETATM   23  C11 UNL     1       6.502 -14.260  12.346  1.00  0.00     0.019 C 
HETATM   24  C12 UNL     1       7.000 -13.489  10.055  1.00  0.00     0.019 C 
ENDBRANCH  18  21
ENDBRANCH   3  16
TORSDOF 5
ENDMDL
MODEL 3
REMARK VINA RESULT: -8.192624953      1.892      2.531
REMARK  5 active torsions:
REMARK  status: ('A' for Active; 'I' for Inactive)
REMARK    1  A    between atoms: C3_3  and  S1_4 
REMARK    2  A    between atoms: S1_4  and  C4_5 
REMARK    3  A    between atoms: C4_5  and  N1_6 
REMARK       I    between atoms: N1_6  and  C5_8 
REMARK    4  A    between atoms: C5_8  and  C6_10 
REMARK    5  A    between atoms: C8_12  and  C9_13 
ROOT
HETATM    1  N1  UNL     1       1.965 -10.653  14.039  1.00  0.00    -0.326 N 
ATOM      2  H1  UNL     1       2.493  -9.856  13.685  1.00  0.00     0.169 HD
HETATM    3  C5  UNL     1       2.377 -11.915  13.616  1.00  0.00     0.262 C 
HETATM    4  O1  UNL     1       1.822 -12.964  13.994  1.00  0.00    -0.267 OA
ENDROOT
BRANCH   1   5
HETATM    5  C4  UNL     1       0.888 -10.365  14.911  1.00  0.00     0.144 C 
BRANCH   5   6
HETATM    6  S1  UNL     1       0.566  -8.684  15.233  1.00  0.00    -0.059 SA
BRANCH   6   7
HETATM    7  C3  UNL     1      -0.860  -8.198  16.121  1.00  0.00     0.125 A 
HETATM    8  C2  UNL     1      -2.187  -8.216  15.701  1.00  0.00    -0.001 A 
HETATM    9  C1  UNL     1      -2.756  -8.642  14.416  1.00  0.00     0.053 C 
HETATM   10  C17 UNL     1      -2.914  -7.727  16.787  1.00  0.00     0.048 A 
HETATM   11  C14 UNL     1      -2.057  -7.436  17.798  1.00  0.00     0.095 A 
HETATM   12  S3  UNL     1      -4.436  -7.317  17.436  1.00  0.00    -0.099 SA
HETATM   13  O2  UNL     1      -0.830  -7.734  17.358  1.00  0.00    -0.301 OA
HETATM   14  C15 UNL     1      -2.590  -6.943  18.944  1.00  0.00     0.046 A 
HETATM   15  C16 UNL     1      -3.944  -6.783  18.982  1.00  0.00     0.053 A 
ENDBRANCH   6   7
ENDBRANCH   5   6
ENDBRANCH   1   5
BRANCH   3  16
HETATM   16  C6  UNL     1       3.526 -12.010  12.674  1.00  0.00     0.073 A 
HETATM   17  C7  UNL     1       4.325 -11.006  12.214  1.00  0.00     0.033 A 
HETATM   18  C8  UNL     1       5.314 -11.367  11.361  1.00  0.00    -0.043 A 
HETATM   19  C13 UNL     1       5.429 -12.674  11.039  1.00  0.00     0.058 A 
HETATM   20  S2  UNL     1       4.150 -13.403  11.930  1.00  0.00    -0.096 SA
BRANCH  18  21
HETATM   21  C9  UNL     1       6.243 -10.312  10.789  1.00  0.00    -0.024 C 
HETATM   22  C10 UNL     1       6.876  -9.659  12.031  1.00  0.00     0.019 C 
HETATM   23  C11 UNL     1       5.478  -9.256  10.082  1.00  0.00     0.019 C 
HETATM   24  C12 UNL     1       7.276 -10.938   9.909  1.00  0.00     0.019 C 
ENDBRANCH  18  21
ENDBRANCH   3  16
TORSDOF 5
ENDMDL
MODEL 4
REMARK VINA RESULT: -8.136197080      4.057      8.968
REMARK  5 active torsions:
REMARK  status: ('A' for Active; 'I' for Inactive)
REMARK    1  A    between atoms: C3_3  and  S1_4 
REMARK    2  A    between atoms: S1_4  and  C4_5 
REMARK    3  A    between atoms: C4_5  and  N1_6 
REMARK       I    between atoms: N1_6  and  C5_8 
REMARK    4  A    between atoms: C5_8  and  C6_10 
REMARK    5  A    between atoms: C8_12  and  C9_13 
ROOT
HETATM    1  N1  UNL     1       3.010 -14.623  12.790  1.00  0.00    -0.326 N 
ATOM      2  H1  UNL     1       2.190 -14.305  12.275  1.00  0.00     0.169 HD
HETATM    3  C5  UNL     1       3.381 -13.869  13.903  1.00  0.00     0.262 C 
HETATM    4  O1  UNL     1       4.353 -14.167  14.622  1.00  0.00    -0.267 OA
ENDROOT
BRANCH   1   5
HETATM    5  C4  UNL     1       3.657 -15.784  12.304  1.00  0.00     0.144 C 
BRANCH   5   6
HETATM    6  S1  UNL     1       5.033 -15.538  11.266  1.00  0.00    -0.059 SA
BRANCH   6   7
HETATM    7  C3  UNL     1       5.615 -13.926  10.914  1.00  0.00     0.125 A 
HETATM    8  C2  UNL     1       6.752 -13.555  10.200  1.00  0.00    -0.001 A 
HETATM    9  C1  UNL     1       7.765 -14.397   9.551  1.00  0.00     0.053 C 
HETATM   10  C17 UNL     1       6.747 -12.161  10.218  1.00  0.00     0.048 A 
HETATM   11  C14 UNL     1       5.660 -11.730  10.908  1.00  0.00     0.095 A 
HETATM   12  S3  UNL     1       7.513 -10.709   9.753  1.00  0.00    -0.099 SA
HETATM   13  O2  UNL     1       5.004 -12.823  11.310  1.00  0.00    -0.301 OA
HETATM   14  C15 UNL     1       5.492 -10.389  11.031  1.00  0.00     0.046 A 
HETATM   15  C16 UNL     1       6.429  -9.588  10.450  1.00  0.00     0.053 A 
ENDBRANCH   6   7
ENDBRANCH   5   6
ENDBRANCH   1   5
BRANCH   3  16
HETATM   16  C6  UNL     1       2.581 -12.661  14.242  1.00  0.00     0.073 A 
HETATM   17  C7  UNL     1       2.443 -11.510  13.525  1.00  0.00     0.033 A 
HETATM   18  C8  UNL     1       1.643 -10.557  14.062  1.00  0.00    -0.043 A 
HETATM   19  C13 UNL     1       1.053 -10.820  15.248  1.00  0.00     0.058 A 
HETATM   20  S2  UNL     1       1.617 -12.403  15.617  1.00  0.00    -0.096 SA
BRANCH  18  21
HETATM   21  C9  UNL     1       1.444  -9.239  13.337  1.00  0.00    -0.024 C 
HETATM   22  C10 UNL     1       1.126  -8.238  14.462  1.00  0.00     0.019 C 
HETATM   23  C11 UNL     1       0.254  -9.293  12.452  1.00  0.00     0.019 C 
HETATM   24  C12 UNL     1       2.679  -8.855  12.591  1.00  0.00     0.019 C 
ENDBRANCH  18  21
ENDBRANCH   3  16
TORSDOF 5
ENDMDL
MODEL 5
REMARK VINA RESULT: -8.104881197      1.235      1.584
REMARK  5 active torsions:
REMARK  status: ('A' for Active; 'I' for Inactive)
REMARK    1  A    between atoms: C3_3  and  S1_4 
REMARK    2  A    between atoms: S1_4  and  C4_5 
REMARK    3  A    between atoms: C4_5  and  N1_6 
REMARK       I    between atoms: N1_6  and  C5_8 
REMARK    4  A    between atoms: C5_8  and  C6_10 
REMARK    5  A    between atoms: C8_12  and  C9_13 
ROOT
HETATM    1  N1  UNL     1       1.587  -9.190  11.877  1.00  0.00    -0.326 N 
ATOM      2  H1  UNL     1       1.582 -10.031  11.300  1.00  0.00     0.169 HD
HETATM    3  C5  UNL     1       2.827  -8.761  12.349  1.00  0.00     0.262 C 
HETATM    4  O1  UNL     1       2.963  -7.739  13.046  1.00  0.00    -0.267 OA
ENDROOT
BRANCH   1   5
HETATM    5  C4  UNL     1       0.335  -8.577  12.117  1.00  0.00     0.144 C 
BRANCH   5   6
HETATM    6  S1  UNL     1      -0.775  -9.437  13.147  1.00  0.00    -0.059 SA
BRANCH   6   7
HETATM    7  C3  UNL     1      -1.399  -8.701  14.606  1.00  0.00     0.125 A 
HETATM    8  C2  UNL     1      -0.693  -8.053  15.617  1.00  0.00    -0.001 A 
HETATM    9  C1  UNL     1       0.750  -7.809  15.742  1.00  0.00     0.053 C 
HETATM   10  C17 UNL     1      -1.665  -7.661  16.537  1.00  0.00     0.048 A 
HETATM   11  C14 UNL     1      -2.884  -8.056  16.091  1.00  0.00     0.095 A 
HETATM   12  S3  UNL     1      -2.024  -6.887  18.015  1.00  0.00    -0.099 SA
HETATM   13  O2  UNL     1      -2.681  -8.678  14.925  1.00  0.00    -0.301 OA
HETATM   14  C15 UNL     1      -3.958  -7.759  16.866  1.00  0.00     0.046 A 
HETATM   15  C16 UNL     1      -3.719  -7.087  18.028  1.00  0.00     0.053 A 
ENDBRANCH   6   7
ENDBRANCH   5   6
ENDBRANCH   1   5
BRANCH   3  16
HETATM   16  C6  UNL     1       4.034  -9.560  12.003  1.00  0.00     0.073 A 
HETATM   17  C7  UNL     1       4.151 -10.914  11.901  1.00  0.00     0.033 A 
HETATM   18  C8  UNL     1       5.374 -11.390  11.562  1.00  0.00    -0.043 A 
HETATM   19  C13 UNL     1       6.366 -10.498  11.354  1.00  0.00     0.058 A 
HETATM   20  S2  UNL     1       5.590  -8.987  11.633  1.00  0.00    -0.096 SA
BRANCH  18  21
HETATM   21  C9  UNL     1       5.597 -12.886  11.439  1.00  0.00    -0.024 C 
HETATM   22  C10 UNL     1       6.707 -13.013  10.381  1.00  0.00     0.019 C 
HETATM   23  C11 UNL     1       4.393 -13.560  10.892  1.00  0.00     0.019 C 
HETATM   24  C12 UNL     1       6.016 -13.467  12.750  1.00  0.00     0.019 C 
ENDBRANCH  18  21
ENDBRANCH   3  16
TORSDOF 5
ENDMDL
