MODEL 1
REMARK VINA RESULT: -8.111734576      0.000      0.000
REMARK  4 active torsions:
REMARK  status: ('A' for Active; 'I' for Inactive)
REMARK    1  A    between atoms: C3_3  and  O1_4 
REMARK    2  A    between atoms: C13_15  and  C14_16 
REMARK    3  A    between atoms: C17_19  and  C19_21 
REMARK    4  A    between atoms: N1_22  and  O2_24 
ROOT
HETATM    1  C1  UNL     1       6.916  17.821 -33.404  1.00  0.00     0.017 C 
HETATM    2  C2  UNL     1       7.093  17.942 -34.675  1.00  0.00    -0.052 C 
HETATM    3  C3  UNL     1       8.172  18.902 -35.138  1.00  0.00     0.147 C 
HETATM    4  C4  UNL     1       7.827  19.379 -36.541  1.00  0.00     0.037 C 
HETATM    5  C5  UNL     1       6.351  19.500 -36.718  1.00  0.00     0.013 C 
HETATM    6  C6  UNL     1       5.579  18.209 -36.590  1.00  0.00    -0.032 C 
HETATM    7  C7  UNL     1       5.381  17.644 -37.968  1.00  0.00     0.016 C 
HETATM    8  C8  UNL     1       4.240  18.585 -36.027  1.00  0.00     0.014 C 
HETATM    9  C9  UNL     1       3.344  17.503 -35.611  1.00  0.00     0.036 C 
HETATM   10  C10 UNL     1       4.059  16.348 -35.078  1.00  0.00    -0.063 C 
HETATM   11  C11 UNL     1       5.375  16.234 -35.106  1.00  0.00    -0.067 C 
HETATM   12  C12 UNL     1       5.763  14.914 -34.472  1.00  0.00     0.041 C 
HETATM   13  C13 UNL     1       4.501  14.093 -34.801  1.00  0.00     0.010 C 
HETATM   14  C17 UNL     1       3.464  15.108 -34.421  1.00  0.00     0.018 C 
HETATM   15  C18 UNL     1       3.373  15.409 -32.963  1.00  0.00     0.026 C 
HETATM   16  C20 UNL     1       6.292  17.214 -35.679  1.00  0.00     0.053 C 
ENDROOT
BRANCH  14  17
HETATM   17  C19 UNL     1       2.129  14.825 -35.004  1.00  0.00     0.101 C 
HETATM   18  N1  UNL     1       1.163  14.531 -34.220  1.00  0.00    -0.283 N 
ATOM     19  H1  UNL     1       1.351  14.503 -33.217  1.00  0.00     0.192 HD
BRANCH  18  20
HETATM   20  O2  UNL     1      -0.108  14.252 -34.642  1.00  0.00    -0.291 OA
ATOM     21  H2  UNL     1      -0.479  13.378 -34.670  1.00  0.00     0.244 HD
ENDBRANCH  18  20
ENDBRANCH  14  17
BRANCH  13  22
HETATM   22  C14 UNL     1       4.451  12.830 -34.002  1.00  0.00    -0.017 C 
HETATM   23  C15 UNL     1       5.873  12.396 -33.662  1.00  0.00     0.010 C 
HETATM   24  C16 UNL     1       3.879  11.728 -34.868  1.00  0.00     0.010 C 
ENDBRANCH  13  22
BRANCH   3  25
HETATM   25  O1  UNL     1       9.355  18.201 -35.205  1.00  0.00    -0.391 OA
ATOM     26  H1  UNL     1       9.939  18.675 -35.785  1.00  0.00     0.210 HD
ENDBRANCH   3  25
TORSDOF 4
ENDMDL
MODEL 2
REMARK VINA RESULT: -7.638365878      2.902      5.944
REMARK  4 active torsions:
REMARK  status: ('A' for Active; 'I' for Inactive)
REMARK    1  A    between atoms: C3_3  and  O1_4 
REMARK    2  A    between atoms: C13_15  and  C14_16 
REMARK    3  A    between atoms: C17_19  and  C19_21 
REMARK    4  A    between atoms: N1_22  and  O2_24 
ROOT
HETATM    1  C1  UNL     1       5.413  12.481 -35.261  1.00  0.00     0.017 C 
HETATM    2  C2  UNL     1       4.294  12.018 -34.820  1.00  0.00    -0.052 C 
HETATM    3  C3  UNL     1       4.098  10.515 -34.860  1.00  0.00     0.147 C 
HETATM    4  C4  UNL     1       2.607  10.221 -34.917  1.00  0.00     0.037 C 
HETATM    5  C5  UNL     1       1.885  11.263 -35.705  1.00  0.00     0.013 C 
HETATM    6  C6  UNL     1       1.943  12.658 -35.131  1.00  0.00    -0.032 C 
HETATM    7  C7  UNL     1       0.707  12.875 -34.304  1.00  0.00     0.016 C 
HETATM    8  C8  UNL     1       1.905  13.589 -36.307  1.00  0.00     0.014 C 
HETATM    9  C9  UNL     1       2.145  15.013 -36.061  1.00  0.00     0.036 C 
HETATM   10  C10 UNL     1       3.091  15.250 -34.977  1.00  0.00    -0.063 C 
HETATM   11  C11 UNL     1       3.566  14.287 -34.206  1.00  0.00    -0.067 C 
HETATM   12  C12 UNL     1       4.514  14.897 -33.193  1.00  0.00     0.041 C 
HETATM   13  C13 UNL     1       3.894  16.303 -33.078  1.00  0.00     0.010 C 
HETATM   14  C17 UNL     1       3.689  16.581 -34.538  1.00  0.00     0.018 C 
HETATM   15  C18 UNL     1       4.938  16.763 -35.332  1.00  0.00     0.026 C 
HETATM   16  C20 UNL     1       3.208  12.876 -34.305  1.00  0.00     0.053 C 
ENDROOT
BRANCH  14  17
HETATM   17  C19 UNL     1       2.717  17.674 -34.793  1.00  0.00     0.101 C 
HETATM   18  N1  UNL     1       2.556  18.089 -35.992  1.00  0.00    -0.283 N 
ATOM     19  H1  UNL     1       3.106  17.649 -36.729  1.00  0.00     0.192 HD
BRANCH  18  20
HETATM   20  O2  UNL     1       1.691  19.087 -36.345  1.00  0.00    -0.291 OA
ATOM     21  H2  UNL     1       1.282  19.158 -37.200  1.00  0.00     0.244 HD
ENDBRANCH  18  20
ENDBRANCH  14  17
BRANCH  13  22
HETATM   22  C14 UNL     1       4.824  17.253 -32.393  1.00  0.00    -0.017 C 
HETATM   23  C15 UNL     1       6.142  16.541 -32.104  1.00  0.00     0.010 C 
HETATM   24  C16 UNL     1       4.244  17.612 -31.042  1.00  0.00     0.010 C 
ENDBRANCH  13  22
BRANCH   3  25
HETATM   25  O1  UNL     1       4.589   9.998 -33.681  1.00  0.00    -0.391 OA
ATOM     26  H1  UNL     1       5.517  10.198 -33.643  1.00  0.00     0.210 HD
ENDBRANCH   3  25
TORSDOF 4
ENDMDL
MODEL 3
REMARK VINA RESULT: -7.310796708      1.656      2.151
REMARK  4 active torsions:
REMARK  status: ('A' for Active; 'I' for Inactive)
REMARK    1  A    between atoms: C3_3  and  O1_4 
REMARK    2  A    between atoms: C13_15  and  C14_16 
REMARK    3  A    between atoms: C17_19  and  C19_21 
REMARK    4  A    between atoms: N1_22  and  O2_24 
ROOT
HETATM    1  C1  UNL     1       4.992  16.520 -31.983  1.00  0.00     0.017 C 
HETATM    2  C2  UNL     1       5.858  16.670 -32.925  1.00  0.00    -0.052 C 
HETATM    3  C3  UNL     1       7.107  17.468 -32.601  1.00  0.00     0.147 C 
HETATM    4  C4  UNL     1       7.655  18.057 -33.892  1.00  0.00     0.037 C 
HETATM    5  C5  UNL     1       6.550  18.419 -34.827  1.00  0.00     0.013 C 
HETATM    6  C6  UNL     1       5.705  17.262 -35.304  1.00  0.00    -0.032 C 
HETATM    7  C7  UNL     1       6.250  16.800 -36.626  1.00  0.00     0.016 C 
HETATM    8  C8  UNL     1       4.329  17.819 -35.518  1.00  0.00     0.014 C 
HETATM    9  C9  UNL     1       3.245  16.875 -35.798  1.00  0.00     0.036 C 
HETATM   10  C10 UNL     1       3.414  15.598 -35.113  1.00  0.00    -0.063 C 
HETATM   11  C11 UNL     1       4.502  15.278 -34.434  1.00  0.00    -0.067 C 
HETATM   12  C12 UNL     1       4.328  13.885 -33.864  1.00  0.00     0.041 C 
HETATM   13  C13 UNL     1       3.385  13.291 -34.928  1.00  0.00     0.010 C 
HETATM   14  C17 UNL     1       2.427  14.439 -35.049  1.00  0.00     0.018 C 
HETATM   15  C18 UNL     1       1.572  14.682 -33.851  1.00  0.00     0.026 C 
HETATM   16  C20 UNL     1       5.680  16.126 -34.286  1.00  0.00     0.053 C 
ENDROOT
BRANCH  14  17
HETATM   17  C19 UNL     1       1.621  14.399 -36.295  1.00  0.00     0.101 C 
HETATM   18  N1  UNL     1       0.383  14.715 -36.240  1.00  0.00    -0.283 N 
ATOM     19  H1  UNL     1      -0.003  14.986 -35.335  1.00  0.00     0.192 HD
BRANCH  18  20
HETATM   20  O2  UNL     1      -0.454  14.715 -37.321  1.00  0.00    -0.291 OA
ATOM     21  H2  UNL     1      -0.161  14.640 -38.221  1.00  0.00     0.244 HD
ENDBRANCH  18  20
ENDBRANCH  14  17
BRANCH  13  22
HETATM   22  C14 UNL     1       2.764  12.016 -34.452  1.00  0.00    -0.017 C 
HETATM   23  C15 UNL     1       3.825  10.920 -34.431  1.00  0.00     0.010 C 
HETATM   24  C16 UNL     1       1.731  11.570 -35.465  1.00  0.00     0.010 C 
ENDBRANCH  13  22
BRANCH   3  25
HETATM   25  O1  UNL     1       8.045  16.591 -32.101  1.00  0.00    -0.391 OA
ATOM     26  H1  UNL     1       8.876  17.049 -32.064  1.00  0.00     0.210 HD
ENDBRANCH   3  25
TORSDOF 4
ENDMDL
MODEL 4
REMARK VINA RESULT: -6.734130594      2.637      5.615
REMARK  4 active torsions:
REMARK  status: ('A' for Active; 'I' for Inactive)
REMARK    1  A    between atoms: C3_3  and  O1_4 
REMARK    2  A    between atoms: C13_15  and  C14_16 
REMARK    3  A    between atoms: C17_19  and  C19_21 
REMARK    4  A    between atoms: N1_22  and  O2_24 
ROOT
HETATM    1  C1  UNL     1       8.202  13.843 -32.228  1.00  0.00     0.017 C 
HETATM    2  C2  UNL     1       7.423  12.818 -32.276  1.00  0.00    -0.052 C 
HETATM    3  C3  UNL     1       7.984  11.494 -31.793  1.00  0.00     0.147 C 
HETATM    4  C4  UNL     1       7.227  10.367 -32.477  1.00  0.00     0.037 C 
HETATM    5  C5  UNL     1       6.838  10.748 -33.866  1.00  0.00     0.013 C 
HETATM    6  C6  UNL     1       5.890  11.919 -33.971  1.00  0.00    -0.032 C 
HETATM    7  C7  UNL     1       4.490  11.379 -34.064  1.00  0.00     0.016 C 
HETATM    8  C8  UNL     1       6.227  12.607 -35.261  1.00  0.00     0.014 C 
HETATM    9  C9  UNL     1       5.593  13.899 -35.533  1.00  0.00     0.036 C 
HETATM   10  C10 UNL     1       5.368  14.687 -34.325  1.00  0.00    -0.063 C 
HETATM   11  C11 UNL     1       5.580  14.221 -33.107  1.00  0.00    -0.067 C 
HETATM   12  C12 UNL     1       5.241  15.306 -32.105  1.00  0.00     0.041 C 
HETATM   13  C13 UNL     1       4.167  16.066 -32.908  1.00  0.00     0.010 C 
HETATM   14  C17 UNL     1       4.870  16.124 -34.231  1.00  0.00     0.018 C 
HETATM   15  C18 UNL     1       6.083  16.991 -34.269  1.00  0.00     0.026 C 
HETATM   16  C20 UNL     1       6.039  12.873 -32.789  1.00  0.00     0.053 C 
ENDROOT
BRANCH  14  17
HETATM   17  C19 UNL     1       3.958  16.412 -35.365  1.00  0.00     0.101 C 
HETATM   18  N1  UNL     1       2.758  15.973 -35.320  1.00  0.00    -0.283 N 
ATOM     19  H1  UNL     1       2.475  15.438 -34.500  1.00  0.00     0.192 HD
BRANCH  18  20
HETATM   20  O2  UNL     1       1.832  16.177 -36.305  1.00  0.00    -0.291 OA
ATOM     21  H2  UNL     1       1.997  16.678 -37.095  1.00  0.00     0.244 HD
ENDBRANCH  18  20
ENDBRANCH  14  17
BRANCH  13  22
HETATM   22  C14 UNL     1       3.881  17.404 -32.301  1.00  0.00    -0.017 C 
HETATM   23  C15 UNL     1       4.583  17.500 -30.950  1.00  0.00     0.010 C 
HETATM   24  C16 UNL     1       2.400  17.497 -32.005  1.00  0.00     0.010 C 
ENDBRANCH  13  22
BRANCH   3  25
HETATM   25  O1  UNL     1       7.746  11.408 -30.439  1.00  0.00    -0.391 OA
ATOM     26  H1  UNL     1       7.356  10.559 -30.269  1.00  0.00     0.210 HD
ENDBRANCH   3  25
TORSDOF 4
ENDMDL
MODEL 5
REMARK VINA RESULT: -6.324028144      3.220      5.459
REMARK  4 active torsions:
REMARK  status: ('A' for Active; 'I' for Inactive)
REMARK    1  A    between atoms: C3_3  and  O1_4 
REMARK    2  A    between atoms: C13_15  and  C14_16 
REMARK    3  A    between atoms: C17_19  and  C19_21 
REMARK    4  A    between atoms: N1_22  and  O2_24 
ROOT
HETATM    1  C1  UNL     1       5.376  15.880 -32.751  1.00  0.00     0.017 C 
HETATM    2  C2  UNL     1       4.640  16.917 -32.540  1.00  0.00    -0.052 C 
HETATM    3  C3  UNL     1       3.874  16.972 -31.232  1.00  0.00     0.147 C 
HETATM    4  C4  UNL     1       2.655  17.862 -31.421  1.00  0.00     0.037 C 
HETATM    5  C5  UNL     1       2.107  17.733 -32.803  1.00  0.00     0.013 C 
HETATM    6  C6  UNL     1       3.036  18.176 -33.908  1.00  0.00    -0.032 C 
HETATM    7  C7  UNL     1       2.708  19.602 -34.249  1.00  0.00     0.016 C 
HETATM    8  C8  UNL     1       2.710  17.310 -35.090  1.00  0.00     0.014 C 
HETATM    9  C9  UNL     1       3.593  17.385 -36.256  1.00  0.00     0.036 C 
HETATM   10  C10 UNL     1       4.986  17.634 -35.898  1.00  0.00    -0.063 C 
HETATM   11  C11 UNL     1       5.380  17.908 -34.667  1.00  0.00    -0.067 C 
HETATM   12  C12 UNL     1       6.882  18.110 -34.670  1.00  0.00     0.041 C 
HETATM   13  C13 UNL     1       7.066  18.626 -36.110  1.00  0.00     0.010 C 
HETATM   14  C17 UNL     1       6.198  17.630 -36.821  1.00  0.00     0.018 C 
HETATM   15  C18 UNL     1       6.713  16.231 -36.832  1.00  0.00     0.026 C 
HETATM   16  C20 UNL     1       4.500  18.023 -33.508  1.00  0.00     0.053 C 
ENDROOT
BRANCH  14  17
HETATM   17  C19 UNL     1       5.795  18.072 -38.179  1.00  0.00     0.101 C 
HETATM   18  N1  UNL     1       5.128  17.269 -38.917  1.00  0.00    -0.283 N 
ATOM     19  H1  UNL     1       4.898  16.350 -38.539  1.00  0.00     0.192 HD
BRANCH  18  20
HETATM   20  O2  UNL     1       4.703  17.568 -40.182  1.00  0.00    -0.291 OA
ATOM     21  H2  UNL     1       4.190  18.336 -40.403  1.00  0.00     0.244 HD
ENDBRANCH  18  20
ENDBRANCH  14  17
BRANCH  13  22
HETATM   22  C14 UNL     1       8.506  18.593 -36.518  1.00  0.00    -0.017 C 
HETATM   23  C15 UNL     1       9.355  18.178 -35.321  1.00  0.00     0.010 C 
HETATM   24  C16 UNL     1       8.944  19.999 -36.868  1.00  0.00     0.010 C 
ENDBRANCH  13  22
BRANCH   3  25
HETATM   25  O1  UNL     1       4.691  17.563 -30.293  1.00  0.00    -0.391 OA
ATOM     26  H1  UNL     1       4.227  17.561 -29.465  1.00  0.00     0.210 HD
ENDBRANCH   3  25
TORSDOF 4
ENDMDL
