MODEL 1
REMARK VINA RESULT: -8.467015589      0.000      0.000
REMARK  6 active torsions:
REMARK  status: ('A' for Active; 'I' for Inactive)
REMARK    1  A    between atoms: N1_2  and  C2_3 
REMARK       I    between atoms: N1_2  and  C6_16 
REMARK    2  A    between atoms: C2_3  and  C3_4 
REMARK    3  A    between atoms: C5_8  and  N3_9 
REMARK       I    between atoms: C6_16  and  N12_29 
REMARK    4  A    between atoms: N6_17  and  N7_19 
REMARK    5  A    between atoms: C7_25  and  N11_26 
REMARK    6  A    between atoms: N12_29  and  S1_31 
ROOT
HETATM    1  C1  UNL     1      19.805  38.730  37.074  1.00  0.00     0.169 C 
HETATM    2  N1  UNL     1      18.590  37.979  37.293  1.00  0.00    -0.213 N 
HETATM    3  C6  UNL     1      18.651  36.569  37.401  1.00  0.00     0.708 C 
HETATM    4  N6  UNL     1      19.188  36.070  38.455  1.00  0.00    -0.097 N 
ATOM      5  H6  UNL     1      19.231  35.054  38.531  1.00  0.00     0.208 HD
HETATM    6  N12 UNL     1      18.162  35.667  36.424  1.00  0.00    -0.096 N 
ATOM      7  H12 UNL     1      18.083  36.003  35.464  1.00  0.00     0.200 HD
ENDROOT
BRANCH   2   8
HETATM    8  C2  UNL     1      17.343  38.660  37.399  1.00  0.00     0.218 C 
BRANCH   8   9
HETATM    9  C3  UNL     1      16.948  39.465  36.239  1.00  0.00     0.114 A 
HETATM   10  N2  UNL     1      15.764  40.103  36.299  1.00  0.00    -0.350 N 
HETATM   11  C4  UNL     1      15.294  40.862  35.300  1.00  0.00     0.138 A 
ATOM     12  H2  UNL     1      15.198  40.003  37.141  1.00  0.00     0.166 HD
HETATM   13  C5  UNL     1      16.054  41.001  34.157  1.00  0.00     0.129 A 
HETATM   14  N4  UNL     1      17.222  40.369  34.103  1.00  0.00    -0.283 N 
HETATM   15  N5  UNL     1      17.662  39.619  35.115  1.00  0.00    -0.286 N 
ATOM     16  H4  UNL     1      17.797  40.459  33.266  1.00  0.00     0.188 HD
ATOM     17  H5  UNL     1      18.564  39.151  35.032  1.00  0.00     0.188 HD
BRANCH  13  18
HETATM   18  N3  UNL     1      15.613  41.739  33.171  1.00  0.00    -0.383 N 
ATOM     19  H32 UNL     1      15.349  42.715  33.297  1.00  0.00     0.157 HD
ATOM     20  H31 UNL     1      15.526  41.335  32.238  1.00  0.00     0.157 HD
ENDBRANCH  13  18
ENDBRANCH   8   9
ENDBRANCH   2   8
BRANCH   4  21
HETATM   21  N7  UNL     1      19.714  36.822  39.503  1.00  0.00     0.012 N 
HETATM   22  N8  UNL     1      19.118  37.592  40.398  1.00  0.00     0.034 NA
HETATM   23  N9  UNL     1      20.020  38.124  41.225  1.00  0.00    -0.210 N 
HETATM   24  N10 UNL     1      21.207  37.699  40.867  1.00  0.00    -0.117 N 
ATOM     25  H9  UNL     1      19.819  38.753  42.003  1.00  0.00     0.206 HD
HETATM   26  C7  UNL     1      21.023  36.896  39.807  1.00  0.00     0.726 A 
ATOM     27  H10 UNL     1      22.097  37.932  41.308  1.00  0.00     0.207 HD
BRANCH  26  28
HETATM   28  N11 UNL     1      21.970  36.293  39.182  1.00  0.00    -0.231 N 
ATOM     29 2H11 UNL     1      21.886  35.913  38.239  1.00  0.00     0.174 HD
ATOM     30 1H11 UNL     1      22.906  36.122  39.547  1.00  0.00     0.174 HD
ENDBRANCH  26  28
ENDBRANCH   4  21
BRANCH   6  31
HETATM   31  S1  UNL     1      17.697  34.062  36.743  1.00  0.00     0.223 S 
HETATM   32  O1  UNL     1      17.168  33.373  35.525  1.00  0.00    -0.577 OA
HETATM   33  O2  UNL     1      16.590  34.072  37.775  1.00  0.00    -0.577 OA
HETATM   34  O3  UNL     1      19.000  33.224  37.379  1.00  0.00    -0.577 OA
ENDBRANCH   6  31
TORSDOF 6
ENDMDL
MODEL 2
REMARK VINA RESULT: -7.445440730      2.778      4.119
REMARK  6 active torsions:
REMARK  status: ('A' for Active; 'I' for Inactive)
REMARK    1  A    between atoms: N1_2  and  C2_3 
REMARK       I    between atoms: N1_2  and  C6_16 
REMARK    2  A    between atoms: C2_3  and  C3_4 
REMARK    3  A    between atoms: C5_8  and  N3_9 
REMARK       I    between atoms: C6_16  and  N12_29 
REMARK    4  A    between atoms: N6_17  and  N7_19 
REMARK    5  A    between atoms: C7_25  and  N11_26 
REMARK    6  A    between atoms: N12_29  and  S1_31 
ROOT
HETATM    1  C1  UNL     1      16.700  37.580  37.305  1.00  0.00     0.169 C 
HETATM    2  N1  UNL     1      18.102  37.911  37.410  1.00  0.00    -0.213 N 
HETATM    3  C6  UNL     1      18.883  37.319  38.433  1.00  0.00     0.708 C 
HETATM    4  N6  UNL     1      19.152  36.068  38.334  1.00  0.00    -0.097 N 
ATOM      5  H6  UNL     1      19.715  35.643  39.071  1.00  0.00     0.208 HD
HETATM    6  N12 UNL     1      19.388  38.013  39.560  1.00  0.00    -0.096 N 
ATOM      7  H12 UNL     1      18.905  38.862  39.851  1.00  0.00     0.200 HD
ENDROOT
BRANCH   2   8
HETATM    8  C2  UNL     1      18.688  38.825  36.489  1.00  0.00     0.218 C 
BRANCH   8   9
HETATM    9  C3  UNL     1      17.754  39.580  35.648  1.00  0.00     0.114 A 
HETATM   10  N2  UNL     1      16.705  40.166  36.254  1.00  0.00    -0.350 N 
HETATM   11  C4  UNL     1      15.784  40.878  35.590  1.00  0.00     0.138 A 
ATOM     12  H2  UNL     1      16.606  40.064  37.264  1.00  0.00     0.166 HD
HETATM   13  C5  UNL     1      15.912  41.019  34.224  1.00  0.00     0.129 A 
HETATM   14  N4  UNL     1      16.949  40.438  33.631  1.00  0.00    -0.283 N 
HETATM   15  N5  UNL     1      17.850  39.736  34.320  1.00  0.00    -0.286 N 
ATOM     16  H4  UNL     1      17.059  40.531  32.621  1.00  0.00     0.188 HD
ATOM     17  H5  UNL     1      18.631  39.306  33.824  1.00  0.00     0.188 HD
BRANCH  13  18
HETATM   18  N3  UNL     1      15.022  41.709  33.558  1.00  0.00    -0.383 N 
ATOM     19  H32 UNL     1      14.139  42.005  33.973  1.00  0.00     0.157 HD
ATOM     20  H31 UNL     1      15.206  41.967  32.589  1.00  0.00     0.157 HD
ENDBRANCH  13  18
ENDBRANCH   8   9
ENDBRANCH   2   8
BRANCH   4  21
HETATM   21  N7  UNL     1      18.729  35.250  37.289  1.00  0.00     0.012 N 
HETATM   22  N8  UNL     1      18.928  35.342  35.985  1.00  0.00     0.034 NA
HETATM   23  N9  UNL     1      18.335  34.329  35.352  1.00  0.00    -0.210 N 
HETATM   24  N10 UNL     1      17.747  33.573  36.248  1.00  0.00    -0.117 N 
ATOM     25  H9  UNL     1      18.339  34.169  34.344  1.00  0.00     0.206 HD
HETATM   26  C7  UNL     1      17.988  34.137  37.443  1.00  0.00     0.726 A 
ATOM     27  H10 UNL     1      17.211  32.723  36.072  1.00  0.00     0.207 HD
BRANCH  26  28
HETATM   28  N11 UNL     1      17.565  33.671  38.562  1.00  0.00    -0.231 N 
ATOM     29 2H11 UNL     1      17.216  34.245  39.329  1.00  0.00     0.174 HD
ATOM     30 1H11 UNL     1      17.527  32.684  38.817  1.00  0.00     0.174 HD
ENDBRANCH  26  28
ENDBRANCH   4  21
BRANCH   6  31
HETATM   31  S1  UNL     1      20.747  37.525  40.460  1.00  0.00     0.223 S 
HETATM   32  O1  UNL     1      21.425  36.334  39.860  1.00  0.00    -0.577 OA
HETATM   33  O2  UNL     1      20.294  37.135  41.851  1.00  0.00    -0.577 OA
HETATM   34  O3  UNL     1      21.812  38.810  40.595  1.00  0.00    -0.577 OA
ENDBRANCH   6  31
TORSDOF 6
ENDMDL
MODEL 3
REMARK VINA RESULT: -7.276180946      3.841      6.427
REMARK  6 active torsions:
REMARK  status: ('A' for Active; 'I' for Inactive)
REMARK    1  A    between atoms: N1_2  and  C2_3 
REMARK       I    between atoms: N1_2  and  C6_16 
REMARK    2  A    between atoms: C2_3  and  C3_4 
REMARK    3  A    between atoms: C5_8  and  N3_9 
REMARK       I    between atoms: C6_16  and  N12_29 
REMARK    4  A    between atoms: N6_17  and  N7_19 
REMARK    5  A    between atoms: C7_25  and  N11_26 
REMARK    6  A    between atoms: N12_29  and  S1_31 
ROOT
HETATM    1  C1  UNL     1      19.930  37.301  36.363  1.00  0.00     0.169 C 
HETATM    2  N1  UNL     1      19.470  37.193  37.728  1.00  0.00    -0.213 N 
HETATM    3  C6  UNL     1      20.173  37.866  38.756  1.00  0.00     0.708 C 
HETATM    4  N6  UNL     1      20.096  39.147  38.797  1.00  0.00    -0.097 N 
ATOM      5  H6  UNL     1      20.603  39.631  39.538  1.00  0.00     0.208 HD
HETATM    6  N12 UNL     1      20.959  37.224  39.745  1.00  0.00    -0.096 N 
ATOM      7  H12 UNL     1      21.331  36.299  39.529  1.00  0.00     0.200 HD
ENDROOT
BRANCH   2   8
HETATM    8  C2  UNL     1      18.316  36.414  38.031  1.00  0.00     0.218 C 
BRANCH   8   9
HETATM    9  C3  UNL     1      18.472  34.961  37.917  1.00  0.00     0.114 A 
HETATM   10  N2  UNL     1      19.075  34.318  38.934  1.00  0.00    -0.350 N 
HETATM   11  C4  UNL     1      19.277  32.993  38.941  1.00  0.00     0.138 A 
ATOM     12  H2  UNL     1      19.392  34.863  39.735  1.00  0.00     0.166 HD
HETATM   13  C5  UNL     1      18.851  32.251  37.859  1.00  0.00     0.129 A 
HETATM   14  N4  UNL     1      18.257  32.890  36.858  1.00  0.00    -0.283 N 
HETATM   15  N5  UNL     1      18.070  34.211  36.881  1.00  0.00    -0.286 N 
ATOM     16  H4  UNL     1      17.936  32.358  36.049  1.00  0.00     0.188 HD
ATOM     17  H5  UNL     1      17.609  34.662  36.090  1.00  0.00     0.188 HD
BRANCH  13  18
HETATM   18  N3  UNL     1      19.040  30.956  37.847  1.00  0.00    -0.383 N 
ATOM     19  H32 UNL     1      18.579  30.332  38.509  1.00  0.00     0.157 HD
ATOM     20  H31 UNL     1      19.668  30.544  37.158  1.00  0.00     0.157 HD
ENDBRANCH  13  18
ENDBRANCH   8   9
ENDBRANCH   2   8
BRANCH   4  21
HETATM   21  N7  UNL     1      19.366  39.922  37.899  1.00  0.00     0.012 N 
HETATM   22  N8  UNL     1      18.082  39.901  37.584  1.00  0.00     0.034 NA
HETATM   23  N9  UNL     1      17.813  40.831  36.666  1.00  0.00    -0.210 N 
HETATM   24  N10 UNL     1      18.928  41.460  36.382  1.00  0.00    -0.117 N 
ATOM     25  H9  UNL     1      16.898  41.020  36.257  1.00  0.00     0.206 HD
HETATM   26  C7  UNL     1      19.887  40.904  37.140  1.00  0.00     0.726 A 
ATOM     27  H10 UNL     1      19.044  42.224  35.715  1.00  0.00     0.207 HD
BRANCH  26  28
HETATM   28  N11 UNL     1      21.119  41.266  37.129  1.00  0.00    -0.231 N 
ATOM     29 2H11 UNL     1      21.870  40.736  36.687  1.00  0.00     0.174 HD
ATOM     30 1H11 UNL     1      21.492  42.113  37.557  1.00  0.00     0.174 HD
ENDBRANCH  26  28
ENDBRANCH   4  21
BRANCH   6  31
HETATM   31  S1  UNL     1      21.323  37.891  41.267  1.00  0.00     0.223 S 
HETATM   32  O1  UNL     1      21.999  36.906  42.169  1.00  0.00    -0.577 OA
HETATM   33  O2  UNL     1      20.031  38.306  41.938  1.00  0.00    -0.577 OA
HETATM   34  O3  UNL     1      22.271  39.255  41.062  1.00  0.00    -0.577 OA
ENDBRANCH   6  31
TORSDOF 6
ENDMDL
MODEL 4
REMARK VINA RESULT: -6.817064459      0.991      1.750
REMARK  6 active torsions:
REMARK  status: ('A' for Active; 'I' for Inactive)
REMARK    1  A    between atoms: N1_2  and  C2_3 
REMARK       I    between atoms: N1_2  and  C6_16 
REMARK    2  A    between atoms: C2_3  and  C3_4 
REMARK    3  A    between atoms: C5_8  and  N3_9 
REMARK       I    between atoms: C6_16  and  N12_29 
REMARK    4  A    between atoms: N6_17  and  N7_19 
REMARK    5  A    between atoms: C7_25  and  N11_26 
REMARK    6  A    between atoms: N12_29  and  S1_31 
ROOT
HETATM    1  C1  UNL     1      20.434  38.854  37.366  1.00  0.00     0.169 C 
HETATM    2  N1  UNL     1      19.240  38.180  37.820  1.00  0.00    -0.213 N 
HETATM    3  C6  UNL     1      19.269  36.782  38.040  1.00  0.00     0.708 C 
HETATM    4  N6  UNL     1      19.936  36.346  39.046  1.00  0.00    -0.097 N 
ATOM      5  H6  UNL     1      19.956  35.338  39.203  1.00  0.00     0.208 HD
HETATM    6  N12 UNL     1      18.611  35.828  37.225  1.00  0.00    -0.096 N 
ATOM      7  H12 UNL     1      18.404  36.089  36.261  1.00  0.00     0.200 HD
ENDROOT
BRANCH   2   8
HETATM    8  C2  UNL     1      18.045  38.924  38.045  1.00  0.00     0.218 C 
BRANCH   8   9
HETATM    9  C3  UNL     1      17.442  39.545  36.862  1.00  0.00     0.114 A 
HETATM   10  N2  UNL     1      16.278  40.201  37.028  1.00  0.00    -0.350 N 
HETATM   11  C4  UNL     1      15.631  40.804  36.023  1.00  0.00     0.138 A 
ATOM     12  H2  UNL     1      15.871  40.241  37.963  1.00  0.00     0.166 HD
HETATM   13  C5  UNL     1      16.176  40.753  34.757  1.00  0.00     0.129 A 
HETATM   14  N4  UNL     1      17.324  40.104  34.597  1.00  0.00    -0.283 N 
HETATM   15  N5  UNL     1      17.945  39.513  35.620  1.00  0.00    -0.286 N 
ATOM     16  H4  UNL     1      17.743  40.055  33.668  1.00  0.00     0.188 HD
ATOM     17  H5  UNL     1      18.825  39.025  35.453  1.00  0.00     0.188 HD
BRANCH  13  18
HETATM   18  N3  UNL     1      15.559  41.335  33.761  1.00  0.00    -0.383 N 
ATOM     19  H32 UNL     1      15.365  42.337  33.751  1.00  0.00     0.157 HD
ATOM     20  H31 UNL     1      15.255  40.780  32.961  1.00  0.00     0.157 HD
ENDBRANCH  13  18
ENDBRANCH   8   9
ENDBRANCH   2   8
BRANCH   4  21
HETATM   21  N7  UNL     1      20.636  37.155  39.939  1.00  0.00     0.012 N 
HETATM   22  N8  UNL     1      21.917  37.474  39.993  1.00  0.00     0.034 NA
HETATM   23  N9  UNL     1      22.150  38.286  41.026  1.00  0.00    -0.210 N 
HETATM   24  N10 UNL     1      21.015  38.496  41.647  1.00  0.00    -0.117 N 
ATOM     25  H9  UNL     1      23.056  38.676  41.287  1.00  0.00     0.206 HD
HETATM   26  C7  UNL     1      20.079  37.801  40.980  1.00  0.00     0.726 A 
ATOM     27  H10 UNL     1      20.870  39.074  42.475  1.00  0.00     0.207 HD
BRANCH  26  28
HETATM   28  N11 UNL     1      18.836  37.766  41.302  1.00  0.00    -0.231 N 
ATOM     29 2H11 UNL     1      18.070  37.968  40.660  1.00  0.00     0.174 HD
ATOM     30 1H11 UNL     1      18.469  37.538  42.225  1.00  0.00     0.174 HD
ENDBRANCH  26  28
ENDBRANCH   4  21
BRANCH   6  31
HETATM   31  S1  UNL     1      18.144  34.276  37.745  1.00  0.00     0.223 S 
HETATM   32  O1  UNL     1      17.459  34.308  39.074  1.00  0.00    -0.577 OA
HETATM   33  O2  UNL     1      19.383  33.420  37.894  1.00  0.00    -0.577 OA
HETATM   34  O3  UNL     1      17.159  33.577  36.586  1.00  0.00    -0.577 OA
ENDBRANCH   6  31
TORSDOF 6
ENDMDL
MODEL 5
REMARK VINA RESULT: -6.098314977      2.652      5.008
REMARK  6 active torsions:
REMARK  status: ('A' for Active; 'I' for Inactive)
REMARK    1  A    between atoms: N1_2  and  C2_3 
REMARK       I    between atoms: N1_2  and  C6_16 
REMARK    2  A    between atoms: C2_3  and  C3_4 
REMARK    3  A    between atoms: C5_8  and  N3_9 
REMARK       I    between atoms: C6_16  and  N12_29 
REMARK    4  A    between atoms: N6_17  and  N7_19 
REMARK    5  A    between atoms: C7_25  and  N11_26 
REMARK    6  A    between atoms: N12_29  and  S1_31 
ROOT
HETATM    1  C1  UNL     1      18.128  39.895  38.493  1.00  0.00     0.169 C 
HETATM    2  N1  UNL     1      18.971  38.942  37.810  1.00  0.00    -0.213 N 
HETATM    3  C6  UNL     1      18.425  37.708  37.382  1.00  0.00     0.708 C 
HETATM    4  N6  UNL     1      17.596  37.726  36.401  1.00  0.00    -0.097 N 
ATOM      5  H6  UNL     1      17.203  36.837  36.094  1.00  0.00     0.208 HD
HETATM    6  N12 UNL     1      18.729  36.452  37.962  1.00  0.00    -0.096 N 
ATOM      7  H12 UNL     1      19.063  36.442  38.925  1.00  0.00     0.200 HD
ENDROOT
BRANCH   2   8
HETATM    8  C2  UNL     1      20.342  39.248  37.571  1.00  0.00     0.218 C 
BRANCH   8   9
HETATM    9  C3  UNL     1      20.645  40.649  37.263  1.00  0.00     0.114 A 
HETATM   10  N2  UNL     1      21.732  41.193  37.841  1.00  0.00    -0.350 N 
HETATM   11  C4  UNL     1      22.107  42.463  37.640  1.00  0.00     0.138 A 
ATOM     12  H2  UNL     1      22.296  40.612  38.461  1.00  0.00     0.166 HD
HETATM   13  C5  UNL     1      21.347  43.255  36.803  1.00  0.00     0.129 A 
HETATM   14  N4  UNL     1      20.275  42.714  36.235  1.00  0.00    -0.283 N 
HETATM   15  N5  UNL     1      19.928  41.445  36.456  1.00  0.00    -0.286 N 
ATOM     16  H4  UNL     1      19.701  43.284  35.614  1.00  0.00     0.188 HD
ATOM     17  H5  UNL     1      19.097  41.070  36.000  1.00  0.00     0.188 HD
BRANCH  13  18
HETATM   18  N3  UNL     1      21.697  44.498  36.594  1.00  0.00    -0.383 N 
ATOM     19  H32 UNL     1      21.997  45.114  37.349  1.00  0.00     0.157 HD
ATOM     20  H31 UNL     1      21.672  44.877  35.647  1.00  0.00     0.157 HD
ENDBRANCH  13  18
ENDBRANCH   8   9
ENDBRANCH   2   8
BRANCH   4  21
HETATM   21  N7  UNL     1      17.197  38.878  35.727  1.00  0.00     0.012 N 
HETATM   22  N8  UNL     1      17.795  39.572  34.774  1.00  0.00     0.034 NA
HETATM   23  N9  UNL     1      17.043  40.615  34.417  1.00  0.00    -0.210 N 
HETATM   24  N10 UNL     1      15.950  40.599  35.142  1.00  0.00    -0.117 N 
ATOM     25  H9  UNL     1      17.278  41.305  33.704  1.00  0.00     0.206 HD
HETATM   26  C7  UNL     1      16.041  39.530  35.950  1.00  0.00     0.726 A 
ATOM     27  H10 UNL     1      15.181  41.268  35.100  1.00  0.00     0.207 HD
BRANCH  26  28
HETATM   28  N11 UNL     1      15.146  39.193  36.807  1.00  0.00    -0.231 N 
ATOM     29 2H11 UNL     1      15.050  38.256  37.199  1.00  0.00     0.174 HD
ATOM     30 1H11 UNL     1      14.433  39.810  37.193  1.00  0.00     0.174 HD
ENDBRANCH  26  28
ENDBRANCH   4  21
BRANCH   6  31
HETATM   31  S1  UNL     1      18.573  34.959  37.160  1.00  0.00     0.223 S 
HETATM   32  O1  UNL     1      19.146  34.996  35.779  1.00  0.00    -0.577 OA
HETATM   33  O2  UNL     1      17.101  34.627  37.031  1.00  0.00    -0.577 OA
HETATM   34  O3  UNL     1      19.303  33.761  38.073  1.00  0.00    -0.577 OA
ENDBRANCH   6  31
TORSDOF 6
ENDMDL
