MODEL 1
REMARK VINA RESULT: -9.591480583      0.000      0.000
REMARK  6 active torsions:
REMARK  status: ('A' for Active; 'I' for Inactive)
REMARK    1  A    between atoms: C4_5  and  C5_6 
REMARK    2  A    between atoms: C5_6  and  N1_7 
REMARK    3  A    between atoms: N1_7  and  C6_9 
REMARK    4  A    between atoms: C9_12  and  C10_13 
REMARK    5  A    between atoms: N2_14  and  N3_16 
REMARK    6  A    between atoms: N3_16  and  C11_18 
ROOT
HETATM    1  C6  UNL     1      70.506  27.505  21.616  1.00  0.00     0.028 A 
HETATM    2  C7  UNL     1      69.895  26.353  21.162  1.00  0.00     0.030 A 
HETATM    3  C8  UNL     1      69.663  26.089  19.829  1.00  0.00     0.015 A 
HETATM    4  C9  UNL     1      70.058  27.021  18.885  1.00  0.00    -0.019 A 
HETATM    5  C17 UNL     1      70.668  28.176  19.292  1.00  0.00     0.015 A 
HETATM    6  C18 UNL     1      70.883  28.407  20.620  1.00  0.00     0.030 A 
ENDROOT
BRANCH   4   7
HETATM    7  C10 UNL     1      69.831  26.778  17.472  1.00  0.00     0.118 C 
HETATM    8  N2  UNL     1      70.314  27.557  16.606  1.00  0.00    -0.311 N 
ATOM      9  H2  UNL     1      70.859  28.344  16.959  1.00  0.00     0.186 HD
BRANCH   8  10
HETATM   10  N3  UNL     1      70.189  27.464  15.239  1.00  0.00    -0.301 N 
ATOM     11  H3  UNL     1      70.319  26.570  14.767  1.00  0.00     0.187 HD
BRANCH  10  12
HETATM   12  C11 UNL     1      69.875  28.633  14.497  1.00  0.00     0.048 A 
HETATM   13  C12 UNL     1      70.858  29.436  13.971  1.00  0.00     0.031 A 
HETATM   14  C13 UNL     1      70.569  30.580  13.245  1.00  0.00     0.002 A 
HETATM   15  C14 UNL     1      69.262  30.947  13.030  1.00  0.00     0.000 A 
HETATM   16  C15 UNL     1      68.266  30.155  13.549  1.00  0.00     0.002 A 
HETATM   17  C16 UNL     1      68.552  29.020  14.269  1.00  0.00     0.031 A 
ENDBRANCH  10  12
ENDBRANCH   8  10
ENDBRANCH   4   7
BRANCH   1  18
HETATM   18  N1  UNL     1      70.739  27.766  22.983  1.00  0.00    -0.386 N 
ATOM     19  H1  UNL     1      71.307  28.563  23.269  1.00  0.00     0.160 HD
BRANCH  18  20
HETATM   20  C5  UNL     1      70.164  26.890  23.962  1.00  0.00     0.158 C 
BRANCH  20  21
HETATM   21  C4  UNL     1      68.850  27.312  24.449  1.00  0.00    -0.040 A 
HETATM   22  C3  UNL     1      68.670  28.428  25.224  1.00  0.00     0.012 A 
HETATM   23  C2  UNL     1      67.393  28.790  25.665  1.00  0.00     0.043 A 
HETATM   24  C1  UNL     1      66.286  28.031  25.327  1.00  0.00     0.116 A 
HETATM   25  F1  UNL     1      65.033  28.372  25.749  1.00  0.00    -0.206 F 
HETATM   26  C20 UNL     1      66.464  26.911  24.549  1.00  0.00     0.043 A 
HETATM   27  C19 UNL     1      67.745  26.558  24.113  1.00  0.00     0.012 A 
ENDBRANCH  20  21
ENDBRANCH  18  20
ENDBRANCH   1  18
TORSDOF 6
ENDMDL
MODEL 2
REMARK VINA RESULT: -9.589763321      0.036      1.363
REMARK  6 active torsions:
REMARK  status: ('A' for Active; 'I' for Inactive)
REMARK    1  A    between atoms: C4_5  and  C5_6 
REMARK    2  A    between atoms: C5_6  and  N1_7 
REMARK    3  A    between atoms: N1_7  and  C6_9 
REMARK    4  A    between atoms: C9_12  and  C10_13 
REMARK    5  A    between atoms: N2_14  and  N3_16 
REMARK    6  A    between atoms: N3_16  and  C11_18 
ROOT
HETATM    1  C6  UNL     1      70.542  27.523  21.642  1.00  0.00     0.028 A 
HETATM    2  C7  UNL     1      70.889  28.430  20.661  1.00  0.00     0.030 A 
HETATM    3  C8  UNL     1      70.677  28.216  19.316  1.00  0.00     0.015 A 
HETATM    4  C9  UNL     1      70.086  27.031  18.913  1.00  0.00    -0.019 A 
HETATM    5  C17 UNL     1      69.726  26.105  19.854  1.00  0.00     0.015 A 
HETATM    6  C18 UNL     1      69.950  26.347  21.178  1.00  0.00     0.030 A 
ENDROOT
BRANCH   4   7
HETATM    7  C10 UNL     1      69.846  26.769  17.506  1.00  0.00     0.118 C 
HETATM    8  N2  UNL     1      70.285  27.563  16.628  1.00  0.00    -0.311 N 
ATOM      9  H2  UNL     1      70.801  28.373  16.968  1.00  0.00     0.186 HD
BRANCH   8  10
HETATM   10  N3  UNL     1      70.142  27.455  15.264  1.00  0.00    -0.301 N 
ATOM     11  H3  UNL     1      70.248  26.553  14.801  1.00  0.00     0.187 HD
BRANCH  10  12
HETATM   12  C11 UNL     1      69.845  28.622  14.511  1.00  0.00     0.048 A 
HETATM   13  C12 UNL     1      68.550  29.014  14.274  1.00  0.00     0.031 A 
HETATM   14  C13 UNL     1      68.242  30.148  13.541  1.00  0.00     0.002 A 
HETATM   15  C14 UNL     1      69.249  30.926  13.022  1.00  0.00     0.000 A 
HETATM   16  C15 UNL     1      70.551  30.549  13.249  1.00  0.00     0.002 A 
HETATM   17  C16 UNL     1      70.856  29.424  13.977  1.00  0.00     0.031 A 
ENDBRANCH  10  12
ENDBRANCH   8  10
ENDBRANCH   4   7
BRANCH   1  18
HETATM   18  N1  UNL     1      70.763  27.752  23.016  1.00  0.00    -0.386 N 
ATOM     19  H1  UNL     1      71.340  28.534  23.326  1.00  0.00     0.160 HD
BRANCH  18  20
HETATM   20  C5  UNL     1      70.162  26.864  23.970  1.00  0.00     0.158 C 
BRANCH  20  21
HETATM   21  C4  UNL     1      68.851  27.298  24.452  1.00  0.00    -0.040 A 
HETATM   22  C3  UNL     1      68.676  28.416  25.224  1.00  0.00     0.012 A 
HETATM   23  C2  UNL     1      67.400  28.789  25.659  1.00  0.00     0.043 A 
HETATM   24  C1  UNL     1      66.289  28.039  25.319  1.00  0.00     0.116 A 
HETATM   25  F1  UNL     1      65.037  28.390  25.736  1.00  0.00    -0.206 F 
HETATM   26  C20 UNL     1      66.461  26.915  24.543  1.00  0.00     0.043 A 
HETATM   27  C19 UNL     1      67.740  26.552  24.113  1.00  0.00     0.012 A 
ENDBRANCH  20  21
ENDBRANCH  18  20
ENDBRANCH   1  18
TORSDOF 6
ENDMDL
MODEL 3
REMARK VINA RESULT: -9.565338789      0.059      1.366
REMARK  6 active torsions:
REMARK  status: ('A' for Active; 'I' for Inactive)
REMARK    1  A    between atoms: C4_5  and  C5_6 
REMARK    2  A    between atoms: C5_6  and  N1_7 
REMARK    3  A    between atoms: N1_7  and  C6_9 
REMARK    4  A    between atoms: C9_12  and  C10_13 
REMARK    5  A    between atoms: N2_14  and  N3_16 
REMARK    6  A    between atoms: N3_16  and  C11_18 
ROOT
HETATM    1  C6  UNL     1      70.549  27.522  21.636  1.00  0.00     0.028 A 
HETATM    2  C7  UNL     1      70.886  28.431  20.653  1.00  0.00     0.030 A 
HETATM    3  C8  UNL     1      70.675  28.212  19.309  1.00  0.00     0.015 A 
HETATM    4  C9  UNL     1      70.095  27.020  18.909  1.00  0.00    -0.019 A 
HETATM    5  C17 UNL     1      69.745  26.093  19.851  1.00  0.00     0.015 A 
HETATM    6  C18 UNL     1      69.967  26.340  21.175  1.00  0.00     0.030 A 
ENDROOT
BRANCH   4   7
HETATM    7  C10 UNL     1      69.857  26.754  17.502  1.00  0.00     0.118 C 
HETATM    8  N2  UNL     1      70.255  27.569  16.625  1.00  0.00    -0.311 N 
ATOM      9  H2  UNL     1      70.739  28.399  16.963  1.00  0.00     0.186 HD
BRANCH   8  10
HETATM   10  N3  UNL     1      70.108  27.460  15.261  1.00  0.00    -0.301 N 
ATOM     11  H3  UNL     1      70.201  26.555  14.800  1.00  0.00     0.187 HD
BRANCH  10  12
HETATM   12  C11 UNL     1      69.824  28.629  14.506  1.00  0.00     0.048 A 
HETATM   13  C12 UNL     1      70.827  29.414  13.992  1.00  0.00     0.031 A 
HETATM   14  C13 UNL     1      70.568  30.558  13.255  1.00  0.00     0.002 A 
HETATM   15  C14 UNL     1      69.270  30.941  13.014  1.00  0.00     0.000 A 
HETATM   16  C15 UNL     1      68.254  30.168  13.520  1.00  0.00     0.002 A 
HETATM   17  C16 UNL     1      68.511  29.033  14.251  1.00  0.00     0.031 A 
ENDBRANCH  10  12
ENDBRANCH   8  10
ENDBRANCH   4   7
BRANCH   1  18
HETATM   18  N1  UNL     1      70.769  27.755  23.010  1.00  0.00    -0.386 N 
ATOM     19  H1  UNL     1      71.326  28.552  23.319  1.00  0.00     0.160 HD
BRANCH  18  20
HETATM   20  C5  UNL     1      70.195  26.852  23.965  1.00  0.00     0.158 C 
BRANCH  20  21
HETATM   21  C4  UNL     1      68.850  27.221  24.409  1.00  0.00    -0.040 A 
HETATM   22  C3  UNL     1      67.733  26.501  24.073  1.00  0.00     0.012 A 
HETATM   23  C2  UNL     1      66.470  26.895  24.523  1.00  0.00     0.043 A 
HETATM   24  C1  UNL     1      66.319  28.019  25.316  1.00  0.00     0.116 A 
HETATM   25  F1  UNL     1      65.092  28.416  25.764  1.00  0.00    -0.206 F 
HETATM   26  C20 UNL     1      67.439  28.744  25.656  1.00  0.00     0.043 A 
HETATM   27  C19 UNL     1      68.697  28.341  25.201  1.00  0.00     0.012 A 
ENDBRANCH  20  21
ENDBRANCH  18  20
ENDBRANCH   1  18
TORSDOF 6
ENDMDL
MODEL 4
REMARK VINA RESULT: -9.554313151      0.052      1.366
REMARK  6 active torsions:
REMARK  status: ('A' for Active; 'I' for Inactive)
REMARK    1  A    between atoms: C4_5  and  C5_6 
REMARK    2  A    between atoms: C5_6  and  N1_7 
REMARK    3  A    between atoms: N1_7  and  C6_9 
REMARK    4  A    between atoms: C9_12  and  C10_13 
REMARK    5  A    between atoms: N2_14  and  N3_16 
REMARK    6  A    between atoms: N3_16  and  C11_18 
ROOT
HETATM    1  C6  UNL     1      70.540  27.540  21.635  1.00  0.00     0.028 A 
HETATM    2  C7  UNL     1      69.971  26.361  21.195  1.00  0.00     0.030 A 
HETATM    3  C8  UNL     1      69.750  26.071  19.867  1.00  0.00     0.015 A 
HETATM    4  C9  UNL     1      70.112  27.005  18.910  1.00  0.00    -0.019 A 
HETATM    5  C17 UNL     1      70.679  28.186  19.303  1.00  0.00     0.015 A 
HETATM    6  C18 UNL     1      70.885  28.443  20.628  1.00  0.00     0.030 A 
ENDROOT
BRANCH   4   7
HETATM    7  C10 UNL     1      69.894  26.736  17.501  1.00  0.00     0.118 C 
HETATM    8  N2  UNL     1      70.265  27.569  16.629  1.00  0.00    -0.311 N 
ATOM      9  H2  UNL     1      70.714  28.417  16.975  1.00  0.00     0.186 HD
BRANCH   8  10
HETATM   10  N3  UNL     1      70.131  27.461  15.264  1.00  0.00    -0.301 N 
ATOM     11  H3  UNL     1      70.235  26.558  14.803  1.00  0.00     0.187 HD
BRANCH  10  12
HETATM   12  C11 UNL     1      69.845  28.628  14.508  1.00  0.00     0.048 A 
HETATM   13  C12 UNL     1      68.553  29.022  14.254  1.00  0.00     0.031 A 
HETATM   14  C13 UNL     1      68.256  30.157  13.518  1.00  0.00     0.002 A 
HETATM   15  C14 UNL     1      69.270  30.934  13.012  1.00  0.00     0.000 A 
HETATM   16  C15 UNL     1      70.569  30.556  13.256  1.00  0.00     0.002 A 
HETATM   17  C16 UNL     1      70.864  29.430  13.987  1.00  0.00     0.031 A 
ENDBRANCH  10  12
ENDBRANCH   8  10
ENDBRANCH   4   7
BRANCH   1  18
HETATM   18  N1  UNL     1      70.763  27.826  22.998  1.00  0.00    -0.386 N 
ATOM     19  H1  UNL     1      71.301  28.647  23.275  1.00  0.00     0.160 HD
BRANCH  18  20
HETATM   20  C5  UNL     1      70.219  26.942  23.989  1.00  0.00     0.158 C 
BRANCH  20  21
HETATM   21  C4  UNL     1      68.866  27.288  24.426  1.00  0.00    -0.040 A 
HETATM   22  C3  UNL     1      67.765  26.544  24.093  1.00  0.00     0.012 A 
HETATM   23  C2  UNL     1      66.493  26.918  24.537  1.00  0.00     0.043 A 
HETATM   24  C1  UNL     1      66.319  28.044  25.321  1.00  0.00     0.116 A 
HETATM   25  F1  UNL     1      65.083  28.421  25.762  1.00  0.00    -0.206 F 
HETATM   26  C20 UNL     1      67.423  28.793  25.657  1.00  0.00     0.043 A 
HETATM   27  C19 UNL     1      68.690  28.411  25.209  1.00  0.00     0.012 A 
ENDBRANCH  20  21
ENDBRANCH  18  20
ENDBRANCH   1  18
TORSDOF 6
ENDMDL
MODEL 5
REMARK VINA RESULT: -9.325370540      2.812      3.799
REMARK  6 active torsions:
REMARK  status: ('A' for Active; 'I' for Inactive)
REMARK    1  A    between atoms: C4_5  and  C5_6 
REMARK    2  A    between atoms: C5_6  and  N1_7 
REMARK    3  A    between atoms: N1_7  and  C6_9 
REMARK    4  A    between atoms: C9_12  and  C10_13 
REMARK    5  A    between atoms: N2_14  and  N3_16 
REMARK    6  A    between atoms: N3_16  and  C11_18 
ROOT
HETATM    1  C6  UNL     1      66.449  25.013  23.028  1.00  0.00     0.028 A 
HETATM    2  C7  UNL     1      65.573  24.529  22.077  1.00  0.00     0.030 A 
HETATM    3  C8  UNL     1      65.835  24.537  20.725  1.00  0.00     0.015 A 
HETATM    4  C9  UNL     1      67.039  25.058  20.281  1.00  0.00    -0.019 A 
HETATM    5  C17 UNL     1      67.936  25.548  21.190  1.00  0.00     0.015 A 
HETATM    6  C18 UNL     1      67.646  25.525  22.524  1.00  0.00     0.030 A 
ENDROOT
BRANCH   4   7
HETATM    7  C10 UNL     1      67.351  25.084  18.864  1.00  0.00     0.118 C 
HETATM    8  N2  UNL     1      68.551  25.074  18.476  1.00  0.00    -0.311 N 
ATOM      9  H2  UNL     1      69.263  25.046  19.206  1.00  0.00     0.186 HD
BRANCH   8  10
HETATM   10  N3  UNL     1      69.007  25.095  17.178  1.00  0.00    -0.301 N 
ATOM     11  H3  UNL     1      69.699  24.416  16.860  1.00  0.00     0.187 HD
BRANCH  10  12
HETATM   12  C11 UNL     1      68.499  26.078  16.288  1.00  0.00     0.048 A 
HETATM   13  C12 UNL     1      69.002  27.356  16.265  1.00  0.00     0.031 A 
HETATM   14  C13 UNL     1      68.517  28.327  15.404  1.00  0.00     0.002 A 
HETATM   15  C14 UNL     1      67.497  28.027  14.533  1.00  0.00     0.000 A 
HETATM   16  C15 UNL     1      66.982  26.753  14.542  1.00  0.00     0.002 A 
HETATM   17  C16 UNL     1      67.463  25.790  15.396  1.00  0.00     0.031 A 
ENDBRANCH  10  12
ENDBRANCH   8  10
ENDBRANCH   4   7
BRANCH   1  18
HETATM   18  N1  UNL     1      66.171  25.000  24.411  1.00  0.00    -0.386 N 
ATOM     19  H1  UNL     1      66.656  24.352  25.031  1.00  0.00     0.160 HD
BRANCH  18  20
HETATM   20  C5  UNL     1      65.194  25.913  24.928  1.00  0.00     0.158 C 
BRANCH  20  21
HETATM   21  C4  UNL     1      65.683  27.281  25.103  1.00  0.00    -0.040 A 
HETATM   22  C3  UNL     1      64.868  28.379  25.006  1.00  0.00     0.012 A 
HETATM   23  C2  UNL     1      65.384  29.667  25.181  1.00  0.00     0.043 A 
HETATM   24  C1  UNL     1      66.726  29.860  25.456  1.00  0.00     0.116 A 
HETATM   25  F1  UNL     1      67.245  31.111  25.630  1.00  0.00    -0.206 F 
HETATM   26  C20 UNL     1      67.547  28.760  25.554  1.00  0.00     0.043 A 
HETATM   27  C19 UNL     1      67.021  27.477  25.377  1.00  0.00     0.012 A 
ENDBRANCH  20  21
ENDBRANCH  18  20
ENDBRANCH   1  18
TORSDOF 6
ENDMDL
