MODEL 1
REMARK VINA RESULT: -4.934159120      0.000      0.000
REMARK  3 active torsions:
REMARK  status: ('A' for Active; 'I' for Inactive)
REMARK    1  A    between atoms: N1_1  and  C1_4 
REMARK    2  A    between atoms: C2_11  and  N5_12 
REMARK    3  A    between atoms: N6_15  and  C3_16 
ROOT
HETATM    1  C1  UNL     1      24.227   3.159  30.941  1.00  0.00     0.714 A 
HETATM    2  N2  UNL     1      23.370   2.205  31.372  1.00  0.00    -0.116 N 
ATOM      3  H2  UNL     1      22.861   2.333  32.246  1.00  0.00     0.207 HD
HETATM    4  N3  UNL     1      23.196   1.107  30.658  1.00  0.00    -0.214 N 
ATOM      5  H3  UNL     1      22.544   0.405  31.007  1.00  0.00     0.209 HD
HETATM    6  N4  UNL     1      23.817   0.866  29.517  1.00  0.00    -0.116 N 
ATOM      7  H4  UNL     1      23.653   0.003  28.997  1.00  0.00     0.207 HD
HETATM    8  C2  UNL     1      24.673   1.800  29.068  1.00  0.00     0.714 A 
HETATM    9  N6  UNL     1      24.868   2.933  29.781  1.00  0.00     0.048 N 
ENDROOT
BRANCH   1  10
HETATM   10  N1  UNL     1      24.439   4.253  31.592  1.00  0.00    -0.232 N 
ATOM     11  H12 UNL     1      23.956   4.423  32.474  1.00  0.00     0.174 HD
ATOM     12  H11 UNL     1      25.083   4.974  31.265  1.00  0.00     0.174 HD
ENDBRANCH   1  10
BRANCH   9  13
HETATM   13  C3  UNL     1      25.768   3.929  29.322  1.00  0.00     0.225 C 
HETATM   14  N7  UNL     1      27.134   3.896  29.650  1.00  0.00    -0.068 NA
HETATM   15  S1  UNL     1      25.194   5.140  28.391  1.00  0.00    -0.043 SA
ENDBRANCH   9  13
BRANCH   8  16
HETATM   16  N5  UNL     1      25.325   1.653  27.963  1.00  0.00    -0.232 N 
ATOM     17  H52 UNL     1      25.041   0.906  27.330  1.00  0.00     0.174 HD
ATOM     18  H51 UNL     1      26.107   2.258  27.714  1.00  0.00     0.174 HD
ENDBRANCH   8  16
TORSDOF 3
ENDMDL
MODEL 2
REMARK VINA RESULT: -4.913670783      0.049      2.401
REMARK  3 active torsions:
REMARK  status: ('A' for Active; 'I' for Inactive)
REMARK    1  A    between atoms: N1_1  and  C1_4 
REMARK    2  A    between atoms: C2_11  and  N5_12 
REMARK    3  A    between atoms: N6_15  and  C3_16 
ROOT
HETATM    1  C1  UNL     1      24.691   1.820  29.049  1.00  0.00     0.714 A 
HETATM    2  N2  UNL     1      23.828   0.883  29.502  1.00  0.00    -0.116 N 
ATOM      3  H2  UNL     1      23.674   0.028  28.968  1.00  0.00     0.207 HD
HETATM    4  N3  UNL     1      23.183   1.078  30.639  1.00  0.00    -0.214 N 
ATOM      5  H3  UNL     1      22.539   0.354  30.957  1.00  0.00     0.209 HD
HETATM    6  N4  UNL     1      23.326   2.156  31.389  1.00  0.00    -0.116 N 
ATOM      7  H4  UNL     1      22.808   2.267  32.261  1.00  0.00     0.207 HD
HETATM    8  C2  UNL     1      24.180   3.102  30.959  1.00  0.00     0.714 A 
HETATM    9  N6  UNL     1      24.851   2.925  29.798  1.00  0.00     0.048 N 
ENDROOT
BRANCH   1  10
HETATM   10  N1  UNL     1      25.351   1.688  27.946  1.00  0.00    -0.232 N 
ATOM     11  H12 UNL     1      25.185   0.879  27.348  1.00  0.00     0.174 HD
ATOM     12  H11 UNL     1      26.045   2.366  27.634  1.00  0.00     0.174 HD
ENDBRANCH   1  10
BRANCH   9  13
HETATM   13  C3  UNL     1      25.755   3.913  29.329  1.00  0.00     0.225 C 
HETATM   14  N7  UNL     1      27.125   3.866  29.640  1.00  0.00    -0.068 NA
HETATM   15  S1  UNL     1      25.182   5.130  28.406  1.00  0.00    -0.043 SA
ENDBRANCH   9  13
BRANCH   8  16
HETATM   16  N5  UNL     1      24.384   4.189  31.624  1.00  0.00    -0.232 N 
ATOM     17  H52 UNL     1      25.192   4.761  31.378  1.00  0.00     0.174 HD
ATOM     18  H51 UNL     1      23.765   4.484  32.379  1.00  0.00     0.174 HD
ENDBRANCH   8  16
TORSDOF 3
ENDMDL
MODEL 3
REMARK VINA RESULT: -4.688921680      1.036      2.686
REMARK  3 active torsions:
REMARK  status: ('A' for Active; 'I' for Inactive)
REMARK    1  A    between atoms: N1_1  and  C1_4 
REMARK    2  A    between atoms: C2_11  and  N5_12 
REMARK    3  A    between atoms: N6_15  and  C3_16 
ROOT
HETATM    1  C1  UNL     1      24.689   2.610  29.976  1.00  0.00     0.714 A 
HETATM    2  N2  UNL     1      23.801   2.060  30.835  1.00  0.00    -0.116 N 
ATOM      3  H2  UNL     1      23.469   1.107  30.687  1.00  0.00     0.207 HD
HETATM    4  N3  UNL     1      23.364   2.760  31.868  1.00  0.00    -0.214 N 
ATOM      5  H3  UNL     1      22.696   2.318  32.499  1.00  0.00     0.209 HD
HETATM    6  N4  UNL     1      23.744   3.997  32.130  1.00  0.00    -0.116 N 
ATOM      7  H4  UNL     1      23.382   4.502  32.939  1.00  0.00     0.207 HD
HETATM    8  C2  UNL     1      24.627   4.566  31.290  1.00  0.00     0.714 A 
HETATM    9  N6  UNL     1      25.088   3.869  30.227  1.00  0.00     0.048 N 
ENDROOT
BRANCH   1  10
HETATM   10  N1  UNL     1      25.153   1.978  28.950  1.00  0.00    -0.232 N 
ATOM     11  H12 UNL     1      24.850   2.238  28.012  1.00  0.00     0.174 HD
ATOM     12  H11 UNL     1      25.825   1.215  29.030  1.00  0.00     0.174 HD
ENDBRANCH   1  10
BRANCH   9  13
HETATM   13  C3  UNL     1      26.020   4.454  29.329  1.00  0.00     0.225 C 
HETATM   14  N7  UNL     1      27.406   4.357  29.540  1.00  0.00    -0.068 NA
HETATM   15  S1  UNL     1      25.459   5.257  28.025  1.00  0.00    -0.043 SA
ENDBRANCH   9  13
BRANCH   8  16
HETATM   16  N5  UNL     1      25.056   5.771  31.465  1.00  0.00    -0.232 N 
ATOM     17  H52 UNL     1      25.908   5.906  32.010  1.00  0.00     0.174 HD
ATOM     18  H51 UNL     1      24.569   6.579  31.077  1.00  0.00     0.174 HD
ENDBRANCH   8  16
TORSDOF 3
ENDMDL
MODEL 4
REMARK VINA RESULT: -4.665173227      1.915      3.578
REMARK  3 active torsions:
REMARK  status: ('A' for Active; 'I' for Inactive)
REMARK    1  A    between atoms: N1_1  and  C1_4 
REMARK    2  A    between atoms: C2_11  and  N5_12 
REMARK    3  A    between atoms: N6_15  and  C3_16 
ROOT
HETATM    1  C1  UNL     1      24.973   4.237  28.673  1.00  0.00     0.714 A 
HETATM    2  N2  UNL     1      24.903   5.489  29.179  1.00  0.00    -0.116 N 
ATOM      3  H2  UNL     1      25.174   6.288  28.606  1.00  0.00     0.207 HD
HETATM    4  N3  UNL     1      24.482   5.675  30.418  1.00  0.00    -0.214 N 
ATOM      5  H3  UNL     1      24.439   6.630  30.772  1.00  0.00     0.209 HD
HETATM    6  N4  UNL     1      24.113   4.695  31.223  1.00  0.00    -0.116 N 
ATOM      7  H4  UNL     1      23.794   4.882  32.173  1.00  0.00     0.207 HD
HETATM    8  C2  UNL     1      24.174   3.440  30.742  1.00  0.00     0.714 A 
HETATM    9  N6  UNL     1      24.601   3.226  29.476  1.00  0.00     0.048 N 
ENDROOT
BRANCH   1  10
HETATM   10  N1  UNL     1      25.376   3.990  27.470  1.00  0.00    -0.232 N 
ATOM     11  H12 UNL     1      25.984   4.654  26.991  1.00  0.00     0.174 HD
ATOM     12  H11 UNL     1      25.112   3.146  26.962  1.00  0.00     0.174 HD
ENDBRANCH   1  10
BRANCH   9  13
HETATM   13  C3  UNL     1      24.672   1.908  28.952  1.00  0.00     0.225 C 
HETATM   14  N7  UNL     1      25.805   1.451  28.259  1.00  0.00    -0.068 NA
HETATM   15  S1  UNL     1      23.402   0.907  29.165  1.00  0.00    -0.043 SA
ENDBRANCH   9  13
BRANCH   8  16
HETATM   16  N5  UNL     1      23.834   2.419  31.454  1.00  0.00    -0.232 N 
ATOM     17  H52 UNL     1      23.110   2.543  32.162  1.00  0.00     0.174 HD
ATOM     18  H51 UNL     1      24.267   1.505  31.327  1.00  0.00     0.174 HD
ENDBRANCH   8  16
TORSDOF 3
ENDMDL
MODEL 5
REMARK VINA RESULT: -4.617050165      1.922      3.100
REMARK  3 active torsions:
REMARK  status: ('A' for Active; 'I' for Inactive)
REMARK    1  A    between atoms: N1_1  and  C1_4 
REMARK    2  A    between atoms: C2_11  and  N5_12 
REMARK    3  A    between atoms: N6_15  and  C3_16 
ROOT
HETATM    1  C1  UNL     1      24.168   3.381  30.720  1.00  0.00     0.714 A 
HETATM    2  N2  UNL     1      24.119   4.647  31.193  1.00  0.00    -0.116 N 
ATOM      3  H2  UNL     1      23.801   4.825  32.145  1.00  0.00     0.207 HD
HETATM    4  N3  UNL     1      24.483   5.653  30.417  1.00  0.00    -0.214 N 
ATOM      5  H3  UNL     1      24.435   6.597  30.800  1.00  0.00     0.209 HD
HETATM    6  N4  UNL     1      24.904   5.506  29.174  1.00  0.00    -0.116 N 
ATOM      7  H4  UNL     1      25.176   6.311  28.608  1.00  0.00     0.207 HD
HETATM    8  C2  UNL     1      24.963   4.256  28.682  1.00  0.00     0.714 A 
HETATM    9  N6  UNL     1      24.595   3.210  29.457  1.00  0.00     0.048 N 
ENDROOT
BRANCH   1  10
HETATM   10  N1  UNL     1      23.827   2.356  31.429  1.00  0.00    -0.232 N 
ATOM     11  H12 UNL     1      23.650   2.465  32.428  1.00  0.00     0.174 HD
ATOM     12  H11 UNL     1      23.720   1.422  31.034  1.00  0.00     0.174 HD
ENDBRANCH   1  10
BRANCH   9  13
HETATM   13  C3  UNL     1      24.650   1.884  28.955  1.00  0.00     0.225 C 
HETATM   14  N7  UNL     1      25.775   1.404  28.263  1.00  0.00    -0.068 NA
HETATM   15  S1  UNL     1      23.370   0.900  29.190  1.00  0.00    -0.043 SA
ENDBRANCH   9  13
BRANCH   8  16
HETATM   16  N5  UNL     1      25.362   4.015  27.478  1.00  0.00    -0.232 N 
ATOM     17  H52 UNL     1      25.997   4.680  27.037  1.00  0.00     0.174 HD
ATOM     18  H51 UNL     1      25.061   3.185  26.966  1.00  0.00     0.174 HD
ENDBRANCH   8  16
TORSDOF 3
ENDMDL
