MODEL 1
REMARK VINA RESULT: -6.457705818      0.000      0.000
REMARK  2 active torsions:
REMARK  status: ('A' for Active; 'I' for Inactive)
REMARK    1  A    between atoms: N1_1  and  C1_4 
REMARK    2  A    between atoms: N4_13  and  N5_14 
ROOT
HETATM    1  C1  UNL     1      24.945   4.680  29.180  1.00  0.00     0.680 A 
HETATM    2  N2  UNL     1      24.460   4.952  30.404  1.00  0.00    -0.154 N 
ATOM      3  H2  UNL     1      24.472   5.898  30.786  1.00  0.00     0.187 HD
HETATM    4  C2  UNL     1      23.958   3.916  31.099  1.00  0.00     0.290 A 
HETATM    5  O1  UNL     1      23.496   4.135  32.248  1.00  0.00    -0.265 OA
HETATM    6  C3  UNL     1      23.939   2.636  30.587  1.00  0.00     0.149 A 
HETATM    7  N3  UNL     1      23.506   1.429  31.049  1.00  0.00    -0.343 N 
ATOM      8  H3  UNL     1      23.075   1.256  31.957  1.00  0.00     0.167 HD
HETATM    9  C4  UNL     1      23.747   0.504  30.100  1.00  0.00     0.208 A 
HETATM   10  N4  UNL     1      24.323   1.066  29.030  1.00  0.00    -0.239 N 
HETATM   11  C5  UNL     1      24.443   2.377  29.325  1.00  0.00     0.175 A 
HETATM   12  N6  UNL     1      24.941   3.446  28.655  1.00  0.00    -0.172 N 
ATOM     13  H6  UNL     1      25.324   3.307  27.721  1.00  0.00     0.186 HD
ENDROOT
BRANCH   1  14
HETATM   14  N1  UNL     1      25.429   5.670  28.506  1.00  0.00    -0.234 N 
ATOM     15  H12 UNL     1      25.021   6.600  28.597  1.00  0.00     0.174 HD
ATOM     16  H11 UNL     1      26.221   5.472  27.895  1.00  0.00     0.174 HD
ENDBRANCH   1  14
BRANCH  10  17
HETATM   17  N5  UNL     1      24.722   0.431  27.844  1.00  0.00    -0.336 N 
ATOM     18  H52 UNL     1      24.396   0.638  26.900  1.00  0.00     0.177 HD
ATOM     19  H51 UNL     1      25.393  -0.331  27.745  1.00  0.00     0.177 HD
ENDBRANCH  10  17
TORSDOF 2
ENDMDL
MODEL 2
REMARK VINA RESULT: -6.269297749      2.183      4.195
REMARK  2 active torsions:
REMARK  status: ('A' for Active; 'I' for Inactive)
REMARK    1  A    between atoms: N1_1  and  C1_4 
REMARK    2  A    between atoms: N4_13  and  N5_14 
ROOT
HETATM    1  C1  UNL     1      24.448   1.617  28.809  1.00  0.00     0.680 A 
HETATM    2  N2  UNL     1      25.203   2.182  27.851  1.00  0.00    -0.154 N 
ATOM      3  H2  UNL     1      25.414   1.695  26.980  1.00  0.00     0.187 HD
HETATM    4  C2  UNL     1      25.666   3.420  28.098  1.00  0.00     0.290 A 
HETATM    5  O1  UNL     1      26.376   3.978  27.224  1.00  0.00    -0.265 OA
HETATM    6  C3  UNL     1      25.382   4.083  29.273  1.00  0.00     0.149 A 
HETATM    7  N3  UNL     1      25.703   5.305  29.782  1.00  0.00    -0.343 N 
ATOM      8  H3  UNL     1      26.275   6.014  29.321  1.00  0.00     0.167 HD
HETATM    9  C4  UNL     1      25.138   5.418  30.998  1.00  0.00     0.208 A 
HETATM   10  N4  UNL     1      24.455   4.307  31.305  1.00  0.00    -0.239 N 
HETATM   11  C5  UNL     1      24.603   3.483  30.246  1.00  0.00     0.175 A 
HETATM   12  N6  UNL     1      24.155   2.235  29.962  1.00  0.00    -0.172 N 
ATOM     13  H6  UNL     1      23.576   1.751  30.647  1.00  0.00     0.186 HD
ENDROOT
BRANCH   1  14
HETATM   14  N1  UNL     1      24.000   0.427  28.579  1.00  0.00    -0.234 N 
ATOM     15  H12 UNL     1      24.614  -0.380  28.681  1.00  0.00     0.174 HD
ATOM     16  H11 UNL     1      23.022   0.346  28.298  1.00  0.00     0.174 HD
ENDBRANCH   1  14
BRANCH  10  17
HETATM   17  N5  UNL     1      23.733   4.047  32.479  1.00  0.00    -0.336 N 
ATOM     18  H52 UNL     1      23.905   3.297  33.149  1.00  0.00     0.177 HD
ATOM     19  H51 UNL     1      22.931   4.564  32.841  1.00  0.00     0.177 HD
ENDBRANCH  10  17
TORSDOF 2
ENDMDL
MODEL 3
REMARK VINA RESULT: -6.136068565      2.001      2.759
REMARK  2 active torsions:
REMARK  status: ('A' for Active; 'I' for Inactive)
REMARK    1  A    between atoms: N1_1  and  C1_4 
REMARK    2  A    between atoms: N4_13  and  N5_14 
ROOT
HETATM    1  C1  UNL     1      24.971   4.838  30.270  1.00  0.00     0.680 A 
HETATM    2  N2  UNL     1      25.718   4.923  29.155  1.00  0.00    -0.154 N 
ATOM      3  H2  UNL     1      26.210   5.780  28.905  1.00  0.00     0.187 HD
HETATM    4  C2  UNL     1      25.785   3.821  28.387  1.00  0.00     0.290 A 
HETATM    5  O1  UNL     1      26.474   3.865  27.337  1.00  0.00    -0.265 OA
HETATM    6  C3  UNL     1      25.123   2.658  28.722  1.00  0.00     0.149 A 
HETATM    7  N3  UNL     1      25.012   1.425  28.153  1.00  0.00    -0.343 N 
ATOM      8  H3  UNL     1      25.453   1.126  27.283  1.00  0.00     0.167 HD
HETATM    9  C4  UNL     1      24.219   0.669  28.936  1.00  0.00     0.208 A 
HETATM   10  N4  UNL     1      23.806   1.368  30.001  1.00  0.00    -0.239 N 
HETATM   11  C5  UNL     1      24.360   2.592  29.873  1.00  0.00     0.175 A 
HETATM   12  N6  UNL     1      24.316   3.722  30.622  1.00  0.00    -0.172 N 
ATOM     13  H6  UNL     1      23.767   3.724  31.480  1.00  0.00     0.186 HD
ENDROOT
BRANCH   1  14
HETATM   14  N1  UNL     1      24.902   5.892  31.013  1.00  0.00    -0.234 N 
ATOM     15  H12 UNL     1      25.691   6.156  31.602  1.00  0.00     0.174 HD
ATOM     16  H11 UNL     1      24.036   6.429  30.976  1.00  0.00     0.174 HD
ENDBRANCH   1  14
BRANCH  10  17
HETATM   17  N5  UNL     1      22.972   0.926  31.039  1.00  0.00    -0.336 N 
ATOM     18  H52 UNL     1      22.007   1.209  31.211  1.00  0.00     0.177 HD
ATOM     19  H51 UNL     1      23.201   0.259  31.776  1.00  0.00     0.177 HD
ENDBRANCH  10  17
TORSDOF 2
ENDMDL
MODEL 4
REMARK VINA RESULT: -6.100920429      1.078      3.324
REMARK  2 active torsions:
REMARK  status: ('A' for Active; 'I' for Inactive)
REMARK    1  A    between atoms: N1_1  and  C1_4 
REMARK    2  A    between atoms: N4_13  and  N5_14 
ROOT
HETATM    1  C1  UNL     1      23.783   1.420  30.494  1.00  0.00     0.680 A 
HETATM    2  N2  UNL     1      23.436   2.212  31.524  1.00  0.00    -0.154 N 
ATOM      3  H2  UNL     1      22.981   1.839  32.356  1.00  0.00     0.187 HD
HETATM    4  C2  UNL     1      23.719   3.521  31.401  1.00  0.00     0.290 A 
HETATM    5  O1  UNL     1      23.408   4.291  32.344  1.00  0.00    -0.265 OA
HETATM    6  C3  UNL     1      24.335   4.031  30.277  1.00  0.00     0.149 A 
HETATM    7  N3  UNL     1      24.733   5.274  29.887  1.00  0.00    -0.343 N 
ATOM      8  H3  UNL     1      24.627   6.133  30.428  1.00  0.00     0.167 HD
HETATM    9  C4  UNL     1      25.289   5.175  28.665  1.00  0.00     0.208 A 
HETATM   10  N4  UNL     1      25.270   3.905  28.241  1.00  0.00    -0.239 N 
HETATM   11  C5  UNL     1      24.683   3.198  29.229  1.00  0.00     0.175 A 
HETATM   12  N6  UNL     1      24.382   1.886  29.389  1.00  0.00    -0.172 N 
ATOM     13  H6  UNL     1      24.619   1.231  28.644  1.00  0.00     0.186 HD
ENDROOT
BRANCH   1  14
HETATM   14  N1  UNL     1      23.514   0.161  30.605  1.00  0.00    -0.234 N 
ATOM     15  H12 UNL     1      22.553  -0.167  30.516  1.00  0.00     0.174 HD
ATOM     16  H11 UNL     1      24.298  -0.467  30.782  1.00  0.00     0.174 HD
ENDBRANCH   1  14
BRANCH  10  17
HETATM   17  N5  UNL     1      25.756   3.406  27.023  1.00  0.00    -0.336 N 
ATOM     18  H52 UNL     1      25.478   3.700  26.087  1.00  0.00     0.177 HD
ATOM     19  H51 UNL     1      26.457   2.678  26.888  1.00  0.00     0.177 HD
ENDBRANCH  10  17
TORSDOF 2
ENDMDL
MODEL 5
REMARK VINA RESULT: -6.022033154      1.366      3.522
REMARK  2 active torsions:
REMARK  status: ('A' for Active; 'I' for Inactive)
REMARK    1  A    between atoms: N1_1  and  C1_4 
REMARK    2  A    between atoms: N4_13  and  N5_14 
ROOT
HETATM    1  C1  UNL     1      24.763   1.161  28.448  1.00  0.00     0.680 A 
HETATM    2  N2  UNL     1      24.142   0.606  29.503  1.00  0.00    -0.154 N 
ATOM      3  H2  UNL     1      23.939  -0.393  29.540  1.00  0.00     0.187 HD
HETATM    4  C2  UNL     1      23.801   1.432  30.507  1.00  0.00     0.290 A 
HETATM    5  O1  UNL     1      23.218   0.947  31.510  1.00  0.00    -0.265 OA
HETATM    6  C3  UNL     1      24.074   2.784  30.463  1.00  0.00     0.149 A 
HETATM    7  N3  UNL     1      23.854   3.830  31.307  1.00  0.00    -0.343 N 
ATOM      8  H3  UNL     1      23.397   3.779  32.218  1.00  0.00     0.167 HD
HETATM    9  C4  UNL     1      24.343   4.945  30.733  1.00  0.00     0.208 A 
HETATM   10  N4  UNL     1      24.878   4.663  29.538  1.00  0.00    -0.239 N 
HETATM   11  C5  UNL     1      24.714   3.335  29.368  1.00  0.00     0.175 A 
HETATM   12  N6  UNL     1      25.042   2.470  28.376  1.00  0.00    -0.172 N 
ATOM     13  H6  UNL     1      25.515   2.828  27.547  1.00  0.00     0.186 HD
ENDROOT
BRANCH   1  14
HETATM   14  N1  UNL     1      25.093   0.373  27.479  1.00  0.00    -0.234 N 
ATOM     15  H12 UNL     1      24.490  -0.410  27.228  1.00  0.00     0.174 HD
ATOM     16  H11 UNL     1      25.968   0.575  26.994  1.00  0.00     0.174 HD
ENDBRANCH   1  14
BRANCH  10  17
HETATM   17  N5  UNL     1      25.484   5.557  28.643  1.00  0.00    -0.336 N 
ATOM     18  H52 UNL     1      26.475   5.608  28.407  1.00  0.00     0.177 HD
ATOM     19  H51 UNL     1      25.031   6.289  28.095  1.00  0.00     0.177 HD
ENDBRANCH  10  17
TORSDOF 2
ENDMDL
