MODEL 1
REMARK VINA RESULT: -7.428344353      0.000      0.000
REMARK  5 active torsions:
REMARK  status: ('A' for Active; 'I' for Inactive)
REMARK    1  A    between atoms: C2_2  and  C3_3 
REMARK    2  A    between atoms: C10_14  and  N3_15 
REMARK    3  A    between atoms: N3_15  and  C11_17 
REMARK    4  A    between atoms: C11_17  and  C12_18 
REMARK    5  A    between atoms: C12_18  and  N4_19 
ROOT
HETATM    1  C3  UNL     1      36.344 -49.456  -9.202  1.00  0.00    -0.058 A 
HETATM    2  C4  UNL     1      36.011 -49.991  -7.984  1.00  0.00     0.009 A 
HETATM    3  C5  UNL     1      36.187 -49.235  -6.846  1.00  0.00     0.031 A 
HETATM    4  C6  UNL     1      36.692 -47.944  -6.900  1.00  0.00     0.044 A 
HETATM    5  N1  UNL     1      36.853 -47.229  -5.770  1.00  0.00    -0.341 N 
ATOM      6  H1  UNL     1      36.602 -47.637  -4.870  1.00  0.00     0.167 HD
HETATM    7  C7  UNL     1      37.345 -45.974  -5.826  1.00  0.00     0.118 A 
HETATM    8  N2  UNL     1      37.505 -45.263  -4.699  1.00  0.00    -0.351 N 
ATOM      9  H2  UNL     1      37.251 -45.681  -3.805  1.00  0.00     0.166 HD
HETATM   10  C8  UNL     1      37.990 -44.016  -4.724  1.00  0.00     0.092 A 
HETATM   11  C9  UNL     1      38.329 -43.472  -5.966  1.00  0.00     0.047 A 
HETATM   12  C10 UNL     1      38.176 -44.176  -7.130  1.00  0.00     0.043 A 
HETATM   13  C13 UNL     1      37.675 -45.457  -7.078  1.00  0.00     0.035 A 
HETATM   14  C14 UNL     1      37.511 -46.186  -8.234  1.00  0.00     0.031 A 
HETATM   15  C15 UNL     1      37.009 -47.461  -8.152  1.00  0.00    -0.008 A 
HETATM   16  C16 UNL     1      36.854 -48.166  -9.314  1.00  0.00     0.021 A 
ENDROOT
BRANCH  12  17
HETATM   17  N3  UNL     1      38.482 -43.685  -8.264  1.00  0.00    -0.388 N 
ATOM     18  H3  UNL     1      39.234 -44.156  -8.767  1.00  0.00     0.159 HD
BRANCH  17  19
HETATM   19  C11 UNL     1      37.902 -42.552  -8.917  1.00  0.00     0.147 C 
BRANCH  19  20
HETATM   20  C12 UNL     1      36.480 -42.823  -9.368  1.00  0.00     0.249 C 
BRANCH  20  21
HETATM   21  N4  UNL     1      35.528 -41.855  -8.938  1.00  0.00    -0.078 N 
ATOM     22  H43 UNL     1      35.882 -41.344  -8.130  1.00  0.00     0.274 HD
ATOM     23  H42 UNL     1      35.466 -41.094  -9.614  1.00  0.00     0.274 HD
ATOM     24  H41 UNL     1      34.600 -42.232  -8.742  1.00  0.00     0.274 HD
ENDBRANCH  20  21
ENDBRANCH  19  20
ENDBRANCH  17  19
ENDBRANCH  12  17
BRANCH   1  25
HETATM   25  C2  UNL     1      36.184 -50.207 -10.477  1.00  0.00     0.034 C 
HETATM   26  C1  UNL     1      35.075 -49.527 -11.263  1.00  0.00     0.010 C 
ENDBRANCH   1  25
TORSDOF 5
ENDMDL
MODEL 2
REMARK VINA RESULT: -7.428334073      1.092      1.455
REMARK  5 active torsions:
REMARK  status: ('A' for Active; 'I' for Inactive)
REMARK    1  A    between atoms: C2_2  and  C3_3 
REMARK    2  A    between atoms: C10_14  and  N3_15 
REMARK    3  A    between atoms: N3_15  and  C11_17 
REMARK    4  A    between atoms: C11_17  and  C12_18 
REMARK    5  A    between atoms: C12_18  and  N4_19 
ROOT
HETATM    1  C3  UNL     1      36.287 -49.131  -9.133  1.00  0.00    -0.058 A 
HETATM    2  C4  UNL     1      35.912 -49.750  -7.968  1.00  0.00     0.009 A 
HETATM    3  C5  UNL     1      36.120 -49.109  -6.768  1.00  0.00     0.031 A 
HETATM    4  C6  UNL     1      36.699 -47.851  -6.704  1.00  0.00     0.044 A 
HETATM    5  N1  UNL     1      36.890 -47.248  -5.515  1.00  0.00    -0.341 N 
ATOM      6  H1  UNL     1      36.606 -47.719  -4.655  1.00  0.00     0.167 HD
HETATM    7  C7  UNL     1      37.454 -46.025  -5.457  1.00  0.00     0.118 A 
HETATM    8  N2  UNL     1      37.643 -45.426  -4.270  1.00  0.00    -0.351 N 
ATOM      9  H2  UNL     1      37.356 -45.906  -3.418  1.00  0.00     0.166 HD
HETATM   10  C8  UNL     1      38.200 -44.212  -4.182  1.00  0.00     0.092 A 
HETATM   11  C9  UNL     1      38.582 -43.582  -5.369  1.00  0.00     0.047 A 
HETATM   12  C10 UNL     1      38.400 -44.170  -6.592  1.00  0.00     0.043 A 
HETATM   13  C13 UNL     1      37.825 -45.420  -6.656  1.00  0.00     0.035 A 
HETATM   14  C14 UNL     1      37.631 -46.032  -7.873  1.00  0.00     0.031 A 
HETATM   15  C15 UNL     1      37.056 -47.278  -7.907  1.00  0.00    -0.008 A 
HETATM   16  C16 UNL     1      36.872 -47.868  -9.128  1.00  0.00     0.021 A 
ENDROOT
BRANCH  12  17
HETATM   17  N3  UNL     1      38.746 -43.600  -7.676  1.00  0.00    -0.388 N 
ATOM     18  H3  UNL     1      39.437 -44.093  -8.241  1.00  0.00     0.159 HD
BRANCH  17  19
HETATM   19  C11 UNL     1      38.284 -42.350  -8.198  1.00  0.00     0.147 C 
BRANCH  19  20
HETATM   20  C12 UNL     1      39.429 -41.459  -8.638  1.00  0.00     0.249 C 
BRANCH  20  21
HETATM   21  N4  UNL     1      40.644 -41.661  -7.923  1.00  0.00    -0.078 N 
ATOM     22  H43 UNL     1      41.156 -42.453  -8.312  1.00  0.00     0.274 HD
ATOM     23  H42 UNL     1      41.303 -40.910  -8.124  1.00  0.00     0.274 HD
ATOM     24  H41 UNL     1      40.530 -41.773  -6.916  1.00  0.00     0.274 HD
ENDBRANCH  20  21
ENDBRANCH  19  20
ENDBRANCH  17  19
ENDBRANCH  12  17
BRANCH   1  25
HETATM   25  C2  UNL     1      36.097 -49.755 -10.470  1.00  0.00     0.034 C 
HETATM   26  C1  UNL     1      34.758 -49.274 -11.005  1.00  0.00     0.010 C 
ENDBRANCH   1  25
TORSDOF 5
ENDMDL
MODEL 3
REMARK VINA RESULT: -7.392323574      3.763      6.119
REMARK  5 active torsions:
REMARK  status: ('A' for Active; 'I' for Inactive)
REMARK    1  A    between atoms: C2_2  and  C3_3 
REMARK    2  A    between atoms: C10_14  and  N3_15 
REMARK    3  A    between atoms: N3_15  and  C11_17 
REMARK    4  A    between atoms: C11_17  and  C12_18 
REMARK    5  A    between atoms: C12_18  and  N4_19 
ROOT
HETATM    1  C3  UNL     1      38.642 -48.085  -8.170  1.00  0.00    -0.058 A 
HETATM    2  C4  UNL     1      38.417 -48.370  -6.848  1.00  0.00     0.009 A 
HETATM    3  C5  UNL     1      37.152 -48.738  -6.445  1.00  0.00     0.031 A 
HETATM    4  C6  UNL     1      36.099 -48.830  -7.343  1.00  0.00     0.044 A 
HETATM    5  N1  UNL     1      34.873 -49.193  -6.919  1.00  0.00    -0.341 N 
ATOM      6  H1  UNL     1      34.718 -49.403  -5.933  1.00  0.00     0.167 HD
HETATM    7  C7  UNL     1      33.851 -49.281  -7.794  1.00  0.00     0.118 A 
HETATM    8  N2  UNL     1      32.631 -49.643  -7.370  1.00  0.00    -0.351 N 
ATOM      9  H2  UNL     1      32.487 -49.850  -6.382  1.00  0.00     0.166 HD
HETATM   10  C8  UNL     1      31.598 -49.738  -8.216  1.00  0.00     0.092 A 
HETATM   11  C9  UNL     1      31.828 -49.448  -9.563  1.00  0.00     0.047 A 
HETATM   12  C10 UNL     1      33.063 -49.077 -10.022  1.00  0.00     0.043 A 
HETATM   13  C13 UNL     1      34.110 -48.985  -9.132  1.00  0.00     0.035 A 
HETATM   14  C14 UNL     1      35.362 -48.614  -9.568  1.00  0.00     0.031 A 
HETATM   15  C15 UNL     1      36.386 -48.531  -8.658  1.00  0.00    -0.008 A 
HETATM   16  C16 UNL     1      37.622 -48.161  -9.114  1.00  0.00     0.021 A 
ENDROOT
BRANCH  12  17
HETATM   17  N3  UNL     1      33.279 -48.811 -11.248  1.00  0.00    -0.388 N 
ATOM     18  H3  UNL     1      34.224 -48.992 -11.586  1.00  0.00     0.159 HD
BRANCH  17  19
HETATM   19  C11 UNL     1      32.356 -48.289 -12.210  1.00  0.00     0.147 C 
BRANCH  19  20
HETATM   20  C12 UNL     1      32.342 -49.107 -13.486  1.00  0.00     0.249 C 
BRANCH  20  21
HETATM   21  N4  UNL     1      31.331 -48.735 -14.417  1.00  0.00    -0.078 N 
ATOM     22  H43 UNL     1      31.752 -48.343 -15.259  1.00  0.00     0.274 HD
ATOM     23  H42 UNL     1      30.889 -49.565 -14.811  1.00  0.00     0.274 HD
ATOM     24  H41 UNL     1      30.625 -48.100 -14.044  1.00  0.00     0.274 HD
ENDBRANCH  20  21
ENDBRANCH  19  20
ENDBRANCH  17  19
ENDBRANCH  12  17
BRANCH   1  25
HETATM   25  C2  UNL     1      39.977 -47.680  -8.686  1.00  0.00     0.034 C 
HETATM   26  C1  UNL     1      39.757 -46.522  -9.646  1.00  0.00     0.010 C 
ENDBRANCH   1  25
TORSDOF 5
ENDMDL
MODEL 4
REMARK VINA RESULT: -7.369328185      2.825      4.197
REMARK  5 active torsions:
REMARK  status: ('A' for Active; 'I' for Inactive)
REMARK    1  A    between atoms: C2_2  and  C3_3 
REMARK    2  A    between atoms: C10_14  and  N3_15 
REMARK    3  A    between atoms: N3_15  and  C11_17 
REMARK    4  A    between atoms: C11_17  and  C12_18 
REMARK    5  A    between atoms: C12_18  and  N4_19 
ROOT
HETATM    1  C3  UNL     1      32.586 -48.601 -11.134  1.00  0.00    -0.058 A 
HETATM    2  C4  UNL     1      31.928 -49.154 -10.065  1.00  0.00     0.009 A 
HETATM    3  C5  UNL     1      32.619 -49.385  -8.897  1.00  0.00     0.031 A 
HETATM    4  C6  UNL     1      33.964 -49.071  -8.771  1.00  0.00     0.044 A 
HETATM    5  N1  UNL     1      34.613 -49.308  -7.614  1.00  0.00    -0.341 N 
ATOM      6  H1  UNL     1      34.113 -49.721  -6.826  1.00  0.00     0.167 HD
HETATM    7  C7  UNL     1      35.921 -49.003  -7.496  1.00  0.00     0.118 A 
HETATM    8  N2  UNL     1      36.566 -49.240  -6.343  1.00  0.00    -0.351 N 
ATOM      9  H2  UNL     1      36.056 -49.652  -5.562  1.00  0.00     0.166 HD
HETATM   10  C8  UNL     1      37.864 -48.946  -6.196  1.00  0.00     0.092 A 
HETATM   11  C9  UNL     1      38.532 -48.382  -7.285  1.00  0.00     0.047 A 
HETATM   12  C10 UNL     1      37.898 -48.130  -8.472  1.00  0.00     0.043 A 
HETATM   13  C13 UNL     1      36.563 -48.441  -8.598  1.00  0.00     0.035 A 
HETATM   14  C14 UNL     1      35.902 -48.197  -9.781  1.00  0.00     0.031 A 
HETATM   15  C15 UNL     1      34.571 -48.518  -9.878  1.00  0.00    -0.008 A 
HETATM   16  C16 UNL     1      33.935 -48.266 -11.063  1.00  0.00     0.021 A 
ENDROOT
BRANCH  12  17
HETATM   17  N3  UNL     1      38.503 -47.616  -9.467  1.00  0.00    -0.388 N 
ATOM     18  H3  UNL     1      38.128 -47.847 -10.387  1.00  0.00     0.159 HD
BRANCH  17  19
HETATM   19  C11 UNL     1      39.646 -46.754  -9.452  1.00  0.00     0.147 C 
BRANCH  19  20
HETATM   20  C12 UNL     1      39.337 -45.413  -8.818  1.00  0.00     0.249 C 
BRANCH  20  21
HETATM   21  N4  UNL     1      40.300 -44.972  -7.866  1.00  0.00    -0.078 N 
ATOM     22  H43 UNL     1      40.159 -45.445  -6.973  1.00  0.00     0.274 HD
ATOM     23  H42 UNL     1      41.225 -45.327  -8.108  1.00  0.00     0.274 HD
ATOM     24  H41 UNL     1      40.332 -43.961  -7.732  1.00  0.00     0.274 HD
ENDBRANCH  20  21
ENDBRANCH  19  20
ENDBRANCH  17  19
ENDBRANCH  12  17
BRANCH   1  25
HETATM   25  C2  UNL     1      31.913 -48.320 -12.431  1.00  0.00     0.034 C 
HETATM   26  C1  UNL     1      32.565 -49.207 -13.478  1.00  0.00     0.010 C 
ENDBRANCH   1  25
TORSDOF 5
ENDMDL
MODEL 5
REMARK VINA RESULT: -7.071495368      2.326      3.516
REMARK  5 active torsions:
REMARK  status: ('A' for Active; 'I' for Inactive)
REMARK    1  A    between atoms: C2_2  and  C3_3 
REMARK    2  A    between atoms: C10_14  and  N3_15 
REMARK    3  A    between atoms: N3_15  and  C11_17 
REMARK    4  A    between atoms: C11_17  and  C12_18 
REMARK    5  A    between atoms: C12_18  and  N4_19 
ROOT
HETATM    1  C3  UNL     1      36.921 -48.664  -8.465  1.00  0.00    -0.058 A 
HETATM    2  C4  UNL     1      37.590 -48.289  -9.602  1.00  0.00     0.009 A 
HETATM    3  C5  UNL     1      38.454 -47.217  -9.552  1.00  0.00     0.031 A 
HETATM    4  C6  UNL     1      38.666 -46.506  -8.380  1.00  0.00     0.044 A 
HETATM    5  N1  UNL     1      39.517 -45.462  -8.362  1.00  0.00    -0.341 N 
ATOM      6  H1  UNL     1      40.008 -45.192  -9.213  1.00  0.00     0.167 HD
HETATM    7  C7  UNL     1      39.720 -44.773  -7.220  1.00  0.00     0.118 A 
HETATM    8  N2  UNL     1      40.568 -43.733  -7.204  1.00  0.00    -0.351 N 
ATOM      9  H2  UNL     1      41.054 -43.472  -8.062  1.00  0.00     0.166 HD
HETATM   10  C8  UNL     1      40.790 -43.031  -6.086  1.00  0.00     0.092 A 
HETATM   11  C9  UNL     1      40.108 -43.414  -4.929  1.00  0.00     0.047 A 
HETATM   12  C10 UNL     1      39.237 -44.470  -4.919  1.00  0.00     0.043 A 
HETATM   13  C13 UNL     1      39.026 -45.177  -6.081  1.00  0.00     0.035 A 
HETATM   14  C14 UNL     1      38.156 -46.243  -6.097  1.00  0.00     0.031 A 
HETATM   15  C15 UNL     1      37.965 -46.929  -7.270  1.00  0.00    -0.008 A 
HETATM   16  C16 UNL     1      37.096 -47.987  -7.262  1.00  0.00     0.021 A 
ENDROOT
BRANCH  12  17
HETATM   17  N3  UNL     1      38.614 -44.824  -3.866  1.00  0.00    -0.388 N 
ATOM     18  H3  UNL     1      38.950 -45.671  -3.410  1.00  0.00     0.159 HD
BRANCH  17  19
HETATM   19  C11 UNL     1      37.498 -44.176  -3.247  1.00  0.00     0.147 C 
BRANCH  19  20
HETATM   20  C12 UNL     1      36.356 -43.957  -4.220  1.00  0.00     0.249 C 
BRANCH  20  21
HETATM   21  N4  UNL     1      35.118 -43.604  -3.610  1.00  0.00    -0.078 N 
ATOM     22  H43 UNL     1      34.426 -44.338  -3.761  1.00  0.00     0.274 HD
ATOM     23  H42 UNL     1      35.199 -43.645  -2.595  1.00  0.00     0.274 HD
ATOM     24  H41 UNL     1      34.746 -42.700  -3.901  1.00  0.00     0.274 HD
ENDBRANCH  20  21
ENDBRANCH  19  20
ENDBRANCH  17  19
ENDBRANCH  12  17
BRANCH   1  25
HETATM   25  C2  UNL     1      35.972 -49.809  -8.436  1.00  0.00     0.034 C 
HETATM   26  C1  UNL     1      34.866 -49.452  -7.456  1.00  0.00     0.010 C 
ENDBRANCH   1  25
TORSDOF 5
ENDMDL
