MODEL 1
REMARK VINA RESULT: -7.604930039      0.000      0.000
REMARK  4 active torsions:
REMARK  status: ('A' for Active; 'I' for Inactive)
REMARK    1  A    between atoms: C2_3  and  C3_4 
REMARK    2  A    between atoms: C3_4  and  N2_5 
REMARK    3  A    between atoms: N2_5  and  C4_7 
REMARK    4  A    between atoms: C5_10  and  C6_11 
ROOT
HETATM    1  N1  UNL     1      38.487 -40.270  -6.764  1.00  0.00    -0.197 NA
HETATM    2  C1  UNL     1      37.628 -40.813  -7.318  1.00  0.00     0.060 C 
HETATM    3  C2  UNL     1      36.550 -41.490  -8.030  1.00  0.00     0.143 C 
ENDROOT
BRANCH   3   4
HETATM    4  C3  UNL     1      37.180 -42.427  -9.065  1.00  0.00     0.135 C 
BRANCH   4   5
HETATM    5  N2  UNL     1      38.469 -42.898  -8.610  1.00  0.00    -0.373 N 
ATOM      6  H2  UNL     1      39.282 -42.328  -8.839  1.00  0.00     0.161 HD
BRANCH   5   7
HETATM    7  C4  UNL     1      38.671 -43.964  -7.946  1.00  0.00     0.132 A 
HETATM    8  N3  UNL     1      37.973 -45.125  -8.161  1.00  0.00    -0.326 N 
HETATM    9  C5  UNL     1      38.207 -46.225  -7.451  1.00  0.00     0.117 A 
ATOM     10  H3  UNL     1      37.255 -45.146  -8.886  1.00  0.00     0.169 HD
HETATM   11  N4  UNL     1      39.146 -46.230  -6.490  1.00  0.00    -0.340 N 
HETATM   12  C12 UNL     1      39.856 -45.100  -6.249  1.00  0.00     0.065 A 
ATOM     13  H4  UNL     1      39.323 -47.075  -5.947  1.00  0.00     0.167 HD
HETATM   14  C13 UNL     1      40.857 -44.823  -5.346  1.00  0.00     0.049 A 
HETATM   15  C15 UNL     1      39.634 -43.960  -6.965  1.00  0.00     0.103 A 
HETATM   16  C14 UNL     1      41.226 -43.510  -5.533  1.00  0.00     0.091 A 
HETATM   17  N5  UNL     1      40.456 -42.999  -6.537  1.00  0.00    -0.361 N 
ATOM     18  H5  UNL     1      40.500 -42.047  -6.899  1.00  0.00     0.165 HD
BRANCH   9  19
HETATM   19  C6  UNL     1      37.466 -47.456  -7.680  1.00  0.00     0.008 A 
HETATM   20  C7  UNL     1      36.905 -48.154  -6.608  1.00  0.00     0.015 A 
HETATM   21  C8  UNL     1      36.193 -49.324  -6.754  1.00  0.00     0.001 A 
HETATM   22  C9  UNL     1      36.009 -49.855  -8.012  1.00  0.00     0.000 A 
HETATM   23  C10 UNL     1      36.540 -49.207  -9.102  1.00  0.00     0.001 A 
HETATM   24  C11 UNL     1      37.258 -48.022  -8.920  1.00  0.00     0.015 A 
ENDBRANCH   9  19
ENDBRANCH   5   7
ENDBRANCH   4   5
ENDBRANCH   3   4
TORSDOF 4
ENDMDL
MODEL 2
REMARK VINA RESULT: -7.599626011      0.166      1.058
REMARK  4 active torsions:
REMARK  status: ('A' for Active; 'I' for Inactive)
REMARK    1  A    between atoms: C2_3  and  C3_4 
REMARK    2  A    between atoms: C3_4  and  N2_5 
REMARK    3  A    between atoms: N2_5  and  C4_7 
REMARK    4  A    between atoms: C5_10  and  C6_11 
ROOT
HETATM    1  N1  UNL     1      38.232 -40.425  -6.740  1.00  0.00    -0.197 NA
HETATM    2  C1  UNL     1      37.436 -40.965  -7.385  1.00  0.00     0.060 C 
HETATM    3  C2  UNL     1      36.440 -41.637  -8.212  1.00  0.00     0.143 C 
ENDROOT
BRANCH   3   4
HETATM    4  C3  UNL     1      37.177 -42.552  -9.195  1.00  0.00     0.135 C 
BRANCH   4   5
HETATM    5  N2  UNL     1      38.450 -42.967  -8.649  1.00  0.00    -0.373 N 
ATOM      6  H2  UNL     1      39.258 -42.374  -8.842  1.00  0.00     0.161 HD
BRANCH   5   7
HETATM    7  C4  UNL     1      38.646 -44.010  -7.948  1.00  0.00     0.132 A 
HETATM    8  N3  UNL     1      37.945 -45.175  -8.126  1.00  0.00    -0.326 N 
HETATM    9  C5  UNL     1      38.171 -46.250  -7.377  1.00  0.00     0.117 A 
ATOM     10  H3  UNL     1      37.229 -45.219  -8.852  1.00  0.00     0.169 HD
HETATM   11  N4  UNL     1      39.106 -46.225  -6.412  1.00  0.00    -0.340 N 
HETATM   12  C12 UNL     1      39.819 -45.091  -6.207  1.00  0.00     0.065 A 
ATOM     13  H4  UNL     1      39.277 -47.052  -5.839  1.00  0.00     0.167 HD
HETATM   14  C13 UNL     1      40.817 -44.786  -5.310  1.00  0.00     0.049 A 
HETATM   15  C15 UNL     1      39.605 -43.975  -6.963  1.00  0.00     0.103 A 
HETATM   16  C14 UNL     1      41.192 -43.481  -5.541  1.00  0.00     0.091 A 
HETATM   17  N5  UNL     1      40.428 -43.003  -6.565  1.00  0.00    -0.361 N 
ATOM     18  H5  UNL     1      40.478 -42.064  -6.960  1.00  0.00     0.165 HD
BRANCH   9  19
HETATM   19  C6  UNL     1      37.427 -47.486  -7.566  1.00  0.00     0.008 A 
HETATM   20  C7  UNL     1      37.047 -47.895  -8.847  1.00  0.00     0.015 A 
HETATM   21  C8  UNL     1      36.342 -49.051  -9.097  1.00  0.00     0.001 A 
HETATM   22  C9  UNL     1      35.980 -49.866  -8.046  1.00  0.00     0.000 A 
HETATM   23  C10 UNL     1      36.329 -49.511  -6.765  1.00  0.00     0.001 A 
HETATM   24  C11 UNL     1      37.045 -48.331  -6.546  1.00  0.00     0.015 A 
ENDBRANCH   9  19
ENDBRANCH   5   7
ENDBRANCH   4   5
ENDBRANCH   3   4
TORSDOF 4
ENDMDL
MODEL 3
REMARK VINA RESULT: -7.502644743      1.180      3.446
REMARK  4 active torsions:
REMARK  status: ('A' for Active; 'I' for Inactive)
REMARK    1  A    between atoms: C2_3  and  C3_4 
REMARK    2  A    between atoms: C3_4  and  N2_5 
REMARK    3  A    between atoms: N2_5  and  C4_7 
REMARK    4  A    between atoms: C5_10  and  C6_11 
ROOT
HETATM    1  N1  UNL     1      43.083 -41.955  -4.891  1.00  0.00    -0.197 NA
HETATM    2  C1  UNL     1      42.092 -42.551  -4.893  1.00  0.00     0.060 C 
HETATM    3  C2  UNL     1      40.842 -43.304  -4.912  1.00  0.00     0.143 C 
ENDROOT
BRANCH   3   4
HETATM    4  C3  UNL     1      41.135 -44.696  -5.481  1.00  0.00     0.135 C 
BRANCH   4   5
HETATM    5  N2  UNL     1      40.893 -44.726  -6.906  1.00  0.00    -0.373 N 
ATOM      6  H2  UNL     1      41.699 -44.615  -7.520  1.00  0.00     0.161 HD
BRANCH   5   7
HETATM    7  C4  UNL     1      39.756 -44.879  -7.457  1.00  0.00     0.132 A 
HETATM    8  N3  UNL     1      39.106 -46.086  -7.510  1.00  0.00    -0.326 N 
HETATM    9  C5  UNL     1      37.918 -46.215  -8.093  1.00  0.00     0.117 A 
ATOM     10  H3  UNL     1      39.545 -46.906  -7.091  1.00  0.00     0.169 HD
HETATM   11  N4  UNL     1      37.314 -45.155  -8.655  1.00  0.00    -0.340 N 
HETATM   12  C12 UNL     1      37.927 -43.946  -8.622  1.00  0.00     0.065 A 
ATOM     13  H4  UNL     1      36.402 -45.259  -9.102  1.00  0.00     0.167 HD
HETATM   14  C13 UNL     1      37.550 -42.714  -9.106  1.00  0.00     0.049 A 
HETATM   15  C15 UNL     1      39.146 -43.789  -8.029  1.00  0.00     0.103 A 
HETATM   16  C14 UNL     1      38.554 -41.827  -8.794  1.00  0.00     0.091 A 
HETATM   17  N5  UNL     1      39.528 -42.514  -8.130  1.00  0.00    -0.361 N 
ATOM     18  H5  UNL     1      40.399 -42.121  -7.774  1.00  0.00     0.165 HD
BRANCH   9  19
HETATM   19  C6  UNL     1      37.229 -47.495  -8.149  1.00  0.00     0.008 A 
HETATM   20  C7  UNL     1      37.083 -48.169  -9.365  1.00  0.00     0.015 A 
HETATM   21  C8  UNL     1      36.442 -49.381  -9.488  1.00  0.00     0.001 A 
HETATM   22  C9  UNL     1      35.908 -49.985  -8.370  1.00  0.00     0.000 A 
HETATM   23  C10 UNL     1      36.025 -49.365  -7.149  1.00  0.00     0.001 A 
HETATM   24  C11 UNL     1      36.681 -48.135  -7.057  1.00  0.00     0.015 A 
ENDBRANCH   9  19
ENDBRANCH   5   7
ENDBRANCH   4   5
ENDBRANCH   3   4
TORSDOF 4
ENDMDL
MODEL 4
REMARK VINA RESULT: -7.501499247      1.175      3.278
REMARK  4 active torsions:
REMARK  status: ('A' for Active; 'I' for Inactive)
REMARK    1  A    between atoms: C2_3  and  C3_4 
REMARK    2  A    between atoms: C3_4  and  N2_5 
REMARK    3  A    between atoms: N2_5  and  C4_7 
REMARK    4  A    between atoms: C5_10  and  C6_11 
ROOT
HETATM    1  N1  UNL     1      43.041 -41.959  -4.884  1.00  0.00    -0.197 NA
HETATM    2  C1  UNL     1      42.055 -42.565  -4.881  1.00  0.00     0.060 C 
HETATM    3  C2  UNL     1      40.813 -43.331  -4.895  1.00  0.00     0.143 C 
ENDROOT
BRANCH   3   4
HETATM    4  C3  UNL     1      41.113 -44.711  -5.486  1.00  0.00     0.135 C 
BRANCH   4   5
HETATM    5  N2  UNL     1      40.874 -44.719  -6.912  1.00  0.00    -0.373 N 
ATOM      6  H2  UNL     1      41.681 -44.586  -7.522  1.00  0.00     0.161 HD
BRANCH   5   7
HETATM    7  C4  UNL     1      39.741 -44.877  -7.469  1.00  0.00     0.132 A 
HETATM    8  N3  UNL     1      39.097 -46.087  -7.528  1.00  0.00    -0.326 N 
HETATM    9  C5  UNL     1      37.913 -46.222  -8.117  1.00  0.00     0.117 A 
ATOM     10  H3  UNL     1      39.539 -46.906  -7.109  1.00  0.00     0.169 HD
HETATM   11  N4  UNL     1      37.306 -45.163  -8.679  1.00  0.00    -0.340 N 
HETATM   12  C12 UNL     1      37.912 -43.952  -8.640  1.00  0.00     0.065 A 
ATOM     13  H4  UNL     1      36.397 -45.271  -9.131  1.00  0.00     0.167 HD
HETATM   14  C13 UNL     1      37.531 -42.720  -9.123  1.00  0.00     0.049 A 
HETATM   15  C15 UNL     1      39.127 -43.789  -8.041  1.00  0.00     0.103 A 
HETATM   16  C14 UNL     1      38.529 -41.828  -8.805  1.00  0.00     0.091 A 
HETATM   17  N5  UNL     1      39.503 -42.511  -8.138  1.00  0.00    -0.361 N 
ATOM     18  H5  UNL     1      40.371 -42.115  -7.776  1.00  0.00     0.165 HD
BRANCH   9  19
HETATM   19  C6  UNL     1      37.231 -47.505  -8.179  1.00  0.00     0.008 A 
HETATM   20  C7  UNL     1      36.753 -48.111  -7.014  1.00  0.00     0.015 A 
HETATM   21  C8  UNL     1      36.100 -49.323  -7.002  1.00  0.00     0.001 A 
HETATM   22  C9  UNL     1      35.893 -49.995  -8.187  1.00  0.00     0.000 A 
HETATM   23  C10 UNL     1      36.342 -49.443  -9.363  1.00  0.00     0.001 A 
HETATM   24  C11 UNL     1      37.001 -48.211  -9.341  1.00  0.00     0.015 A 
ENDBRANCH   9  19
ENDBRANCH   5   7
ENDBRANCH   4   5
ENDBRANCH   3   4
TORSDOF 4
ENDMDL
MODEL 5
REMARK VINA RESULT: -7.371446303      1.576      1.629
REMARK  4 active torsions:
REMARK  status: ('A' for Active; 'I' for Inactive)
REMARK    1  A    between atoms: C2_3  and  C3_4 
REMARK    2  A    between atoms: C3_4  and  N2_5 
REMARK    3  A    between atoms: N2_5  and  C4_7 
REMARK    4  A    between atoms: C5_10  and  C6_11 
ROOT
HETATM    1  N1  UNL     1      38.157 -39.745  -6.759  1.00  0.00    -0.197 NA
HETATM    2  C1  UNL     1      38.564 -40.406  -7.617  1.00  0.00     0.060 C 
HETATM    3  C2  UNL     1      39.080 -41.253  -8.687  1.00  0.00     0.143 C 
ENDROOT
BRANCH   3   4
HETATM    4  C3  UNL     1      38.153 -42.465  -8.822  1.00  0.00     0.135 C 
BRANCH   4   5
HETATM    5  N2  UNL     1      37.558 -42.798  -7.547  1.00  0.00    -0.373 N 
ATOM      6  H2  UNL     1      37.050 -42.060  -7.060  1.00  0.00     0.161 HD
BRANCH   5   7
HETATM    7  C4  UNL     1      37.617 -43.937  -6.982  1.00  0.00     0.132 A 
HETATM    8  N3  UNL     1      37.263 -45.104  -7.610  1.00  0.00    -0.326 N 
HETATM    9  C5  UNL     1      37.335 -46.280  -6.993  1.00  0.00     0.117 A 
ATOM     10  H3  UNL     1      36.935 -45.069  -8.575  1.00  0.00     0.169 HD
HETATM   11  N4  UNL     1      37.761 -46.359  -5.721  1.00  0.00    -0.340 N 
HETATM   12  C12 UNL     1      38.119 -45.225  -5.069  1.00  0.00     0.065 A 
ATOM     13  H4  UNL     1      37.815 -47.262  -5.251  1.00  0.00     0.167 HD
HETATM   14  C13 UNL     1      38.584 -45.012  -3.791  1.00  0.00     0.049 A 
HETATM   15  C15 UNL     1      38.055 -44.008  -5.681  1.00  0.00     0.103 A 
HETATM   16  C14 UNL     1      38.793 -43.659  -3.652  1.00  0.00     0.091 A 
HETATM   17  N5  UNL     1      38.459 -43.061  -4.832  1.00  0.00    -0.361 N 
ATOM     18  H5  UNL     1      38.508 -42.062  -5.030  1.00  0.00     0.165 HD
BRANCH   9  19
HETATM   19  C6  UNL     1      36.959 -47.517  -7.659  1.00  0.00     0.008 A 
HETATM   20  C7  UNL     1      36.412 -48.576  -6.930  1.00  0.00     0.015 A 
HETATM   21  C8  UNL     1      36.035 -49.773  -7.497  1.00  0.00     0.001 A 
HETATM   22  C9  UNL     1      36.195 -49.963  -8.852  1.00  0.00     0.000 A 
HETATM   23  C10 UNL     1      36.728 -48.953  -9.616  1.00  0.00     0.001 A 
HETATM   24  C11 UNL     1      37.100 -47.750  -9.011  1.00  0.00     0.015 A 
ENDBRANCH   9  19
ENDBRANCH   5   7
ENDBRANCH   4   5
ENDBRANCH   3   4
TORSDOF 4
ENDMDL
