MODEL 1
REMARK VINA RESULT: -8.374420119      0.000      0.000
REMARK  3 active torsions:
REMARK  status: ('A' for Active; 'I' for Inactive)
REMARK    1  A    between atoms: N3_10  and  C5_11 
REMARK    2  A    between atoms: C5_11  and  C6_12 
REMARK    3  A    between atoms: C9_15  and  C10_16 
ROOT
HETATM    1  C6  UNL     1      36.356 -48.742  -7.872  1.00  0.00    -0.038 A 
HETATM    2  C7  UNL     1      36.216 -48.771  -6.500  1.00  0.00     0.010 A 
HETATM    3  C8  UNL     1      36.675 -47.783  -5.677  1.00  0.00     0.013 A 
HETATM    4  C9  UNL     1      37.313 -46.689  -6.205  1.00  0.00    -0.026 A 
HETATM    5  C16 UNL     1      37.472 -46.624  -7.575  1.00  0.00     0.013 A 
HETATM    6  C17 UNL     1      36.999 -47.638  -8.395  1.00  0.00     0.010 A 
ENDROOT
BRANCH   1   7
HETATM    7  C5  UNL     1      35.844 -49.844  -8.702  1.00  0.00     0.187 C 
BRANCH   7   8
HETATM    8  N3  UNL     1      34.564 -49.501  -9.330  1.00  0.00    -0.287 N 
HETATM    9  C2  UNL     1      34.342 -49.379 -10.737  1.00  0.00     0.069 A 
HETATM   10  C1  UNL     1      35.203 -49.529 -11.703  1.00  0.00     0.047 C 
HETATM   11  C3  UNL     1      32.916 -49.036 -10.893  1.00  0.00     0.070 A 
HETATM   12  N1  UNL     1      32.300 -48.836 -12.005  1.00  0.00    -0.396 N 
HETATM   13  C4  UNL     1      32.411 -48.983  -9.529  1.00  0.00     0.138 A 
ATOM     14  H12 UNL     1      32.654 -48.874 -12.961  1.00  0.00     0.156 HD
ATOM     15  H11 UNL     1      31.314 -48.599 -12.113  1.00  0.00     0.156 HD
HETATM   16  N2  UNL     1      33.347 -49.245  -8.695  1.00  0.00    -0.307 N 
ATOM     17  H2  UNL     1      33.218 -49.266  -7.683  1.00  0.00     0.186 HD
ENDBRANCH   7   8
ENDBRANCH   1   7
BRANCH   4  18
HETATM   18  C10 UNL     1      37.812 -45.610  -5.339  1.00  0.00    -0.026 A 
HETATM   19  C11 UNL     1      39.104 -45.167  -5.384  1.00  0.00     0.012 A 
HETATM   20  C12 UNL     1      39.541 -44.147  -4.555  1.00  0.00     0.001 A 
HETATM   21  C13 UNL     1      38.634 -43.576  -3.667  1.00  0.00     0.000 A 
HETATM   22  C14 UNL     1      37.337 -44.047  -3.648  1.00  0.00     0.001 A 
HETATM   23  C15 UNL     1      36.901 -45.051  -4.460  1.00  0.00     0.012 A 
ENDBRANCH   4  18
TORSDOF 3
ENDMDL
MODEL 2
REMARK VINA RESULT: -8.314828768      0.124      1.069
REMARK  3 active torsions:
REMARK  status: ('A' for Active; 'I' for Inactive)
REMARK    1  A    between atoms: N3_10  and  C5_11 
REMARK    2  A    between atoms: C5_11  and  C6_12 
REMARK    3  A    between atoms: C9_15  and  C10_16 
ROOT
HETATM    1  C6  UNL     1      36.339 -48.688  -7.805  1.00  0.00    -0.038 A 
HETATM    2  C7  UNL     1      36.204 -48.718  -6.432  1.00  0.00     0.010 A 
HETATM    3  C8  UNL     1      36.655 -47.725  -5.611  1.00  0.00     0.013 A 
HETATM    4  C9  UNL     1      37.280 -46.625  -6.141  1.00  0.00    -0.026 A 
HETATM    5  C16 UNL     1      37.434 -46.558  -7.511  1.00  0.00     0.013 A 
HETATM    6  C17 UNL     1      36.969 -47.578  -8.330  1.00  0.00     0.010 A 
ENDROOT
BRANCH   1   7
HETATM    7  C5  UNL     1      35.836 -49.795  -8.633  1.00  0.00     0.187 C 
BRANCH   7   8
HETATM    8  N3  UNL     1      34.558 -49.460  -9.269  1.00  0.00    -0.287 N 
HETATM    9  C2  UNL     1      34.339 -49.360 -10.678  1.00  0.00     0.069 A 
HETATM   10  C1  UNL     1      35.201 -49.527 -11.640  1.00  0.00     0.047 C 
HETATM   11  C3  UNL     1      32.913 -49.017 -10.842  1.00  0.00     0.070 A 
HETATM   12  N1  UNL     1      32.300 -48.834 -11.958  1.00  0.00    -0.396 N 
HETATM   13  C4  UNL     1      32.406 -48.941  -9.480  1.00  0.00     0.138 A 
ATOM     14  H12 UNL     1      32.656 -48.887 -12.913  1.00  0.00     0.156 HD
ATOM     15  H11 UNL     1      31.314 -48.596 -12.072  1.00  0.00     0.156 HD
HETATM   16  N2  UNL     1      33.340 -49.192  -8.640  1.00  0.00    -0.307 N 
ATOM     17  H2  UNL     1      33.209 -49.196  -7.629  1.00  0.00     0.186 HD
ENDBRANCH   7   8
ENDBRANCH   1   7
BRANCH   4  18
HETATM   18  C10 UNL     1      37.770 -45.540  -5.276  1.00  0.00    -0.026 A 
HETATM   19  C11 UNL     1      37.015 -44.999  -4.274  1.00  0.00     0.012 A 
HETATM   20  C12 UNL     1      37.507 -43.979  -3.477  1.00  0.00     0.001 A 
HETATM   21  C13 UNL     1      38.796 -43.511  -3.715  1.00  0.00     0.000 A 
HETATM   22  C14 UNL     1      39.531 -44.079  -4.736  1.00  0.00     0.001 A 
HETATM   23  C15 UNL     1      39.052 -45.082  -5.524  1.00  0.00     0.012 A 
ENDBRANCH   4  18
TORSDOF 3
ENDMDL
MODEL 3
REMARK VINA RESULT: -8.285342706      2.957      7.447
REMARK  3 active torsions:
REMARK  status: ('A' for Active; 'I' for Inactive)
REMARK    1  A    between atoms: N3_10  and  C5_11 
REMARK    2  A    between atoms: C5_11  and  C6_12 
REMARK    3  A    between atoms: C9_15  and  C10_16 
ROOT
HETATM    1  C6  UNL     1      36.462 -48.868  -7.726  1.00  0.00    -0.038 A 
HETATM    2  C7  UNL     1      36.843 -48.437  -8.980  1.00  0.00     0.010 A 
HETATM    3  C8  UNL     1      35.988 -48.364 -10.041  1.00  0.00     0.013 A 
HETATM    4  C9  UNL     1      34.674 -48.729  -9.893  1.00  0.00    -0.026 A 
HETATM    5  C16 UNL     1      34.254 -49.166  -8.652  1.00  0.00     0.013 A 
HETATM    6  C17 UNL     1      35.138 -49.234  -7.585  1.00  0.00     0.010 A 
ENDROOT
BRANCH   1   7
HETATM    7  C5  UNL     1      37.436 -48.930  -6.625  1.00  0.00     0.187 C 
BRANCH   7   8
HETATM    8  N3  UNL     1      38.190 -47.679  -6.497  1.00  0.00    -0.287 N 
HETATM    9  C2  UNL     1      39.481 -47.433  -7.059  1.00  0.00     0.069 A 
HETATM   10  C1  UNL     1      40.222 -48.245  -7.756  1.00  0.00     0.047 C 
HETATM   11  C3  UNL     1      39.828 -46.049  -6.683  1.00  0.00     0.070 A 
HETATM   12  N1  UNL     1      40.913 -45.428  -6.990  1.00  0.00    -0.396 N 
HETATM   13  C4  UNL     1      38.682 -45.590  -5.913  1.00  0.00     0.138 A 
ATOM     14  H12 UNL     1      41.716 -45.750  -7.530  1.00  0.00     0.156 HD
ATOM     15  H11 UNL     1      41.154 -44.472  -6.730  1.00  0.00     0.156 HD
HETATM   16  N2  UNL     1      37.799 -46.515  -5.832  1.00  0.00    -0.307 N 
ATOM     17  H2  UNL     1      36.912 -46.412  -5.339  1.00  0.00     0.186 HD
ENDBRANCH   7   8
ENDBRANCH   1   7
BRANCH   4  18
HETATM   18  C10 UNL     1      33.732 -48.654 -11.021  1.00  0.00    -0.026 A 
HETATM   19  C11 UNL     1      33.865 -49.422 -12.143  1.00  0.00     0.012 A 
HETATM   20  C12 UNL     1      32.961 -49.328 -13.187  1.00  0.00     0.001 A 
HETATM   21  C13 UNL     1      31.904 -48.430 -13.073  1.00  0.00     0.000 A 
HETATM   22  C14 UNL     1      31.800 -47.669 -11.926  1.00  0.00     0.001 A 
HETATM   23  C15 UNL     1      32.687 -47.756 -10.896  1.00  0.00     0.012 A 
ENDBRANCH   4  18
TORSDOF 3
ENDMDL
MODEL 4
REMARK VINA RESULT: -8.277610951      0.125      1.501
REMARK  3 active torsions:
REMARK  status: ('A' for Active; 'I' for Inactive)
REMARK    1  A    between atoms: N3_10  and  C5_11 
REMARK    2  A    between atoms: C5_11  and  C6_12 
REMARK    3  A    between atoms: C9_15  and  C10_16 
ROOT
HETATM    1  C6  UNL     1      36.411 -48.775  -7.808  1.00  0.00    -0.038 A 
HETATM    2  C7  UNL     1      37.021 -47.648  -8.318  1.00  0.00     0.010 A 
HETATM    3  C8  UNL     1      37.472 -46.620  -7.541  1.00  0.00     0.013 A 
HETATM    4  C9  UNL     1      37.329 -46.675  -6.177  1.00  0.00    -0.026 A 
HETATM    5  C16 UNL     1      36.724 -47.788  -5.628  1.00  0.00     0.013 A 
HETATM    6  C17 UNL     1      36.272 -48.823  -6.435  1.00  0.00     0.010 A 
ENDROOT
BRANCH   1   7
HETATM    7  C5  UNL     1      35.942 -49.845  -8.702  1.00  0.00     0.187 C 
BRANCH   7   8
HETATM    8  N3  UNL     1      34.659 -49.505  -9.327  1.00  0.00    -0.287 N 
HETATM    9  C2  UNL     1      34.435 -49.380 -10.733  1.00  0.00     0.069 A 
HETATM   10  C1  UNL     1      35.295 -49.523 -11.700  1.00  0.00     0.047 C 
HETATM   11  C3  UNL     1      33.007 -49.043 -10.886  1.00  0.00     0.070 A 
HETATM   12  N1  UNL     1      32.388 -48.842 -11.997  1.00  0.00    -0.396 N 
HETATM   13  C4  UNL     1      32.503 -48.997  -9.521  1.00  0.00     0.138 A 
ATOM     14  H12 UNL     1      32.742 -48.874 -12.953  1.00  0.00     0.156 HD
ATOM     15  H11 UNL     1      31.401 -48.609 -12.103  1.00  0.00     0.156 HD
HETATM   16  N2  UNL     1      33.442 -49.258  -8.689  1.00  0.00    -0.307 N 
ATOM     17  H2  UNL     1      33.314 -49.283  -7.678  1.00  0.00     0.186 HD
ENDBRANCH   7   8
ENDBRANCH   1   7
BRANCH   4  18
HETATM   18  C10 UNL     1      37.811 -45.582  -5.318  1.00  0.00    -0.026 A 
HETATM   19  C11 UNL     1      37.044 -45.025  -4.335  1.00  0.00     0.012 A 
HETATM   20  C12 UNL     1      37.528 -43.998  -3.543  1.00  0.00     0.001 A 
HETATM   21  C13 UNL     1      38.823 -43.538  -3.767  1.00  0.00     0.000 A 
HETATM   22  C14 UNL     1      39.571 -44.123  -4.769  1.00  0.00     0.001 A 
HETATM   23  C15 UNL     1      39.099 -45.134  -5.552  1.00  0.00     0.012 A 
ENDBRANCH   4  18
TORSDOF 3
ENDMDL
MODEL 5
REMARK VINA RESULT: -8.241853978      2.656      7.604
REMARK  3 active torsions:
REMARK  status: ('A' for Active; 'I' for Inactive)
REMARK    1  A    between atoms: N3_10  and  C5_11 
REMARK    2  A    between atoms: C5_11  and  C6_12 
REMARK    3  A    between atoms: C9_15  and  C10_16 
ROOT
HETATM    1  C6  UNL     1      35.585 -49.545  -8.485  1.00  0.00    -0.038 A 
HETATM    2  C7  UNL     1      36.091 -49.580  -9.768  1.00  0.00     0.010 A 
HETATM    3  C8  UNL     1      35.333 -49.355 -10.881  1.00  0.00     0.013 A 
HETATM    4  C9  UNL     1      33.995 -49.078 -10.758  1.00  0.00    -0.026 A 
HETATM    5  C16 UNL     1      33.452 -49.034  -9.490  1.00  0.00     0.013 A 
HETATM    6  C17 UNL     1      34.238 -49.265  -8.370  1.00  0.00     0.010 A 
ENDROOT
BRANCH   1   7
HETATM    7  C5  UNL     1      36.455 -49.803  -7.327  1.00  0.00     0.187 C 
BRANCH   7   8
HETATM    8  N3  UNL     1      36.939 -48.556  -6.724  1.00  0.00    -0.287 N 
HETATM    9  C2  UNL     1      38.144 -47.879  -7.087  1.00  0.00     0.069 A 
HETATM   10  C1  UNL     1      39.026 -48.228  -7.979  1.00  0.00     0.047 C 
HETATM   11  C3  UNL     1      38.206 -46.679  -6.230  1.00  0.00     0.070 A 
HETATM   12  N1  UNL     1      39.137 -45.790  -6.235  1.00  0.00    -0.396 N 
HETATM   13  C4  UNL     1      37.002 -46.758  -5.418  1.00  0.00     0.138 A 
ATOM     14  H12 UNL     1      39.981 -45.735  -6.804  1.00  0.00     0.156 HD
ATOM     15  H11 UNL     1      39.180 -44.960  -5.643  1.00  0.00     0.156 HD
HETATM   16  N2  UNL     1      36.327 -47.805  -5.718  1.00  0.00    -0.307 N 
ATOM     17  H2  UNL     1      35.445 -48.060  -5.274  1.00  0.00     0.186 HD
ENDBRANCH   7   8
ENDBRANCH   1   7
BRANCH   4  18
HETATM   18  C10 UNL     1      33.159 -48.828 -11.943  1.00  0.00    -0.026 A 
HETATM   19  C11 UNL     1      33.310 -49.522 -13.110  1.00  0.00     0.012 A 
HETATM   20  C12 UNL     1      32.506 -49.263 -14.207  1.00  0.00     0.001 A 
HETATM   21  C13 UNL     1      31.532 -48.275 -14.100  1.00  0.00     0.000 A 
HETATM   22  C14 UNL     1      31.406 -47.593 -12.906  1.00  0.00     0.001 A 
HETATM   23  C15 UNL     1      32.195 -47.842 -11.823  1.00  0.00     0.012 A 
ENDBRANCH   4  18
TORSDOF 3
ENDMDL
