MODEL 1
REMARK VINA RESULT: -8.812344396      0.000      0.000
REMARK  3 active torsions:
REMARK  status: ('A' for Active; 'I' for Inactive)
REMARK    1  A    between atoms: C3_3  and  C4_4 
REMARK    2  A    between atoms: C8_8  and  C9_9 
REMARK    3  A    between atoms: C9_9  and  N1_10 
ROOT
HETATM    1  C1  UNL     1      33.818 -49.170 -11.693  1.00  0.00     0.012 C 
HETATM    2  C2  UNL     1      34.789 -49.617 -11.147  1.00  0.00    -0.113 C 
HETATM    3  C3  UNL     1      35.957 -50.164 -10.459  1.00  0.00     0.131 C 
ENDROOT
BRANCH   3   4
HETATM    4  C4  UNL     1      36.282 -49.406  -9.226  1.00  0.00    -0.047 A 
HETATM    5  C5  UNL     1      36.143 -49.923  -7.957  1.00  0.00     0.008 A 
HETATM    6  C6  UNL     1      36.446 -49.214  -6.814  1.00  0.00     0.001 A 
HETATM    7  C7  UNL     1      36.914 -47.920  -6.951  1.00  0.00     0.009 A 
HETATM    8  C8  UNL     1      37.073 -47.351  -8.198  1.00  0.00    -0.038 A 
HETATM    9  C16 UNL     1      36.753 -48.107  -9.319  1.00  0.00     0.017 A 
BRANCH   8  10
HETATM   10  C9  UNL     1      37.577 -45.965  -8.269  1.00  0.00     0.189 C 
BRANCH  10  11
HETATM   11  N1  UNL     1      38.416 -45.619  -7.125  1.00  0.00    -0.272 N 
HETATM   12  N2  UNL     1      39.706 -45.803  -6.983  1.00  0.00    -0.307 N 
HETATM   13  C10 UNL     1      40.161 -45.365  -5.796  1.00  0.00     0.122 A 
ATOM     14  H2  UNL     1      40.300 -46.230  -7.693  1.00  0.00     0.186 HD
HETATM   15  C11 UNL     1      39.063 -44.866  -5.141  1.00  0.00     0.026 A 
HETATM   16  C12 UNL     1      38.954 -44.298  -3.901  1.00  0.00     0.020 A 
HETATM   17  C15 UNL     1      37.995 -45.031  -5.973  1.00  0.00     0.135 A 
HETATM   18  C13 UNL     1      37.707 -43.881  -3.497  1.00  0.00     0.049 A 
HETATM   19  C14 UNL     1      36.633 -44.057  -4.356  1.00  0.00     0.100 A 
HETATM   20  N3  UNL     1      35.450 -43.679  -4.013  1.00  0.00    -0.385 N 
HETATM   21  N4  UNL     1      36.791 -44.627  -5.579  1.00  0.00    -0.327 N 
ATOM     22  H32 UNL     1      35.330 -43.250  -3.096  1.00  0.00     0.157 HD
ATOM     23  H31 UNL     1      34.659 -43.808  -4.645  1.00  0.00     0.157 HD
ATOM     24  H4  UNL     1      35.987 -44.746  -6.195  1.00  0.00     0.169 HD
ENDBRANCH  10  11
ENDBRANCH   8  10
ENDBRANCH   3   4
TORSDOF 3
ENDMDL
MODEL 2
REMARK VINA RESULT: -8.654692618      2.940      3.937
REMARK  3 active torsions:
REMARK  status: ('A' for Active; 'I' for Inactive)
REMARK    1  A    between atoms: C3_3  and  C4_4 
REMARK    2  A    between atoms: C8_8  and  C9_9 
REMARK    3  A    between atoms: C9_9  and  N1_10 
ROOT
HETATM    1  C1  UNL     1      39.646 -46.480  -9.881  1.00  0.00     0.012 C 
HETATM    2  C2  UNL     1      39.525 -47.277  -8.993  1.00  0.00    -0.113 C 
HETATM    3  C3  UNL     1      39.352 -48.248  -7.914  1.00  0.00     0.131 C 
ENDROOT
BRANCH   3   4
HETATM    4  C4  UNL     1      38.429 -47.754  -6.864  1.00  0.00    -0.047 A 
HETATM    5  C5  UNL     1      37.319 -48.450  -6.439  1.00  0.00     0.008 A 
HETATM    6  C6  UNL     1      36.463 -47.986  -5.462  1.00  0.00     0.001 A 
HETATM    7  C7  UNL     1      36.736 -46.761  -4.881  1.00  0.00     0.009 A 
HETATM    8  C8  UNL     1      37.834 -46.021  -5.267  1.00  0.00    -0.038 A 
HETATM    9  C16 UNL     1      38.665 -46.532  -6.257  1.00  0.00     0.017 A 
BRANCH   8  10
HETATM   10  C9  UNL     1      38.064 -44.721  -4.605  1.00  0.00     0.189 C 
BRANCH  10  11
HETATM   11  N1  UNL     1      39.027 -43.893  -5.326  1.00  0.00    -0.272 N 
HETATM   12  N2  UNL     1      40.319 -43.793  -5.126  1.00  0.00    -0.307 N 
HETATM   13  C10 UNL     1      40.907 -42.934  -5.976  1.00  0.00     0.122 A 
ATOM     14  H2  UNL     1      40.822 -44.310  -4.405  1.00  0.00     0.186 HD
HETATM   15  C11 UNL     1      39.898 -42.456  -6.774  1.00  0.00     0.026 A 
HETATM   16  C12 UNL     1      39.935 -41.557  -7.805  1.00  0.00     0.020 A 
HETATM   17  C15 UNL     1      38.745 -43.057  -6.361  1.00  0.00     0.135 A 
HETATM   18  C13 UNL     1      38.751 -41.260  -8.437  1.00  0.00     0.049 A 
HETATM   19  C14 UNL     1      37.588 -41.880  -8.003  1.00  0.00     0.100 A 
HETATM   20  N3  UNL     1      36.459 -41.628  -8.570  1.00  0.00    -0.385 N 
HETATM   21  N4  UNL     1      37.602 -42.767  -6.974  1.00  0.00    -0.327 N 
ATOM     22  H32 UNL     1      36.448 -40.963  -9.343  1.00  0.00     0.157 HD
ATOM     23  H31 UNL     1      35.604 -42.084  -8.251  1.00  0.00     0.157 HD
ATOM     24  H4  UNL     1      36.736 -43.212  -6.672  1.00  0.00     0.169 HD
ENDBRANCH  10  11
ENDBRANCH   8  10
ENDBRANCH   3   4
TORSDOF 3
ENDMDL
MODEL 3
REMARK VINA RESULT: -8.562212107      3.067      6.773
REMARK  3 active torsions:
REMARK  status: ('A' for Active; 'I' for Inactive)
REMARK    1  A    between atoms: C3_3  and  C4_4 
REMARK    2  A    between atoms: C8_8  and  C9_9 
REMARK    3  A    between atoms: C9_9  and  N1_10 
ROOT
HETATM    1  C1  UNL     1      38.216 -44.034  -2.867  1.00  0.00     0.012 C 
HETATM    2  C2  UNL     1      37.514 -44.439  -3.751  1.00  0.00    -0.113 C 
HETATM    3  C3  UNL     1      36.663 -44.957  -4.820  1.00  0.00     0.131 C 
ENDROOT
BRANCH   3   4
HETATM    4  C4  UNL     1      37.347 -46.003  -5.619  1.00  0.00    -0.047 A 
HETATM    5  C5  UNL     1      38.628 -45.872  -6.106  1.00  0.00     0.008 A 
HETATM    6  C6  UNL     1      39.260 -46.847  -6.848  1.00  0.00     0.001 A 
HETATM    7  C7  UNL     1      38.570 -48.015  -7.116  1.00  0.00     0.009 A 
HETATM    8  C8  UNL     1      37.283 -48.202  -6.654  1.00  0.00    -0.038 A 
HETATM    9  C16 UNL     1      36.691 -47.188  -5.910  1.00  0.00     0.017 A 
BRANCH   8  10
HETATM   10  C9  UNL     1      36.606 -49.473  -6.978  1.00  0.00     0.189 C 
BRANCH  10  11
HETATM   11  N1  UNL     1      35.774 -49.369  -8.173  1.00  0.00    -0.272 N 
HETATM   12  N2  UNL     1      36.157 -49.330  -9.426  1.00  0.00    -0.307 N 
HETATM   13  C10 UNL     1      35.123 -49.232 -10.280  1.00  0.00     0.122 A 
ATOM     14  H2  UNL     1      37.133 -49.370  -9.722  1.00  0.00     0.186 HD
HETATM   15  C11 UNL     1      33.998 -49.207  -9.494  1.00  0.00     0.026 A 
HETATM   16  C12 UNL     1      32.678 -49.117  -9.841  1.00  0.00     0.020 A 
HETATM   17  C15 UNL     1      34.416 -49.292  -8.198  1.00  0.00     0.135 A 
HETATM   18  C13 UNL     1      31.749 -49.114  -8.826  1.00  0.00     0.049 A 
HETATM   19  C14 UNL     1      32.193 -49.201  -7.515  1.00  0.00     0.100 A 
HETATM   20  N3  UNL     1      31.353 -49.201  -6.537  1.00  0.00    -0.385 N 
HETATM   21  N4  UNL     1      33.515 -49.288  -7.220  1.00  0.00    -0.327 N 
ATOM     22  H32 UNL     1      30.359 -49.136  -6.758  1.00  0.00     0.157 HD
ATOM     23  H31 UNL     1      31.679 -49.264  -5.573  1.00  0.00     0.157 HD
ATOM     24  H4  UNL     1      33.819 -49.352  -6.249  1.00  0.00     0.169 HD
ENDBRANCH  10  11
ENDBRANCH   8  10
ENDBRANCH   3   4
TORSDOF 3
ENDMDL
MODEL 4
REMARK VINA RESULT: -8.558903353      3.376      6.574
REMARK  3 active torsions:
REMARK  status: ('A' for Active; 'I' for Inactive)
REMARK    1  A    between atoms: C3_3  and  C4_4 
REMARK    2  A    between atoms: C8_8  and  C9_9 
REMARK    3  A    between atoms: C9_9  and  N1_10 
ROOT
HETATM    1  C1  UNL     1      36.383 -44.110  -4.742  1.00  0.00     0.012 C 
HETATM    2  C2  UNL     1      36.692 -45.266  -4.668  1.00  0.00    -0.113 C 
HETATM    3  C3  UNL     1      37.092 -46.670  -4.590  1.00  0.00     0.131 C 
ENDROOT
BRANCH   3   4
HETATM    4  C4  UNL     1      37.473 -47.215  -5.916  1.00  0.00    -0.047 A 
HETATM    5  C5  UNL     1      38.547 -46.757  -6.646  1.00  0.00     0.008 A 
HETATM    6  C6  UNL     1      38.897 -47.267  -7.879  1.00  0.00     0.001 A 
HETATM    7  C7  UNL     1      38.130 -48.289  -8.405  1.00  0.00     0.009 A 
HETATM    8  C8  UNL     1      37.042 -48.788  -7.718  1.00  0.00    -0.038 A 
HETATM    9  C16 UNL     1      36.731 -48.239  -6.479  1.00  0.00     0.017 A 
BRANCH   8  10
HETATM   10  C9  UNL     1      36.268 -49.880  -8.340  1.00  0.00     0.189 C 
BRANCH  10  11
HETATM   11  N1  UNL     1      35.151 -49.383  -9.139  1.00  0.00    -0.272 N 
HETATM   12  N2  UNL     1      35.153 -49.031 -10.402  1.00  0.00    -0.307 N 
HETATM   13  C10 UNL     1      33.945 -48.617 -10.824  1.00  0.00     0.122 A 
ATOM     14  H2  UNL     1      35.978 -49.068 -11.000  1.00  0.00     0.186 HD
HETATM   15  C11 UNL     1      33.119 -48.717  -9.732  1.00  0.00     0.026 A 
HETATM   16  C12 UNL     1      31.789 -48.427  -9.598  1.00  0.00     0.020 A 
HETATM   17  C15 UNL     1      33.878 -49.190  -8.701  1.00  0.00     0.135 A 
HETATM   18  C13 UNL     1      31.212 -48.628  -8.366  1.00  0.00     0.049 A 
HETATM   19  C14 UNL     1      31.999 -49.109  -7.330  1.00  0.00     0.100 A 
HETATM   20  N3  UNL     1      31.494 -49.310  -6.162  1.00  0.00    -0.385 N 
HETATM   21  N4  UNL     1      33.316 -49.383  -7.512  1.00  0.00    -0.327 N 
ATOM     22  H32 UNL     1      30.504 -49.105  -6.025  1.00  0.00     0.157 HD
ATOM     23  H31 UNL     1      32.072 -49.663  -5.399  1.00  0.00     0.157 HD
ATOM     24  H4  UNL     1      33.876 -49.736  -6.736  1.00  0.00     0.169 HD
ENDBRANCH  10  11
ENDBRANCH   8  10
ENDBRANCH   3   4
TORSDOF 3
ENDMDL
MODEL 5
REMARK VINA RESULT: -8.536650751      2.631      3.544
REMARK  3 active torsions:
REMARK  status: ('A' for Active; 'I' for Inactive)
REMARK    1  A    between atoms: C3_3  and  C4_4 
REMARK    2  A    between atoms: C8_8  and  C9_9 
REMARK    3  A    between atoms: C9_9  and  N1_10 
ROOT
HETATM    1  C1  UNL     1      33.701 -49.294  -7.504  1.00  0.00     0.012 C 
HETATM    2  C2  UNL     1      34.879 -49.456  -7.343  1.00  0.00    -0.113 C 
HETATM    3  C3  UNL     1      36.311 -49.647  -7.122  1.00  0.00     0.131 C 
ENDROOT
BRANCH   3   4
HETATM    4  C4  UNL     1      36.946 -48.450  -6.519  1.00  0.00    -0.047 A 
HETATM    5  C5  UNL     1      36.425 -47.778  -5.435  1.00  0.00     0.008 A 
HETATM    6  C6  UNL     1      37.019 -46.665  -4.878  1.00  0.00     0.001 A 
HETATM    7  C7  UNL     1      38.196 -46.203  -5.437  1.00  0.00     0.009 A 
HETATM    8  C8  UNL     1      38.763 -46.836  -6.524  1.00  0.00    -0.038 A 
HETATM    9  C16 UNL     1      38.125 -47.953  -7.049  1.00  0.00     0.017 A 
BRANCH   8  10
HETATM   10  C9  UNL     1      40.021 -46.287  -7.070  1.00  0.00     0.189 C 
BRANCH  10  11
HETATM   11  N1  UNL     1      40.132 -44.846  -6.864  1.00  0.00    -0.272 N 
HETATM   12  N2  UNL     1      40.945 -44.202  -6.062  1.00  0.00    -0.307 N 
HETATM   13  C10 UNL     1      40.781 -42.869  -6.121  1.00  0.00     0.122 A 
ATOM     14  H2  UNL     1      41.627 -44.662  -5.459  1.00  0.00     0.186 HD
HETATM   15  C11 UNL     1      39.780 -42.662  -7.037  1.00  0.00     0.026 A 
HETATM   16  C12 UNL     1      39.214 -41.498  -7.482  1.00  0.00     0.020 A 
HETATM   17  C15 UNL     1      39.390 -43.890  -7.486  1.00  0.00     0.135 A 
HETATM   18  C13 UNL     1      38.213 -41.592  -8.420  1.00  0.00     0.049 A 
HETATM   19  C14 UNL     1      37.830 -42.849  -8.865  1.00  0.00     0.100 A 
HETATM   20  N3  UNL     1      36.896 -42.977  -9.743  1.00  0.00    -0.385 N 
HETATM   21  N4  UNL     1      38.422 -43.976  -8.393  1.00  0.00    -0.327 N 
ATOM     22  H32 UNL     1      36.451 -42.131 -10.098  1.00  0.00     0.157 HD
ATOM     23  H31 UNL     1      36.613 -43.902 -10.070  1.00  0.00     0.157 HD
ATOM     24  H4  UNL     1      38.125 -44.890  -8.734  1.00  0.00     0.169 HD
ENDBRANCH  10  11
ENDBRANCH   8  10
ENDBRANCH   3   4
TORSDOF 3
ENDMDL
