MODEL 1
REMARK VINA RESULT: -8.251935379      0.000      0.000
REMARK  20 active torsions:
REMARK  status: ('A' for Active; 'I' for Inactive)
REMARK    1  A    between atoms: O1_2  and  C2_3 
REMARK    2  A    between atoms: C3_5  and  C4_6 
REMARK    3  A    between atoms: C5_9  and  C6_10 
REMARK    4  A    between atoms: C6_10  and  N2_11 
REMARK    5  A    between atoms: C6_10  and  C7_15 
REMARK    6  A    between atoms: C7_15  and  O4_16 
REMARK    7  A    between atoms: C7_15  and  C8_18 
REMARK    8  A    between atoms: C8_18  and  O5_19 
REMARK    9  A    between atoms: C8_18  and  C9_21 
REMARK   10  A    between atoms: C9_21  and  O6_22 
REMARK   11  A    between atoms: C10_24  and  N3_25 
REMARK   12  A    between atoms: N3_25  and  C11_27 
REMARK   13  A    between atoms: C11_27  and  O7_29 
REMARK   14  A    between atoms: C13_31  and  O8_32 
REMARK   15  A    between atoms: C16_37  and  O10_38 
REMARK   16  A    between atoms: O10_38  and  C17_39 
REMARK   17  A    between atoms: C19_42  and  O12_43 
REMARK   18  A    between atoms: C20_45  and  O13_46 
REMARK   19  A    between atoms: O13_46  and  C21_47 
REMARK   20  A    between atoms: C23_50  and  O15_51 
ROOT
HETATM    1  C2  UNL     1      10.790  22.039  24.506  1.00  0.00     0.199 C 
HETATM    2  O2  UNL     1      11.924  21.412  24.689  1.00  0.00    -0.287 OA
HETATM    3  C3  UNL     1      12.992  21.187  24.001  1.00  0.00     0.116 C 
HETATM    4  C13 UNL     1      13.211  21.756  22.732  1.00  0.00     0.149 C 
HETATM    5  C14 UNL     1      12.284  22.177  21.788  1.00  0.00     0.221 C 
HETATM    6  O9  UNL     1      12.579  22.117  20.587  1.00  0.00    -0.284 OA
HETATM    7  C15 UNL     1      11.014  22.673  22.046  1.00  0.00     0.071 A 
HETATM    8  C16 UNL     1      10.167  23.293  21.170  1.00  0.00     0.123 A 
HETATM    9  C24 UNL     1       8.976  23.587  21.838  1.00  0.00     0.140 A 
HETATM   10  C25 UNL     1       9.081  23.150  23.140  1.00  0.00     0.124 A 
HETATM   11  C26 UNL     1      10.313  22.574  23.345  1.00  0.00     0.076 A 
HETATM   12  O16 UNL     1       7.876  23.471  23.747  1.00  0.00    -0.322 OA
HETATM   13  C27 UNL     1       6.883  23.763  22.753  1.00  0.00     0.352 C 
HETATM   14  O17 UNL     1       7.725  24.158  21.674  1.00  0.00    -0.320 OA
ENDROOT
BRANCH   3  15
HETATM   15  C4  UNL     1      14.086  20.351  24.426  1.00  0.00     0.191 C 
HETATM   16  N1  UNL     1      14.395  19.306  23.490  1.00  0.00    -0.086 NA
HETATM   17  O3  UNL     1      15.477  18.750  24.133  1.00  0.00    -0.276 OA
HETATM   18  C5  UNL     1      15.066  18.541  25.427  1.00  0.00     0.204 C 
HETATM   19  C10 UNL     1      14.118  19.709  25.746  1.00  0.00     0.140 C 
BRANCH  18  20
HETATM   20  C6  UNL     1      16.136  18.256  26.373  1.00  0.00     0.247 C 
BRANCH  20  21
HETATM   21  N2  UNL     1      15.743  17.339  27.464  1.00  0.00    -0.070 N 
ATOM     22  H23 UNL     1      15.484  17.865  28.298  1.00  0.00     0.274 HD
ATOM     23  H22 UNL     1      14.848  16.896  27.255  1.00  0.00     0.274 HD
ATOM     24  H21 UNL     1      16.447  16.636  27.687  1.00  0.00     0.274 HD
ENDBRANCH  20  21
BRANCH  20  25
HETATM   25  C7  UNL     1      17.168  19.235  26.738  1.00  0.00     0.182 C 
BRANCH  25  26
HETATM   26  O4  UNL     1      18.428  18.496  26.616  1.00  0.00    -0.391 OA
ATOM     27  H4  UNL     1      18.392  18.112  25.747  1.00  0.00     0.210 HD
ENDBRANCH  25  26
BRANCH  25  28
HETATM   28  C8  UNL     1      17.228  19.837  28.080  1.00  0.00     0.172 C 
BRANCH  28  29
HETATM   29  O5  UNL     1      17.431  18.998  29.140  1.00  0.00    -0.391 OA
ATOM     30  H5  UNL     1      16.663  18.640  29.569  1.00  0.00     0.210 HD
ENDBRANCH  28  29
BRANCH  28  31
HETATM   31  C9  UNL     1      16.237  20.894  28.442  1.00  0.00     0.198 C 
BRANCH  31  32
HETATM   32  O6  UNL     1      14.992  20.367  28.786  1.00  0.00    -0.398 OA
ATOM     33  H6  UNL     1      15.059  19.533  29.237  1.00  0.00     0.209 HD
ENDBRANCH  31  32
ENDBRANCH  28  31
ENDBRANCH  25  28
ENDBRANCH  20  25
ENDBRANCH  18  20
BRANCH  19  34
HETATM   34  N3  UNL     1      13.023  19.326  26.461  1.00  0.00    -0.388 N 
ATOM     35  H3  UNL     1      12.659  20.080  27.044  1.00  0.00     0.156 HD
BRANCH  34  36
HETATM   36  C11 UNL     1      12.304  18.190  26.587  1.00  0.00     0.209 C 
HETATM   37  C12 UNL     1      10.824  18.260  26.725  1.00  0.00     0.062 C 
BRANCH  36  38
HETATM   38  O7  UNL     1      12.713  17.539  27.815  1.00  0.00    -0.378 OA
ATOM     39  H7  UNL     1      12.725  16.602  27.658  1.00  0.00     0.212 HD
ENDBRANCH  36  38
ENDBRANCH  34  36
ENDBRANCH  19  34
ENDBRANCH   3  15
BRANCH   4  40
HETATM   40  O8  UNL     1      14.521  21.937  22.329  1.00  0.00    -0.355 OA
ATOM     41  H8  UNL     1      14.959  21.202  21.916  1.00  0.00     0.218 HD
ENDBRANCH   4  40
BRANCH   1  42
HETATM   42  O1  UNL     1       9.936  22.205  25.579  1.00  0.00    -0.335 OA
HETATM   43  C1  UNL     1      10.252  21.849  26.912  1.00  0.00     0.212 C 
ENDBRANCH   1  42
BRANCH   8  44
HETATM   44  O10 UNL     1      10.436  23.595  19.826  1.00  0.00    -0.314 OA
BRANCH  44  45
HETATM   45  C17 UNL     1       9.624  23.240  18.754  1.00  0.00     0.297 C 
HETATM   46  O11 UNL     1       8.730  22.202  18.970  1.00  0.00    -0.356 OA
HETATM   47  C18 UNL     1       8.282  21.759  17.718  1.00  0.00     0.205 C 
HETATM   48  C19 UNL     1       7.489  22.803  16.972  1.00  0.00     0.174 C 
HETATM   49  C20 UNL     1       8.320  24.048  16.863  1.00  0.00     0.196 C 
HETATM   50  C23 UNL     1       8.757  24.413  18.280  1.00  0.00     0.205 C 
BRANCH  48  51
HETATM   51  O12 UNL     1       7.237  22.278  15.702  1.00  0.00    -0.391 OA
ATOM     52  H12 UNL     1       7.747  22.795  15.090  1.00  0.00     0.210 HD
ENDBRANCH  48  51
BRANCH  49  53
HETATM   53  O13 UNL     1       7.603  25.165  16.381  1.00  0.00    -0.311 OA
BRANCH  53  54
HETATM   54  C21 UNL     1       7.749  25.541  15.061  1.00  0.00     0.255 C 
HETATM   55  C22 UNL     1       8.642  26.659  14.633  1.00  0.00     0.126 C 
HETATM   56  O14 UNL     1       7.116  24.932  14.176  1.00  0.00    -0.266 OA
ENDBRANCH  53  54
ENDBRANCH  49  53
BRANCH  50  57
HETATM   57  O15 UNL     1       9.415  25.604  18.235  1.00  0.00    -0.388 OA
ATOM     58  H15 UNL     1       9.368  26.101  19.044  1.00  0.00     0.210 HD
ENDBRANCH  50  57
ENDBRANCH  44  45
ENDBRANCH   8  44
TORSDOF 20
ENDMDL
MODEL 2
REMARK VINA RESULT: -8.050780258      3.913     11.256
REMARK  20 active torsions:
REMARK  status: ('A' for Active; 'I' for Inactive)
REMARK    1  A    between atoms: O1_2  and  C2_3 
REMARK    2  A    between atoms: C3_5  and  C4_6 
REMARK    3  A    between atoms: C5_9  and  C6_10 
REMARK    4  A    between atoms: C6_10  and  N2_11 
REMARK    5  A    between atoms: C6_10  and  C7_15 
REMARK    6  A    between atoms: C7_15  and  O4_16 
REMARK    7  A    between atoms: C7_15  and  C8_18 
REMARK    8  A    between atoms: C8_18  and  O5_19 
REMARK    9  A    between atoms: C8_18  and  C9_21 
REMARK   10  A    between atoms: C9_21  and  O6_22 
REMARK   11  A    between atoms: C10_24  and  N3_25 
REMARK   12  A    between atoms: N3_25  and  C11_27 
REMARK   13  A    between atoms: C11_27  and  O7_29 
REMARK   14  A    between atoms: C13_31  and  O8_32 
REMARK   15  A    between atoms: C16_37  and  O10_38 
REMARK   16  A    between atoms: O10_38  and  C17_39 
REMARK   17  A    between atoms: C19_42  and  O12_43 
REMARK   18  A    between atoms: C20_45  and  O13_46 
REMARK   19  A    between atoms: O13_46  and  C21_47 
REMARK   20  A    between atoms: C23_50  and  O15_51 
ROOT
HETATM    1  C2  UNL     1       7.284  23.191  21.517  1.00  0.00     0.199 C 
HETATM    2  O2  UNL     1       7.073  23.466  20.255  1.00  0.00    -0.287 OA
HETATM    3  C3  UNL     1       7.778  23.516  19.176  1.00  0.00     0.116 C 
HETATM    4  C13 UNL     1       9.129  23.123  19.134  1.00  0.00     0.149 C 
HETATM    5  C14 UNL     1      10.072  23.114  20.152  1.00  0.00     0.221 C 
HETATM    6  O9  UNL     1      11.265  23.289  19.870  1.00  0.00    -0.284 OA
HETATM    7  C15 UNL     1       9.821  22.928  21.505  1.00  0.00     0.071 A 
HETATM    8  C16 UNL     1      10.731  22.697  22.498  1.00  0.00     0.123 A 
HETATM    9  C24 UNL     1      10.049  22.617  23.714  1.00  0.00     0.140 A 
HETATM   10  C25 UNL     1       8.704  22.795  23.479  1.00  0.00     0.124 A 
HETATM   11  C26 UNL     1       8.484  22.992  22.135  1.00  0.00     0.076 A 
HETATM   12  O16 UNL     1       8.086  22.703  24.716  1.00  0.00    -0.322 OA
HETATM   13  C27 UNL     1       9.054  22.841  25.766  1.00  0.00     0.352 C 
HETATM   14  O17 UNL     1      10.227  22.422  25.075  1.00  0.00    -0.320 OA
ENDROOT
BRANCH   3  15
HETATM   15  C4  UNL     1       7.294  23.961  17.893  1.00  0.00     0.191 C 
HETATM   16  N1  UNL     1       7.946  25.153  17.426  1.00  0.00    -0.086 NA
HETATM   17  O3  UNL     1       7.328  25.274  16.203  1.00  0.00    -0.276 OA
HETATM   18  C5  UNL     1       5.983  25.172  16.461  1.00  0.00     0.204 C 
HETATM   19  C10 UNL     1       5.867  24.171  17.622  1.00  0.00     0.140 C 
BRANCH  18  20
HETATM   20  C6  UNL     1       5.147  24.954  15.288  1.00  0.00     0.247 C 
BRANCH  20  21
HETATM   21  N2  UNL     1       5.289  23.609  14.693  1.00  0.00    -0.070 N 
ATOM     22  H23 UNL     1       6.240  23.465  14.355  1.00  0.00     0.274 HD
ATOM     23  H22 UNL     1       5.252  22.890  15.416  1.00  0.00     0.274 HD
ATOM     24  H21 UNL     1       4.612  23.409  13.956  1.00  0.00     0.274 HD
ENDBRANCH  20  21
BRANCH  20  25
HETATM   25  C7  UNL     1       4.814  26.016  14.330  1.00  0.00     0.182 C 
BRANCH  25  26
HETATM   26  O4  UNL     1       4.026  25.338  13.298  1.00  0.00    -0.391 OA
ATOM     27  H4  UNL     1       4.673  24.895  12.761  1.00  0.00     0.210 HD
ENDBRANCH  25  26
BRANCH  25  28
HETATM   28  C8  UNL     1       5.853  26.739  13.580  1.00  0.00     0.172 C 
BRANCH  28  29
HETATM   29  O5  UNL     1       6.927  26.019  13.136  1.00  0.00    -0.391 OA
ATOM     30  H5  UNL     1       6.756  25.292  12.550  1.00  0.00     0.210 HD
ENDBRANCH  28  29
BRANCH  28  31
HETATM   31  C9  UNL     1       6.297  28.078  14.068  1.00  0.00     0.198 C 
BRANCH  31  32
HETATM   32  O6  UNL     1       7.565  28.044  14.650  1.00  0.00    -0.398 OA
ATOM     33  H6  UNL     1       7.729  28.791  15.215  1.00  0.00     0.209 HD
ENDBRANCH  31  32
ENDBRANCH  28  31
ENDBRANCH  25  28
ENDBRANCH  20  25
ENDBRANCH  18  20
BRANCH  19  34
HETATM   34  N3  UNL     1       4.935  24.534  18.548  1.00  0.00    -0.388 N 
ATOM     35  H3  UNL     1       4.293  23.772  18.769  1.00  0.00     0.156 HD
BRANCH  34  36
HETATM   36  C11 UNL     1       4.655  25.657  19.242  1.00  0.00     0.209 C 
HETATM   37  C12 UNL     1       3.910  26.768  18.589  1.00  0.00     0.062 C 
BRANCH  36  38
HETATM   38  O7  UNL     1       5.912  26.280  19.605  1.00  0.00    -0.378 OA
ATOM     39  H7  UNL     1       5.760  26.817  20.374  1.00  0.00     0.212 HD
ENDBRANCH  36  38
ENDBRANCH  34  36
ENDBRANCH  19  34
ENDBRANCH   3  15
BRANCH   4  40
HETATM   40  O8  UNL     1       9.629  22.677  17.924  1.00  0.00    -0.355 OA
ATOM     41  H8  UNL     1       9.468  21.771  17.689  1.00  0.00     0.218 HD
ENDBRANCH   4  40
BRANCH   1  42
HETATM   42  O1  UNL     1       6.202  23.080  22.369  1.00  0.00    -0.335 OA
HETATM   43  C1  UNL     1       5.275  24.119  22.620  1.00  0.00     0.212 C 
ENDBRANCH   1  42
BRANCH   8  44
HETATM   44  O10 UNL     1      12.118  22.557  22.339  1.00  0.00    -0.314 OA
BRANCH  44  45
HETATM   45  C17 UNL     1      12.765  21.371  22.006  1.00  0.00     0.297 C 
HETATM   46  O11 UNL     1      13.190  21.245  20.692  1.00  0.00    -0.356 OA
HETATM   47  C18 UNL     1      13.473  19.892  20.465  1.00  0.00     0.205 C 
HETATM   48  C19 UNL     1      14.626  19.382  21.294  1.00  0.00     0.174 C 
HETATM   49  C20 UNL     1      14.335  19.660  22.740  1.00  0.00     0.196 C 
HETATM   50  C23 UNL     1      14.027  21.152  22.850  1.00  0.00     0.205 C 
BRANCH  48  51
HETATM   51  O12 UNL     1      14.696  18.004  21.073  1.00  0.00    -0.391 OA
ATOM     52  H12 UNL     1      14.706  17.593  21.929  1.00  0.00     0.210 HD
ENDBRANCH  48  51
BRANCH  49  53
HETATM   53  O13 UNL     1      15.436  19.430  23.592  1.00  0.00    -0.311 OA
BRANCH  53  54
HETATM   54  C21 UNL     1      15.392  18.374  24.480  1.00  0.00     0.255 C 
HETATM   55  C22 UNL     1      15.841  18.492  25.900  1.00  0.00     0.126 C 
HETATM   56  O14 UNL     1      14.962  17.268  24.097  1.00  0.00    -0.266 OA
ENDBRANCH  53  54
ENDBRANCH  49  53
BRANCH  50  57
HETATM   57  O15 UNL     1      13.873  21.465  24.166  1.00  0.00    -0.388 OA
ATOM     58  H15 UNL     1      14.594  21.966  24.530  1.00  0.00     0.210 HD
ENDBRANCH  50  57
ENDBRANCH  44  45
ENDBRANCH   8  44
TORSDOF 20
ENDMDL
MODEL 3
REMARK VINA RESULT: -7.936487496      3.604     11.382
REMARK  20 active torsions:
REMARK  status: ('A' for Active; 'I' for Inactive)
REMARK    1  A    between atoms: O1_2  and  C2_3 
REMARK    2  A    between atoms: C3_5  and  C4_6 
REMARK    3  A    between atoms: C5_9  and  C6_10 
REMARK    4  A    between atoms: C6_10  and  N2_11 
REMARK    5  A    between atoms: C6_10  and  C7_15 
REMARK    6  A    between atoms: C7_15  and  O4_16 
REMARK    7  A    between atoms: C7_15  and  C8_18 
REMARK    8  A    between atoms: C8_18  and  O5_19 
REMARK    9  A    between atoms: C8_18  and  C9_21 
REMARK   10  A    between atoms: C9_21  and  O6_22 
REMARK   11  A    between atoms: C10_24  and  N3_25 
REMARK   12  A    between atoms: N3_25  and  C11_27 
REMARK   13  A    between atoms: C11_27  and  O7_29 
REMARK   14  A    between atoms: C13_31  and  O8_32 
REMARK   15  A    between atoms: C16_37  and  O10_38 
REMARK   16  A    between atoms: O10_38  and  C17_39 
REMARK   17  A    between atoms: C19_42  and  O12_43 
REMARK   18  A    between atoms: C20_45  and  O13_46 
REMARK   19  A    between atoms: O13_46  and  C21_47 
REMARK   20  A    between atoms: C23_50  and  O15_51 
ROOT
HETATM    1  C2  UNL     1      10.844  22.374  19.703  1.00  0.00     0.199 C 
HETATM    2  O2  UNL     1       9.874  23.225  19.918  1.00  0.00    -0.287 OA
HETATM    3  C3  UNL     1       9.492  23.985  20.889  1.00  0.00     0.116 C 
HETATM    4  C13 UNL     1      10.235  24.131  22.075  1.00  0.00     0.149 C 
HETATM    5  C14 UNL     1      11.120  23.244  22.671  1.00  0.00     0.221 C 
HETATM    6  O9  UNL     1      11.244  23.252  23.902  1.00  0.00    -0.284 OA
HETATM    7  C15 UNL     1      11.912  22.310  22.018  1.00  0.00     0.071 A 
HETATM    8  C16 UNL     1      12.943  21.580  22.540  1.00  0.00     0.123 A 
HETATM    9  C24 UNL     1      13.432  20.728  21.547  1.00  0.00     0.140 A 
HETATM   10  C25 UNL     1      12.704  20.930  20.396  1.00  0.00     0.124 A 
HETATM   11  C26 UNL     1      11.746  21.895  20.607  1.00  0.00     0.076 A 
HETATM   12  O16 UNL     1      13.235  20.064  19.453  1.00  0.00    -0.322 OA
HETATM   13  C27 UNL     1      14.035  19.060  20.096  1.00  0.00     0.352 C 
HETATM   14  O17 UNL     1      14.382  19.753  21.291  1.00  0.00    -0.320 OA
ENDROOT
BRANCH   3  15
HETATM   15  C4  UNL     1       8.286  24.775  20.892  1.00  0.00     0.191 C 
HETATM   16  N1  UNL     1       7.304  24.302  21.828  1.00  0.00    -0.086 NA
HETATM   17  O3  UNL     1       6.341  25.266  21.638  1.00  0.00    -0.276 OA
HETATM   18  C5  UNL     1       6.153  25.335  20.279  1.00  0.00     0.204 C 
HETATM   19  C10 UNL     1       7.538  25.073  19.665  1.00  0.00     0.140 C 
BRANCH  18  20
HETATM   20  C6  UNL     1       5.414  26.503  19.819  1.00  0.00     0.247 C 
BRANCH  20  21
HETATM   21  N2  UNL     1       5.403  27.623  20.782  1.00  0.00    -0.070 N 
ATOM     22  H23 UNL     1       4.862  27.377  21.611  1.00  0.00     0.274 HD
ATOM     23  H22 UNL     1       6.323  27.741  21.206  1.00  0.00     0.274 HD
ATOM     24  H21 UNL     1       5.074  28.504  20.388  1.00  0.00     0.274 HD
ENDBRANCH  20  21
BRANCH  20  25
HETATM   25  C7  UNL     1       4.221  26.414  18.968  1.00  0.00     0.182 C 
BRANCH  25  26
HETATM   26  O4  UNL     1       4.359  25.127  18.282  1.00  0.00    -0.391 OA
ATOM     27  H4  UNL     1       3.558  25.042  17.777  1.00  0.00     0.210 HD
ENDBRANCH  25  26
BRANCH  25  28
HETATM   28  C8  UNL     1       3.964  27.378  17.886  1.00  0.00     0.172 C 
BRANCH  28  29
HETATM   29  O5  UNL     1       4.758  27.305  16.775  1.00  0.00    -0.391 OA
ATOM     30  H5  UNL     1       4.352  27.022  15.965  1.00  0.00     0.210 HD
ENDBRANCH  28  29
BRANCH  28  31
HETATM   31  C9  UNL     1       3.700  28.805  18.237  1.00  0.00     0.198 C 
BRANCH  31  32
HETATM   32  O6  UNL     1       4.869  29.562  18.324  1.00  0.00    -0.398 OA
ATOM     33  H6  UNL     1       4.789  30.409  17.902  1.00  0.00     0.209 HD
ENDBRANCH  31  32
ENDBRANCH  28  31
ENDBRANCH  25  28
ENDBRANCH  20  25
ENDBRANCH  18  20
BRANCH  19  34
HETATM   34  N3  UNL     1       7.489  24.276  18.560  1.00  0.00    -0.388 N 
ATOM     35  H3  UNL     1       7.088  23.360  18.762  1.00  0.00     0.156 HD
BRANCH  34  36
HETATM   36  C11 UNL     1       7.842  24.405  17.263  1.00  0.00     0.209 C 
HETATM   37  C12 UNL     1       9.150  25.019  16.908  1.00  0.00     0.062 C 
BRANCH  36  38
HETATM   38  O7  UNL     1       6.886  25.290  16.629  1.00  0.00    -0.378 OA
ATOM     39  H7  UNL     1       6.998  26.156  17.003  1.00  0.00     0.212 HD
ENDBRANCH  36  38
ENDBRANCH  34  36
ENDBRANCH  19  34
ENDBRANCH   3  15
BRANCH   4  40
HETATM   40  O8  UNL     1      10.089  25.312  22.780  1.00  0.00    -0.355 OA
ATOM     41  H8  UNL     1       9.240  25.491  23.166  1.00  0.00     0.218 HD
ENDBRANCH   4  40
BRANCH   1  42
HETATM   42  O1  UNL     1      11.020  21.866  18.430  1.00  0.00    -0.335 OA
HETATM   43  C1  UNL     1       9.964  21.458  17.582  1.00  0.00     0.212 C 
ENDBRANCH   1  42
BRANCH   8  44
HETATM   44  O10 UNL     1      13.441  21.663  23.850  1.00  0.00    -0.314 OA
BRANCH  44  45
HETATM   45  C17 UNL     1      13.842  20.575  24.619  1.00  0.00     0.297 C 
HETATM   46  O11 UNL     1      15.169  20.555  25.020  1.00  0.00    -0.356 OA
HETATM   47  C18 UNL     1      15.463  19.254  25.451  1.00  0.00     0.205 C 
HETATM   48  C19 UNL     1      14.684  18.846  26.676  1.00  0.00     0.174 C 
HETATM   49  C20 UNL     1      13.220  19.027  26.393  1.00  0.00     0.196 C 
HETATM   50  C23 UNL     1      13.036  20.467  25.920  1.00  0.00     0.205 C 
BRANCH  48  51
HETATM   51  O12 UNL     1      14.969  17.497  26.898  1.00  0.00    -0.391 OA
ATOM     52  H12 UNL     1      14.754  17.039  26.094  1.00  0.00     0.210 HD
ENDBRANCH  48  51
BRANCH  49  53
HETATM   53  O13 UNL     1      12.404  18.890  27.537  1.00  0.00    -0.311 OA
BRANCH  53  54
HETATM   54  C21 UNL     1      11.758  17.690  27.763  1.00  0.00     0.255 C 
HETATM   55  C22 UNL     1      11.586  16.652  26.703  1.00  0.00     0.126 C 
HETATM   56  O14 UNL     1      11.293  17.449  28.894  1.00  0.00    -0.266 OA
ENDBRANCH  53  54
ENDBRANCH  49  53
BRANCH  50  57
HETATM   57  O15 UNL     1      11.704  20.704  25.767  1.00  0.00    -0.388 OA
ATOM     58  H15 UNL     1      11.381  21.437  26.279  1.00  0.00     0.210 HD
ENDBRANCH  50  57
ENDBRANCH  44  45
ENDBRANCH   8  44
TORSDOF 20
ENDMDL
MODEL 4
REMARK VINA RESULT: -7.879793897      4.373     11.961
REMARK  20 active torsions:
REMARK  status: ('A' for Active; 'I' for Inactive)
REMARK    1  A    between atoms: O1_2  and  C2_3 
REMARK    2  A    between atoms: C3_5  and  C4_6 
REMARK    3  A    between atoms: C5_9  and  C6_10 
REMARK    4  A    between atoms: C6_10  and  N2_11 
REMARK    5  A    between atoms: C6_10  and  C7_15 
REMARK    6  A    between atoms: C7_15  and  O4_16 
REMARK    7  A    between atoms: C7_15  and  C8_18 
REMARK    8  A    between atoms: C8_18  and  O5_19 
REMARK    9  A    between atoms: C8_18  and  C9_21 
REMARK   10  A    between atoms: C9_21  and  O6_22 
REMARK   11  A    between atoms: C10_24  and  N3_25 
REMARK   12  A    between atoms: N3_25  and  C11_27 
REMARK   13  A    between atoms: C11_27  and  O7_29 
REMARK   14  A    between atoms: C13_31  and  O8_32 
REMARK   15  A    between atoms: C16_37  and  O10_38 
REMARK   16  A    between atoms: O10_38  and  C17_39 
REMARK   17  A    between atoms: C19_42  and  O12_43 
REMARK   18  A    between atoms: C20_45  and  O13_46 
REMARK   19  A    between atoms: O13_46  and  C21_47 
REMARK   20  A    between atoms: C23_50  and  O15_51 
ROOT
HETATM    1  C2  UNL     1       7.030  23.395  20.734  1.00  0.00     0.199 C 
HETATM    2  O2  UNL     1       6.611  23.708  19.535  1.00  0.00    -0.287 OA
HETATM    3  C3  UNL     1       7.100  23.705  18.341  1.00  0.00     0.116 C 
HETATM    4  C13 UNL     1       8.373  23.183  18.044  1.00  0.00     0.149 C 
HETATM    5  C14 UNL     1       9.487  23.068  18.864  1.00  0.00     0.221 C 
HETATM    6  O9  UNL     1      10.616  23.130  18.360  1.00  0.00    -0.284 OA
HETATM    7  C15 UNL     1       9.480  22.886  20.240  1.00  0.00     0.071 A 
HETATM    8  C16 UNL     1      10.535  22.554  21.043  1.00  0.00     0.123 A 
HETATM    9  C24 UNL     1      10.093  22.522  22.367  1.00  0.00     0.140 A 
HETATM   10  C25 UNL     1       8.752  22.833  22.392  1.00  0.00     0.124 A 
HETATM   11  C26 UNL     1       8.300  23.071  21.114  1.00  0.00     0.076 A 
HETATM   12  O16 UNL     1       8.373  22.783  23.724  1.00  0.00    -0.322 OA
HETATM   13  C27 UNL     1       9.532  22.811  24.570  1.00  0.00     0.352 C 
HETATM   14  O17 UNL     1      10.505  22.290  23.670  1.00  0.00    -0.320 OA
ENDROOT
BRANCH   3  15
HETATM   15  C4  UNL     1       6.427  24.215  17.173  1.00  0.00     0.191 C 
HETATM   16  N1  UNL     1       7.192  25.206  16.468  1.00  0.00    -0.086 NA
HETATM   17  O3  UNL     1       6.335  25.433  15.416  1.00  0.00    -0.276 OA
HETATM   18  C5  UNL     1       5.106  25.658  15.986  1.00  0.00     0.204 C 
HETATM   19  C10 UNL     1       5.060  24.746  17.223  1.00  0.00     0.140 C 
BRANCH  18  20
HETATM   20  C6  UNL     1       3.981  25.609  15.062  1.00  0.00     0.247 C 
BRANCH  20  21
HETATM   21  N2  UNL     1       2.787  26.341  15.533  1.00  0.00    -0.070 N 
ATOM     22  H23 UNL     1       2.347  25.848  16.309  1.00  0.00     0.274 HD
ATOM     23  H22 UNL     1       3.058  27.203  16.007  1.00  0.00     0.274 HD
ATOM     24  H21 UNL     1       2.105  26.535  14.799  1.00  0.00     0.274 HD
ENDBRANCH  20  21
BRANCH  20  25
HETATM   25  C7  UNL     1       3.691  24.448  14.209  1.00  0.00     0.182 C 
BRANCH  25  26
HETATM   26  O4  UNL     1       4.798  24.419  13.249  1.00  0.00    -0.391 OA
ATOM     27  H4  UNL     1       4.583  23.701  12.665  1.00  0.00     0.210 HD
ENDBRANCH  25  26
BRANCH  25  28
HETATM   28  C8  UNL     1       2.482  24.381  13.374  1.00  0.00     0.172 C 
BRANCH  28  29
HETATM   29  O5  UNL     1       1.273  24.375  14.013  1.00  0.00    -0.391 OA
ATOM     30  H5  UNL     1       0.492  24.421  13.474  1.00  0.00     0.210 HD
ENDBRANCH  28  29
BRANCH  28  31
HETATM   31  C9  UNL     1       2.455  23.441  12.214  1.00  0.00     0.198 C 
BRANCH  31  32
HETATM   32  O6  UNL     1       2.679  24.083  10.996  1.00  0.00    -0.398 OA
ATOM     33  H6  UNL     1       3.314  23.629  10.454  1.00  0.00     0.209 HD
ENDBRANCH  31  32
ENDBRANCH  28  31
ENDBRANCH  25  28
ENDBRANCH  20  25
ENDBRANCH  18  20
BRANCH  19  34
HETATM   34  N3  UNL     1       4.487  25.344  18.305  1.00  0.00    -0.388 N 
ATOM     35  H3  UNL     1       3.893  24.703  18.832  1.00  0.00     0.156 HD
BRANCH  34  36
HETATM   36  C11 UNL     1       4.515  26.580  18.849  1.00  0.00     0.209 C 
HETATM   37  C12 UNL     1       4.701  26.741  20.316  1.00  0.00     0.062 C 
BRANCH  36  38
HETATM   38  O7  UNL     1       3.224  27.196  18.617  1.00  0.00    -0.378 OA
ATOM     39  H7  UNL     1       3.201  28.015  19.098  1.00  0.00     0.212 HD
ENDBRANCH  36  38
ENDBRANCH  34  36
ENDBRANCH  19  34
ENDBRANCH   3  15
BRANCH   4  40
HETATM   40  O8  UNL     1       8.588  22.709  16.763  1.00  0.00    -0.355 OA
ATOM     41  H8  UNL     1       9.210  23.179  16.219  1.00  0.00     0.218 HD
ENDBRANCH   4  40
BRANCH   1  42
HETATM   42  O1  UNL     1       6.124  23.376  21.777  1.00  0.00    -0.335 OA
HETATM   43  C1  UNL     1       4.733  23.169  21.621  1.00  0.00     0.212 C 
ENDBRANCH   1  42
BRANCH   8  44
HETATM   44  O10 UNL     1      11.846  22.282  20.623  1.00  0.00    -0.314 OA
BRANCH  44  45
HETATM   45  C17 UNL     1      12.619  21.215  21.069  1.00  0.00     0.297 C 
HETATM   46  O11 UNL     1      13.267  20.469  20.095  1.00  0.00    -0.356 OA
HETATM   47  C18 UNL     1      13.675  19.265  20.684  1.00  0.00     0.205 C 
HETATM   48  C19 UNL     1      14.704  19.457  21.770  1.00  0.00     0.174 C 
HETATM   49  C20 UNL     1      14.156  20.420  22.783  1.00  0.00     0.196 C 
HETATM   50  C23 UNL     1      13.733  21.673  22.018  1.00  0.00     0.205 C 
BRANCH  48  51
HETATM   51  O12 UNL     1      14.905  18.204  22.355  1.00  0.00    -0.391 OA
ATOM     52  H12 UNL     1      14.858  18.334  23.294  1.00  0.00     0.210 HD
ENDBRANCH  48  51
BRANCH  49  53
HETATM   53  O13 UNL     1      15.112  20.850  23.728  1.00  0.00    -0.311 OA
BRANCH  53  54
HETATM   54  C21 UNL     1      15.150  20.247  24.970  1.00  0.00     0.255 C 
HETATM   55  C22 UNL     1      14.347  20.736  26.131  1.00  0.00     0.126 C 
HETATM   56  O14 UNL     1      15.881  19.252  25.147  1.00  0.00    -0.266 OA
ENDBRANCH  53  54
ENDBRANCH  49  53
BRANCH  50  57
HETATM   57  O15 UNL     1      13.340  22.615  22.918  1.00  0.00    -0.388 OA
ATOM     58  H15 UNL     1      13.368  22.322  23.822  1.00  0.00     0.210 HD
ENDBRANCH  50  57
ENDBRANCH  44  45
ENDBRANCH   8  44
TORSDOF 20
ENDMDL
MODEL 5
REMARK VINA RESULT: -7.875309326      3.056      5.638
REMARK  20 active torsions:
REMARK  status: ('A' for Active; 'I' for Inactive)
REMARK    1  A    between atoms: O1_2  and  C2_3 
REMARK    2  A    between atoms: C3_5  and  C4_6 
REMARK    3  A    between atoms: C5_9  and  C6_10 
REMARK    4  A    between atoms: C6_10  and  N2_11 
REMARK    5  A    between atoms: C6_10  and  C7_15 
REMARK    6  A    between atoms: C7_15  and  O4_16 
REMARK    7  A    between atoms: C7_15  and  C8_18 
REMARK    8  A    between atoms: C8_18  and  O5_19 
REMARK    9  A    between atoms: C8_18  and  C9_21 
REMARK   10  A    between atoms: C9_21  and  O6_22 
REMARK   11  A    between atoms: C10_24  and  N3_25 
REMARK   12  A    between atoms: N3_25  and  C11_27 
REMARK   13  A    between atoms: C11_27  and  O7_29 
REMARK   14  A    between atoms: C13_31  and  O8_32 
REMARK   15  A    between atoms: C16_37  and  O10_38 
REMARK   16  A    between atoms: O10_38  and  C17_39 
REMARK   17  A    between atoms: C19_42  and  O12_43 
REMARK   18  A    between atoms: C20_45  and  O13_46 
REMARK   19  A    between atoms: O13_46  and  C21_47 
REMARK   20  A    between atoms: C23_50  and  O15_51 
ROOT
HETATM    1  C2  UNL     1      10.533  22.531  19.116  1.00  0.00     0.199 C 
HETATM    2  O2  UNL     1      11.339  22.231  20.101  1.00  0.00    -0.287 OA
HETATM    3  C3  UNL     1      11.467  22.560  21.341  1.00  0.00     0.116 C 
HETATM    4  C13 UNL     1      10.538  23.381  22.008  1.00  0.00     0.149 C 
HETATM    5  C14 UNL     1       9.693  24.352  21.487  1.00  0.00     0.221 C 
HETATM    6  O9  UNL     1       9.383  25.321  22.192  1.00  0.00    -0.284 OA
HETATM    7  C15 UNL     1       9.139  24.363  20.215  1.00  0.00     0.071 A 
HETATM    8  C16 UNL     1       8.144  25.174  19.746  1.00  0.00     0.123 A 
HETATM    9  C24 UNL     1       7.927  24.877  18.398  1.00  0.00     0.140 A 
HETATM   10  C25 UNL     1       8.790  23.872  18.023  1.00  0.00     0.124 A 
HETATM   11  C26 UNL     1       9.572  23.500  19.093  1.00  0.00     0.076 A 
HETATM   12  O16 UNL     1       8.527  23.623  16.685  1.00  0.00    -0.322 OA
HETATM   13  C27 UNL     1       7.775  24.706  16.118  1.00  0.00     0.352 C 
HETATM   14  O17 UNL     1       7.162  25.221  17.296  1.00  0.00    -0.320 OA
ENDROOT
BRANCH   3  15
HETATM   15  C4  UNL     1      12.545  22.139  22.200  1.00  0.00     0.191 C 
HETATM   16  N1  UNL     1      13.534  23.160  22.407  1.00  0.00    -0.086 NA
HETATM   17  O3  UNL     1      14.357  22.490  23.283  1.00  0.00    -0.276 OA
HETATM   18  C5  UNL     1      14.605  21.274  22.696  1.00  0.00     0.204 C 
HETATM   19  C10 UNL     1      13.306  20.907  21.959  1.00  0.00     0.140 C 
BRANCH  18  20
HETATM   20  C6  UNL     1      15.192  20.274  23.578  1.00  0.00     0.247 C 
BRANCH  20  21
HETATM   21  N2  UNL     1      16.015  19.266  22.876  1.00  0.00    -0.070 N 
ATOM     22  H23 UNL     1      15.536  18.366  22.851  1.00  0.00     0.274 HD
ATOM     23  H22 UNL     1      16.055  19.468  21.877  1.00  0.00     0.274 HD
ATOM     24  H21 UNL     1      16.955  19.161  23.258  1.00  0.00     0.274 HD
ENDBRANCH  20  21
BRANCH  20  25
HETATM   25  C7  UNL     1      14.529  19.784  24.793  1.00  0.00     0.182 C 
BRANCH  25  26
HETATM   26  O4  UNL     1      14.424  20.967  25.650  1.00  0.00    -0.391 OA
ATOM     27  H4  UNL     1      14.842  20.707  26.463  1.00  0.00     0.210 HD
ENDBRANCH  25  26
BRANCH  25  28
HETATM   28  C8  UNL     1      15.143  18.762  25.656  1.00  0.00     0.172 C 
BRANCH  28  29
HETATM   29  O5  UNL     1      16.504  18.776  25.778  1.00  0.00    -0.391 OA
ATOM     30  H5  UNL     1      16.872  18.512  26.613  1.00  0.00     0.210 HD
ENDBRANCH  28  29
BRANCH  28  31
HETATM   31  C9  UNL     1      14.647  17.356  25.576  1.00  0.00     0.198 C 
BRANCH  31  32
HETATM   32  O6  UNL     1      14.635  16.864  24.270  1.00  0.00    -0.398 OA
ATOM     33  H6  UNL     1      13.900  16.284  24.104  1.00  0.00     0.209 HD
ENDBRANCH  31  32
ENDBRANCH  28  31
ENDBRANCH  25  28
ENDBRANCH  20  25
ENDBRANCH  18  20
BRANCH  19  34
HETATM   34  N3  UNL     1      13.528  20.345  20.738  1.00  0.00    -0.388 N 
ATOM     35  H3  UNL     1      12.738  20.473  20.104  1.00  0.00     0.156 HD
BRANCH  34  36
HETATM   36  C11 UNL     1      14.539  19.659  20.162  1.00  0.00     0.209 C 
HETATM   37  C12 UNL     1      14.733  19.721  18.688  1.00  0.00     0.062 C 
BRANCH  36  38
HETATM   38  O7  UNL     1      14.310  18.248  20.400  1.00  0.00    -0.378 OA
ATOM     39  H7  UNL     1      13.479  18.017  20.002  1.00  0.00     0.212 HD
ENDBRANCH  36  38
ENDBRANCH  34  36
ENDBRANCH  19  34
ENDBRANCH   3  15
BRANCH   4  40
HETATM   40  O8  UNL     1      10.419  23.233  23.377  1.00  0.00    -0.355 OA
ATOM     41  H8  UNL     1      10.044  23.956  23.867  1.00  0.00     0.218 HD
ENDBRANCH   4  40
BRANCH   1  42
HETATM   42  O1  UNL     1      10.621  21.818  17.935  1.00  0.00    -0.335 OA
HETATM   43  C1  UNL     1       9.686  20.839  17.524  1.00  0.00     0.212 C 
ENDBRANCH   1  42
BRANCH   8  44
HETATM   44  O10 UNL     1       7.444  26.142  20.482  1.00  0.00    -0.314 OA
BRANCH  44  45
HETATM   45  C17 UNL     1       6.197  25.949  21.068  1.00  0.00     0.297 C 
HETATM   46  O11 UNL     1       6.084  26.284  22.409  1.00  0.00    -0.356 OA
HETATM   47  C18 UNL     1       4.911  25.694  22.897  1.00  0.00     0.205 C 
HETATM   48  C19 UNL     1       3.662  26.245  22.256  1.00  0.00     0.174 C 
HETATM   49  C20 UNL     1       3.785  26.100  20.767  1.00  0.00     0.196 C 
HETATM   50  C23 UNL     1       5.103  26.762  20.367  1.00  0.00     0.205 C 
BRANCH  48  51
HETATM   51  O12 UNL     1       2.598  25.472  22.728  1.00  0.00    -0.391 OA
ATOM     52  H12 UNL     1       1.858  25.656  22.163  1.00  0.00     0.210 HD
ENDBRANCH  48  51
BRANCH  49  53
HETATM   53  O13 UNL     1       2.778  26.780  20.048  1.00  0.00    -0.311 OA
BRANCH  53  54
HETATM   54  C21 UNL     1       1.819  26.048  19.376  1.00  0.00     0.255 C 
HETATM   55  C22 UNL     1       1.469  26.295  17.945  1.00  0.00     0.126 C 
HETATM   56  O14 UNL     1       1.210  25.140  19.975  1.00  0.00    -0.266 OA
ENDBRANCH  53  54
ENDBRANCH  49  53
BRANCH  50  57
HETATM   57  O15 UNL     1       5.193  26.755  19.008  1.00  0.00    -0.388 OA
ATOM     58  H15 UNL     1       5.463  27.587  18.635  1.00  0.00     0.210 HD
ENDBRANCH  50  57
ENDBRANCH  44  45
ENDBRANCH   8  44
TORSDOF 20
ENDMDL
