MODEL 1
REMARK VINA RESULT: -7.163848427      0.000      0.000
REMARK  7 active torsions:
REMARK  status: ('A' for Active; 'I' for Inactive)
REMARK    1  A    between atoms: C2_2  and  N3_14 
REMARK    2  A    between atoms: N1_3  and  C3_5 
REMARK    3  A    between atoms: C3_5  and  C4_6 
REMARK       I    between atoms: C4_6  and  N2_8 
REMARK    4  A    between atoms: N2_8  and  S1_10 
REMARK    5  A    between atoms: N3_14  and  S2_16 
REMARK    6  A    between atoms: S2_16  and  N4_19 
REMARK       I    between atoms: N4_19  and  C6_21 
REMARK       I    between atoms: C6_21  and  N5_23 
REMARK    7  A    between atoms: N5_23  and  C7_25 
ROOT
HETATM    1  N3  UNL     1     -33.880  -1.231 189.819  1.00  0.00    -0.281 N 
ATOM      2  H3  UNL     1     -34.116  -0.705 190.661  1.00  0.00     0.179 HD
ENDROOT
BRANCH   1   3
HETATM    3  C2  UNL     1     -33.751  -2.647 189.900  1.00  0.00     0.082 C 
HETATM    4  C1  UNL     1     -32.563  -3.321 190.460  1.00  0.00     0.089 C 
HETATM    5  N1  UNL     1     -34.719  -3.337 189.429  1.00  0.00    -0.371 N 
ATOM      6  H1  UNL     1     -35.496  -2.784 189.067  1.00  0.00     0.161 HD
BRANCH   5   7
HETATM    7  C3  UNL     1     -34.892  -4.736 189.324  1.00  0.00     0.224 C 
BRANCH   7   8
HETATM    8  C4  UNL     1     -35.635  -5.280 190.466  1.00  0.00     0.248 C 
HETATM    9  O1  UNL     1     -35.473  -6.519 190.712  1.00  0.00    -0.271 OA
HETATM   10  N2  UNL     1     -36.511  -4.556 191.307  1.00  0.00    -0.253 N 
ATOM     11  H2  UNL     1     -36.655  -3.560 191.138  1.00  0.00     0.181 HD
BRANCH  10  12
HETATM   12  S1  UNL     1     -37.333  -5.310 192.602  1.00  0.00     0.229 S 
HETATM   13  C5  UNL     1     -36.284  -6.048 193.804  1.00  0.00     0.186 C 
HETATM   14  O2  UNL     1     -38.246  -6.364 192.022  1.00  0.00    -0.206 OA
HETATM   15  O3  UNL     1     -38.206  -4.304 193.300  1.00  0.00    -0.206 OA
ENDBRANCH  10  12
ENDBRANCH   7   8
ENDBRANCH   5   7
ENDBRANCH   1   3
BRANCH   1  16
HETATM   16  S2  UNL     1     -33.651  -0.391 188.357  1.00  0.00     0.184 S 
HETATM   17  O4  UNL     1     -33.419  -1.328 187.200  1.00  0.00    -0.215 OA
HETATM   18  S3  UNL     1     -32.351   0.694 188.542  1.00  0.00     0.052 SA
BRANCH  16  19
HETATM   19  N4  UNL     1     -35.084   0.535 187.977  1.00  0.00    -0.243 N 
HETATM   20  C6  UNL     1     -36.350   0.042 188.321  1.00  0.00     0.329 C 
HETATM   21  O5  UNL     1     -36.538  -1.085 188.888  1.00  0.00    -0.246 OA
HETATM   22  N5  UNL     1     -37.515   0.802 188.049  1.00  0.00    -0.338 N 
ATOM     23  H5  UNL     1     -37.404   1.710 187.600  1.00  0.00     0.164 HD
ATOM     24  H4  UNL     1     -34.998   1.435 187.504  1.00  0.00     0.182 HD
BRANCH  22  25
HETATM   25  C7  UNL     1     -38.868   0.353 188.379  1.00  0.00     0.086 C 
HETATM   26  C8  UNL     1     -39.536   1.567 188.988  1.00  0.00     0.025 C 
HETATM   27  C9  UNL     1     -40.147   2.488 187.962  1.00  0.00     0.002 C 
HETATM   28  C10 UNL     1     -41.239   1.647 187.273  1.00  0.00     0.000 C 
HETATM   29  C11 UNL     1     -40.548   0.598 186.486  1.00  0.00     0.002 C 
HETATM   30  C12 UNL     1     -39.509  -0.209 187.191  1.00  0.00     0.025 C 
ENDBRANCH  22  25
ENDBRANCH  16  19
ENDBRANCH   1  16
TORSDOF 7
ENDMDL
MODEL 2
REMARK VINA RESULT: -7.014638265      1.283      1.610
REMARK  7 active torsions:
REMARK  status: ('A' for Active; 'I' for Inactive)
REMARK    1  A    between atoms: C2_2  and  N3_14 
REMARK    2  A    between atoms: N1_3  and  C3_5 
REMARK    3  A    between atoms: C3_5  and  C4_6 
REMARK       I    between atoms: C4_6  and  N2_8 
REMARK    4  A    between atoms: N2_8  and  S1_10 
REMARK    5  A    between atoms: N3_14  and  S2_16 
REMARK    6  A    between atoms: S2_16  and  N4_19 
REMARK       I    between atoms: N4_19  and  C6_21 
REMARK       I    between atoms: C6_21  and  N5_23 
REMARK    7  A    between atoms: N5_23  and  C7_25 
ROOT
HETATM    1  N3  UNL     1     -33.554  -0.441 189.502  1.00  0.00    -0.281 N 
ATOM      2  H3  UNL     1     -33.661   0.346 190.143  1.00  0.00     0.179 HD
ENDROOT
BRANCH   1   3
HETATM    3  C2  UNL     1     -33.384  -1.751 190.036  1.00  0.00     0.082 C 
HETATM    4  C1  UNL     1     -32.327  -2.100 191.005  1.00  0.00     0.089 C 
HETATM    5  N1  UNL     1     -34.188  -2.650 189.610  1.00  0.00    -0.371 N 
ATOM      6  H1  UNL     1     -34.886  -2.314 188.946  1.00  0.00     0.161 HD
BRANCH   5   7
HETATM    7  C3  UNL     1     -34.271  -4.030 189.904  1.00  0.00     0.224 C 
BRANCH   7   8
HETATM    8  C4  UNL     1     -35.621  -4.417 190.327  1.00  0.00     0.248 C 
HETATM    9  O1  UNL     1     -35.749  -5.582 190.825  1.00  0.00    -0.271 OA
HETATM   10  N2  UNL     1     -36.783  -3.617 190.228  1.00  0.00    -0.253 N 
ATOM     11  H2  UNL     1     -36.709  -2.677 189.839  1.00  0.00     0.181 HD
BRANCH  10  12
HETATM   12  S1  UNL     1     -38.308  -4.190 190.744  1.00  0.00     0.229 S 
HETATM   13  C5  UNL     1     -39.632  -3.056 190.515  1.00  0.00     0.186 C 
HETATM   14  O2  UNL     1     -38.202  -4.543 192.208  1.00  0.00    -0.206 OA
HETATM   15  O3  UNL     1     -38.647  -5.457 190.008  1.00  0.00    -0.206 OA
ENDBRANCH  10  12
ENDBRANCH   7   8
ENDBRANCH   5   7
ENDBRANCH   1   3
BRANCH   1  16
HETATM   16  S2  UNL     1     -33.584  -0.153 187.826  1.00  0.00     0.184 S 
HETATM   17  O4  UNL     1     -33.422  -1.423 187.032  1.00  0.00    -0.215 OA
HETATM   18  S3  UNL     1     -32.367   0.975 187.438  1.00  0.00     0.052 SA
BRANCH  16  19
HETATM   19  N4  UNL     1     -35.126   0.533 187.371  1.00  0.00    -0.243 N 
HETATM   20  C6  UNL     1     -36.299   0.106 188.009  1.00  0.00     0.329 C 
HETATM   21  O5  UNL     1     -36.324  -0.796 188.909  1.00  0.00    -0.246 OA
HETATM   22  N5  UNL     1     -37.550   0.682 187.673  1.00  0.00    -0.338 N 
ATOM     23  H5  UNL     1     -37.570   1.410 186.959  1.00  0.00     0.164 HD
ATOM     24  H4  UNL     1     -35.172   1.244 186.642  1.00  0.00     0.182 HD
BRANCH  22  25
HETATM   25  C7  UNL     1     -38.814   0.288 188.295  1.00  0.00     0.086 C 
HETATM   26  C8  UNL     1     -39.388   1.576 188.844  1.00  0.00     0.025 C 
HETATM   27  C9  UNL     1     -40.189   2.353 187.829  1.00  0.00     0.002 C 
HETATM   28  C10 UNL     1     -41.368   1.431 187.465  1.00  0.00     0.000 C 
HETATM   29  C11 UNL     1     -40.806   0.283 186.714  1.00  0.00     0.002 C 
HETATM   30  C12 UNL     1     -39.644  -0.427 187.325  1.00  0.00     0.025 C 
ENDBRANCH  22  25
ENDBRANCH  16  19
ENDBRANCH   1  16
TORSDOF 7
ENDMDL
MODEL 3
REMARK VINA RESULT: -6.553009697      2.949      3.789
REMARK  7 active torsions:
REMARK  status: ('A' for Active; 'I' for Inactive)
REMARK    1  A    between atoms: C2_2  and  N3_14 
REMARK    2  A    between atoms: N1_3  and  C3_5 
REMARK    3  A    between atoms: C3_5  and  C4_6 
REMARK       I    between atoms: C4_6  and  N2_8 
REMARK    4  A    between atoms: N2_8  and  S1_10 
REMARK    5  A    between atoms: N3_14  and  S2_16 
REMARK    6  A    between atoms: S2_16  and  N4_19 
REMARK       I    between atoms: N4_19  and  C6_21 
REMARK       I    between atoms: C6_21  and  N5_23 
REMARK    7  A    between atoms: N5_23  and  C7_25 
ROOT
HETATM    1  N3  UNL     1     -35.979  -4.499 188.767  1.00  0.00    -0.281 N 
ATOM      2  H3  UNL     1     -36.236  -4.368 187.788  1.00  0.00     0.179 HD
ENDROOT
BRANCH   1   3
HETATM    3  C2  UNL     1     -34.600  -4.577 189.116  1.00  0.00     0.082 C 
HETATM    4  C1  UNL     1     -33.526  -3.953 188.318  1.00  0.00     0.089 C 
HETATM    5  N1  UNL     1     -34.313  -5.251 190.163  1.00  0.00    -0.371 N 
ATOM      6  H1  UNL     1     -35.119  -5.641 190.651  1.00  0.00     0.161 HD
BRANCH   5   7
HETATM    7  C3  UNL     1     -33.065  -5.548 190.758  1.00  0.00     0.224 C 
BRANCH   7   8
HETATM    8  C4  UNL     1     -33.195  -5.814 192.195  1.00  0.00     0.248 C 
HETATM    9  O1  UNL     1     -32.123  -6.094 192.822  1.00  0.00    -0.271 OA
HETATM   10  N2  UNL     1     -34.399  -5.790 192.937  1.00  0.00    -0.253 N 
ATOM     11  H2  UNL     1     -35.273  -5.562 192.463  1.00  0.00     0.181 HD
BRANCH  10  12
HETATM   12  S1  UNL     1     -34.423  -6.133 194.611  1.00  0.00     0.229 S 
HETATM   13  C5  UNL     1     -33.825  -7.730 195.039  1.00  0.00     0.186 C 
HETATM   14  O2  UNL     1     -35.845  -5.986 195.096  1.00  0.00    -0.206 OA
HETATM   15  O3  UNL     1     -33.597  -5.114 195.347  1.00  0.00    -0.206 OA
ENDBRANCH  10  12
ENDBRANCH   7   8
ENDBRANCH   5   7
ENDBRANCH   1   3
BRANCH   1  16
HETATM   16  S2  UNL     1     -37.208  -4.620 189.937  1.00  0.00     0.184 S 
HETATM   17  O4  UNL     1     -36.701  -4.312 191.321  1.00  0.00    -0.215 OA
HETATM   18  S3  UNL     1     -37.889  -6.180 189.863  1.00  0.00     0.052 SA
BRANCH  16  19
HETATM   19  N4  UNL     1     -38.469  -3.459 189.592  1.00  0.00    -0.243 N 
HETATM   20  C6  UNL     1     -38.147  -2.229 189.003  1.00  0.00     0.329 C 
HETATM   21  O5  UNL     1     -36.956  -1.874 188.715  1.00  0.00    -0.246 OA
HETATM   22  N5  UNL     1     -39.166  -1.296 188.686  1.00  0.00    -0.338 N 
ATOM     23  H5  UNL     1     -40.131  -1.545 188.898  1.00  0.00     0.164 HD
ATOM     24  H4  UNL     1     -39.438  -3.678 189.819  1.00  0.00     0.182 HD
BRANCH  22  25
HETATM   25  C7  UNL     1     -38.907   0.007 188.071  1.00  0.00     0.086 C 
HETATM   26  C8  UNL     1     -39.674  -0.027 186.767  1.00  0.00     0.025 C 
HETATM   27  C9  UNL     1     -41.117   0.387 186.913  1.00  0.00     0.002 C 
HETATM   28  C10 UNL     1     -41.064   1.851 187.389  1.00  0.00     0.000 C 
HETATM   29  C11 UNL     1     -40.526   1.839 188.770  1.00  0.00     0.002 C 
HETATM   30  C12 UNL     1     -39.264   1.076 189.003  1.00  0.00     0.025 C 
ENDBRANCH  22  25
ENDBRANCH  16  19
ENDBRANCH   1  16
TORSDOF 7
ENDMDL
MODEL 4
REMARK VINA RESULT: -6.544591905      5.699      7.789
REMARK  7 active torsions:
REMARK  status: ('A' for Active; 'I' for Inactive)
REMARK    1  A    between atoms: C2_2  and  N3_14 
REMARK    2  A    between atoms: N1_3  and  C3_5 
REMARK    3  A    between atoms: C3_5  and  C4_6 
REMARK       I    between atoms: C4_6  and  N2_8 
REMARK    4  A    between atoms: N2_8  and  S1_10 
REMARK    5  A    between atoms: N3_14  and  S2_16 
REMARK    6  A    between atoms: S2_16  and  N4_19 
REMARK       I    between atoms: N4_19  and  C6_21 
REMARK       I    between atoms: C6_21  and  N5_23 
REMARK    7  A    between atoms: N5_23  and  C7_25 
ROOT
HETATM    1  N3  UNL     1     -33.991   1.455 187.428  1.00  0.00    -0.281 N 
ATOM      2  H3  UNL     1     -33.937   2.407 187.792  1.00  0.00     0.179 HD
ENDROOT
BRANCH   1   3
HETATM    3  C2  UNL     1     -34.819   0.506 188.093  1.00  0.00     0.082 C 
HETATM    4  C1  UNL     1     -34.317  -0.429 189.119  1.00  0.00     0.089 C 
HETATM    5  N1  UNL     1     -36.047   0.471 187.737  1.00  0.00    -0.371 N 
ATOM      6  H1  UNL     1     -36.302   1.155 187.025  1.00  0.00     0.161 HD
BRANCH   5   7
HETATM    7  C3  UNL     1     -37.109  -0.358 188.164  1.00  0.00     0.224 C 
BRANCH   7   8
HETATM    8  C4  UNL     1     -38.396   0.345 188.135  1.00  0.00     0.248 C 
HETATM    9  O1  UNL     1     -39.038   0.404 189.233  1.00  0.00    -0.271 OA
HETATM   10  N2  UNL     1     -38.982   0.956 187.001  1.00  0.00    -0.253 N 
ATOM     11  H2  UNL     1     -38.487   0.930 186.109  1.00  0.00     0.181 HD
BRANCH  10  12
HETATM   12  S1  UNL     1     -40.500   1.736 187.092  1.00  0.00     0.229 S 
HETATM   13  C5  UNL     1     -41.827   0.699 187.596  1.00  0.00     0.186 C 
HETATM   14  O2  UNL     1     -40.808   2.315 185.732  1.00  0.00    -0.206 OA
HETATM   15  O3  UNL     1     -40.418   2.889 188.055  1.00  0.00    -0.206 OA
ENDBRANCH  10  12
ENDBRANCH   7   8
ENDBRANCH   5   7
ENDBRANCH   1   3
BRANCH   1  16
HETATM   16  S2  UNL     1     -33.090   1.046 186.044  1.00  0.00     0.184 S 
HETATM   17  O4  UNL     1     -33.704  -0.106 185.292  1.00  0.00    -0.215 OA
HETATM   18  S3  UNL     1     -31.490   0.693 186.513  1.00  0.00     0.052 SA
BRANCH  16  19
HETATM   19  N4  UNL     1     -33.047   2.403 184.943  1.00  0.00    -0.243 N 
HETATM   20  C6  UNL     1     -32.944   3.708 185.443  1.00  0.00     0.329 C 
HETATM   21  O5  UNL     1     -32.903   3.987 186.687  1.00  0.00    -0.246 OA
HETATM   22  N5  UNL     1     -32.872   4.813 184.557  1.00  0.00    -0.338 N 
ATOM     23  H5  UNL     1     -32.898   4.630 183.555  1.00  0.00     0.164 HD
ATOM     24  H4  UNL     1     -33.098   2.244 183.937  1.00  0.00     0.182 HD
BRANCH  22  25
HETATM   25  C7  UNL     1     -32.763   6.202 185.005  1.00  0.00     0.086 C 
HETATM   26  C8  UNL     1     -31.274   6.457 185.100  1.00  0.00     0.025 C 
HETATM   27  C9  UNL     1     -30.656   6.883 183.792  1.00  0.00     0.002 C 
HETATM   28  C10 UNL     1     -31.341   8.220 183.448  1.00  0.00     0.000 C 
HETATM   29  C11 UNL     1     -32.755   7.914 183.125  1.00  0.00     0.002 C 
HETATM   30  C12 UNL     1     -33.510   7.076 184.101  1.00  0.00     0.025 C 
ENDBRANCH  22  25
ENDBRANCH  16  19
ENDBRANCH   1  16
TORSDOF 7
ENDMDL
MODEL 5
REMARK VINA RESULT: -6.496873663      3.518      5.881
REMARK  7 active torsions:
REMARK  status: ('A' for Active; 'I' for Inactive)
REMARK    1  A    between atoms: C2_2  and  N3_14 
REMARK    2  A    between atoms: N1_3  and  C3_5 
REMARK    3  A    between atoms: C3_5  and  C4_6 
REMARK       I    between atoms: C4_6  and  N2_8 
REMARK    4  A    between atoms: N2_8  and  S1_10 
REMARK    5  A    between atoms: N3_14  and  S2_16 
REMARK    6  A    between atoms: S2_16  and  N4_19 
REMARK       I    between atoms: N4_19  and  C6_21 
REMARK       I    between atoms: C6_21  and  N5_23 
REMARK    7  A    between atoms: N5_23  and  C7_25 
ROOT
HETATM    1  N3  UNL     1     -41.192  -0.356 188.087  1.00  0.00    -0.281 N 
ATOM      2  H3  UNL     1     -41.794  -0.994 187.565  1.00  0.00     0.179 HD
ENDROOT
BRANCH   1   3
HETATM    3  C2  UNL     1     -40.978  -0.586 189.477  1.00  0.00     0.082 C 
HETATM    4  C1  UNL     1     -41.190   0.446 190.510  1.00  0.00     0.089 C 
HETATM    5  N1  UNL     1     -40.555  -1.747 189.804  1.00  0.00    -0.371 N 
ATOM      6  H1  UNL     1     -40.443  -2.394 189.023  1.00  0.00     0.161 HD
BRANCH   5   7
HETATM    7  C3  UNL     1     -40.217  -2.285 191.067  1.00  0.00     0.224 C 
BRANCH   7   8
HETATM    8  C4  UNL     1     -39.168  -3.304 190.963  1.00  0.00     0.248 C 
HETATM    9  O1  UNL     1     -39.049  -4.103 191.948  1.00  0.00    -0.271 OA
HETATM   10  N2  UNL     1     -38.281  -3.474 189.874  1.00  0.00    -0.253 N 
ATOM     11  H2  UNL     1     -38.357  -2.853 189.068  1.00  0.00     0.181 HD
BRANCH  10  12
HETATM   12  S1  UNL     1     -37.085  -4.695 189.877  1.00  0.00     0.229 S 
HETATM   13  C5  UNL     1     -37.708  -6.329 189.692  1.00  0.00     0.186 C 
HETATM   14  O2  UNL     1     -36.322  -4.596 191.176  1.00  0.00    -0.206 OA
HETATM   15  O3  UNL     1     -36.102  -4.443 188.767  1.00  0.00    -0.206 OA
ENDBRANCH  10  12
ENDBRANCH   7   8
ENDBRANCH   5   7
ENDBRANCH   1   3
BRANCH   1  16
HETATM   16  S2  UNL     1     -40.471   0.953 187.274  1.00  0.00     0.184 S 
HETATM   17  O4  UNL     1     -40.470   2.206 188.111  1.00  0.00    -0.215 OA
HETATM   18  S3  UNL     1     -41.284   1.201 185.797  1.00  0.00     0.052 SA
BRANCH  16  19
HETATM   19  N4  UNL     1     -38.800   0.582 186.919  1.00  0.00    -0.243 N 
HETATM   20  C6  UNL     1     -37.833   0.671 187.930  1.00  0.00     0.329 C 
HETATM   21  O5  UNL     1     -38.090   1.042 189.122  1.00  0.00    -0.246 OA
HETATM   22  N5  UNL     1     -36.482   0.338 187.661  1.00  0.00    -0.338 N 
ATOM     23  H5  UNL     1     -36.238   0.034 186.719  1.00  0.00     0.164 HD
ATOM     24  H4  UNL     1     -38.530   0.301 185.977  1.00  0.00     0.182 HD
BRANCH  22  25
HETATM   25  C7  UNL     1     -35.418   0.407 188.664  1.00  0.00     0.086 C 
HETATM   26  C8  UNL     1     -34.897  -1.011 188.767  1.00  0.00     0.025 C 
HETATM   27  C9  UNL     1     -33.840  -1.335 187.741  1.00  0.00     0.002 C 
HETATM   28  C10 UNL     1     -32.672  -0.381 188.061  1.00  0.00     0.000 C 
HETATM   29  C11 UNL     1     -33.127   0.990 187.726  1.00  0.00     0.002 C 
HETATM   30  C12 UNL     1     -34.441   1.427 188.283  1.00  0.00     0.025 C 
ENDBRANCH  22  25
ENDBRANCH  16  19
ENDBRANCH   1  16
TORSDOF 7
ENDMDL
