MODEL 1
REMARK VINA RESULT: -4.987388398      0.000      0.000
REMARK  4 active torsions:
REMARK  status: ('A' for Active; 'I' for Inactive)
REMARK    1  A    between atoms: O1_2  and  C2_3 
REMARK    2  A    between atoms: C2_3  and  C3_5 
REMARK    3  A    between atoms: C7_11  and  O3_12 
REMARK    4  A    between atoms: O3_12  and  C8_13 
ROOT
HETATM    1  C3  UNL     1      24.926 -32.901 -38.047  1.00  0.00     0.065 A 
HETATM    2  C4  UNL     1      23.892 -33.323 -38.854  1.00  0.00     0.049 A 
HETATM    3  C5  UNL     1      22.680 -32.738 -38.814  1.00  0.00     0.088 A 
HETATM    4  N1  UNL     1      21.644 -33.211 -39.667  1.00  0.00    -0.099 NA
HETATM    5  C6  UNL     1      22.468 -31.688 -37.939  1.00  0.00     0.175 A 
HETATM    6  F1  UNL     1      21.216 -31.145 -37.953  1.00  0.00    -0.201 F 
HETATM    7  C7  UNL     1      23.461 -31.223 -37.110  1.00  0.00     0.131 A 
HETATM    8  C11 UNL     1      24.693 -31.839 -37.171  1.00  0.00     0.097 A 
HETATM    9  C12 UNL     1      25.784 -31.406 -36.340  1.00  0.00     0.103 C 
HETATM   10  N2  UNL     1      26.663 -31.026 -35.646  1.00  0.00    -0.191 NA
ENDROOT
BRANCH   1  11
HETATM   11  C2  UNL     1      26.191 -33.593 -38.163  1.00  0.00     0.294 C 
HETATM   12  O2  UNL     1      26.761 -33.649 -39.274  1.00  0.00    -0.259 OA
BRANCH  11  13
HETATM   13  O1  UNL     1      26.760 -34.188 -37.052  1.00  0.00    -0.322 OA
HETATM   14  C1  UNL     1      26.006 -35.159 -36.357  1.00  0.00     0.213 C 
ENDBRANCH  11  13
ENDBRANCH   1  11
BRANCH   7  15
HETATM   15  O3  UNL     1      23.228 -30.196 -36.266  1.00  0.00    -0.342 OA
BRANCH  15  16
HETATM   16  C8  UNL     1      23.292 -28.820 -36.529  1.00  0.00     0.121 C 
HETATM   17  C9  UNL     1      24.267 -28.422 -37.593  1.00  0.00     0.040 C 
HETATM   18  C10 UNL     1      21.943 -28.234 -36.886  1.00  0.00     0.040 C 
ENDBRANCH  15  16
ENDBRANCH   7  15
TORSDOF 4
ENDMDL
MODEL 2
REMARK VINA RESULT: -4.950522315      2.083      5.680
REMARK  4 active torsions:
REMARK  status: ('A' for Active; 'I' for Inactive)
REMARK    1  A    between atoms: O1_2  and  C2_3 
REMARK    2  A    between atoms: C2_3  and  C3_5 
REMARK    3  A    between atoms: C7_11  and  O3_12 
REMARK    4  A    between atoms: O3_12  and  C8_13 
ROOT
HETATM    1  C3  UNL     1      23.909 -29.884 -36.573  1.00  0.00     0.065 A 
HETATM    2  C4  UNL     1      25.080 -29.487 -35.964  1.00  0.00     0.049 A 
HETATM    3  C5  UNL     1      26.149 -30.302 -35.888  1.00  0.00     0.088 A 
HETATM    4  N1  UNL     1      27.335 -29.846 -35.248  1.00  0.00    -0.099 NA
HETATM    5  C6  UNL     1      26.069 -31.570 -36.436  1.00  0.00     0.175 A 
HETATM    6  F1  UNL     1      27.191 -32.340 -36.322  1.00  0.00    -0.201 F 
HETATM    7  C7  UNL     1      24.929 -32.021 -37.057  1.00  0.00     0.131 A 
HETATM    8  C11 UNL     1      23.849 -31.167 -37.121  1.00  0.00     0.097 A 
HETATM    9  C12 UNL     1      22.622 -31.564 -37.760  1.00  0.00     0.103 C 
HETATM   10  N2  UNL     1      21.628 -31.917 -38.294  1.00  0.00    -0.191 NA
ENDROOT
BRANCH   1  11
HETATM   11  C2  UNL     1      22.817 -28.937 -36.604  1.00  0.00     0.294 C 
HETATM   12  O2  UNL     1      22.782 -28.067 -37.500  1.00  0.00    -0.259 OA
BRANCH  11  13
HETATM   13  O1  UNL     1      21.821 -28.998 -35.646  1.00  0.00    -0.322 OA
HETATM   14  C1  UNL     1      20.482 -29.095 -36.083  1.00  0.00     0.213 C 
ENDBRANCH  11  13
ENDBRANCH   1  11
BRANCH   7  15
HETATM   15  O3  UNL     1      24.877 -33.263 -37.584  1.00  0.00    -0.342 OA
BRANCH  15  16
HETATM   16  C8  UNL     1      25.421 -33.719 -38.794  1.00  0.00     0.121 C 
HETATM   17  C9  UNL     1      26.450 -34.796 -38.662  1.00  0.00     0.040 C 
HETATM   18  C10 UNL     1      24.360 -34.198 -39.762  1.00  0.00     0.040 C 
ENDBRANCH  15  16
ENDBRANCH   7  15
TORSDOF 4
ENDMDL
MODEL 3
REMARK VINA RESULT: -4.937321828     10.246     12.102
REMARK  4 active torsions:
REMARK  status: ('A' for Active; 'I' for Inactive)
REMARK    1  A    between atoms: O1_2  and  C2_3 
REMARK    2  A    between atoms: C2_3  and  C3_5 
REMARK    3  A    between atoms: C7_11  and  O3_12 
REMARK    4  A    between atoms: O3_12  and  C8_13 
ROOT
HETATM    1  C3  UNL     1      30.357 -26.908 -30.009  1.00  0.00     0.065 A 
HETATM    2  C4  UNL     1      31.592 -27.040 -29.410  1.00  0.00     0.049 A 
HETATM    3  C5  UNL     1      31.719 -27.214 -28.081  1.00  0.00     0.088 A 
HETATM    4  N1  UNL     1      33.016 -27.346 -27.511  1.00  0.00    -0.099 NA
HETATM    5  C6  UNL     1      30.580 -27.261 -27.297  1.00  0.00     0.175 A 
HETATM    6  F1  UNL     1      30.786 -27.440 -25.959  1.00  0.00    -0.201 F 
HETATM    7  C7  UNL     1      29.323 -27.136 -27.836  1.00  0.00     0.131 A 
HETATM    8  C11 UNL     1      29.220 -26.959 -29.200  1.00  0.00     0.097 A 
HETATM    9  C12 UNL     1      27.938 -26.826 -29.840  1.00  0.00     0.103 C 
HETATM   10  N2  UNL     1      26.871 -26.723 -30.337  1.00  0.00    -0.191 NA
ENDROOT
BRANCH   1  11
HETATM   11  C2  UNL     1      30.325 -26.725 -31.442  1.00  0.00     0.294 C 
HETATM   12  O2  UNL     1      30.189 -27.720 -32.186  1.00  0.00    -0.259 OA
BRANCH  11  13
HETATM   13  O1  UNL     1      30.444 -25.457 -31.981  1.00  0.00    -0.322 OA
HETATM   14  C1  UNL     1      29.365 -24.951 -32.738  1.00  0.00     0.213 C 
ENDBRANCH  11  13
ENDBRANCH   1  11
BRANCH   7  15
HETATM   15  O3  UNL     1      28.227 -27.186 -27.048  1.00  0.00    -0.342 OA
BRANCH  15  16
HETATM   16  C8  UNL     1      27.655 -28.303 -26.422  1.00  0.00     0.121 C 
HETATM   17  C9  UNL     1      27.146 -28.061 -25.036  1.00  0.00     0.040 C 
HETATM   18  C10 UNL     1      26.532 -28.912 -27.235  1.00  0.00     0.040 C 
ENDBRANCH  15  16
ENDBRANCH   7  15
TORSDOF 4
ENDMDL
MODEL 4
REMARK VINA RESULT: -4.927186596      1.776      4.672
REMARK  4 active torsions:
REMARK  status: ('A' for Active; 'I' for Inactive)
REMARK    1  A    between atoms: O1_2  and  C2_3 
REMARK    2  A    between atoms: C2_3  and  C3_5 
REMARK    3  A    between atoms: C7_11  and  O3_12 
REMARK    4  A    between atoms: O3_12  and  C8_13 
ROOT
HETATM    1  C3  UNL     1      23.821 -30.352 -37.231  1.00  0.00     0.065 A 
HETATM    2  C4  UNL     1      22.844 -31.089 -37.864  1.00  0.00     0.049 A 
HETATM    3  C5  UNL     1      23.050 -32.367 -38.234  1.00  0.00     0.088 A 
HETATM    4  N1  UNL     1      22.008 -33.086 -38.885  1.00  0.00    -0.099 NA
HETATM    5  C6  UNL     1      24.275 -32.954 -37.973  1.00  0.00     0.175 A 
HETATM    6  F1  UNL     1      24.411 -34.251 -38.376  1.00  0.00    -0.201 F 
HETATM    7  C7  UNL     1      25.287 -32.271 -37.344  1.00  0.00     0.131 A 
HETATM    8  C11 UNL     1      25.051 -30.963 -36.976  1.00  0.00     0.097 A 
HETATM    9  C12 UNL     1      26.059 -30.183 -36.309  1.00  0.00     0.103 C 
HETATM   10  N2  UNL     1      26.906 -29.568 -35.759  1.00  0.00    -0.191 NA
ENDROOT
BRANCH   1  11
HETATM   11  C2  UNL     1      23.504 -28.988 -36.874  1.00  0.00     0.294 C 
HETATM   12  O2  UNL     1      23.952 -28.050 -37.568  1.00  0.00    -0.259 OA
BRANCH  11  13
HETATM   13  O1  UNL     1      22.713 -28.727 -35.770  1.00  0.00    -0.322 OA
HETATM   14  C1  UNL     1      23.173 -29.155 -34.506  1.00  0.00     0.213 C 
ENDBRANCH  11  13
ENDBRANCH   1  11
BRANCH   7  15
HETATM   15  O3  UNL     1      26.474 -32.867 -37.100  1.00  0.00    -0.342 OA
BRANCH  15  16
HETATM   16  C8  UNL     1      26.803 -33.764 -36.073  1.00  0.00     0.121 C 
HETATM   17  C9  UNL     1      27.108 -35.158 -36.522  1.00  0.00     0.040 C 
HETATM   18  C10 UNL     1      27.961 -33.278 -35.228  1.00  0.00     0.040 C 
ENDBRANCH  15  16
ENDBRANCH   7  15
TORSDOF 4
ENDMDL
MODEL 5
REMARK VINA RESULT: -4.799833796      2.603      3.464
REMARK  4 active torsions:
REMARK  status: ('A' for Active; 'I' for Inactive)
REMARK    1  A    between atoms: O1_2  and  C2_3 
REMARK    2  A    between atoms: C2_3  and  C3_5 
REMARK    3  A    between atoms: C7_11  and  O3_12 
REMARK    4  A    between atoms: O3_12  and  C8_13 
ROOT
HETATM    1  C3  UNL     1      25.496 -31.281 -36.499  1.00  0.00     0.065 A 
HETATM    2  C4  UNL     1      25.817 -30.050 -37.028  1.00  0.00     0.049 A 
HETATM    3  C5  UNL     1      24.963 -29.010 -36.966  1.00  0.00     0.088 A 
HETATM    4  N1  UNL     1      25.340 -27.758 -37.527  1.00  0.00    -0.099 NA
HETATM    5  C6  UNL     1      23.734 -29.183 -36.356  1.00  0.00     0.175 A 
HETATM    6  F1  UNL     1      22.922 -28.086 -36.330  1.00  0.00    -0.201 F 
HETATM    7  C7  UNL     1      23.359 -30.387 -35.810  1.00  0.00     0.131 A 
HETATM    8  C11 UNL     1      24.251 -31.436 -35.887  1.00  0.00     0.097 A 
HETATM    9  C12 UNL     1      23.934 -32.726 -35.333  1.00  0.00     0.103 C 
HETATM   10  N2  UNL     1      23.646 -33.773 -34.867  1.00  0.00    -0.191 NA
ENDROOT
BRANCH   1  11
HETATM   11  C2  UNL     1      26.479 -32.336 -36.616  1.00  0.00     0.294 C 
HETATM   12  O2  UNL     1      26.470 -33.075 -37.623  1.00  0.00    -0.259 OA
BRANCH  11  13
HETATM   13  O1  UNL     1      27.419 -32.520 -35.618  1.00  0.00    -0.322 OA
HETATM   14  C1  UNL     1      27.772 -33.843 -35.274  1.00  0.00     0.213 C 
ENDBRANCH  11  13
ENDBRANCH   1  11
BRANCH   7  15
HETATM   15  O3  UNL     1      22.153 -30.530 -35.219  1.00  0.00    -0.342 OA
BRANCH  15  16
HETATM   16  C8  UNL     1      21.800 -30.273 -33.887  1.00  0.00     0.121 C 
HETATM   17  C9  UNL     1      22.823 -29.524 -33.092  1.00  0.00     0.040 C 
HETATM   18  C10 UNL     1      20.482 -29.537 -33.768  1.00  0.00     0.040 C 
ENDBRANCH  15  16
ENDBRANCH   7  15
TORSDOF 4
ENDMDL
