MODEL 1
REMARK VINA RESULT: -6.709357372      0.000      0.000
REMARK  3 active torsions:
REMARK  status: ('A' for Active; 'I' for Inactive)
REMARK    1  A    between atoms: C2_2  and  N1_4 
REMARK    2  A    between atoms: N1_4  and  C4_7 
REMARK    3  A    between atoms: C4_7  and  C5_8 
ROOT
HETATM    1  C5  UNL     1       2.870  20.895  13.837  1.00  0.00     0.210 C 
HETATM    2  C6  UNL     1       1.599  21.761  14.025  1.00  0.00     0.209 C 
HETATM    3  O1  UNL     1       2.014  23.025  13.557  1.00  0.00    -0.338 OA
HETATM    4  C7  UNL     1       3.025  23.454  14.443  1.00  0.00     0.273 C 
HETATM    5  C8  UNL     1       4.206  23.820  13.574  1.00  0.00     0.101 C 
HETATM    6 CL1  UNL     1       2.464  24.888  15.369  1.00  0.00    -0.055 Cl
HETATM    7  O2  UNL     1       3.399  22.448  15.308  1.00  0.00    -0.183 OA
HETATM    8  O3  UNL     1       3.819  21.402  14.677  1.00  0.00    -0.227 OA
ENDROOT
BRANCH   1   9
HETATM    9  C4  UNL     1       2.482  19.504  14.266  1.00  0.00     0.269 C 
BRANCH   9  10
HETATM   10  N1  UNL     1       3.586  18.822  14.929  1.00  0.00    -0.069 N 
ATOM     11  H12 UNL     1       3.539  18.887  15.946  1.00  0.00     0.277 HD
ATOM     12  H11 UNL     1       4.479  19.298  14.805  1.00  0.00     0.277 HD
BRANCH  10  13
HETATM   13  C2  UNL     1       3.606  17.464  14.456  1.00  0.00     0.178 C 
HETATM   14  C1  UNL     1       4.947  17.121  13.890  1.00  0.00     0.039 C 
HETATM   15  C3  UNL     1       2.486  17.218  13.450  1.00  0.00     0.039 C 
ENDBRANCH  10  13
ENDBRANCH   9  10
ENDBRANCH   1   9
TORSDOF 3
ENDMDL
MODEL 2
REMARK VINA RESULT: -6.708832071      0.333      1.030
REMARK  3 active torsions:
REMARK  status: ('A' for Active; 'I' for Inactive)
REMARK    1  A    between atoms: C2_2  and  N1_4 
REMARK    2  A    between atoms: N1_4  and  C4_7 
REMARK    3  A    between atoms: C4_7  and  C5_8 
ROOT
HETATM    1  C5  UNL     1       2.816  20.997  13.868  1.00  0.00     0.210 C 
HETATM    2  C6  UNL     1       1.563  21.894  14.030  1.00  0.00     0.209 C 
HETATM    3  O1  UNL     1       2.011  23.143  13.553  1.00  0.00    -0.338 OA
HETATM    4  C7  UNL     1       3.021  23.560  14.445  1.00  0.00     0.273 C 
HETATM    5  C8  UNL     1       4.220  23.888  13.585  1.00  0.00     0.101 C 
HETATM    6 CL1  UNL     1       2.482  25.017  15.347  1.00  0.00    -0.055 Cl
HETATM    7  O2  UNL     1       3.363  22.557  15.325  1.00  0.00    -0.183 OA
HETATM    8  O3  UNL     1       3.767  21.494  14.713  1.00  0.00    -0.227 OA
ENDROOT
BRANCH   1   9
HETATM    9  C4  UNL     1       2.392  19.621  14.308  1.00  0.00     0.269 C 
BRANCH   9  10
HETATM   10  N1  UNL     1       3.522  18.849  14.812  1.00  0.00    -0.069 N 
ATOM     11  H12 UNL     1       3.464  18.670  15.814  1.00  0.00     0.277 HD
ATOM     12  H11 UNL     1       4.392  19.380  14.820  1.00  0.00     0.277 HD
BRANCH  10  13
HETATM   13  C2  UNL     1       3.607  17.645  14.032  1.00  0.00     0.178 C 
HETATM   14  C1  UNL     1       2.402  16.786  14.250  1.00  0.00     0.039 C 
HETATM   15  C3  UNL     1       4.901  16.891  14.327  1.00  0.00     0.039 C 
ENDBRANCH  10  13
ENDBRANCH   9  10
ENDBRANCH   1   9
TORSDOF 3
ENDMDL
MODEL 3
REMARK VINA RESULT: -6.272913210      1.137      1.819
REMARK  3 active torsions:
REMARK  status: ('A' for Active; 'I' for Inactive)
REMARK    1  A    between atoms: C2_2  and  N1_4 
REMARK    2  A    between atoms: N1_4  and  C4_7 
REMARK    3  A    between atoms: C4_7  and  C5_8 
ROOT
HETATM    1  C5  UNL     1       2.530  20.497  14.413  1.00  0.00     0.210 C 
HETATM    2  C6  UNL     1       3.772  21.415  14.537  1.00  0.00     0.209 C 
HETATM    3  O1  UNL     1       3.348  22.385  15.470  1.00  0.00    -0.338 OA
HETATM    4  C7  UNL     1       2.292  23.084  14.850  1.00  0.00     0.273 C 
HETATM    5  C8  UNL     1       1.140  23.042  15.828  1.00  0.00     0.101 C 
HETATM    6 CL1  UNL     1       2.780  24.784  14.535  1.00  0.00    -0.055 Cl
HETATM    7  O2  UNL     1       1.904  22.477  13.676  1.00  0.00    -0.183 OA
HETATM    8  O3  UNL     1       1.535  21.253  13.864  1.00  0.00    -0.227 OA
ENDROOT
BRANCH   1   9
HETATM    9  C4  UNL     1       2.930  19.395  13.468  1.00  0.00     0.269 C 
BRANCH   9  10
HETATM   10  N1  UNL     1       4.267  18.895  13.765  1.00  0.00    -0.069 N 
ATOM     11  H12 UNL     1       4.842  19.573  14.267  1.00  0.00     0.277 HD
ATOM     12  H11 UNL     1       4.853  18.812  12.934  1.00  0.00     0.277 HD
BRANCH  10  13
HETATM   13  C2  UNL     1       4.121  17.653  14.473  1.00  0.00     0.178 C 
HETATM   14  C1  UNL     1       5.288  16.755  14.213  1.00  0.00     0.039 C 
HETATM   15  C3  UNL     1       2.798  16.977  14.126  1.00  0.00     0.039 C 
ENDBRANCH  10  13
ENDBRANCH   9  10
ENDBRANCH   1   9
TORSDOF 3
ENDMDL
MODEL 4
REMARK VINA RESULT: -5.944288475      3.260      5.352
REMARK  3 active torsions:
REMARK  status: ('A' for Active; 'I' for Inactive)
REMARK    1  A    between atoms: C2_2  and  N1_4 
REMARK    2  A    between atoms: N1_4  and  C4_7 
REMARK    3  A    between atoms: C4_7  and  C5_8 
ROOT
HETATM    1  C5  UNL     1       3.743  19.933  14.686  1.00  0.00     0.210 C 
HETATM    2  C6  UNL     1       2.289  19.828  14.161  1.00  0.00     0.209 C 
HETATM    3  O1  UNL     1       1.956  18.485  14.435  1.00  0.00    -0.338 OA
HETATM    4  C7  UNL     1       2.814  17.702  13.635  1.00  0.00     0.273 C 
HETATM    5  C8  UNL     1       3.472  16.719  14.577  1.00  0.00     0.101 C 
HETATM    6 CL1  UNL     1       1.864  16.828  12.386  1.00  0.00    -0.055 Cl
HETATM    7  O2  UNL     1       3.789  18.470  13.038  1.00  0.00    -0.183 OA
HETATM    8  O3  UNL     1       4.502  19.107  13.907  1.00  0.00    -0.227 OA
ENDROOT
BRANCH   1   9
HETATM    9  C4  UNL     1       4.149  21.368  14.477  1.00  0.00     0.269 C 
BRANCH   9  10
HETATM   10  N1  UNL     1       3.311  22.278  15.247  1.00  0.00    -0.069 N 
ATOM     11  H12 UNL     1       3.726  22.540  16.142  1.00  0.00     0.277 HD
ATOM     12  H11 UNL     1       2.472  21.830  15.615  1.00  0.00     0.277 HD
BRANCH  10  13
HETATM   13  C2  UNL     1       3.019  23.412  14.413  1.00  0.00     0.178 C 
HETATM   14  C1  UNL     1       4.246  23.860  13.683  1.00  0.00     0.039 C 
HETATM   15  C3  UNL     1       2.397  24.545  15.224  1.00  0.00     0.039 C 
ENDBRANCH  10  13
ENDBRANCH   9  10
ENDBRANCH   1   9
TORSDOF 3
ENDMDL
MODEL 5
REMARK VINA RESULT: -5.835838357      1.180      1.855
REMARK  3 active torsions:
REMARK  status: ('A' for Active; 'I' for Inactive)
REMARK    1  A    between atoms: C2_2  and  N1_4 
REMARK    2  A    between atoms: N1_4  and  C4_7 
REMARK    3  A    between atoms: C4_7  and  C5_8 
ROOT
HETATM    1  C5  UNL     1       2.293  20.524  14.539  1.00  0.00     0.210 C 
HETATM    2  C6  UNL     1       3.721  21.124  14.544  1.00  0.00     0.209 C 
HETATM    3  O1  UNL     1       3.572  22.270  15.352  1.00  0.00    -0.338 OA
HETATM    4  C7  UNL     1       2.693  23.125  14.656  1.00  0.00     0.273 C 
HETATM    5  C8  UNL     1       1.597  23.477  15.636  1.00  0.00     0.101 C 
HETATM    6 CL1  UNL     1       3.562  24.608  14.133  1.00  0.00    -0.055 Cl
HETATM    7  O2  UNL     1       2.133  22.495  13.566  1.00  0.00    -0.183 OA
HETATM    8  O3  UNL     1       1.489  21.427  13.905  1.00  0.00    -0.227 OA
ENDROOT
BRANCH   1   9
HETATM    9  C4  UNL     1       2.388  19.254  13.734  1.00  0.00     0.269 C 
BRANCH   9  10
HETATM   10  N1  UNL     1       1.991  18.092  14.520  1.00  0.00    -0.069 N 
ATOM     11  H12 UNL     1       0.980  18.019  14.637  1.00  0.00     0.277 HD
ATOM     12  H11 UNL     1       2.234  18.179  15.506  1.00  0.00     0.277 HD
BRANCH  10  13
HETATM   13  C2  UNL     1       2.568  16.930  13.900  1.00  0.00     0.178 C 
HETATM   14  C1  UNL     1       4.059  17.035  13.867  1.00  0.00     0.039 C 
HETATM   15  C3  UNL     1       1.984  16.704  12.509  1.00  0.00     0.039 C 
ENDBRANCH  10  13
ENDBRANCH   9  10
ENDBRANCH   1   9
TORSDOF 3
ENDMDL
