MODEL 1
REMARK VINA RESULT: -8.823729046      0.000      0.000
REMARK  5 active torsions:
REMARK  status: ('A' for Active; 'I' for Inactive)
REMARK    1  A    between atoms: C2_2  and  N1_3 
REMARK    2  A    between atoms: N1_3  and  C3_5 
REMARK    3  A    between atoms: C3_5  and  C4_6 
REMARK    4  A    between atoms: C4_6  and  N2_7 
REMARK    5  A    between atoms: N2_7  and  C5_9 
ROOT
HETATM    1  C5  UNL     1       7.307 -18.004   6.218  1.00  0.00     0.678 A 
HETATM    2  N3  UNL     1       6.746 -17.582   5.077  1.00  0.00    -0.191 N 
ATOM      3  H3  UNL     1       7.302 -17.004   4.448  1.00  0.00     0.184 HD
HETATM    4  C6  UNL     1       5.486 -17.884   4.722  1.00  0.00     0.060 A 
HETATM    5  C7  UNL     1       4.918 -17.405   3.486  1.00  0.00    -0.009 A 
HETATM    6  C8  UNL     1       5.696 -16.598   2.666  1.00  0.00     0.014 A 
HETATM    7  C9  UNL     1       5.210 -16.113   1.476  1.00  0.00     0.001 A 
HETATM    8  C10 UNL     1       3.931 -16.437   1.098  1.00  0.00     0.000 A 
HETATM    9  C11 UNL     1       3.121 -17.230   1.873  1.00  0.00     0.001 A 
HETATM   10  C12 UNL     1       3.654 -17.699   3.070  1.00  0.00     0.014 A 
HETATM   11  C13 UNL     1       4.744 -18.659   5.569  1.00  0.00     0.048 A 
HETATM   12  C14 UNL     1       5.318 -19.098   6.748  1.00  0.00     0.108 A 
HETATM   13  N4  UNL     1       6.587 -18.769   7.062  1.00  0.00    -0.202 N 
ATOM     14  H4  UNL     1       7.001 -19.097   7.935  1.00  0.00     0.183 HD
ENDROOT
BRANCH   1  15
HETATM   15  N2  UNL     1       8.531 -17.701   6.541  1.00  0.00    -0.224 N 
ATOM     16  H2  UNL     1       9.011 -16.979   6.006  1.00  0.00     0.177 HD
BRANCH  15  17
HETATM   17  C4  UNL     1       9.243 -18.344   7.628  1.00  0.00     0.157 C 
BRANCH  17  18
HETATM   18  C3  UNL     1       9.681 -19.692   7.140  1.00  0.00     0.134 C 
BRANCH  18  19
HETATM   19  N1  UNL     1      10.810 -20.251   7.798  1.00  0.00    -0.420 N 
ATOM     20  H1  UNL     1      11.649 -19.703   7.993  1.00  0.00     0.153 HD
BRANCH  19  21
HETATM   21  C2  UNL     1      10.703 -21.621   8.171  1.00  0.00     0.109 C 
HETATM   22  C1  UNL     1      12.106 -22.238   8.140  1.00  0.00     0.026 C 
ENDBRANCH  19  21
ENDBRANCH  18  19
ENDBRANCH  17  18
ENDBRANCH  15  17
ENDBRANCH   1  15
TORSDOF 5
ENDMDL
MODEL 2
REMARK VINA RESULT: -8.570928940      3.717      7.778
REMARK  5 active torsions:
REMARK  status: ('A' for Active; 'I' for Inactive)
REMARK    1  A    between atoms: C2_2  and  N1_3 
REMARK    2  A    between atoms: N1_3  and  C3_5 
REMARK    3  A    between atoms: C3_5  and  C4_6 
REMARK    4  A    between atoms: C4_6  and  N2_7 
REMARK    5  A    between atoms: N2_7  and  C5_9 
ROOT
HETATM    1  C5  UNL     1       3.130 -17.383   1.758  1.00  0.00     0.678 A 
HETATM    2  N3  UNL     1       3.713 -17.787   2.894  1.00  0.00    -0.191 N 
ATOM      3  H3  UNL     1       3.213 -18.450   3.487  1.00  0.00     0.184 HD
HETATM    4  C6  UNL     1       4.923 -17.362   3.291  1.00  0.00     0.060 A 
HETATM    5  C7  UNL     1       5.513 -17.818   4.526  1.00  0.00    -0.009 A 
HETATM    6  C8  UNL     1       4.792 -18.702   5.320  1.00  0.00     0.014 A 
HETATM    7  C9  UNL     1       5.303 -19.173   6.504  1.00  0.00     0.001 A 
HETATM    8  C10 UNL     1       6.549 -18.759   6.905  1.00  0.00     0.000 A 
HETATM    9  C11 UNL     1       7.302 -17.886   6.157  1.00  0.00     0.001 A 
HETATM   10  C12 UNL     1       6.745 -17.434   4.963  1.00  0.00     0.014 A 
HETATM   11  C13 UNL     1       5.589 -16.472   2.495  1.00  0.00     0.048 A 
HETATM   12  C14 UNL     1       4.993 -16.051   1.321  1.00  0.00     0.108 A 
HETATM   13  N4  UNL     1       3.775 -16.506   0.964  1.00  0.00    -0.202 N 
ATOM     14  H4  UNL     1       3.344 -16.188   0.095  1.00  0.00     0.183 HD
ENDROOT
BRANCH   1  15
HETATM   15  N2  UNL     1       1.956 -17.810   1.391  1.00  0.00    -0.224 N 
ATOM     16  H2  UNL     1       1.243 -17.946   2.107  1.00  0.00     0.177 HD
BRANCH  15  17
HETATM   17  C4  UNL     1       1.617 -18.101   0.012  1.00  0.00     0.157 C 
BRANCH  17  18
HETATM   18  C3  UNL     1       0.456 -19.050   0.028  1.00  0.00     0.134 C 
BRANCH  18  19
HETATM   19  N1  UNL     1       0.449 -20.000   1.085  1.00  0.00    -0.420 N 
ATOM     20  H1  UNL     1       0.310 -19.726   2.057  1.00  0.00     0.153 HD
BRANCH  19  21
HETATM   21  C2  UNL     1       0.648 -21.358   0.707  1.00  0.00     0.109 C 
HETATM   22  C1  UNL     1       2.156 -21.629   0.665  1.00  0.00     0.026 C 
ENDBRANCH  19  21
ENDBRANCH  18  19
ENDBRANCH  17  18
ENDBRANCH  15  17
ENDBRANCH   1  15
TORSDOF 5
ENDMDL
MODEL 3
REMARK VINA RESULT: -8.364012274      3.724      8.606
REMARK  5 active torsions:
REMARK  status: ('A' for Active; 'I' for Inactive)
REMARK    1  A    between atoms: C2_2  and  N1_3 
REMARK    2  A    between atoms: N1_3  and  C3_5 
REMARK    3  A    between atoms: C3_5  and  C4_6 
REMARK    4  A    between atoms: C4_6  and  N2_7 
REMARK    5  A    between atoms: N2_7  and  C5_9 
ROOT
HETATM    1  C5  UNL     1       3.228 -17.302   1.854  1.00  0.00     0.678 A 
HETATM    2  N3  UNL     1       3.789 -17.722   2.995  1.00  0.00    -0.191 N 
ATOM      3  H3  UNL     1       3.261 -18.362   3.589  1.00  0.00     0.184 HD
HETATM    4  C6  UNL     1       5.014 -17.344   3.395  1.00  0.00     0.060 A 
HETATM    5  C7  UNL     1       5.580 -17.817   4.634  1.00  0.00    -0.009 A 
HETATM    6  C8  UNL     1       4.822 -18.666   5.430  1.00  0.00     0.014 A 
HETATM    7  C9  UNL     1       5.308 -19.150   6.619  1.00  0.00     0.001 A 
HETATM    8  C10 UNL     1       6.568 -18.784   7.023  1.00  0.00     0.000 A 
HETATM    9  C11 UNL     1       7.358 -17.947   6.273  1.00  0.00     0.001 A 
HETATM   10  C12 UNL     1       6.825 -17.479   5.075  1.00  0.00     0.014 A 
HETATM   11  C13 UNL     1       5.718 -16.486   2.597  1.00  0.00     0.048 A 
HETATM   12  C14 UNL     1       5.144 -16.048   1.418  1.00  0.00     0.108 A 
HETATM   13  N4  UNL     1       3.910 -16.456   1.058  1.00  0.00    -0.202 N 
ATOM     14  H4  UNL     1       3.496 -16.126   0.186  1.00  0.00     0.183 HD
ENDROOT
BRANCH   1  15
HETATM   15  N2  UNL     1       2.039 -17.684   1.485  1.00  0.00    -0.224 N 
ATOM     16  H2  UNL     1       1.263 -17.553   2.133  1.00  0.00     0.177 HD
BRANCH  15  17
HETATM   17  C4  UNL     1       1.768 -18.285   0.194  1.00  0.00     0.157 C 
BRANCH  17  18
HETATM   18  C3  UNL     1       0.510 -19.088   0.330  1.00  0.00     0.134 C 
BRANCH  18  19
HETATM   19  N1  UNL     1      -0.589 -18.654  -0.460  1.00  0.00    -0.420 N 
ATOM     20  H1  UNL     1      -1.164 -17.854  -0.193  1.00  0.00     0.153 HD
BRANCH  19  21
HETATM   21  C2  UNL     1      -0.841 -19.400  -1.646  1.00  0.00     0.109 C 
HETATM   22  C1  UNL     1      -0.248 -18.630  -2.832  1.00  0.00     0.026 C 
ENDBRANCH  19  21
ENDBRANCH  18  19
ENDBRANCH  17  18
ENDBRANCH  15  17
ENDBRANCH   1  15
TORSDOF 5
ENDMDL
MODEL 4
REMARK VINA RESULT: -8.000097955      3.218      5.456
REMARK  5 active torsions:
REMARK  status: ('A' for Active; 'I' for Inactive)
REMARK    1  A    between atoms: C2_2  and  N1_3 
REMARK    2  A    between atoms: N1_3  and  C3_5 
REMARK    3  A    between atoms: C3_5  and  C4_6 
REMARK    4  A    between atoms: C4_6  and  N2_7 
REMARK    5  A    between atoms: N2_7  and  C5_9 
ROOT
HETATM    1  C5  UNL     1       5.294 -17.474   1.917  1.00  0.00     0.678 A 
HETATM    2  N3  UNL     1       4.409 -18.407   1.544  1.00  0.00    -0.191 N 
ATOM      3  H3  UNL     1       4.635 -19.387   1.715  1.00  0.00     0.184 HD
HETATM    4  C6  UNL     1       3.237 -18.116   0.955  1.00  0.00     0.060 A 
HETATM    5  C7  UNL     1       2.313 -19.152   0.564  1.00  0.00    -0.009 A 
HETATM    6  C8  UNL     1       2.667 -20.477   0.789  1.00  0.00     0.014 A 
HETATM    7  C9  UNL     1       1.827 -21.506   0.440  1.00  0.00     0.001 A 
HETATM    8  C10 UNL     1       0.620 -21.213  -0.142  1.00  0.00     0.000 A 
HETATM    9  C11 UNL     1       0.223 -19.921  -0.387  1.00  0.00     0.001 A 
HETATM   10  C12 UNL     1       1.105 -18.909  -0.017  1.00  0.00     0.014 A 
HETATM   11  C13 UNL     1       2.937 -16.801   0.726  1.00  0.00     0.048 A 
HETATM   12  C14 UNL     1       3.847 -15.834   1.110  1.00  0.00     0.108 A 
HETATM   13  N4  UNL     1       5.012 -16.174   1.698  1.00  0.00    -0.202 N 
ATOM     14  H4  UNL     1       5.676 -15.452   1.976  1.00  0.00     0.183 HD
ENDROOT
BRANCH   1  15
HETATM   15  N2  UNL     1       6.423 -17.779   2.488  1.00  0.00    -0.224 N 
ATOM     16  H2  UNL     1       7.290 -17.504   2.028  1.00  0.00     0.177 HD
BRANCH  15  17
HETATM   17  C4  UNL     1       6.504 -18.490   3.748  1.00  0.00     0.157 C 
BRANCH  17  18
HETATM   18  C3  UNL     1       6.024 -17.559   4.820  1.00  0.00     0.134 C 
BRANCH  18  19
HETATM   19  N1  UNL     1       4.881 -17.990   5.548  1.00  0.00    -0.420 N 
ATOM     20  H1  UNL     1       3.970 -17.545   5.437  1.00  0.00     0.153 HD
BRANCH  19  21
HETATM   21  C2  UNL     1       5.083 -19.081   6.440  1.00  0.00     0.109 C 
HETATM   22  C1  UNL     1       6.195 -18.697   7.423  1.00  0.00     0.026 C 
ENDBRANCH  19  21
ENDBRANCH  18  19
ENDBRANCH  17  18
ENDBRANCH  15  17
ENDBRANCH   1  15
TORSDOF 5
ENDMDL
MODEL 5
REMARK VINA RESULT: -7.913306136      1.169      1.335
REMARK  5 active torsions:
REMARK  status: ('A' for Active; 'I' for Inactive)
REMARK    1  A    between atoms: C2_2  and  N1_3 
REMARK    2  A    between atoms: N1_3  and  C3_5 
REMARK    3  A    between atoms: C3_5  and  C4_6 
REMARK    4  A    between atoms: C4_6  and  N2_7 
REMARK    5  A    between atoms: N2_7  and  C5_9 
ROOT
HETATM    1  C5  UNL     1       8.086 -18.925   6.282  1.00  0.00     0.678 A 
HETATM    2  N3  UNL     1       7.412 -18.614   5.168  1.00  0.00    -0.191 N 
ATOM      3  H3  UNL     1       7.921 -18.587   4.284  1.00  0.00     0.184 HD
HETATM    4  C6  UNL     1       6.098 -18.335   5.157  1.00  0.00     0.060 A 
HETATM    5  C7  UNL     1       5.410 -17.999   3.934  1.00  0.00    -0.009 A 
HETATM    6  C8  UNL     1       6.141 -17.947   2.753  1.00  0.00     0.014 A 
HETATM    7  C9  UNL     1       5.541 -17.635   1.558  1.00  0.00     0.001 A 
HETATM    8  C10 UNL     1       4.195 -17.371   1.537  1.00  0.00     0.000 A 
HETATM    9  C11 UNL     1       3.427 -17.409   2.676  1.00  0.00     0.001 A 
HETATM   10  C12 UNL     1       4.077 -17.729   3.866  1.00  0.00     0.014 A 
HETATM   11  C13 UNL     1       5.419 -18.372   6.343  1.00  0.00     0.048 A 
HETATM   12  C14 UNL     1       6.110 -18.693   7.496  1.00  0.00     0.108 A 
HETATM   13  N4  UNL     1       7.430 -18.965   7.458  1.00  0.00    -0.202 N 
ATOM     14  H4  UNL     1       7.930 -19.200   8.316  1.00  0.00     0.183 HD
ENDROOT
BRANCH   1  15
HETATM   15  N2  UNL     1       9.360 -19.194   6.269  1.00  0.00    -0.224 N 
ATOM     16  H2  UNL     1      10.016 -18.431   6.108  1.00  0.00     0.177 HD
BRANCH  15  17
HETATM   17  C4  UNL     1       9.888 -20.528   6.474  1.00  0.00     0.157 C 
BRANCH  17  18
HETATM   18  C3  UNL     1      10.439 -20.582   7.867  1.00  0.00     0.134 C 
BRANCH  18  19
HETATM   19  N1  UNL     1      11.765 -21.080   7.989  1.00  0.00    -0.420 N 
ATOM     20  H1  UNL     1      12.575 -20.540   7.685  1.00  0.00     0.153 HD
BRANCH  19  21
HETATM   21  C2  UNL     1      11.896 -22.378   8.559  1.00  0.00     0.109 C 
HETATM   22  C1  UNL     1      12.168 -23.375   7.426  1.00  0.00     0.026 C 
ENDBRANCH  19  21
ENDBRANCH  18  19
ENDBRANCH  17  18
ENDBRANCH  15  17
ENDBRANCH   1  15
TORSDOF 5
ENDMDL
