MODEL 1
REMARK VINA RESULT: -6.731889262      0.000      0.000
REMARK  4 active torsions:
REMARK  status: ('A' for Active; 'I' for Inactive)
REMARK    1  A    between atoms: N1_2  and  C3_4 
REMARK    2  A    between atoms: C3_4  and  C4_5 
REMARK    3  A    between atoms: C6_7  and  N2_8 
REMARK       I    between atoms: N2_8  and  C7_10 
REMARK    4  A    between atoms: C10_17  and  N5_18 
ROOT
HETATM    1  C4  UNL     1       8.074 -19.671   6.566  1.00  0.00     0.009 A 
HETATM    2  C5  UNL     1       7.176 -19.708   5.499  1.00  0.00     0.044 A 
HETATM    3  C6  UNL     1       6.168 -18.776   5.310  1.00  0.00     0.035 A 
HETATM    4  C8  UNL     1       6.069 -17.785   6.246  1.00  0.00     0.032 A 
HETATM    5  C9  UNL     1       6.901 -17.688   7.312  1.00  0.00     0.039 A 
HETATM    6  C10 UNL     1       7.945 -18.643   7.495  1.00  0.00     0.114 A 
ENDROOT
BRANCH   3   7
HETATM    7  N2  UNL     1       5.321 -18.796   4.168  1.00  0.00    -0.331 N 
HETATM    8  C7  UNL     1       5.119 -17.749   3.263  1.00  0.00     0.186 C 
HETATM    9  N3  UNL     1       3.983 -17.615   2.660  1.00  0.00    -0.373 N 
HETATM   10  N4  UNL     1       6.081 -16.744   2.962  1.00  0.00    -0.064 NA
ATOM     11  H32 UNL     1       3.294 -18.336   2.875  1.00  0.00     0.158 HD
ATOM     12  H31 UNL     1       3.835 -16.852   2.000  1.00  0.00     0.158 HD
ATOM     13  H2  UNL     1       4.810 -19.661   3.991  1.00  0.00     0.168 HD
ENDBRANCH   3   7
BRANCH   1  14
HETATM   14  C3  UNL     1       9.255 -20.526   6.577  1.00  0.00     0.072 C 
BRANCH  14  15
HETATM   15  N1  UNL     1       9.782 -21.148   7.700  1.00  0.00    -0.300 NA
HETATM   16  C1  UNL     1       9.724 -22.570   7.745  1.00  0.00     0.115 C 
HETATM   17  C2  UNL     1      11.295 -20.900   7.707  1.00  0.00     0.115 C 
ENDBRANCH  14  15
ENDBRANCH   1  14
BRANCH   6  18
HETATM   18  N5  UNL     1       8.823 -18.461   8.548  1.00  0.00    -0.115 N 
HETATM   19  O1  UNL     1       8.697 -18.863   9.691  1.00  0.00    -0.532 OA
HETATM   20  O2  UNL     1       9.942 -17.642   8.259  1.00  0.00    -0.532 OA
ENDBRANCH   6  18
TORSDOF 4
ENDMDL
MODEL 2
REMARK VINA RESULT: -6.700858215      1.150      1.507
REMARK  4 active torsions:
REMARK  status: ('A' for Active; 'I' for Inactive)
REMARK    1  A    between atoms: N1_2  and  C3_4 
REMARK    2  A    between atoms: C3_4  and  C4_5 
REMARK    3  A    between atoms: C6_7  and  N2_8 
REMARK       I    between atoms: N2_8  and  C7_10 
REMARK    4  A    between atoms: C10_17  and  N5_18 
ROOT
HETATM    1  C4  UNL     1       7.649 -19.316   6.074  1.00  0.00     0.009 A 
HETATM    2  C5  UNL     1       7.093 -19.130   4.807  1.00  0.00     0.044 A 
HETATM    3  C6  UNL     1       6.807 -17.885   4.269  1.00  0.00     0.035 A 
HETATM    4  C8  UNL     1       7.087 -16.801   5.054  1.00  0.00     0.032 A 
HETATM    5  C9  UNL     1       7.622 -16.904   6.294  1.00  0.00     0.039 A 
HETATM    6  C10 UNL     1       7.926 -18.188   6.840  1.00  0.00     0.114 A 
ENDROOT
BRANCH   3   7
HETATM    7  N2  UNL     1       6.317 -17.727   2.944  1.00  0.00    -0.331 N 
HETATM    8  C7  UNL     1       4.976 -17.752   2.545  1.00  0.00     0.186 C 
HETATM    9  N3  UNL     1       4.652 -18.184   1.369  1.00  0.00    -0.373 N 
HETATM   10  N4  UNL     1       3.880 -17.370   3.368  1.00  0.00    -0.064 NA
ATOM     11  H32 UNL     1       5.438 -18.457   0.779  1.00  0.00     0.158 HD
ATOM     12  H31 UNL     1       3.675 -18.203   1.078  1.00  0.00     0.158 HD
ATOM     13  H2  UNL     1       7.011 -17.579   2.212  1.00  0.00     0.168 HD
ENDBRANCH   3   7
BRANCH   1  14
HETATM   14  C3  UNL     1       8.153 -20.622   6.482  1.00  0.00     0.072 C 
BRANCH  14  15
HETATM   15  N1  UNL     1       9.437 -21.094   6.247  1.00  0.00    -0.300 NA
HETATM   16  C1  UNL     1      10.336 -20.224   5.565  1.00  0.00     0.115 C 
HETATM   17  C2  UNL     1      10.132 -21.257   7.603  1.00  0.00     0.115 C 
ENDBRANCH  14  15
ENDBRANCH   1  14
BRANCH   6  18
HETATM   18  N5  UNL     1       8.547 -18.246   8.074  1.00  0.00    -0.115 N 
HETATM   19  O1  UNL     1       8.090 -18.700   9.108  1.00  0.00    -0.532 OA
HETATM   20  O2  UNL     1       9.819 -17.627   8.133  1.00  0.00    -0.532 OA
ENDBRANCH   6  18
TORSDOF 4
ENDMDL
MODEL 3
REMARK VINA RESULT: -6.627741858      5.533      8.555
REMARK  4 active torsions:
REMARK  status: ('A' for Active; 'I' for Inactive)
REMARK    1  A    between atoms: N1_2  and  C3_4 
REMARK    2  A    between atoms: C3_4  and  C4_5 
REMARK    3  A    between atoms: C6_7  and  N2_8 
REMARK       I    between atoms: N2_8  and  C7_10 
REMARK    4  A    between atoms: C10_17  and  N5_18 
ROOT
HETATM    1  C4  UNL     1       3.420 -19.079   0.492  1.00  0.00     0.009 A 
HETATM    2  C5  UNL     1       4.642 -18.768   1.090  1.00  0.00     0.044 A 
HETATM    3  C6  UNL     1       4.791 -17.804   2.076  1.00  0.00     0.035 A 
HETATM    4  C8  UNL     1       3.661 -17.132   2.450  1.00  0.00     0.032 A 
HETATM    5  C9  UNL     1       2.442 -17.376   1.910  1.00  0.00     0.039 A 
HETATM    6  C10 UNL     1       2.291 -18.378   0.904  1.00  0.00     0.114 A 
ENDROOT
BRANCH   3   7
HETATM    7  N2  UNL     1       6.035 -17.568   2.722  1.00  0.00    -0.331 N 
HETATM    8  C7  UNL     1       6.337 -17.822   4.064  1.00  0.00     0.186 C 
HETATM    9  N3  UNL     1       7.197 -17.086   4.691  1.00  0.00    -0.373 N 
HETATM   10  N4  UNL     1       5.726 -18.836   4.852  1.00  0.00    -0.064 NA
ATOM     11  H32 UNL     1       7.635 -16.359   4.126  1.00  0.00     0.158 HD
ATOM     12  H31 UNL     1       7.417 -17.271   5.670  1.00  0.00     0.158 HD
ATOM     13  H2  UNL     1       6.782 -17.174   2.150  1.00  0.00     0.168 HD
ENDBRANCH   3   7
BRANCH   1  14
HETATM   14  C3  UNL     1       3.283 -20.261  -0.351  1.00  0.00     0.072 C 
BRANCH  14  15
HETATM   15  N1  UNL     1       3.582 -20.316  -1.706  1.00  0.00    -0.300 NA
HETATM   16  C1  UNL     1       4.342 -21.431  -2.160  1.00  0.00     0.115 C 
HETATM   17  C2  UNL     1       2.266 -20.507  -2.469  1.00  0.00     0.115 C 
ENDBRANCH  14  15
ENDBRANCH   1  14
BRANCH   6  18
HETATM   18  N5  UNL     1       1.018 -18.654   0.439  1.00  0.00    -0.115 N 
HETATM   19  O1  UNL     1       0.442 -18.118  -0.491  1.00  0.00    -0.532 OA
HETATM   20  O2  UNL     1       0.298 -19.608   1.197  1.00  0.00    -0.532 OA
ENDBRANCH   6  18
TORSDOF 4
ENDMDL
MODEL 4
REMARK VINA RESULT: -6.600807494      2.292      5.958
REMARK  4 active torsions:
REMARK  status: ('A' for Active; 'I' for Inactive)
REMARK    1  A    between atoms: N1_2  and  C3_4 
REMARK    2  A    between atoms: C3_4  and  C4_5 
REMARK    3  A    between atoms: C6_7  and  N2_8 
REMARK       I    between atoms: N2_8  and  C7_10 
REMARK    4  A    between atoms: C10_17  and  N5_18 
ROOT
HETATM    1  C4  UNL     1       7.307 -18.712   5.214  1.00  0.00     0.009 A 
HETATM    2  C5  UNL     1       8.598 -19.218   5.363  1.00  0.00     0.044 A 
HETATM    3  C6  UNL     1       9.178 -19.497   6.592  1.00  0.00     0.035 A 
HETATM    4  C8  UNL     1       8.418 -19.238   7.699  1.00  0.00     0.032 A 
HETATM    5  C9  UNL     1       7.159 -18.741   7.632  1.00  0.00     0.039 A 
HETATM    6  C10 UNL     1       6.562 -18.468   6.364  1.00  0.00     0.114 A 
ENDROOT
BRANCH   3   7
HETATM    7  N2  UNL     1      10.465 -20.087   6.706  1.00  0.00    -0.331 N 
HETATM    8  C7  UNL     1      10.869 -21.025   7.662  1.00  0.00     0.186 C 
HETATM    9  N3  UNL     1      12.097 -21.060   8.067  1.00  0.00    -0.373 N 
HETATM   10  N4  UNL     1      10.002 -21.961   8.292  1.00  0.00    -0.064 NA
ATOM     11  H32 UNL     1      12.719 -20.389   7.615  1.00  0.00     0.158 HD
ATOM     12  H31 UNL     1      12.391 -21.744   8.765  1.00  0.00     0.158 HD
ATOM     13  H2  UNL     1      11.165 -19.799   6.022  1.00  0.00     0.168 HD
ENDBRANCH   3   7
BRANCH   1  14
HETATM   14  C3  UNL     1       6.668 -18.674   3.904  1.00  0.00     0.072 C 
BRANCH  14  15
HETATM   15  N1  UNL     1       5.645 -17.810   3.538  1.00  0.00    -0.300 NA
HETATM   16  C1  UNL     1       6.016 -16.597   2.892  1.00  0.00     0.115 C 
HETATM   17  C2  UNL     1       4.816 -18.500   2.449  1.00  0.00     0.115 C 
ENDBRANCH  14  15
ENDBRANCH   1  14
BRANCH   6  18
HETATM   18  N5  UNL     1       5.247 -18.041   6.336  1.00  0.00    -0.115 N 
HETATM   19  O1  UNL     1       4.847 -16.893   6.269  1.00  0.00    -0.532 OA
HETATM   20  O2  UNL     1       4.282 -19.066   6.490  1.00  0.00    -0.532 OA
ENDBRANCH   6  18
TORSDOF 4
ENDMDL
MODEL 5
REMARK VINA RESULT: -6.511330324      2.130      5.669
REMARK  4 active torsions:
REMARK  status: ('A' for Active; 'I' for Inactive)
REMARK    1  A    between atoms: N1_2  and  C3_4 
REMARK    2  A    between atoms: C3_4  and  C4_5 
REMARK    3  A    between atoms: C6_7  and  N2_8 
REMARK       I    between atoms: N2_8  and  C7_10 
REMARK    4  A    between atoms: C10_17  and  N5_18 
ROOT
HETATM    1  C4  UNL     1       8.294 -19.259   5.904  1.00  0.00     0.009 A 
HETATM    2  C5  UNL     1       8.734 -20.522   6.302  1.00  0.00     0.044 A 
HETATM    3  C6  UNL     1       9.505 -20.745   7.433  1.00  0.00     0.035 A 
HETATM    4  C8  UNL     1       9.844 -19.644   8.169  1.00  0.00     0.032 A 
HETATM    5  C9  UNL     1       9.458 -18.387   7.841  1.00  0.00     0.039 A 
HETATM    6  C10 UNL     1       8.655 -18.163   6.683  1.00  0.00     0.114 A 
ENDROOT
BRANCH   3   7
HETATM    7  N2  UNL     1       9.868 -22.053   7.856  1.00  0.00    -0.331 N 
HETATM    8  C7  UNL     1      11.164 -22.578   7.915  1.00  0.00     0.186 C 
HETATM    9  N3  UNL     1      11.366 -23.842   7.730  1.00  0.00    -0.373 N 
HETATM   10  N4  UNL     1      12.340 -21.806   8.129  1.00  0.00    -0.064 NA
ATOM     11  H32 UNL     1      10.523 -24.395   7.577  1.00  0.00     0.158 HD
ATOM     12  H31 UNL     1      12.311 -24.225   7.774  1.00  0.00     0.158 HD
ATOM     13  H2  UNL     1       9.109 -22.669   8.145  1.00  0.00     0.168 HD
ENDBRANCH   3   7
BRANCH   1  14
HETATM   14  C3  UNL     1       7.291 -19.116   4.856  1.00  0.00     0.072 C 
BRANCH  14  15
HETATM   15  N1  UNL     1       5.921 -19.256   5.035  1.00  0.00    -0.300 NA
HETATM   16  C1  UNL     1       5.438 -19.277   6.375  1.00  0.00     0.115 C 
HETATM   17  C2  UNL     1       5.244 -17.997   4.481  1.00  0.00     0.115 C 
ENDBRANCH  14  15
ENDBRANCH   1  14
BRANCH   6  18
HETATM   18  N5  UNL     1       8.213 -16.877   6.429  1.00  0.00    -0.115 N 
HETATM   19  O1  UNL     1       7.157 -16.380   6.775  1.00  0.00    -0.532 OA
HETATM   20  O2  UNL     1       9.065 -16.105   5.602  1.00  0.00    -0.532 OA
ENDBRANCH   6  18
TORSDOF 4
ENDMDL
