MODEL 1
REMARK VINA RESULT: -6.879515919      0.000      0.000
REMARK  11 active torsions:
REMARK  status: ('A' for Active; 'I' for Inactive)
REMARK    1  A    between atoms: C2_2  and  C4_4 
REMARK    2  A    between atoms: C4_4  and  C5_5 
REMARK    3  A    between atoms: C5_5  and  N1_6 
REMARK    4  A    between atoms: C5_5  and  C16_27 
REMARK       I    between atoms: N1_6  and  C6_8 
REMARK    5  A    between atoms: C6_8  and  C7_10 
REMARK    6  A    between atoms: C7_10  and  C8_11 
REMARK    7  A    between atoms: C7_10  and  N2_15 
REMARK    8  A    between atoms: C8_11  and  C9_12 
REMARK       I    between atoms: N2_15  and  C12_17 
REMARK    9  A    between atoms: C12_17  and  C13_19 
REMARK   10  A    between atoms: C13_19  and  N3_21 
REMARK   11  A    between atoms: C13_19  and  C15_25 
ROOT
HETATM    1  C7  UNL     1      25.311 -76.083  11.243  1.00  0.00     0.177 C 
ENDROOT
BRANCH   1   2
HETATM    2  C6  UNL     1      25.003 -77.399  10.629  1.00  0.00     0.241 C 
HETATM    3  N1  UNL     1      25.856 -78.487  10.894  1.00  0.00    -0.346 N 
ATOM      4  H1  UNL     1      26.664 -78.352  11.501  1.00  0.00     0.163 HD
HETATM    5  O1  UNL     1      23.990 -77.463   9.901  1.00  0.00    -0.271 OA
BRANCH   3   6
HETATM    6  C5  UNL     1      25.603 -79.828  10.304  1.00  0.00     0.174 C 
BRANCH   6   7
HETATM    7  C4  UNL     1      26.676 -79.978   9.289  1.00  0.00     0.038 C 
BRANCH   7   8
HETATM    8  C2  UNL     1      26.413 -80.653   8.016  1.00  0.00    -0.020 C 
HETATM    9  C1  UNL     1      26.767 -82.083   7.871  1.00  0.00     0.009 C 
HETATM   10  C3  UNL     1      27.198 -79.876   6.938  1.00  0.00     0.009 C 
ENDBRANCH   7   8
ENDBRANCH   6   7
BRANCH   6  11
HETATM   11  C16 UNL     1      25.657 -80.749  11.449  1.00  0.00     0.254 C 
HETATM   12  N4  UNL     1      25.846 -82.151  11.348  1.00  0.00    -0.060 NA
HETATM   13  O4  UNL     1      25.520 -80.253  12.610  1.00  0.00    -0.275 OA
ENDBRANCH   6  11
ENDBRANCH   3   6
ENDBRANCH   1   2
BRANCH   1  14
HETATM   14  C8  UNL     1      26.642 -75.661  10.704  1.00  0.00     0.038 C 
BRANCH  14  15
HETATM   15  C9  UNL     1      26.695 -75.515   9.206  1.00  0.00    -0.020 C 
HETATM   16  C10 UNL     1      27.045 -74.041   8.952  1.00  0.00     0.009 C 
HETATM   17  C11 UNL     1      27.793 -76.351   8.596  1.00  0.00     0.009 C 
ENDBRANCH  14  15
ENDBRANCH   1  14
BRANCH   1  18
HETATM   18  N2  UNL     1      25.296 -76.223  12.680  1.00  0.00    -0.345 N 
HETATM   19  C12 UNL     1      24.086 -76.129  13.404  1.00  0.00     0.261 C 
HETATM   20  O2  UNL     1      23.020 -75.917  12.747  1.00  0.00    -0.270 OA
ATOM     21  H2  UNL     1      26.170 -76.393  13.179  1.00  0.00     0.163 HD
BRANCH  19  22
HETATM   22  C13 UNL     1      24.016 -76.268  14.875  1.00  0.00     0.251 C 
HETATM   23  C14 UNL     1      24.289 -77.680  15.305  1.00  0.00     0.065 C 
BRANCH  22  24
HETATM   24  N3  UNL     1      22.746 -75.859  15.411  1.00  0.00    -0.055 N 
ATOM     25  H33 UNL     1      22.570 -74.873  15.224  1.00  0.00     0.276 HD
ATOM     26  H32 UNL     1      21.976 -76.267  14.880  1.00  0.00     0.276 HD
ATOM     27  H31 UNL     1      22.654 -76.065  16.406  1.00  0.00     0.276 HD
ENDBRANCH  22  24
BRANCH  22  28
HETATM   28  C15 UNL     1      25.055 -75.357  15.437  1.00  0.00     0.279 C 
HETATM   29  O3  UNL     1      25.272 -74.290  14.885  1.00  0.00    -0.304 OA
ENDBRANCH  22  28
ENDBRANCH  19  22
ENDBRANCH   1  18
TORSDOF 11
ENDMDL
MODEL 2
REMARK VINA RESULT: -6.849974160      1.646      1.973
REMARK  11 active torsions:
REMARK  status: ('A' for Active; 'I' for Inactive)
REMARK    1  A    between atoms: C2_2  and  C4_4 
REMARK    2  A    between atoms: C4_4  and  C5_5 
REMARK    3  A    between atoms: C5_5  and  N1_6 
REMARK    4  A    between atoms: C5_5  and  C16_27 
REMARK       I    between atoms: N1_6  and  C6_8 
REMARK    5  A    between atoms: C6_8  and  C7_10 
REMARK    6  A    between atoms: C7_10  and  C8_11 
REMARK    7  A    between atoms: C7_10  and  N2_15 
REMARK    8  A    between atoms: C8_11  and  C9_12 
REMARK       I    between atoms: N2_15  and  C12_17 
REMARK    9  A    between atoms: C12_17  and  C13_19 
REMARK   10  A    between atoms: C13_19  and  N3_21 
REMARK   11  A    between atoms: C13_19  and  C15_25 
ROOT
HETATM    1  C7  UNL     1      23.846 -78.067  10.837  1.00  0.00     0.177 C 
ENDROOT
BRANCH   1   2
HETATM    2  C6  UNL     1      24.290 -79.351  10.238  1.00  0.00     0.241 C 
HETATM    3  N1  UNL     1      25.381 -80.027  10.817  1.00  0.00    -0.346 N 
ATOM      4  H1  UNL     1      25.841 -79.626  11.634  1.00  0.00     0.163 HD
HETATM    5  O1  UNL     1      23.661 -79.760   9.240  1.00  0.00    -0.271 OA
BRANCH   3   6
HETATM    6  C5  UNL     1      25.876 -81.313  10.259  1.00  0.00     0.174 C 
BRANCH   6   7
HETATM    7  C4  UNL     1      26.928 -80.902   9.297  1.00  0.00     0.038 C 
BRANCH   7   8
HETATM    8  C2  UNL     1      26.677 -80.933   7.855  1.00  0.00    -0.020 C 
HETATM    9  C1  UNL     1      27.117 -82.108   7.069  1.00  0.00     0.009 C 
HETATM   10  C3  UNL     1      27.384 -79.696   7.261  1.00  0.00     0.009 C 
ENDBRANCH   7   8
ENDBRANCH   6   7
BRANCH   6  11
HETATM   11  C16 UNL     1      26.328 -82.073  11.435  1.00  0.00     0.254 C 
HETATM   12  N4  UNL     1      27.648 -82.556  11.623  1.00  0.00    -0.060 NA
HETATM   13  O4  UNL     1      25.475 -82.315  12.343  1.00  0.00    -0.275 OA
ENDBRANCH   6  11
ENDBRANCH   3   6
ENDBRANCH   1   2
BRANCH   1  14
HETATM   14  C8  UNL     1      24.654 -76.989  10.185  1.00  0.00     0.038 C 
BRANCH  14  15
HETATM   15  C9  UNL     1      26.027 -76.792  10.772  1.00  0.00    -0.020 C 
HETATM   16  C10 UNL     1      26.988 -76.801   9.573  1.00  0.00     0.009 C 
HETATM   17  C11 UNL     1      26.164 -75.451  11.451  1.00  0.00     0.009 C 
ENDBRANCH  14  15
ENDBRANCH   1  14
BRANCH   1  18
HETATM   18  N2  UNL     1      24.030 -78.132  12.268  1.00  0.00    -0.345 N 
HETATM   19  C12 UNL     1      23.156 -77.445  13.143  1.00  0.00     0.261 C 
HETATM   20  O2  UNL     1      22.210 -76.775  12.625  1.00  0.00    -0.270 OA
ATOM     21  H2  UNL     1      24.800 -78.679  12.653  1.00  0.00     0.163 HD
BRANCH  19  22
HETATM   22  C13 UNL     1      23.300 -77.482  14.614  1.00  0.00     0.251 C 
HETATM   23  C14 UNL     1      24.737 -77.639  15.020  1.00  0.00     0.065 C 
BRANCH  22  24
HETATM   24  N3  UNL     1      22.531 -78.536  15.220  1.00  0.00    -0.055 N 
ATOM     25  H33 UNL     1      23.045 -79.416  15.210  1.00  0.00     0.276 HD
ATOM     26  H32 UNL     1      22.456 -78.400  16.228  1.00  0.00     0.276 HD
ATOM     27  H31 UNL     1      21.610 -78.645  14.794  1.00  0.00     0.276 HD
ENDBRANCH  22  24
BRANCH  22  28
HETATM   28  C15 UNL     1      22.767 -76.186  15.125  1.00  0.00     0.279 C 
HETATM   29  O3  UNL     1      23.538 -75.381  15.624  1.00  0.00    -0.304 OA
ENDBRANCH  22  28
ENDBRANCH  19  22
ENDBRANCH   1  18
TORSDOF 11
ENDMDL
MODEL 3
REMARK VINA RESULT: -6.839781468      3.219      6.525
REMARK  11 active torsions:
REMARK  status: ('A' for Active; 'I' for Inactive)
REMARK    1  A    between atoms: C2_2  and  C4_4 
REMARK    2  A    between atoms: C4_4  and  C5_5 
REMARK    3  A    between atoms: C5_5  and  N1_6 
REMARK    4  A    between atoms: C5_5  and  C16_27 
REMARK       I    between atoms: N1_6  and  C6_8 
REMARK    5  A    between atoms: C6_8  and  C7_10 
REMARK    6  A    between atoms: C7_10  and  C8_11 
REMARK    7  A    between atoms: C7_10  and  N2_15 
REMARK    8  A    between atoms: C8_11  and  C9_12 
REMARK       I    between atoms: N2_15  and  C12_17 
REMARK    9  A    between atoms: C12_17  and  C13_19 
REMARK   10  A    between atoms: C13_19  and  N3_21 
REMARK   11  A    between atoms: C13_19  and  C15_25 
ROOT
HETATM    1  C7  UNL     1      26.845 -75.509   9.202  1.00  0.00     0.177 C 
ENDROOT
BRANCH   1   2
HETATM    2  C6  UNL     1      26.584 -75.603  10.660  1.00  0.00     0.241 C 
HETATM    3  N1  UNL     1      25.585 -76.486  11.114  1.00  0.00    -0.346 N 
ATOM      4  H1  UNL     1      25.065 -77.043  10.436  1.00  0.00     0.163 HD
HETATM    5  O1  UNL     1      27.275 -74.882  11.409  1.00  0.00    -0.271 OA
BRANCH   3   6
HETATM    6  C5  UNL     1      25.273 -76.621  12.561  1.00  0.00     0.174 C 
BRANCH   6   7
HETATM    7  C4  UNL     1      24.113 -75.718  12.761  1.00  0.00     0.038 C 
BRANCH   7   8
HETATM    8  C2  UNL     1      24.063 -74.805  13.904  1.00  0.00    -0.020 C 
HETATM    9  C1  UNL     1      25.322 -74.428  14.585  1.00  0.00     0.009 C 
HETATM   10  C3  UNL     1      23.156 -75.474  14.959  1.00  0.00     0.009 C 
ENDBRANCH   7   8
ENDBRANCH   6   7
BRANCH   6  11
HETATM   11  C16 UNL     1      25.021 -78.058  12.750  1.00  0.00     0.254 C 
HETATM   12  N4  UNL     1      25.015 -79.018  11.706  1.00  0.00    -0.060 NA
HETATM   13  O4  UNL     1      24.789 -78.465  13.929  1.00  0.00    -0.275 OA
ENDBRANCH   6  11
ENDBRANCH   3   6
ENDBRANCH   1   2
BRANCH   1  14
HETATM   14  C8  UNL     1      27.891 -76.530   8.887  1.00  0.00     0.038 C 
BRANCH  14  15
HETATM   15  C9  UNL     1      27.452 -77.603   7.926  1.00  0.00    -0.020 C 
HETATM   16  C10 UNL     1      28.738 -78.087   7.239  1.00  0.00     0.009 C 
HETATM   17  C11 UNL     1      26.848 -78.788   8.640  1.00  0.00     0.009 C 
ENDBRANCH  14  15
ENDBRANCH   1  14
BRANCH   1  18
HETATM   18  N2  UNL     1      27.252 -74.159   8.888  1.00  0.00    -0.345 N 
HETATM   19  C12 UNL     1      27.031 -73.616   7.602  1.00  0.00     0.261 C 
HETATM   20  O2  UNL     1      26.464 -74.356   6.739  1.00  0.00    -0.270 OA
ATOM     21  H2  UNL     1      27.705 -73.590   9.604  1.00  0.00     0.163 HD
BRANCH  19  22
HETATM   22  C13 UNL     1      27.427 -72.240   7.231  1.00  0.00     0.251 C 
HETATM   23  C14 UNL     1      26.615 -71.728   6.077  1.00  0.00     0.065 C 
BRANCH  22  24
HETATM   24  N3  UNL     1      28.821 -72.135   6.897  1.00  0.00    -0.055 N 
ATOM     25  H33 UNL     1      29.266 -73.053   6.889  1.00  0.00     0.276 HD
ATOM     26  H32 UNL     1      28.945 -71.883   5.916  1.00  0.00     0.276 HD
ATOM     27  H31 UNL     1      29.325 -71.490   7.507  1.00  0.00     0.276 HD
ENDBRANCH  22  24
BRANCH  22  28
HETATM   28  C15 UNL     1      27.188 -71.392   8.435  1.00  0.00     0.279 C 
HETATM   29  O3  UNL     1      27.981 -70.502   8.703  1.00  0.00    -0.304 OA
ENDBRANCH  22  28
ENDBRANCH  19  22
ENDBRANCH   1  18
TORSDOF 11
ENDMDL
MODEL 4
REMARK VINA RESULT: -6.827247205      1.958      2.575
REMARK  11 active torsions:
REMARK  status: ('A' for Active; 'I' for Inactive)
REMARK    1  A    between atoms: C2_2  and  C4_4 
REMARK    2  A    between atoms: C4_4  and  C5_5 
REMARK    3  A    between atoms: C5_5  and  N1_6 
REMARK    4  A    between atoms: C5_5  and  C16_27 
REMARK       I    between atoms: N1_6  and  C6_8 
REMARK    5  A    between atoms: C6_8  and  C7_10 
REMARK    6  A    between atoms: C7_10  and  C8_11 
REMARK    7  A    between atoms: C7_10  and  N2_15 
REMARK    8  A    between atoms: C8_11  and  C9_12 
REMARK       I    between atoms: N2_15  and  C12_17 
REMARK    9  A    between atoms: C12_17  and  C13_19 
REMARK   10  A    between atoms: C13_19  and  N3_21 
REMARK   11  A    between atoms: C13_19  and  C15_25 
ROOT
HETATM    1  C7  UNL     1      25.971 -76.342  10.360  1.00  0.00     0.177 C 
ENDROOT
BRANCH   1   2
HETATM    2  C6  UNL     1      25.917 -77.774   9.973  1.00  0.00     0.241 C 
HETATM    3  N1  UNL     1      24.885 -78.578  10.494  1.00  0.00    -0.346 N 
ATOM      4  H1  UNL     1      24.195 -78.163  11.120  1.00  0.00     0.163 HD
HETATM    5  O1  UNL     1      26.806 -78.188   9.200  1.00  0.00    -0.271 OA
BRANCH   3   6
HETATM    6  C5  UNL     1      24.782 -80.021  10.149  1.00  0.00     0.174 C 
BRANCH   6   7
HETATM    7  C4  UNL     1      25.456 -80.706  11.280  1.00  0.00     0.038 C 
BRANCH   7   8
HETATM    8  C2  UNL     1      26.163 -81.971  11.074  1.00  0.00    -0.020 C 
HETATM    9  C1  UNL     1      27.317 -82.304  11.939  1.00  0.00     0.009 C 
HETATM   10  C3  UNL     1      26.673 -81.956   9.617  1.00  0.00     0.009 C 
ENDBRANCH   7   8
ENDBRANCH   6   7
BRANCH   6  11
HETATM   11  C16 UNL     1      23.338 -80.262  10.009  1.00  0.00     0.254 C 
HETATM   12  N4  UNL     1      22.332 -79.292  10.251  1.00  0.00    -0.060 NA
HETATM   13  O4  UNL     1      22.966 -81.421   9.649  1.00  0.00    -0.275 OA
ENDBRANCH   6  11
ENDBRANCH   3   6
ENDBRANCH   1   2
BRANCH   1  14
HETATM   14  C8  UNL     1      27.162 -75.757   9.669  1.00  0.00     0.038 C 
BRANCH  14  15
HETATM   15  C9  UNL     1      26.842 -74.674   8.673  1.00  0.00    -0.020 C 
HETATM   16  C10 UNL     1      27.906 -73.588   8.893  1.00  0.00     0.009 C 
HETATM   17  C11 UNL     1      26.979 -75.158   7.250  1.00  0.00     0.009 C 
ENDBRANCH  14  15
ENDBRANCH   1  14
BRANCH   1  18
HETATM   18  N2  UNL     1      26.042 -76.249  11.799  1.00  0.00    -0.345 N 
HETATM   19  C12 UNL     1      24.871 -76.093  12.574  1.00  0.00     0.261 C 
HETATM   20  O2  UNL     1      23.760 -76.037  11.960  1.00  0.00    -0.270 OA
ATOM     21  H2  UNL     1      26.950 -76.298  12.263  1.00  0.00     0.163 HD
BRANCH  19  22
HETATM   22  C13 UNL     1      24.890 -75.996  14.050  1.00  0.00     0.251 C 
HETATM   23  C14 UNL     1      23.696 -75.246  14.565  1.00  0.00     0.065 C 
BRANCH  22  24
HETATM   24  N3  UNL     1      26.082 -75.365  14.548  1.00  0.00    -0.055 N 
ATOM     25  H33 UNL     1      25.967 -75.081  15.521  1.00  0.00     0.276 HD
ATOM     26  H32 UNL     1      26.836 -76.044  14.662  1.00  0.00     0.276 HD
ATOM     27  H31 UNL     1      26.382 -74.579  13.970  1.00  0.00     0.276 HD
ENDBRANCH  22  24
BRANCH  22  28
HETATM   28  C15 UNL     1      24.872 -77.395  14.567  1.00  0.00     0.279 C 
HETATM   29  O3  UNL     1      25.142 -78.313  13.808  1.00  0.00    -0.304 OA
ENDBRANCH  22  28
ENDBRANCH  19  22
ENDBRANCH   1  18
TORSDOF 11
ENDMDL
MODEL 5
REMARK VINA RESULT: -6.820611621      1.710      2.092
REMARK  11 active torsions:
REMARK  status: ('A' for Active; 'I' for Inactive)
REMARK    1  A    between atoms: C2_2  and  C4_4 
REMARK    2  A    between atoms: C4_4  and  C5_5 
REMARK    3  A    between atoms: C5_5  and  N1_6 
REMARK    4  A    between atoms: C5_5  and  C16_27 
REMARK       I    between atoms: N1_6  and  C6_8 
REMARK    5  A    between atoms: C6_8  and  C7_10 
REMARK    6  A    between atoms: C7_10  and  C8_11 
REMARK    7  A    between atoms: C7_10  and  N2_15 
REMARK    8  A    between atoms: C8_11  and  C9_12 
REMARK       I    between atoms: N2_15  and  C12_17 
REMARK    9  A    between atoms: C12_17  and  C13_19 
REMARK   10  A    between atoms: C13_19  and  N3_21 
REMARK   11  A    between atoms: C13_19  and  C15_25 
ROOT
HETATM    1  C7  UNL     1      25.813 -76.286  10.722  1.00  0.00     0.177 C 
ENDROOT
BRANCH   1   2
HETATM    2  C6  UNL     1      25.829 -77.698  10.262  1.00  0.00     0.241 C 
HETATM    3  N1  UNL     1      24.749 -78.534  10.604  1.00  0.00    -0.346 N 
ATOM      4  H1  UNL     1      23.979 -78.156  11.155  1.00  0.00     0.163 HD
HETATM    5  O1  UNL     1      26.816 -78.065   9.591  1.00  0.00    -0.271 OA
BRANCH   3   6
HETATM    6  C5  UNL     1      24.711 -79.958  10.178  1.00  0.00     0.174 C 
BRANCH   6   7
HETATM    7  C4  UNL     1      25.378 -80.680  11.290  1.00  0.00     0.038 C 
BRANCH   7   8
HETATM    8  C2  UNL     1      26.117 -81.919  11.041  1.00  0.00    -0.020 C 
HETATM    9  C1  UNL     1      27.241 -82.282  11.933  1.00  0.00     0.009 C 
HETATM   10  C3  UNL     1      26.687 -81.808   9.610  1.00  0.00     0.009 C 
ENDBRANCH   7   8
ENDBRANCH   6   7
BRANCH   6  11
HETATM   11  C16 UNL     1      23.281 -80.243   9.981  1.00  0.00     0.254 C 
HETATM   12  N4  UNL     1      22.768 -81.448   9.435  1.00  0.00    -0.060 NA
HETATM   13  O4  UNL     1      22.449 -79.346  10.319  1.00  0.00    -0.275 OA
ENDBRANCH   6  11
ENDBRANCH   3   6
ENDBRANCH   1   2
BRANCH   1  14
HETATM   14  C8  UNL     1      27.034 -75.636  10.151  1.00  0.00     0.038 C 
BRANCH  14  15
HETATM   15  C9  UNL     1      26.755 -74.548   9.149  1.00  0.00    -0.020 C 
HETATM   16  C10 UNL     1      28.067 -73.757   9.030  1.00  0.00     0.009 C 
HETATM   17  C11 UNL     1      26.439 -75.106   7.783  1.00  0.00     0.009 C 
ENDBRANCH  14  15
ENDBRANCH   1  14
BRANCH   1  18
HETATM   18  N2  UNL     1      25.777 -76.266  12.165  1.00  0.00    -0.345 N 
HETATM   19  C12 UNL     1      24.550 -76.162  12.859  1.00  0.00     0.261 C 
HETATM   20  O2  UNL     1      23.487 -76.087  12.167  1.00  0.00    -0.270 OA
ATOM     21  H2  UNL     1      26.649 -76.329  12.692  1.00  0.00     0.163 HD
BRANCH  19  22
HETATM   22  C13 UNL     1      24.460 -76.141  14.335  1.00  0.00     0.251 C 
HETATM   23  C14 UNL     1      24.473 -77.529  14.904  1.00  0.00     0.065 C 
BRANCH  22  24
HETATM   24  N3  UNL     1      23.286 -75.458  14.808  1.00  0.00    -0.055 N 
ATOM     25  H33 UNL     1      23.013 -75.796  15.731  1.00  0.00     0.276 HD
ATOM     26  H32 UNL     1      23.496 -74.488  15.044  1.00  0.00     0.276 HD
ATOM     27  H31 UNL     1      22.506 -75.516  14.152  1.00  0.00     0.276 HD
ENDBRANCH  22  24
BRANCH  22  28
HETATM   28  C15 UNL     1      25.648 -75.381  14.821  1.00  0.00     0.279 C 
HETATM   29  O3  UNL     1      25.771 -74.207  14.511  1.00  0.00    -0.304 OA
ENDBRANCH  22  28
ENDBRANCH  19  22
ENDBRANCH   1  18
TORSDOF 11
ENDMDL
