MODEL 1
REMARK VINA RESULT: -7.188898008      0.000      0.000
REMARK  15 active torsions:
REMARK  status: ('A' for Active; 'I' for Inactive)
REMARK    1  A    between atoms: C2_2  and  C3_3 
REMARK    2  A    between atoms: C3_3  and  O1_4 
REMARK    3  A    between atoms: O1_4  and  C4_5 
REMARK    4  A    between atoms: C4_5  and  C5_7 
REMARK    5  A    between atoms: C5_7  and  O3_8 
REMARK    6  A    between atoms: C5_7  and  C6_10 
REMARK    7  A    between atoms: C7_11  and  C8_12 
REMARK    8  A    between atoms: C9_13  and  C10_14 
REMARK    9  A    between atoms: N1_15  and  N2_17 
REMARK   10  A    between atoms: C11_20  and  C13_22 
REMARK   11  A    between atoms: C13_22  and  O4_23 
REMARK   12  A    between atoms: C13_22  and  C14_25 
REMARK   13  A    between atoms: C14_25  and  N3_26 
REMARK   14  A    between atoms: C14_25  and  C15_30 
REMARK   15  A    between atoms: C15_30  and  C16_31 
ROOT
HETATM    1  C8  UNL     1      23.970 -76.695  11.096  1.00  0.00     0.029 A 
HETATM    2  C9  UNL     1      23.097 -77.836  10.977  1.00  0.00     0.045 A 
HETATM    3  C11 UNL     1      23.887 -77.568  12.291  1.00  0.00     0.000 A 
HETATM    4  C12 UNL     1      24.903 -78.651  12.589  1.00  0.00     0.019 C 
ENDROOT
BRANCH   3   5
HETATM    5  C13 UNL     1      23.031 -77.233  13.459  1.00  0.00     0.158 C 
BRANCH   5   6
HETATM    6  O4  UNL     1      22.236 -76.092  13.165  1.00  0.00    -0.393 OA
ATOM      7  H4  UNL     1      22.237 -75.497  13.905  1.00  0.00     0.210 HD
ENDBRANCH   5   6
BRANCH   5   8
HETATM    8  C14 UNL     1      23.647 -77.095  14.792  1.00  0.00     0.213 C 
BRANCH   8   9
HETATM    9  N3  UNL     1      23.045 -77.933  15.810  1.00  0.00    -0.073 N 
ATOM     10  H33 UNL     1      22.687 -78.795  15.399  1.00  0.00     0.274 HD
ATOM     11  H32 UNL     1      23.762 -78.320  16.424  1.00  0.00     0.274 HD
ATOM     12  H31 UNL     1      22.319 -77.468  16.355  1.00  0.00     0.274 HD
ENDBRANCH   8   9
BRANCH   8  13
HETATM   13  C15 UNL     1      23.822 -75.717  15.323  1.00  0.00     0.039 C 
BRANCH  13  14
HETATM   14  C16 UNL     1      25.066 -75.003  14.857  1.00  0.00    -0.021 C 
HETATM   15  C17 UNL     1      24.720 -73.932  13.846  1.00  0.00     0.009 C 
HETATM   16  C18 UNL     1      26.221 -75.853  14.500  1.00  0.00     0.009 C 
ENDBRANCH  13  14
ENDBRANCH   8  13
ENDBRANCH   5   8
ENDBRANCH   3   5
BRANCH   1  17
HETATM   17  C7  UNL     1      25.221 -76.395  10.452  1.00  0.00    -0.021 C 
HETATM   18  C6  UNL     1      26.170 -75.539  10.634  1.00  0.00     0.011 C 
BRANCH  18  19
HETATM   19  C5  UNL     1      27.409 -75.467   9.760  1.00  0.00     0.240 C 
BRANCH  19  20
HETATM   20  C4  UNL     1      27.234 -74.350   8.783  1.00  0.00     0.291 C 
HETATM   21  O2  UNL     1      26.446 -74.456   7.816  1.00  0.00    -0.262 OA
BRANCH  20  22
HETATM   22  O1  UNL     1      27.947 -73.175   8.937  1.00  0.00    -0.316 OA
BRANCH  22  23
HETATM   23  C3  UNL     1      27.886 -72.120   8.017  1.00  0.00     0.205 C 
BRANCH  23  24
HETATM   24  C2  UNL     1      27.058 -71.013   8.565  1.00  0.00    -0.011 C 
HETATM   25  C1  UNL     1      25.795 -70.863   8.226  1.00  0.00     0.009 C 
ENDBRANCH  23  24
ENDBRANCH  22  23
ENDBRANCH  20  22
ENDBRANCH  19  20
BRANCH  19  26
HETATM   26  O3  UNL     1      27.621 -76.675   9.120  1.00  0.00    -0.382 OA
ATOM     27  H3  UNL     1      26.991 -77.332   9.394  1.00  0.00     0.211 HD
ENDBRANCH  19  26
ENDBRANCH  18  19
ENDBRANCH   1  17
BRANCH   2  28
HETATM   28  C10 UNL     1      23.439 -79.068  10.216  1.00  0.00     0.085 C 
HETATM   29  N1  UNL     1      22.643 -80.063  10.199  1.00  0.00    -0.322 N 
ATOM     30  H1  UNL     1      21.763 -80.013  10.713  1.00  0.00     0.185 HD
BRANCH  29  31
HETATM   31  N2  UNL     1      22.956 -81.212   9.494  1.00  0.00    -0.346 N 
ATOM     32  H22 UNL     1      22.487 -81.379   8.604  1.00  0.00     0.176 HD
ATOM     33  H21 UNL     1      23.640 -81.878   9.854  1.00  0.00     0.176 HD
ENDBRANCH  29  31
ENDBRANCH   2  28
TORSDOF 15
ENDMDL
MODEL 2
REMARK VINA RESULT: -7.081828493      1.828      3.474
REMARK  15 active torsions:
REMARK  status: ('A' for Active; 'I' for Inactive)
REMARK    1  A    between atoms: C2_2  and  C3_3 
REMARK    2  A    between atoms: C3_3  and  O1_4 
REMARK    3  A    between atoms: O1_4  and  C4_5 
REMARK    4  A    between atoms: C4_5  and  C5_7 
REMARK    5  A    between atoms: C5_7  and  O3_8 
REMARK    6  A    between atoms: C5_7  and  C6_10 
REMARK    7  A    between atoms: C7_11  and  C8_12 
REMARK    8  A    between atoms: C9_13  and  C10_14 
REMARK    9  A    between atoms: N1_15  and  N2_17 
REMARK   10  A    between atoms: C11_20  and  C13_22 
REMARK   11  A    between atoms: C13_22  and  O4_23 
REMARK   12  A    between atoms: C13_22  and  C14_25 
REMARK   13  A    between atoms: C14_25  and  N3_26 
REMARK   14  A    between atoms: C14_25  and  C15_30 
REMARK   15  A    between atoms: C15_30  and  C16_31 
ROOT
HETATM    1  C8  UNL     1      23.609 -76.783  11.215  1.00  0.00     0.029 A 
HETATM    2  C9  UNL     1      22.807 -77.981  11.229  1.00  0.00     0.045 A 
HETATM    3  C11 UNL     1      23.780 -77.657  12.399  1.00  0.00     0.000 A 
HETATM    4  C12 UNL     1      24.901 -78.668  12.518  1.00  0.00     0.019 C 
ENDROOT
BRANCH   3   5
HETATM    5  C13 UNL     1      23.105 -77.379  13.694  1.00  0.00     0.158 C 
BRANCH   5   6
HETATM    6  O4  UNL     1      22.229 -76.268  13.555  1.00  0.00    -0.393 OA
ATOM      7  H4  UNL     1      22.698 -75.462  13.736  1.00  0.00     0.210 HD
ENDBRANCH   5   6
BRANCH   5   8
HETATM    8  C14 UNL     1      23.916 -77.240  14.917  1.00  0.00     0.213 C 
BRANCH   8   9
HETATM    9  N3  UNL     1      23.532 -78.139  15.987  1.00  0.00    -0.073 N 
ATOM     10  H33 UNL     1      22.580 -78.478  15.846  1.00  0.00     0.274 HD
ATOM     11  H32 UNL     1      24.041 -79.020  15.914  1.00  0.00     0.274 HD
ATOM     12  H31 UNL     1      23.636 -77.743  16.921  1.00  0.00     0.274 HD
ENDBRANCH   8   9
BRANCH   8  13
HETATM   13  C15 UNL     1      24.095 -75.867  15.464  1.00  0.00     0.039 C 
BRANCH  13  14
HETATM   14  C16 UNL     1      25.208 -75.067  14.835  1.00  0.00    -0.021 C 
HETATM   15  C17 UNL     1      24.649 -74.026  13.890  1.00  0.00     0.009 C 
HETATM   16  C18 UNL     1      26.360 -75.833  14.314  1.00  0.00     0.009 C 
ENDBRANCH  13  14
ENDBRANCH   8  13
ENDBRANCH   5   8
ENDBRANCH   3   5
BRANCH   1  17
HETATM   17  C7  UNL     1      24.715 -76.400  10.379  1.00  0.00    -0.021 C 
HETATM   18  C6  UNL     1      25.960 -76.117  10.569  1.00  0.00     0.011 C 
BRANCH  18  19
HETATM   19  C5  UNL     1      26.911 -75.737   9.449  1.00  0.00     0.240 C 
BRANCH  19  20
HETATM   20  C4  UNL     1      27.488 -76.988   8.873  1.00  0.00     0.291 C 
HETATM   21  O2  UNL     1      28.418 -76.944   8.034  1.00  0.00    -0.262 OA
BRANCH  20  22
HETATM   22  O1  UNL     1      26.998 -78.222   9.261  1.00  0.00    -0.316 OA
BRANCH  22  23
HETATM   23  C3  UNL     1      27.183 -79.387   8.507  1.00  0.00     0.205 C 
BRANCH  23  24
HETATM   24  C2  UNL     1      26.209 -80.429   8.928  1.00  0.00    -0.011 C 
HETATM   25  C1  UNL     1      26.352 -81.093  10.055  1.00  0.00     0.009 C 
ENDBRANCH  23  24
ENDBRANCH  22  23
ENDBRANCH  20  22
ENDBRANCH  19  20
BRANCH  19  26
HETATM   26  O3  UNL     1      27.898 -74.889   9.920  1.00  0.00    -0.382 OA
ATOM     27  H3  UNL     1      27.562 -74.292  10.578  1.00  0.00     0.211 HD
ENDBRANCH  19  26
ENDBRANCH  18  19
ENDBRANCH   1  17
BRANCH   2  28
HETATM   28  C10 UNL     1      23.102 -79.188  10.411  1.00  0.00     0.085 C 
HETATM   29  N1  UNL     1      22.318 -80.192  10.428  1.00  0.00    -0.322 N 
ATOM     30  H1  UNL     1      21.480 -80.167  11.009  1.00  0.00     0.185 HD
BRANCH  29  31
HETATM   31  N2  UNL     1      22.587 -81.318   9.670  1.00  0.00    -0.346 N 
ATOM     32  H22 UNL     1      23.009 -81.195   8.750  1.00  0.00     0.176 HD
ATOM     33  H21 UNL     1      22.370 -82.251  10.021  1.00  0.00     0.176 HD
ENDBRANCH  29  31
ENDBRANCH   2  28
TORSDOF 15
ENDMDL
MODEL 3
REMARK VINA RESULT: -6.958546961      3.026      6.833
REMARK  15 active torsions:
REMARK  status: ('A' for Active; 'I' for Inactive)
REMARK    1  A    between atoms: C2_2  and  C3_3 
REMARK    2  A    between atoms: C3_3  and  O1_4 
REMARK    3  A    between atoms: O1_4  and  C4_5 
REMARK    4  A    between atoms: C4_5  and  C5_7 
REMARK    5  A    between atoms: C5_7  and  O3_8 
REMARK    6  A    between atoms: C5_7  and  C6_10 
REMARK    7  A    between atoms: C7_11  and  C8_12 
REMARK    8  A    between atoms: C9_13  and  C10_14 
REMARK    9  A    between atoms: N1_15  and  N2_17 
REMARK   10  A    between atoms: C11_20  and  C13_22 
REMARK   11  A    between atoms: C13_22  and  O4_23 
REMARK   12  A    between atoms: C13_22  and  C14_25 
REMARK   13  A    between atoms: C14_25  and  N3_26 
REMARK   14  A    between atoms: C14_25  and  C15_30 
REMARK   15  A    between atoms: C15_30  and  C16_31 
ROOT
HETATM    1  C8  UNL     1      27.179 -76.603   9.613  1.00  0.00     0.029 A 
HETATM    2  C9  UNL     1      27.945 -77.037   8.471  1.00  0.00     0.045 A 
HETATM    3  C11 UNL     1      27.162 -75.692   8.445  1.00  0.00     0.000 A 
HETATM    4  C12 UNL     1      26.046 -75.689   7.421  1.00  0.00     0.019 C 
ENDROOT
BRANCH   3   5
HETATM    5  C13 UNL     1      28.027 -74.485   8.370  1.00  0.00     0.158 C 
BRANCH   5   6
HETATM    6  O4  UNL     1      28.472 -74.126   9.671  1.00  0.00    -0.393 OA
ATOM      7  H4  UNL     1      29.114 -74.754   9.979  1.00  0.00     0.210 HD
ENDBRANCH   5   6
BRANCH   5   8
HETATM    8  C14 UNL     1      27.544 -73.293   7.647  1.00  0.00     0.213 C 
BRANCH   8   9
HETATM    9  N3  UNL     1      28.578 -72.584   6.919  1.00  0.00    -0.073 N 
ATOM     10  H33 UNL     1      28.788 -71.694   7.371  1.00  0.00     0.274 HD
ATOM     11  H32 UNL     1      29.478 -73.051   7.030  1.00  0.00     0.274 HD
ATOM     12  H31 UNL     1      28.367 -72.442   5.931  1.00  0.00     0.274 HD
ENDBRANCH   8   9
BRANCH   8  13
HETATM   13  C15 UNL     1      26.721 -72.319   8.414  1.00  0.00     0.039 C 
BRANCH  13  14
HETATM   14  C16 UNL     1      26.379 -71.049   7.676  1.00  0.00    -0.021 C 
HETATM   15  C17 UNL     1      26.715 -69.836   8.516  1.00  0.00     0.009 C 
HETATM   16  C18 UNL     1      25.060 -71.006   7.010  1.00  0.00     0.009 C 
ENDBRANCH  13  14
ENDBRANCH   8  13
ENDBRANCH   5   8
ENDBRANCH   3   5
BRANCH   1  17
HETATM   17  C7  UNL     1      25.971 -77.129  10.191  1.00  0.00    -0.021 C 
HETATM   18  C6  UNL     1      25.412 -77.089  11.354  1.00  0.00     0.011 C 
BRANCH  18  19
HETATM   19  C5  UNL     1      24.089 -77.764  11.669  1.00  0.00     0.240 C 
BRANCH  19  20
HETATM   20  C4  UNL     1      23.622 -77.290  13.006  1.00  0.00     0.291 C 
HETATM   21  O2  UNL     1      23.878 -77.937  14.046  1.00  0.00    -0.262 OA
BRANCH  20  22
HETATM   22  O1  UNL     1      22.893 -76.119  13.111  1.00  0.00    -0.316 OA
BRANCH  22  23
HETATM   23  C3  UNL     1      23.134 -75.157  14.100  1.00  0.00     0.205 C 
BRANCH  23  24
HETATM   24  C2  UNL     1      24.433 -74.479  13.847  1.00  0.00    -0.011 C 
HETATM   25  C1  UNL     1      25.390 -74.460  14.750  1.00  0.00     0.009 C 
ENDBRANCH  23  24
ENDBRANCH  22  23
ENDBRANCH  20  22
ENDBRANCH  19  20
BRANCH  19  26
HETATM   26  O3  UNL     1      24.229 -79.141  11.636  1.00  0.00    -0.382 OA
ATOM     27  H3  UNL     1      25.069 -79.416  11.985  1.00  0.00     0.211 HD
ENDBRANCH  19  26
ENDBRANCH  18  19
ENDBRANCH   1  17
BRANCH   2  28
HETATM   28  C10 UNL     1      27.503 -78.100   7.529  1.00  0.00     0.085 C 
HETATM   29  N1  UNL     1      28.002 -79.271   7.590  1.00  0.00    -0.322 N 
ATOM     30  H1  UNL     1      28.712 -79.480   8.293  1.00  0.00     0.185 HD
BRANCH  29  31
HETATM   31  N2  UNL     1      27.596 -80.264   6.717  1.00  0.00    -0.346 N 
ATOM     32  H22 UNL     1      27.612 -80.068   5.716  1.00  0.00     0.176 HD
ATOM     33  H21 UNL     1      27.287 -81.173   7.063  1.00  0.00     0.176 HD
ENDBRANCH  29  31
ENDBRANCH   2  28
TORSDOF 15
ENDMDL
MODEL 4
REMARK VINA RESULT: -6.926459922      1.137      1.774
REMARK  15 active torsions:
REMARK  status: ('A' for Active; 'I' for Inactive)
REMARK    1  A    between atoms: C2_2  and  C3_3 
REMARK    2  A    between atoms: C3_3  and  O1_4 
REMARK    3  A    between atoms: O1_4  and  C4_5 
REMARK    4  A    between atoms: C4_5  and  C5_7 
REMARK    5  A    between atoms: C5_7  and  O3_8 
REMARK    6  A    between atoms: C5_7  and  C6_10 
REMARK    7  A    between atoms: C7_11  and  C8_12 
REMARK    8  A    between atoms: C9_13  and  C10_14 
REMARK    9  A    between atoms: N1_15  and  N2_17 
REMARK   10  A    between atoms: C11_20  and  C13_22 
REMARK   11  A    between atoms: C13_22  and  O4_23 
REMARK   12  A    between atoms: C13_22  and  C14_25 
REMARK   13  A    between atoms: C14_25  and  N3_26 
REMARK   14  A    between atoms: C14_25  and  C15_30 
REMARK   15  A    between atoms: C15_30  and  C16_31 
ROOT
HETATM    1  C8  UNL     1      23.979 -76.738  11.107  1.00  0.00     0.029 A 
HETATM    2  C9  UNL     1      23.102 -77.876  10.984  1.00  0.00     0.045 A 
HETATM    3  C11 UNL     1      23.867 -77.596  12.310  1.00  0.00     0.000 A 
HETATM    4  C12 UNL     1      24.870 -78.681  12.641  1.00  0.00     0.019 C 
ENDROOT
BRANCH   3   5
HETATM    5  C13 UNL     1      22.988 -77.243  13.456  1.00  0.00     0.158 C 
BRANCH   5   6
HETATM    6  O4  UNL     1      22.202 -76.104  13.131  1.00  0.00    -0.393 OA
ATOM      7  H4  UNL     1      22.716 -75.313  13.244  1.00  0.00     0.210 HD
ENDBRANCH   5   6
BRANCH   5   8
HETATM    8  C14 UNL     1      23.579 -77.089  14.799  1.00  0.00     0.213 C 
BRANCH   8   9
HETATM    9  N3  UNL     1      22.953 -77.909  15.817  1.00  0.00    -0.073 N 
ATOM     10  H33 UNL     1      21.956 -78.016  15.628  1.00  0.00     0.274 HD
ATOM     11  H32 UNL     1      23.251 -78.880  15.728  1.00  0.00     0.274 HD
ATOM     12  H31 UNL     1      23.102 -77.575  16.769  1.00  0.00     0.274 HD
ENDBRANCH   8   9
BRANCH   8  13
HETATM   13  C15 UNL     1      23.750 -75.704  15.314  1.00  0.00     0.039 C 
BRANCH  13  14
HETATM   14  C16 UNL     1      25.015 -75.009  14.876  1.00  0.00    -0.021 C 
HETATM   15  C17 UNL     1      24.712 -73.952  13.836  1.00  0.00     0.009 C 
HETATM   16  C18 UNL     1      26.173 -75.875  14.571  1.00  0.00     0.009 C 
ENDBRANCH  13  14
ENDBRANCH   8  13
ENDBRANCH   5   8
ENDBRANCH   3   5
BRANCH   1  17
HETATM   17  C7  UNL     1      25.244 -76.452  10.486  1.00  0.00    -0.021 C 
HETATM   18  C6  UNL     1      26.166 -75.562  10.638  1.00  0.00     0.011 C 
BRANCH  18  19
HETATM   19  C5  UNL     1      27.432 -75.519   9.802  1.00  0.00     0.240 C 
BRANCH  19  20
HETATM   20  C4  UNL     1      27.371 -74.321   8.911  1.00  0.00     0.291 C 
HETATM   21  O2  UNL     1      28.231 -73.414   8.990  1.00  0.00    -0.262 OA
BRANCH  20  22
HETATM   22  O1  UNL     1      26.355 -74.198   7.982  1.00  0.00    -0.316 OA
BRANCH  22  23
HETATM   23  C3  UNL     1      26.550 -74.391   6.609  1.00  0.00     0.205 C 
BRANCH  23  24
HETATM   24  C2  UNL     1      25.913 -75.663   6.176  1.00  0.00    -0.011 C 
HETATM   25  C1  UNL     1      24.849 -76.144   6.782  1.00  0.00     0.009 C 
ENDBRANCH  23  24
ENDBRANCH  22  23
ENDBRANCH  20  22
ENDBRANCH  19  20
BRANCH  19  26
HETATM   26  O3  UNL     1      27.573 -76.689   9.075  1.00  0.00    -0.382 OA
ATOM     27  H3  UNL     1      28.465 -77.015   9.106  1.00  0.00     0.211 HD
ENDBRANCH  19  26
ENDBRANCH  18  19
ENDBRANCH   1  17
BRANCH   2  28
HETATM   28  C10 UNL     1      23.453 -79.119  10.244  1.00  0.00     0.085 C 
HETATM   29  N1  UNL     1      22.622 -80.081  10.161  1.00  0.00    -0.322 N 
ATOM     30  H1  UNL     1      21.708 -79.998  10.606  1.00  0.00     0.185 HD
BRANCH  29  31
HETATM   31  N2  UNL     1      22.943 -81.240   9.475  1.00  0.00    -0.346 N 
ATOM     32  H22 UNL     1      22.609 -81.347   8.518  1.00  0.00     0.176 HD
ATOM     33  H21 UNL     1      23.501 -81.972   9.915  1.00  0.00     0.176 HD
ENDBRANCH  29  31
ENDBRANCH   2  28
TORSDOF 15
ENDMDL
MODEL 5
REMARK VINA RESULT: -6.791716529      3.368      7.437
REMARK  15 active torsions:
REMARK  status: ('A' for Active; 'I' for Inactive)
REMARK    1  A    between atoms: C2_2  and  C3_3 
REMARK    2  A    between atoms: C3_3  and  O1_4 
REMARK    3  A    between atoms: O1_4  and  C4_5 
REMARK    4  A    between atoms: C4_5  and  C5_7 
REMARK    5  A    between atoms: C5_7  and  O3_8 
REMARK    6  A    between atoms: C5_7  and  C6_10 
REMARK    7  A    between atoms: C7_11  and  C8_12 
REMARK    8  A    between atoms: C9_13  and  C10_14 
REMARK    9  A    between atoms: N1_15  and  N2_17 
REMARK   10  A    between atoms: C11_20  and  C13_22 
REMARK   11  A    between atoms: C13_22  and  O4_23 
REMARK   12  A    between atoms: C13_22  and  C14_25 
REMARK   13  A    between atoms: C14_25  and  N3_26 
REMARK   14  A    between atoms: C14_25  and  C15_30 
REMARK   15  A    between atoms: C15_30  and  C16_31 
ROOT
HETATM    1  C8  UNL     1      27.541 -74.851   9.508  1.00  0.00     0.029 A 
HETATM    2  C9  UNL     1      28.274 -75.543   8.477  1.00  0.00     0.045 A 
HETATM    3  C11 UNL     1      27.334 -74.354   8.127  1.00  0.00     0.000 A 
HETATM    4  C12 UNL     1      26.159 -74.775   7.270  1.00  0.00     0.019 C 
ENDROOT
BRANCH   3   5
HETATM    5  C13 UNL     1      28.039 -73.154   7.604  1.00  0.00     0.158 C 
BRANCH   5   6
HETATM    6  O4  UNL     1      28.190 -72.191   8.638  1.00  0.00    -0.393 OA
ATOM      7  H4  UNL     1      29.112 -72.018   8.788  1.00  0.00     0.210 HD
ENDBRANCH   5   6
BRANCH   5   8
HETATM    8  C14 UNL     1      27.548 -72.507   6.372  1.00  0.00     0.213 C 
BRANCH   8   9
HETATM    9  N3  UNL     1      28.536 -72.421   5.316  1.00  0.00    -0.073 N 
ATOM     10  H33 UNL     1      28.336 -71.632   4.701  1.00  0.00     0.274 HD
ATOM     11  H32 UNL     1      29.437 -72.123   5.691  1.00  0.00     0.274 HD
ATOM     12  H31 UNL     1      28.641 -73.279   4.774  1.00  0.00     0.274 HD
ENDBRANCH   8   9
BRANCH   8  13
HETATM   13  C15 UNL     1      26.864 -71.194   6.518  1.00  0.00     0.039 C 
BRANCH  13  14
HETATM   14  C16 UNL     1      25.389 -71.271   6.824  1.00  0.00    -0.021 C 
HETATM   15  C17 UNL     1      24.619 -71.768   5.620  1.00  0.00     0.009 C 
HETATM   16  C18 UNL     1      24.794 -70.105   7.512  1.00  0.00     0.009 C 
ENDBRANCH  13  14
ENDBRANCH   8  13
ENDBRANCH   5   8
ENDBRANCH   3   5
BRANCH   1  17
HETATM   17  C7  UNL     1      26.448 -75.283  10.338  1.00  0.00    -0.021 C 
HETATM   18  C6  UNL     1      26.141 -76.367  10.967  1.00  0.00     0.011 C 
BRANCH  18  19
HETATM   19  C5  UNL     1      24.875 -76.526  11.790  1.00  0.00     0.240 C 
BRANCH  19  20
HETATM   20  C4  UNL     1      25.101 -77.599  12.804  1.00  0.00     0.291 C 
HETATM   21  O2  UNL     1      25.133 -78.806  12.471  1.00  0.00    -0.262 OA
BRANCH  20  22
HETATM   22  O1  UNL     1      25.279 -77.270  14.135  1.00  0.00    -0.316 OA
BRANCH  22  23
HETATM   23  C3  UNL     1      24.411 -76.419  14.832  1.00  0.00     0.205 C 
BRANCH  23  24
HETATM   24  C2  UNL     1      25.156 -75.242  15.351  1.00  0.00    -0.011 C 
HETATM   25  C1  UNL     1      25.422 -74.203  14.589  1.00  0.00     0.009 C 
ENDBRANCH  23  24
ENDBRANCH  22  23
ENDBRANCH  20  22
ENDBRANCH  19  20
BRANCH  19  26
HETATM   26  O3  UNL     1      23.798 -76.816  10.970  1.00  0.00    -0.382 OA
ATOM     27  H3  UNL     1      23.090 -76.193  11.089  1.00  0.00     0.211 HD
ENDBRANCH  19  26
ENDBRANCH  18  19
ENDBRANCH   1  17
BRANCH   2  28
HETATM   28  C10 UNL     1      27.902 -76.883   7.950  1.00  0.00     0.085 C 
HETATM   29  N1  UNL     1      28.799 -77.746   7.677  1.00  0.00    -0.322 N 
ATOM     30  H1  UNL     1      29.782 -77.514   7.823  1.00  0.00     0.185 HD
BRANCH  29  31
HETATM   31  N2  UNL     1      28.460 -78.994   7.186  1.00  0.00    -0.346 N 
ATOM     32  H22 UNL     1      29.157 -79.737   7.220  1.00  0.00     0.176 HD
ATOM     33  H21 UNL     1      27.532 -79.170   6.798  1.00  0.00     0.176 HD
ENDBRANCH  29  31
ENDBRANCH   2  28
TORSDOF 15
ENDMDL
