MODEL 1
REMARK VINA RESULT: -8.002826751      0.000      0.000
REMARK  3 active torsions:
REMARK  status: ('A' for Active; 'I' for Inactive)
REMARK    1  A    between atoms: C4_5  and  N1_6 
REMARK    2  A    between atoms: C7_11  and  S1_12 
REMARK    3  A    between atoms: S1_12  and  C8_13 
ROOT
HETATM    1  C1  UNL     1      22.386   8.447  39.128  1.00  0.00     0.051 C 
HETATM    2  C2  UNL     1      21.252   9.111  39.841  1.00  0.00    -0.020 A 
HETATM    3  C3  UNL     1      20.301   9.840  39.127  1.00  0.00     0.077 A 
HETATM    4 CL1  UNL     1      20.464   9.942  37.399  1.00  0.00    -0.081 Cl
HETATM    5  C4  UNL     1      19.252  10.468  39.759  1.00  0.00     0.159 A 
HETATM    6  C5  UNL     1      19.156  10.364  41.136  1.00  0.00     0.112 A 
HETATM    7  C6  UNL     1      20.075   9.654  41.865  1.00  0.00    -0.002 A 
HETATM    8  C7  UNL     1      21.113   9.036  41.209  1.00  0.00     0.018 A 
HETATM    9  C12 UNL     1      19.660   9.757  43.286  1.00  0.00     0.080 C 
HETATM   10  C13 UNL     1      18.895  11.081  43.249  1.00  0.00     0.065 C 
HETATM   11  C14 UNL     1      17.991  11.256  44.420  1.00  0.00     0.046 C 
HETATM   12  C15 UNL     1      19.920  12.171  43.151  1.00  0.00     0.046 C 
HETATM   13  O5  UNL     1      18.188  10.908  42.010  1.00  0.00    -0.337 OA
ENDROOT
BRANCH   8  14
HETATM   14  S1  UNL     1      22.308   8.094  42.192  1.00  0.00    -0.121 SA
BRANCH  14  15
HETATM   15  C8  UNL     1      23.598   9.203  42.723  1.00  0.00     0.086 C 
HETATM   16  C9  UNL     1      23.270  10.064  43.899  1.00  0.00     0.194 C 
HETATM   17  O3  UNL     1      24.567  10.568  44.247  1.00  0.00    -0.320 OA
HETATM   18  C10 UNL     1      25.473   9.532  44.067  1.00  0.00     0.260 C 
HETATM   19  O4  UNL     1      26.610   9.486  44.587  1.00  0.00    -0.265 OA
HETATM   20  C11 UNL     1      24.860   8.501  43.159  1.00  0.00     0.128 C 
ENDBRANCH  14  15
ENDBRANCH   8  14
BRANCH   5  21
HETATM   21  N1  UNL     1      18.277  11.214  39.011  1.00  0.00    -0.111 N 
HETATM   22  O1  UNL     1      18.064  12.397  39.318  1.00  0.00    -0.532 OA
HETATM   23  O2  UNL     1      17.573  10.673  37.972  1.00  0.00    -0.532 OA
ENDBRANCH   5  21
TORSDOF 3
ENDMDL
MODEL 2
REMARK VINA RESULT: -7.315537885      3.162      6.205
REMARK  3 active torsions:
REMARK  status: ('A' for Active; 'I' for Inactive)
REMARK    1  A    between atoms: C4_5  and  N1_6 
REMARK    2  A    between atoms: C7_11  and  S1_12 
REMARK    3  A    between atoms: S1_12  and  C8_13 
ROOT
HETATM    1  C1  UNL     1      22.240   8.595  42.112  1.00  0.00     0.051 C 
HETATM    2  C2  UNL     1      21.659   9.688  42.950  1.00  0.00    -0.020 A 
HETATM    3  C3  UNL     1      22.436  10.324  43.917  1.00  0.00     0.077 A 
HETATM    4 CL1  UNL     1      24.090   9.822  44.110  1.00  0.00    -0.081 Cl
HETATM    5  C4  UNL     1      21.923  11.327  44.707  1.00  0.00     0.159 A 
HETATM    6  C5  UNL     1      20.603  11.700  44.524  1.00  0.00     0.112 A 
HETATM    7  C6  UNL     1      19.813  11.092  43.582  1.00  0.00    -0.002 A 
HETATM    8  C7  UNL     1      20.350  10.093  42.805  1.00  0.00     0.018 A 
HETATM    9  C12 UNL     1      18.480  11.739  43.666  1.00  0.00     0.080 C 
HETATM   10  C13 UNL     1      18.497  12.205  45.122  1.00  0.00     0.065 C 
HETATM   11  C14 UNL     1      17.483  13.260  45.399  1.00  0.00     0.046 C 
HETATM   12  C15 UNL     1      18.298  10.985  45.970  1.00  0.00     0.046 C 
HETATM   13  O5  UNL     1      19.849  12.687  45.198  1.00  0.00    -0.337 OA
ENDROOT
BRANCH   8  14
HETATM   14  S1  UNL     1      19.292   9.315  41.558  1.00  0.00    -0.121 SA
BRANCH  14  15
HETATM   15  C8  UNL     1      19.233  10.377  40.129  1.00  0.00     0.086 C 
HETATM   16  C9  UNL     1      18.636   9.777  38.897  1.00  0.00     0.194 C 
HETATM   17  O3  UNL     1      18.453  10.941  38.080  1.00  0.00    -0.320 OA
HETATM   18  C10 UNL     1      18.042  11.970  38.915  1.00  0.00     0.260 C 
HETATM   19  O4  UNL     1      17.462  13.010  38.528  1.00  0.00    -0.265 OA
HETATM   20  C11 UNL     1      18.407  11.623  40.333  1.00  0.00     0.128 C 
ENDBRANCH  14  15
ENDBRANCH   8  14
BRANCH   5  21
HETATM   21  N1  UNL     1      22.737  11.977  45.699  1.00  0.00    -0.111 N 
HETATM   22  O1  UNL     1      23.139  13.130  45.481  1.00  0.00    -0.532 OA
HETATM   23  O2  UNL     1      23.086  11.376  46.875  1.00  0.00    -0.532 OA
ENDBRANCH   5  21
TORSDOF 3
ENDMDL
MODEL 3
REMARK VINA RESULT: -7.279896637      3.215      6.078
REMARK  3 active torsions:
REMARK  status: ('A' for Active; 'I' for Inactive)
REMARK    1  A    between atoms: C4_5  and  N1_6 
REMARK    2  A    between atoms: C7_11  and  S1_12 
REMARK    3  A    between atoms: S1_12  and  C8_13 
ROOT
HETATM    1  C1  UNL     1      22.480   8.611  42.466  1.00  0.00     0.051 C 
HETATM    2  C2  UNL     1      21.816   9.744  43.181  1.00  0.00    -0.020 A 
HETATM    3  C3  UNL     1      22.508  10.467  44.152  1.00  0.00     0.077 A 
HETATM    4 CL1  UNL     1      24.154  10.024  44.496  1.00  0.00    -0.081 Cl
HETATM    5  C4  UNL     1      21.918  11.508  44.831  1.00  0.00     0.159 A 
HETATM    6  C5  UNL     1      20.606  11.831  44.530  1.00  0.00     0.112 A 
HETATM    7  C6  UNL     1      19.900  11.139  43.581  1.00  0.00    -0.002 A 
HETATM    8  C7  UNL     1      20.513  10.103  42.917  1.00  0.00     0.018 A 
HETATM    9  C12 UNL     1      18.550  11.753  43.525  1.00  0.00     0.080 C 
HETATM   10  C13 UNL     1      18.452  12.320  44.942  1.00  0.00     0.065 C 
HETATM   11  C14 UNL     1      17.398  13.364  45.072  1.00  0.00     0.046 C 
HETATM   12  C15 UNL     1      18.221  11.157  45.858  1.00  0.00     0.046 C 
HETATM   13  O5  UNL     1      19.785  12.842  45.078  1.00  0.00    -0.337 OA
ENDROOT
BRANCH   8  14
HETATM   14  S1  UNL     1      19.564   9.211  41.657  1.00  0.00    -0.121 SA
BRANCH  14  15
HETATM   15  C8  UNL     1      19.807  10.024  40.090  1.00  0.00     0.086 C 
HETATM   16  C9  UNL     1      20.604   9.263  39.081  1.00  0.00     0.194 C 
HETATM   17  O3  UNL     1      20.342  10.019  37.891  1.00  0.00    -0.320 OA
HETATM   18  C10 UNL     1      19.011  10.408  37.934  1.00  0.00     0.260 C 
HETATM   19  O4  UNL     1      18.344  10.769  36.939  1.00  0.00    -0.265 OA
HETATM   20  C11 UNL     1      18.523  10.320  39.355  1.00  0.00     0.128 C 
ENDBRANCH  14  15
ENDBRANCH   8  14
BRANCH   5  21
HETATM   21  N1  UNL     1      22.644  12.247  45.828  1.00  0.00    -0.111 N 
HETATM   22  O1  UNL     1      23.074  13.375  45.542  1.00  0.00    -0.532 OA
HETATM   23  O2  UNL     1      22.880  11.757  47.082  1.00  0.00    -0.532 OA
ENDBRANCH   5  21
TORSDOF 3
ENDMDL
MODEL 4
REMARK VINA RESULT: -7.226092969      1.122      1.562
REMARK  3 active torsions:
REMARK  status: ('A' for Active; 'I' for Inactive)
REMARK    1  A    between atoms: C4_5  and  N1_6 
REMARK    2  A    between atoms: C7_11  and  S1_12 
REMARK    3  A    between atoms: S1_12  and  C8_13 
ROOT
HETATM    1  C1  UNL     1      21.278   8.433  38.352  1.00  0.00     0.051 C 
HETATM    2  C2  UNL     1      20.452   9.164  39.362  1.00  0.00    -0.020 A 
HETATM    3  C3  UNL     1      19.649  10.236  38.974  1.00  0.00     0.077 A 
HETATM    4 CL1  UNL     1      19.626  10.686  37.295  1.00  0.00    -0.081 Cl
HETATM    5  C4  UNL     1      18.886  10.930  39.885  1.00  0.00     0.159 A 
HETATM    6  C5  UNL     1      18.930  10.542  41.213  1.00  0.00     0.112 A 
HETATM    7  C6  UNL     1      19.710   9.492  41.625  1.00  0.00    -0.002 A 
HETATM    8  C7  UNL     1      20.463   8.815  40.695  1.00  0.00     0.018 A 
HETATM    9  C12 UNL     1      19.509   9.364  43.089  1.00  0.00     0.080 C 
HETATM   10  C13 UNL     1      19.122  10.803  43.436  1.00  0.00     0.065 C 
HETATM   11  C14 UNL     1      18.442  10.913  44.757  1.00  0.00     0.046 C 
HETATM   12  C15 UNL     1      20.378  11.617  43.371  1.00  0.00     0.046 C 
HETATM   13  O5  UNL     1      18.252  11.084  42.327  1.00  0.00    -0.337 OA
ENDROOT
BRANCH   8  14
HETATM   14  S1  UNL     1      21.475   7.424  41.260  1.00  0.00    -0.121 SA
BRANCH  14  15
HETATM   15  C8  UNL     1      23.071   8.050  41.744  1.00  0.00     0.086 C 
HETATM   16  C9  UNL     1      23.708   9.010  40.793  1.00  0.00     0.194 C 
HETATM   17  O3  UNL     1      24.769   9.540  41.600  1.00  0.00    -0.320 OA
HETATM   18  C10 UNL     1      24.274   9.685  42.888  1.00  0.00     0.260 C 
HETATM   19  O4  UNL     1      24.779  10.424  43.763  1.00  0.00    -0.265 OA
HETATM   20  C11 UNL     1      23.053   8.819  43.042  1.00  0.00     0.128 C 
ENDBRANCH  14  15
ENDBRANCH   8  14
BRANCH   5  21
HETATM   21  N1  UNL     1      18.060  12.032  39.471  1.00  0.00    -0.111 N 
HETATM   22  O1  UNL     1      17.351  11.901  38.461  1.00  0.00    -0.532 OA
HETATM   23  O2  UNL     1      18.025  13.220  40.144  1.00  0.00    -0.532 OA
ENDBRANCH   5  21
TORSDOF 3
ENDMDL
MODEL 5
REMARK VINA RESULT: -7.173276181      3.257      6.017
REMARK  3 active torsions:
REMARK  status: ('A' for Active; 'I' for Inactive)
REMARK    1  A    between atoms: C4_5  and  N1_6 
REMARK    2  A    between atoms: C7_11  and  S1_12 
REMARK    3  A    between atoms: S1_12  and  C8_13 
ROOT
HETATM    1  C1  UNL     1      22.798  11.088  44.824  1.00  0.00     0.051 C 
HETATM    2  C2  UNL     1      22.428  10.231  43.656  1.00  0.00    -0.020 A 
HETATM    3  C3  UNL     1      23.418   9.702  42.828  1.00  0.00     0.077 A 
HETATM    4 CL1  UNL     1      25.080  10.055  43.197  1.00  0.00    -0.081 Cl
HETATM    5  C4  UNL     1      23.104   8.918  41.741  1.00  0.00     0.159 A 
HETATM    6  C5  UNL     1      21.770   8.659  41.479  1.00  0.00     0.112 A 
HETATM    7  C6  UNL     1      20.774   9.165  42.275  1.00  0.00    -0.002 A 
HETATM    8  C7  UNL     1      21.114   9.945  43.354  1.00  0.00     0.018 A 
HETATM    9  C12 UNL     1      19.491   8.687  41.703  1.00  0.00     0.080 C 
HETATM   10  C13 UNL     1      19.902   8.493  40.243  1.00  0.00     0.065 C 
HETATM   11  C14 UNL     1      18.959   7.617  39.492  1.00  0.00     0.046 C 
HETATM   12  C15 UNL     1      20.015   9.860  39.639  1.00  0.00     0.046 C 
HETATM   13  O5  UNL     1      21.193   7.894  40.441  1.00  0.00    -0.337 OA
ENDROOT
BRANCH   8  14
HETATM   14  S1  UNL     1      19.783  10.591  44.399  1.00  0.00    -0.121 SA
BRANCH  14  15
HETATM   15  C8  UNL     1      19.324  12.202  43.792  1.00  0.00     0.086 C 
HETATM   16  C9  UNL     1      18.439  12.215  42.588  1.00  0.00     0.194 C 
HETATM   17  O3  UNL     1      18.019  13.586  42.566  1.00  0.00    -0.320 OA
HETATM   18  C10 UNL     1      17.817  13.977  43.882  1.00  0.00     0.260 C 
HETATM   19  O4  UNL     1      17.130  14.963  44.232  1.00  0.00    -0.265 OA
HETATM   20  C11 UNL     1      18.551  13.028  44.791  1.00  0.00     0.128 C 
ENDBRANCH  14  15
ENDBRANCH   8  14
BRANCH   5  21
HETATM   21  N1  UNL     1      24.135   8.377  40.897  1.00  0.00    -0.111 N 
HETATM   22  O1  UNL     1      25.032   7.693  41.413  1.00  0.00    -0.532 OA
HETATM   23  O2  UNL     1      24.167   8.586  39.547  1.00  0.00    -0.532 OA
ENDBRANCH   5  21
TORSDOF 3
ENDMDL
