MODEL 1
REMARK VINA RESULT: -7.800980511      0.000      0.000
REMARK  3 active torsions:
REMARK  status: ('A' for Active; 'I' for Inactive)
REMARK    1  A    between atoms: C5_8  and  C6_9 
REMARK    2  A    between atoms: C6_9  and  C7_11 
REMARK    3  A    between atoms: C7_11  and  C8_13 
ROOT
HETATM    1  C6  UNL     1      19.987   8.219  39.987  1.00  0.00     0.206 C 
HETATM    2  O4  UNL     1      19.520   7.157  39.532  1.00  0.00    -0.288 OA
ENDROOT
BRANCH   1   3
HETATM    3  C5  UNL     1      21.374   8.329  40.323  1.00  0.00     0.160 A 
HETATM    4  C2  UNL     1      22.328   8.639  39.406  1.00  0.00    -0.016 A 
HETATM    5  C1  UNL     1      21.947   8.879  37.997  1.00  0.00     0.051 C 
HETATM    6  C3  UNL     1      23.682   8.737  39.781  1.00  0.00     0.094 A 
HETATM    7  C4  UNL     1      23.981   8.504  41.101  1.00  0.00     0.313 A 
HETATM    8  O1  UNL     1      25.174   8.580  41.483  1.00  0.00    -0.258 OA
HETATM    9  O2  UNL     1      23.020   8.213  41.922  1.00  0.00    -0.148 OA
HETATM   10  O3  UNL     1      21.789   8.125  41.572  1.00  0.00    -0.184 OA
ENDBRANCH   1   3
BRANCH   1  11
HETATM   11  C7  UNL     1      19.110   9.400  40.190  1.00  0.00     0.183 C 
HETATM   12 CL1  UNL     1      19.126  10.420  38.760  1.00  0.00    -0.114 Cl
BRANCH  11  13
HETATM   13  C8  UNL     1      19.504  10.210  41.392  1.00  0.00     0.140 C 
HETATM   14  S1  UNL     1      19.123   9.369  42.950  1.00  0.00    -0.115 SA
HETATM   15  C9  UNL     1      19.009  10.852  44.027  1.00  0.00     0.000 C 
HETATM   16  C10 UNL     1      19.438  11.158  45.219  1.00  0.00     0.060 C 
HETATM   17  C12 UNL     1      18.238  11.864  43.340  1.00  0.00     0.098 C 
HETATM   18  S2  UNL     1      18.899  12.846  45.556  1.00  0.00    -0.139 SA
HETATM   19  C11 UNL     1      18.659  13.254  43.760  1.00  0.00     0.099 C 
HETATM   20  S3  UNL     1      18.505  11.706  41.578  1.00  0.00    -0.140 SA
ENDBRANCH  11  13
ENDBRANCH   1  11
TORSDOF 3
ENDMDL
MODEL 2
REMARK VINA RESULT: -7.412840638      3.487      5.271
REMARK  3 active torsions:
REMARK  status: ('A' for Active; 'I' for Inactive)
REMARK    1  A    between atoms: C5_8  and  C6_9 
REMARK    2  A    between atoms: C6_9  and  C7_11 
REMARK    3  A    between atoms: C7_11  and  C8_13 
ROOT
HETATM    1  C6  UNL     1      19.241   8.556  39.532  1.00  0.00     0.206 C 
HETATM    2  O4  UNL     1      18.483   7.581  39.691  1.00  0.00    -0.288 OA
ENDROOT
BRANCH   1   3
HETATM    3  C5  UNL     1      18.768   9.895  39.715  1.00  0.00     0.160 A 
HETATM    4  C2  UNL     1      18.413  10.695  38.675  1.00  0.00    -0.016 A 
HETATM    5  C1  UNL     1      18.507  10.190  37.289  1.00  0.00     0.051 C 
HETATM    6  C3  UNL     1      17.953  12.007  38.902  1.00  0.00     0.094 A 
HETATM    7  C4  UNL     1      17.886  12.427  40.208  1.00  0.00     0.313 A 
HETATM    8  O1  UNL     1      17.481  13.589  40.459  1.00  0.00    -0.258 OA
HETATM    9  O2  UNL     1      18.241  11.610  41.151  1.00  0.00    -0.148 OA
HETATM   10  O3  UNL     1      18.659  10.416  40.936  1.00  0.00    -0.184 OA
ENDBRANCH   1   3
BRANCH   1  11
HETATM   11  C7  UNL     1      20.661   8.350  39.149  1.00  0.00     0.183 C 
HETATM   12 CL1  UNL     1      21.021   6.632  39.060  1.00  0.00    -0.114 Cl
BRANCH  11  13
HETATM   13  C8  UNL     1      21.616   9.017  40.096  1.00  0.00     0.140 C 
HETATM   14  S1  UNL     1      23.322   8.452  39.873  1.00  0.00    -0.115 SA
HETATM   15  C9  UNL     1      23.948   8.838  41.555  1.00  0.00     0.000 C 
HETATM   16  C10 UNL     1      25.033   9.382  42.031  1.00  0.00     0.060 C 
HETATM   17  C12 UNL     1      22.974   8.390  42.525  1.00  0.00     0.098 C 
HETATM   18  S2  UNL     1      24.870   9.400  43.827  1.00  0.00    -0.139 SA
HETATM   19  C11 UNL     1      23.021   9.232  43.780  1.00  0.00     0.099 C 
HETATM   20  S3  UNL     1      21.337   8.532  41.817  1.00  0.00    -0.140 SA
ENDBRANCH  11  13
ENDBRANCH   1  11
TORSDOF 3
ENDMDL
MODEL 3
REMARK VINA RESULT: -7.278016366      3.138      4.663
REMARK  3 active torsions:
REMARK  status: ('A' for Active; 'I' for Inactive)
REMARK    1  A    between atoms: C5_8  and  C6_9 
REMARK    2  A    between atoms: C6_9  and  C7_11 
REMARK    3  A    between atoms: C7_11  and  C8_13 
ROOT
HETATM    1  C6  UNL     1      19.070  10.260  42.351  1.00  0.00     0.206 C 
HETATM    2  O4  UNL     1      18.852   9.203  42.972  1.00  0.00    -0.288 OA
ENDROOT
BRANCH   1   3
HETATM    3  C5  UNL     1      18.890  10.332  40.932  1.00  0.00     0.160 A 
HETATM    4  C2  UNL     1      19.412   9.411  40.080  1.00  0.00    -0.016 A 
HETATM    5  C1  UNL     1      20.202   8.279  40.610  1.00  0.00     0.051 C 
HETATM    6  C3  UNL     1      19.211   9.522  38.690  1.00  0.00     0.094 A 
HETATM    7  C4  UNL     1      18.471  10.592  38.251  1.00  0.00     0.313 A 
HETATM    8  O1  UNL     1      18.264  10.733  37.021  1.00  0.00    -0.258 OA
HETATM    9  O2  UNL     1      18.002  11.433  39.121  1.00  0.00    -0.148 OA
HETATM   10  O3  UNL     1      18.191  11.326  40.385  1.00  0.00    -0.184 OA
ENDBRANCH   1   3
BRANCH   1  11
HETATM   11  C7  UNL     1      19.522  11.477  43.073  1.00  0.00     0.183 C 
HETATM   12 CL1  UNL     1      21.061  11.176  43.864  1.00  0.00    -0.114 Cl
BRANCH  11  13
HETATM   13  C8  UNL     1      18.519  11.951  44.085  1.00  0.00     0.140 C 
HETATM   14  S1  UNL     1      18.108  13.704  43.886  1.00  0.00    -0.115 SA
HETATM   15  C9  UNL     1      17.562  14.042  45.606  1.00  0.00     0.000 C 
HETATM   16  C10 UNL     1      16.568  14.690  46.144  1.00  0.00     0.060 C 
HETATM   17  C12 UNL     1      18.508  13.440  46.518  1.00  0.00     0.098 C 
HETATM   18  S2  UNL     1      16.750  14.544  47.933  1.00  0.00    -0.139 SA
HETATM   19  C11 UNL     1      17.843  13.047  47.818  1.00  0.00     0.099 C 
HETATM   20  S3  UNL     1      19.186  11.964  45.767  1.00  0.00    -0.140 SA
ENDBRANCH  11  13
ENDBRANCH   1  11
TORSDOF 3
ENDMDL
MODEL 4
REMARK VINA RESULT: -7.150555515      3.426      5.348
REMARK  3 active torsions:
REMARK  status: ('A' for Active; 'I' for Inactive)
REMARK    1  A    between atoms: C5_8  and  C6_9 
REMARK    2  A    between atoms: C6_9  and  C7_11 
REMARK    3  A    between atoms: C7_11  and  C8_13 
ROOT
HETATM    1  C6  UNL     1      19.966  11.615  44.128  1.00  0.00     0.206 C 
HETATM    2  O4  UNL     1      20.837  12.504  44.111  1.00  0.00    -0.288 OA
ENDROOT
BRANCH   1   3
HETATM    3  C5  UNL     1      19.638  10.881  42.943  1.00  0.00     0.160 A 
HETATM    4  C2  UNL     1      18.864  11.397  41.953  1.00  0.00    -0.016 A 
HETATM    5  C1  UNL     1      18.326  12.769  42.075  1.00  0.00     0.051 C 
HETATM    6  C3  UNL     1      18.566  10.639  40.803  1.00  0.00     0.094 A 
HETATM    7  C4  UNL     1      19.090   9.371  40.741  1.00  0.00     0.313 A 
HETATM    8  O1  UNL     1      18.852   8.658  39.735  1.00  0.00    -0.258 OA
HETATM    9  O2  UNL     1      19.821   8.942  41.723  1.00  0.00    -0.148 OA
HETATM   10  O3  UNL     1      20.088   9.639  42.766  1.00  0.00    -0.184 OA
ENDBRANCH   1   3
BRANCH   1  11
HETATM   11  C7  UNL     1      19.245  11.293  45.386  1.00  0.00     0.183 C 
HETATM   12 CL1  UNL     1      17.643  10.669  45.024  1.00  0.00    -0.114 Cl
BRANCH  11  13
HETATM   13  C8  UNL     1      19.130  12.476  46.303  1.00  0.00     0.140 C 
HETATM   14  S1  UNL     1      18.700  12.003  47.997  1.00  0.00    -0.115 SA
HETATM   15  C9  UNL     1      17.939  13.586  48.527  1.00  0.00     0.000 C 
HETATM   16  C10 UNL     1      18.004  14.326  49.599  1.00  0.00     0.060 C 
HETATM   17  C12 UNL     1      17.063  14.054  47.476  1.00  0.00     0.098 C 
HETATM   18  S2  UNL     1      16.938  15.753  49.321  1.00  0.00    -0.139 SA
HETATM   19  C11 UNL     1      16.963  15.562  47.474  1.00  0.00     0.099 C 
HETATM   20  S3  UNL     1      17.720  13.534  45.894  1.00  0.00    -0.140 SA
ENDBRANCH  11  13
ENDBRANCH   1  11
TORSDOF 3
ENDMDL
MODEL 5
REMARK VINA RESULT: -7.058663916      3.689      5.685
REMARK  3 active torsions:
REMARK  status: ('A' for Active; 'I' for Inactive)
REMARK    1  A    between atoms: C5_8  and  C6_9 
REMARK    2  A    between atoms: C6_9  and  C7_11 
REMARK    3  A    between atoms: C7_11  and  C8_13 
ROOT
HETATM    1  C6  UNL     1      19.665   9.553  41.707  1.00  0.00     0.206 C 
HETATM    2  O4  UNL     1      19.043   8.934  42.590  1.00  0.00    -0.288 OA
ENDROOT
BRANCH   1   3
HETATM    3  C5  UNL     1      19.032  10.588  40.947  1.00  0.00     0.160 A 
HETATM    4  C2  UNL     1      18.502  11.699  41.522  1.00  0.00    -0.016 A 
HETATM    5  C1  UNL     1      18.568  11.875  42.989  1.00  0.00     0.051 C 
HETATM    6  C3  UNL     1      17.887  12.692  40.735  1.00  0.00     0.094 A 
HETATM    7  C4  UNL     1      17.852  12.479  39.379  1.00  0.00     0.313 A 
HETATM    8  O1  UNL     1      17.314  13.337  38.636  1.00  0.00    -0.258 OA
HETATM    9  O2  UNL     1      18.377  11.396  38.898  1.00  0.00    -0.148 OA
HETATM   10  O3  UNL     1      18.936  10.495  39.621  1.00  0.00    -0.184 OA
ENDBRANCH   1   3
BRANCH   1  11
HETATM   11  C7  UNL     1      21.087   9.230  41.421  1.00  0.00     0.183 C 
HETATM   12 CL1  UNL     1      21.197   7.727  40.519  1.00  0.00    -0.114 Cl
BRANCH  11  13
HETATM   13  C8  UNL     1      21.917   9.131  42.669  1.00  0.00     0.140 C 
HETATM   14  S1  UNL     1      22.084  10.721  43.519  1.00  0.00    -0.115 SA
HETATM   15  C9  UNL     1      23.649  10.377  44.413  1.00  0.00     0.000 C 
HETATM   16  C10 UNL     1      24.083  10.588  45.624  1.00  0.00     0.060 C 
HETATM   17  C12 UNL     1      24.575   9.746  43.499  1.00  0.00     0.098 C 
HETATM   18  S2  UNL     1      25.762   9.936  45.705  1.00  0.00    -0.139 SA
HETATM   19  C11 UNL     1      25.531   8.831  44.230  1.00  0.00     0.099 C 
HETATM   20  S3  UNL     1      23.654   8.766  42.319  1.00  0.00    -0.140 SA
ENDBRANCH  11  13
ENDBRANCH   1  11
TORSDOF 3
ENDMDL
