MODEL 1
REMARK VINA RESULT: -8.690335630      0.000      0.000
REMARK  5 active torsions:
REMARK  status: ('A' for Active; 'I' for Inactive)
REMARK    1  A    between atoms: C2_3  and  C3_4 
REMARK    2  A    between atoms: C3_4  and  N1_5 
REMARK    3  A    between atoms: N1_5  and  C4_7 
REMARK    4  A    between atoms: C10_13  and  O2_14 
REMARK    5  A    between atoms: C12_19  and  C13_20 
ROOT
HETATM    1  O1  UNL     1      20.071  85.835   3.826  1.00  0.00    -0.285 OA
HETATM    2  C1  UNL     1      21.032  85.836   4.632  1.00  0.00     0.218 A 
HETATM    3  C2  UNL     1      20.829  86.020   5.992  1.00  0.00     0.090 A 
HETATM    4  C10 UNL     1      21.846  86.046   6.892  1.00  0.00     0.200 A 
HETATM    5  O3  UNL     1      23.094  85.871   6.417  1.00  0.00    -0.277 OA
HETATM    6  C11 UNL     1      23.312  85.692   5.143  1.00  0.00     0.151 A 
HETATM    7  S1  UNL     1      24.731  85.445   4.182  1.00  0.00    -0.049 SA
HETATM    8  C12 UNL     1      23.994  85.353   2.670  1.00  0.00     0.058 A 
HETATM    9  N2  UNL     1      22.714  85.492   2.947  1.00  0.00    -0.348 N 
ATOM     10  H2  UNL     1      22.020  85.467   2.200  1.00  0.00     0.166 HD
HETATM   11  C16 UNL     1      22.347  85.661   4.168  1.00  0.00     0.126 A 
ENDROOT
BRANCH   3  12
HETATM   12  C3  UNL     1      19.411  86.310   6.442  1.00  0.00     0.104 C 
BRANCH  12  13
HETATM   13  N1  UNL     1      18.583  85.221   6.575  1.00  0.00    -0.393 N 
ATOM     14  H1  UNL     1      17.599  85.483   6.639  1.00  0.00     0.159 HD
BRANCH  13  15
HETATM   15  C4  UNL     1      18.764  83.886   6.639  1.00  0.00     0.081 C 
HETATM   16  C5  UNL     1      17.848  83.206   7.659  1.00  0.00     0.025 C 
HETATM   17  C6  UNL     1      17.869  81.738   7.531  1.00  0.00     0.002 C 
HETATM   18  C7  UNL     1      17.617  81.251   6.125  1.00  0.00     0.000 C 
HETATM   19  C8  UNL     1      18.611  81.915   5.202  1.00  0.00     0.002 C 
HETATM   20  C9  UNL     1      18.299  83.369   5.199  1.00  0.00     0.025 C 
ENDBRANCH  13  15
ENDBRANCH  12  13
ENDBRANCH   3  12
BRANCH   4  21
HETATM   21  O2  UNL     1      21.691  86.254   8.242  1.00  0.00    -0.340 OA
ATOM     22  H2  UNL     1      20.892  86.084   8.727  1.00  0.00     0.220 HD
ENDBRANCH   4  21
BRANCH   8  23
HETATM   23  C13 UNL     1      24.602  85.289   1.259  1.00  0.00     0.043 A 
HETATM   24  C14 UNL     1      26.007  84.844   1.191  1.00  0.00     0.012 A 
HETATM   25  C15 UNL     1      25.001  83.743   1.057  1.00  0.00     0.012 A 
ENDBRANCH   8  23
TORSDOF 5
ENDMDL
MODEL 2
REMARK VINA RESULT: -8.326841217      1.292      1.987
REMARK  5 active torsions:
REMARK  status: ('A' for Active; 'I' for Inactive)
REMARK    1  A    between atoms: C2_3  and  C3_4 
REMARK    2  A    between atoms: C3_4  and  N1_5 
REMARK    3  A    between atoms: N1_5  and  C4_7 
REMARK    4  A    between atoms: C10_13  and  O2_14 
REMARK    5  A    between atoms: C12_19  and  C13_20 
ROOT
HETATM    1  O1  UNL     1      20.970  86.004   3.719  1.00  0.00    -0.285 OA
HETATM    2  C1  UNL     1      22.102  85.794   4.215  1.00  0.00     0.218 A 
HETATM    3  C2  UNL     1      22.332  85.952   5.575  1.00  0.00     0.090 A 
HETATM    4  C10 UNL     1      23.549  85.753   6.145  1.00  0.00     0.200 A 
HETATM    5  O3  UNL     1      24.555  85.375   5.332  1.00  0.00    -0.277 OA
HETATM    6  C11 UNL     1      24.365  85.216   4.052  1.00  0.00     0.151 A 
HETATM    7  S1  UNL     1      25.380  84.759   2.726  1.00  0.00    -0.049 SA
HETATM    8  C12 UNL     1      24.241  84.869   1.490  1.00  0.00     0.058 A 
HETATM    9  N2  UNL     1      23.142  85.226   2.122  1.00  0.00    -0.348 N 
ATOM     10  H2  UNL     1      22.273  85.360   1.606  1.00  0.00     0.166 HD
HETATM   11  C16 UNL     1      23.174  85.404   3.396  1.00  0.00     0.126 A 
ENDROOT
BRANCH   3  12
HETATM   12  C3  UNL     1      21.180  86.475   6.410  1.00  0.00     0.104 C 
BRANCH  12  13
HETATM   13  N1  UNL     1      19.918  86.177   5.954  1.00  0.00    -0.393 N 
ATOM     14  H1  UNL     1      19.674  86.697   5.111  1.00  0.00     0.159 HD
BRANCH  13  15
HETATM   15  C4  UNL     1      18.925  85.359   6.358  1.00  0.00     0.081 C 
HETATM   16  C5  UNL     1      18.989  83.974   5.710  1.00  0.00     0.025 C 
HETATM   17  C6  UNL     1      18.069  83.018   6.352  1.00  0.00     0.002 C 
HETATM   18  C7  UNL     1      18.218  82.951   7.852  1.00  0.00     0.000 C 
HETATM   19  C8  UNL     1      18.067  84.346   8.411  1.00  0.00     0.002 C 
HETATM   20  C9  UNL     1      19.221  85.142   7.915  1.00  0.00     0.025 C 
ENDBRANCH  13  15
ENDBRANCH  12  13
ENDBRANCH   3  12
BRANCH   4  21
HETATM   21  O2  UNL     1      23.826  85.925   7.480  1.00  0.00    -0.340 OA
ATOM     22  H2  UNL     1      23.996  86.763   7.893  1.00  0.00     0.220 HD
ENDBRANCH   4  21
BRANCH   8  23
HETATM   23  C13 UNL     1      24.400  84.758  -0.035  1.00  0.00     0.043 A 
HETATM   24  C14 UNL     1      25.500  83.891  -0.499  1.00  0.00     0.012 A 
HETATM   25  C15 UNL     1      24.181  83.196  -0.355  1.00  0.00     0.012 A 
ENDBRANCH   8  23
TORSDOF 5
ENDMDL
MODEL 3
REMARK VINA RESULT: -8.050507236      0.382      1.122
REMARK  5 active torsions:
REMARK  status: ('A' for Active; 'I' for Inactive)
REMARK    1  A    between atoms: C2_3  and  C3_4 
REMARK    2  A    between atoms: C3_4  and  N1_5 
REMARK    3  A    between atoms: N1_5  and  C4_7 
REMARK    4  A    between atoms: C10_13  and  O2_14 
REMARK    5  A    between atoms: C12_19  and  C13_20 
ROOT
HETATM    1  O1  UNL     1      20.178  85.642   3.528  1.00  0.00    -0.285 OA
HETATM    2  C1  UNL     1      21.125  85.693   4.349  1.00  0.00     0.218 A 
HETATM    3  C2  UNL     1      20.893  85.881   5.704  1.00  0.00     0.090 A 
HETATM    4  C10 UNL     1      21.893  85.961   6.620  1.00  0.00     0.200 A 
HETATM    5  O3  UNL     1      23.155  85.837   6.165  1.00  0.00    -0.277 OA
HETATM    6  C11 UNL     1      23.400  85.655   4.897  1.00  0.00     0.151 A 
HETATM    7  S1  UNL     1      24.844  85.463   3.961  1.00  0.00    -0.049 SA
HETATM    8  C12 UNL     1      24.136  85.323   2.438  1.00  0.00     0.058 A 
HETATM    9  N2  UNL     1      22.848  85.408   2.694  1.00  0.00    -0.348 N 
ATOM     10  H2  UNL     1      22.167  85.345   1.937  1.00  0.00     0.166 HD
HETATM   11  C16 UNL     1      22.453  85.572   3.908  1.00  0.00     0.126 A 
ENDROOT
BRANCH   3  12
HETATM   12  C3  UNL     1      19.456  86.113   6.128  1.00  0.00     0.104 C 
BRANCH  12  13
HETATM   13  N1  UNL     1      18.864  85.097   6.841  1.00  0.00    -0.393 N 
ATOM     14  H1  UNL     1      18.984  85.204   7.848  1.00  0.00     0.159 HD
BRANCH  13  15
HETATM   15  C4  UNL     1      18.161  83.992   6.522  1.00  0.00     0.081 C 
HETATM   16  C5  UNL     1      18.699  83.276   5.281  1.00  0.00     0.025 C 
HETATM   17  C6  UNL     1      18.094  81.944   5.102  1.00  0.00     0.002 C 
HETATM   18  C7  UNL     1      18.168  81.078   6.335  1.00  0.00     0.000 C 
HETATM   19  C8  UNL     1      17.548  81.832   7.488  1.00  0.00     0.002 C 
HETATM   20  C9  UNL     1      18.417  83.008   7.757  1.00  0.00     0.025 C 
ENDBRANCH  13  15
ENDBRANCH  12  13
ENDBRANCH   3  12
BRANCH   4  21
HETATM   21  O2  UNL     1      21.707  86.176   7.964  1.00  0.00    -0.340 OA
ATOM     22  H2  UNL     1      21.637  87.031   8.371  1.00  0.00     0.220 HD
ENDBRANCH   4  21
BRANCH   8  23
HETATM   23  C13 UNL     1      24.769  85.272   1.038  1.00  0.00     0.043 A 
HETATM   24  C14 UNL     1      26.151  84.758   0.982  1.00  0.00     0.012 A 
HETATM   25  C15 UNL     1      25.093  83.715   0.794  1.00  0.00     0.012 A 
ENDBRANCH   8  23
TORSDOF 5
ENDMDL
MODEL 4
REMARK VINA RESULT: -7.452834917      3.703      6.000
REMARK  5 active torsions:
REMARK  status: ('A' for Active; 'I' for Inactive)
REMARK    1  A    between atoms: C2_3  and  C3_4 
REMARK    2  A    between atoms: C3_4  and  N1_5 
REMARK    3  A    between atoms: N1_5  and  C4_7 
REMARK    4  A    between atoms: C10_13  and  O2_14 
REMARK    5  A    between atoms: C12_19  and  C13_20 
ROOT
HETATM    1  O1  UNL     1      19.008  85.269   3.007  1.00  0.00    -0.285 OA
HETATM    2  C1  UNL     1      18.731  84.186   3.576  1.00  0.00     0.218 A 
HETATM    3  C2  UNL     1      18.628  84.106   4.958  1.00  0.00     0.090 A 
HETATM    4  C10 UNL     1      18.350  82.949   5.611  1.00  0.00     0.200 A 
HETATM    5  O3  UNL     1      18.158  81.847   4.858  1.00  0.00    -0.277 OA
HETATM    6  C11 UNL     1      18.246  81.896   3.558  1.00  0.00     0.151 A 
HETATM    7  S1  UNL     1      18.077  80.729   2.290  1.00  0.00    -0.049 SA
HETATM    8  C12 UNL     1      18.398  81.737   0.979  1.00  0.00     0.058 A 
HETATM    9  N2  UNL     1      18.602  82.910   1.541  1.00  0.00    -0.348 N 
ATOM     10  H2  UNL     1      18.814  83.725   0.967  1.00  0.00     0.166 HD
HETATM   11  C16 UNL     1      18.531  83.018   2.821  1.00  0.00     0.126 A 
ENDROOT
BRANCH   3  12
HETATM   12  C3  UNL     1      18.954  85.361   5.744  1.00  0.00     0.104 C 
BRANCH  12  13
HETATM   13  N1  UNL     1      20.163  85.954   5.464  1.00  0.00    -0.393 N 
ATOM     14  H1  UNL     1      20.075  86.955   5.290  1.00  0.00     0.159 HD
BRANCH  13  15
HETATM   15  C4  UNL     1      21.437  85.524   5.365  1.00  0.00     0.081 C 
HETATM   16  C5  UNL     1      22.140  86.021   4.100  1.00  0.00     0.025 C 
HETATM   17  C6  UNL     1      23.592  85.767   4.136  1.00  0.00     0.002 C 
HETATM   18  C7  UNL     1      24.260  86.267   5.393  1.00  0.00     0.000 C 
HETATM   19  C8  UNL     1      23.550  85.669   6.585  1.00  0.00     0.002 C 
HETATM   20  C9  UNL     1      22.173  86.230   6.597  1.00  0.00     0.025 C 
ENDBRANCH  13  15
ENDBRANCH  12  13
ENDBRANCH   3  12
BRANCH   4  21
HETATM   21  O2  UNL     1      18.267  82.821   6.977  1.00  0.00    -0.340 OA
ATOM     22  H2  UNL     1      18.524  83.491   7.599  1.00  0.00     0.220 HD
ENDBRANCH   4  21
BRANCH   8  23
HETATM   23  C13 UNL     1      18.589  81.414  -0.513  1.00  0.00     0.043 A 
HETATM   24  C14 UNL     1      17.700  80.369  -1.055  1.00  0.00     0.012 A 
HETATM   25  C15 UNL     1      17.170  81.763  -1.188  1.00  0.00     0.012 A 
ENDBRANCH   8  23
TORSDOF 5
ENDMDL
MODEL 5
REMARK VINA RESULT: -7.432759135      4.655      7.068
REMARK  5 active torsions:
REMARK  status: ('A' for Active; 'I' for Inactive)
REMARK    1  A    between atoms: C2_3  and  C3_4 
REMARK    2  A    between atoms: C3_4  and  N1_5 
REMARK    3  A    between atoms: N1_5  and  C4_7 
REMARK    4  A    between atoms: C10_13  and  O2_14 
REMARK    5  A    between atoms: C12_19  and  C13_20 
ROOT
HETATM    1  O1  UNL     1      17.647  81.586   4.760  1.00  0.00    -0.285 OA
HETATM    2  C1  UNL     1      18.328  82.279   3.968  1.00  0.00     0.218 A 
HETATM    3  C2  UNL     1      18.509  81.891   2.647  1.00  0.00     0.090 A 
HETATM    4  C10 UNL     1      19.255  82.605   1.765  1.00  0.00     0.200 A 
HETATM    5  O3  UNL     1      19.823  83.741   2.216  1.00  0.00    -0.277 OA
HETATM    6  C11 UNL     1      19.665  84.130   3.451  1.00  0.00     0.151 A 
HETATM    7  S1  UNL     1      20.223  85.485   4.373  1.00  0.00    -0.049 SA
HETATM    8  C12 UNL     1      19.524  85.085   5.852  1.00  0.00     0.058 A 
HETATM    9  N2  UNL     1      18.886  83.963   5.592  1.00  0.00    -0.348 N 
ATOM     10  H2  UNL     1      18.355  83.491   6.324  1.00  0.00     0.166 HD
HETATM   11  C16 UNL     1      18.938  83.466   4.406  1.00  0.00     0.126 A 
ENDROOT
BRANCH   3  12
HETATM   12  C3  UNL     1      17.926  80.553   2.238  1.00  0.00     0.104 C 
BRANCH  12  13
HETATM   13  N1  UNL     1      16.967  80.587   1.252  1.00  0.00    -0.393 N 
ATOM     14  H1  UNL     1      16.476  81.480   1.216  1.00  0.00     0.159 HD
BRANCH  13  15
HETATM   15  C4  UNL     1      16.524  79.718   0.322  1.00  0.00     0.081 C 
HETATM   16  C5  UNL     1      16.922  80.110  -1.102  1.00  0.00     0.025 C 
HETATM   17  C6  UNL     1      16.663  79.028  -2.069  1.00  0.00     0.002 C 
HETATM   18  C7  UNL     1      17.251  77.699  -1.659  1.00  0.00     0.000 C 
HETATM   19  C8  UNL     1      16.746  77.358  -0.277  1.00  0.00     0.002 C 
HETATM   20  C9  UNL     1      17.314  78.368   0.656  1.00  0.00     0.025 C 
ENDBRANCH  13  15
ENDBRANCH  12  13
ENDBRANCH   3  12
BRANCH   4  21
HETATM   21  O2  UNL     1      19.483  82.243   0.459  1.00  0.00    -0.340 OA
ATOM     22  H2  UNL     1      19.220  81.415   0.074  1.00  0.00     0.220 HD
ENDBRANCH   4  21
BRANCH   8  23
HETATM   23  C13 UNL     1      19.678  85.725   7.242  1.00  0.00     0.043 A 
HETATM   24  C14 UNL     1      20.309  87.059   7.261  1.00  0.00     0.012 A 
HETATM   25  C15 UNL     1      18.814  87.081   7.163  1.00  0.00     0.012 A 
ENDBRANCH   8  23
TORSDOF 5
ENDMDL
