MODEL 1
REMARK VINA RESULT: -7.545741853      0.000      0.000
REMARK  4 active torsions:
REMARK  status: ('A' for Active; 'I' for Inactive)
REMARK    1  A    between atoms: N1_4  and  C4_5 
REMARK    2  A    between atoms: C4_5  and  C5_6 
REMARK    3  A    between atoms: C5_6  and  C6_7 
REMARK    4  A    between atoms: C6_7  and  N2_8 
ROOT
HETATM    1  C5  UNL     1    -101.587  39.738  25.733  1.00  0.00     0.042 C 
ENDROOT
BRANCH   1   2
HETATM    2  C4  UNL     1    -102.007  38.736  26.770  1.00  0.00     0.129 C 
BRANCH   2   3
HETATM    3  N1  UNL     1    -100.778  38.143  27.304  1.00  0.00    -0.366 N 
HETATM    4  C3  UNL     1    -100.780  36.986  27.963  1.00  0.00     0.090 A 
HETATM    5  C2  UNL     1     -99.635  36.401  28.480  1.00  0.00     0.017 A 
HETATM    6  C1  UNL     1     -98.429  37.021  28.318  1.00  0.00     0.003 A 
HETATM    7  C9  UNL     1     -98.419  38.231  27.629  1.00  0.00     0.017 A 
HETATM    8  C8  UNL     1     -99.594  38.769  27.135  1.00  0.00     0.090 A 
ENDBRANCH   2   3
ENDBRANCH   1   2
BRANCH   1   9
HETATM    9  C6  UNL     1    -101.430  39.142  24.362  1.00  0.00     0.149 C 
BRANCH   9  10
HETATM   10  N2  UNL     1    -102.435  39.792  23.509  1.00  0.00    -0.269 N 
HETATM   11  C7  UNL     1    -103.676  40.172  23.860  1.00  0.00     0.216 A 
HETATM   12  N3  UNL     1    -104.251  40.721  22.786  1.00  0.00    -0.282 N 
HETATM   13  N4  UNL     1    -103.416  40.695  21.784  1.00  0.00    -0.225 N 
ATOM     14  H3  UNL     1    -105.197  41.101  22.754  1.00  0.00     0.189 HD
HETATM   15  N5  UNL     1    -102.309  40.126  22.234  1.00  0.00    -0.004 NA
ATOM     16  H4  UNL     1    -103.583  41.045  20.841  1.00  0.00     0.205 HD
ENDBRANCH   9  10
ENDBRANCH   1   9
TORSDOF 4
ENDMDL
MODEL 2
REMARK VINA RESULT: -7.519650657      0.780      1.706
REMARK  4 active torsions:
REMARK  status: ('A' for Active; 'I' for Inactive)
REMARK    1  A    between atoms: N1_4  and  C4_5 
REMARK    2  A    between atoms: C4_5  and  C5_6 
REMARK    3  A    between atoms: C5_6  and  C6_7 
REMARK    4  A    between atoms: C6_7  and  N2_8 
ROOT
HETATM    1  C5  UNL     1    -102.115  39.246  25.931  1.00  0.00     0.042 C 
ENDROOT
BRANCH   1   2
HETATM    2  C4  UNL     1    -102.114  38.371  27.152  1.00  0.00     0.129 C 
BRANCH   2   3
HETATM    3  N1  UNL     1    -100.718  37.999  27.402  1.00  0.00    -0.366 N 
HETATM    4  C3  UNL     1     -99.701  38.652  26.843  1.00  0.00     0.090 A 
HETATM    5  C2  UNL     1     -98.373  38.324  27.061  1.00  0.00     0.017 A 
HETATM    6  C1  UNL     1     -98.062  37.282  27.888  1.00  0.00     0.003 A 
HETATM    7  C9  UNL     1     -99.120  36.595  28.477  1.00  0.00     0.017 A 
HETATM    8  C8  UNL     1    -100.428  36.967  28.223  1.00  0.00     0.090 A 
ENDBRANCH   2   3
ENDBRANCH   1   2
BRANCH   1   9
HETATM    9  C6  UNL     1    -103.487  39.462  25.358  1.00  0.00     0.149 C 
BRANCH   9  10
HETATM   10  N2  UNL     1    -103.295  39.817  23.945  1.00  0.00    -0.269 N 
HETATM   11  C7  UNL     1    -102.187  39.639  23.205  1.00  0.00     0.216 A 
HETATM   12  N3  UNL     1    -102.440  40.099  21.977  1.00  0.00    -0.282 N 
HETATM   13  N4  UNL     1    -103.661  40.556  21.926  1.00  0.00    -0.225 N 
ATOM     14  H3  UNL     1    -101.781  40.095  21.198  1.00  0.00     0.189 HD
HETATM   15  N5  UNL     1    -104.176  40.380  23.133  1.00  0.00    -0.004 NA
ATOM     16  H4  UNL     1    -104.126  40.967  21.117  1.00  0.00     0.205 HD
ENDBRANCH   9  10
ENDBRANCH   1   9
TORSDOF 4
ENDMDL
MODEL 3
REMARK VINA RESULT: -7.514331093      0.786      1.207
REMARK  4 active torsions:
REMARK  status: ('A' for Active; 'I' for Inactive)
REMARK    1  A    between atoms: N1_4  and  C4_5 
REMARK    2  A    between atoms: C4_5  and  C5_6 
REMARK    3  A    between atoms: C5_6  and  C6_7 
REMARK    4  A    between atoms: C6_7  and  N2_8 
ROOT
HETATM    1  C5  UNL     1    -102.123  39.225  25.928  1.00  0.00     0.042 C 
ENDROOT
BRANCH   1   2
HETATM    2  C4  UNL     1    -102.132  38.340  27.141  1.00  0.00     0.129 C 
BRANCH   2   3
HETATM    3  N1  UNL     1    -100.737  37.976  27.408  1.00  0.00    -0.366 N 
HETATM    4  C3  UNL     1    -100.409  37.001  28.253  1.00  0.00     0.090 A 
HETATM    5  C2  UNL     1     -99.101  36.636  28.525  1.00  0.00     0.017 A 
HETATM    6  C1  UNL     1     -98.075  37.292  27.907  1.00  0.00     0.003 A 
HETATM    7  C9  UNL     1     -98.409  38.312  27.022  1.00  0.00     0.017 A 
HETATM    8  C8  UNL     1     -99.735  38.636  26.788  1.00  0.00     0.090 A 
ENDBRANCH   2   3
ENDBRANCH   1   2
BRANCH   1   9
HETATM    9  C6  UNL     1    -103.491  39.452  25.349  1.00  0.00     0.149 C 
BRANCH   9  10
HETATM   10  N2  UNL     1    -103.291  39.805  23.937  1.00  0.00    -0.269 N 
HETATM   11  C7  UNL     1    -102.175  39.633  23.206  1.00  0.00     0.216 A 
HETATM   12  N3  UNL     1    -102.422  40.089  21.975  1.00  0.00    -0.282 N 
HETATM   13  N4  UNL     1    -103.646  40.536  21.914  1.00  0.00    -0.225 N 
ATOM     14  H3  UNL     1    -101.757  40.088  21.202  1.00  0.00     0.189 HD
HETATM   15  N5  UNL     1    -104.169  40.359  23.116  1.00  0.00    -0.004 NA
ATOM     16  H4  UNL     1    -104.108  40.941  21.100  1.00  0.00     0.205 HD
ENDBRANCH   9  10
ENDBRANCH   1   9
TORSDOF 4
ENDMDL
MODEL 4
REMARK VINA RESULT: -7.203440083      2.117      2.600
REMARK  4 active torsions:
REMARK  status: ('A' for Active; 'I' for Inactive)
REMARK    1  A    between atoms: N1_4  and  C4_5 
REMARK    2  A    between atoms: C4_5  and  C5_6 
REMARK    3  A    between atoms: C5_6  and  C6_7 
REMARK    4  A    between atoms: C6_7  and  N2_8 
ROOT
HETATM    1  C5  UNL     1    -101.104  39.044  25.091  1.00  0.00     0.042 C 
ENDROOT
BRANCH   1   2
HETATM    2  C4  UNL     1     -99.665  39.369  25.371  1.00  0.00     0.129 C 
BRANCH   2   3
HETATM    3  N1  UNL     1     -99.250  38.512  26.486  1.00  0.00    -0.366 N 
HETATM    4  C3  UNL     1     -99.365  37.186  26.440  1.00  0.00     0.090 A 
HETATM    5  C2  UNL     1     -98.981  36.352  27.478  1.00  0.00     0.017 A 
HETATM    6  C1  UNL     1     -98.455  36.890  28.617  1.00  0.00     0.003 A 
HETATM    7  C9  UNL     1     -98.331  38.275  28.672  1.00  0.00     0.017 A 
HETATM    8  C8  UNL     1     -98.731  39.061  27.605  1.00  0.00     0.090 A 
ENDBRANCH   2   3
ENDBRANCH   1   2
BRANCH   1   9
HETATM    9  C6  UNL     1    -102.066  39.974  25.775  1.00  0.00     0.149 C 
BRANCH   9  10
HETATM   10  N2  UNL     1    -103.387  39.335  25.700  1.00  0.00    -0.269 N 
HETATM   11  C7  UNL     1    -104.256  39.382  24.674  1.00  0.00     0.216 A 
HETATM   12  N3  UNL     1    -105.330  38.667  25.020  1.00  0.00    -0.282 N 
HETATM   13  N4  UNL     1    -105.161  38.179  26.218  1.00  0.00    -0.225 N 
ATOM     14  H3  UNL     1    -106.155  38.524  24.438  1.00  0.00     0.189 HD
HETATM   15  N5  UNL     1    -103.972  38.592  26.626  1.00  0.00    -0.004 NA
ATOM     16  H4  UNL     1    -105.816  37.594  26.737  1.00  0.00     0.205 HD
ENDBRANCH   9  10
ENDBRANCH   1   9
TORSDOF 4
ENDMDL
MODEL 5
REMARK VINA RESULT: -7.190532022      2.127      2.778
REMARK  4 active torsions:
REMARK  status: ('A' for Active; 'I' for Inactive)
REMARK    1  A    between atoms: N1_4  and  C4_5 
REMARK    2  A    between atoms: C4_5  and  C5_6 
REMARK    3  A    between atoms: C5_6  and  C6_7 
REMARK    4  A    between atoms: C6_7  and  N2_8 
ROOT
HETATM    1  C5  UNL     1    -101.109  39.044  25.105  1.00  0.00     0.042 C 
ENDROOT
BRANCH   1   2
HETATM    2  C4  UNL     1     -99.669  39.370  25.378  1.00  0.00     0.129 C 
BRANCH   2   3
HETATM    3  N1  UNL     1     -99.249  38.520  26.496  1.00  0.00    -0.366 N 
HETATM    4  C3  UNL     1     -98.730  39.026  27.613  1.00  0.00     0.090 A 
HETATM    5  C2  UNL     1     -98.325  38.248  28.686  1.00  0.00     0.017 A 
HETATM    6  C1  UNL     1     -98.453  36.890  28.620  1.00  0.00     0.003 A 
HETATM    7  C9  UNL     1     -98.996  36.353  27.456  1.00  0.00     0.017 A 
HETATM    8  C8  UNL     1     -99.383  37.179  26.415  1.00  0.00     0.090 A 
ENDBRANCH   2   3
ENDBRANCH   1   2
BRANCH   1   9
HETATM    9  C6  UNL     1    -102.069  39.960  25.810  1.00  0.00     0.149 C 
BRANCH   9  10
HETATM   10  N2  UNL     1    -103.390  39.322  25.726  1.00  0.00    -0.269 N 
HETATM   11  C7  UNL     1    -104.254  39.374  24.697  1.00  0.00     0.216 A 
HETATM   12  N3  UNL     1    -105.330  38.659  25.034  1.00  0.00    -0.282 N 
HETATM   13  N4  UNL     1    -105.168  38.166  26.231  1.00  0.00    -0.225 N 
ATOM     14  H3  UNL     1    -106.152  38.519  24.447  1.00  0.00     0.189 HD
HETATM   15  N5  UNL     1    -103.980  38.576  26.646  1.00  0.00    -0.004 NA
ATOM     16  H4  UNL     1    -105.826  37.580  26.744  1.00  0.00     0.205 HD
ENDBRANCH   9  10
ENDBRANCH   1   9
TORSDOF 4
ENDMDL
