MODEL 1
REMARK VINA RESULT: -5.786218885      0.000      0.000
REMARK  6 active torsions:
REMARK  status: ('A' for Active; 'I' for Inactive)
REMARK    1  A    between atoms: C1_2  and  C2_3 
REMARK    2  A    between atoms: C2_3  and  C3_4 
REMARK    3  A    between atoms: C3_4  and  C4_6 
REMARK    4  A    between atoms: C4_6  and  C5_7 
REMARK    5  A    between atoms: C5_7  and  S1_8 
REMARK    6  A    between atoms: C8_11  and  O3_12 
ROOT
HETATM    1  S1  UNL     1      56.234  -3.621 -56.535  1.00  0.00    -0.217 SA
HETATM    2  C6  UNL     1      57.682  -3.462 -55.505  1.00  0.00     0.066 C 
HETATM    3  C7  UNL     1      58.739  -3.634 -56.591  1.00  0.00     0.042 C 
HETATM    4  C8  UNL     1      58.325  -4.951 -57.231  1.00  0.00     0.127 C 
HETATM    5  C9  UNL     1      56.929  -4.703 -57.793  1.00  0.00     0.095 C 
ENDROOT
BRANCH   1   6
HETATM    6  C5  UNL     1      54.960  -4.539 -55.715  1.00  0.00     0.071 C 
BRANCH   6   7
HETATM    7  C4  UNL     1      54.205  -3.671 -54.751  1.00  0.00     0.088 C 
BRANCH   7   8
HETATM    8  C3  UNL     1      53.929  -4.489 -53.523  1.00  0.00     0.134 C 
HETATM    9  O2  UNL     1      53.387  -5.568 -53.660  1.00  0.00    -0.298 OA
BRANCH   8  10
HETATM   10  C2  UNL     1      54.296  -4.007 -52.193  1.00  0.00     0.147 C 
BRANCH  10  11
HETATM   11  C1  UNL     1      55.276  -2.904 -52.253  1.00  0.00     0.238 C 
HETATM   12  O1  UNL     1      56.463  -3.095 -52.168  1.00  0.00    -0.306 OA
ENDBRANCH  10  11
ENDBRANCH   8  10
ENDBRANCH   7   8
ENDBRANCH   6   7
ENDBRANCH   1   6
BRANCH   4  13
HETATM   13  O3  UNL     1      58.309  -5.925 -56.258  1.00  0.00    -0.395 OA
ATOM     14  H3  UNL     1      58.589  -6.746 -56.646  1.00  0.00     0.210 HD
ENDBRANCH   4  13
TORSDOF 6
ENDMDL
MODEL 2
REMARK VINA RESULT: -5.768353825      0.865      2.003
REMARK  6 active torsions:
REMARK  status: ('A' for Active; 'I' for Inactive)
REMARK    1  A    between atoms: C1_2  and  C2_3 
REMARK    2  A    between atoms: C2_3  and  C3_4 
REMARK    3  A    between atoms: C3_4  and  C4_6 
REMARK    4  A    between atoms: C4_6  and  C5_7 
REMARK    5  A    between atoms: C5_7  and  S1_8 
REMARK    6  A    between atoms: C8_11  and  O3_12 
ROOT
HETATM    1  S1  UNL     1      56.064  -3.527 -56.339  1.00  0.00    -0.217 SA
HETATM    2  C6  UNL     1      57.666  -3.359 -55.572  1.00  0.00     0.066 C 
HETATM    3  C7  UNL     1      58.524  -3.670 -56.793  1.00  0.00     0.042 C 
HETATM    4  C8  UNL     1      57.963  -5.012 -57.241  1.00  0.00     0.127 C 
HETATM    5  C9  UNL     1      56.504  -4.741 -57.592  1.00  0.00     0.095 C 
ENDROOT
BRANCH   1   6
HETATM    6  C5  UNL     1      54.909  -4.311 -55.248  1.00  0.00     0.071 C 
BRANCH   6   7
HETATM    7  C4  UNL     1      54.219  -3.302 -54.378  1.00  0.00     0.088 C 
BRANCH   7   8
HETATM    8  C3  UNL     1      54.587  -3.602 -52.954  1.00  0.00     0.134 C 
HETATM    9  O2  UNL     1      55.744  -3.449 -52.614  1.00  0.00    -0.298 OA
BRANCH   8  10
HETATM   10  C2  UNL     1      53.589  -4.068 -51.995  1.00  0.00     0.147 C 
BRANCH  10  11
HETATM   11  C1  UNL     1      52.269  -4.277 -52.623  1.00  0.00     0.238 C 
HETATM   12  O1  UNL     1      51.889  -5.368 -52.968  1.00  0.00    -0.306 OA
ENDBRANCH  10  11
ENDBRANCH   8  10
ENDBRANCH   7   8
ENDBRANCH   6   7
ENDBRANCH   1   6
BRANCH   4  13
HETATM   13  O3  UNL     1      58.071  -5.903 -56.196  1.00  0.00    -0.395 OA
ATOM     14  H3  UNL     1      58.526  -5.476 -55.480  1.00  0.00     0.210 HD
ENDBRANCH   4  13
TORSDOF 6
ENDMDL
MODEL 3
REMARK VINA RESULT: -5.747875719      1.304      1.443
REMARK  6 active torsions:
REMARK  status: ('A' for Active; 'I' for Inactive)
REMARK    1  A    between atoms: C1_2  and  C2_3 
REMARK    2  A    between atoms: C2_3  and  C3_4 
REMARK    3  A    between atoms: C3_4  and  C4_6 
REMARK    4  A    between atoms: C4_6  and  C5_7 
REMARK    5  A    between atoms: C5_7  and  S1_8 
REMARK    6  A    between atoms: C8_11  and  O3_12 
ROOT
HETATM    1  S1  UNL     1      56.291  -3.648 -56.689  1.00  0.00    -0.217 SA
HETATM    2  C6  UNL     1      57.679  -3.480 -55.582  1.00  0.00     0.066 C 
HETATM    3  C7  UNL     1      58.795  -3.687 -56.601  1.00  0.00     0.042 C 
HETATM    4  C8  UNL     1      58.404  -5.015 -57.233  1.00  0.00     0.127 C 
HETATM    5  C9  UNL     1      57.045  -4.767 -57.880  1.00  0.00     0.095 C 
ENDROOT
BRANCH   1   6
HETATM    6  C5  UNL     1      54.962  -4.535 -55.923  1.00  0.00     0.071 C 
BRANCH   6   7
HETATM    7  C4  UNL     1      54.262  -3.683 -54.905  1.00  0.00     0.088 C 
BRANCH   7   8
HETATM    8  C3  UNL     1      53.923  -4.559 -53.734  1.00  0.00     0.134 C 
HETATM    9  O2  UNL     1      53.371  -5.620 -53.950  1.00  0.00    -0.298 OA
BRANCH   8  10
HETATM   10  C2  UNL     1      54.243  -4.154 -52.368  1.00  0.00     0.147 C 
BRANCH  10  11
HETATM   11  C1  UNL     1      53.030  -3.899 -51.565  1.00  0.00     0.238 C 
HETATM   12  O1  UNL     1      52.471  -4.774 -50.952  1.00  0.00    -0.306 OA
ENDBRANCH  10  11
ENDBRANCH   8  10
ENDBRANCH   7   8
ENDBRANCH   6   7
ENDBRANCH   1   6
BRANCH   4  13
HETATM   13  O3  UNL     1      58.321  -5.966 -56.241  1.00  0.00    -0.395 OA
ATOM     14  H3  UNL     1      57.737  -6.656 -56.530  1.00  0.00     0.210 HD
ENDBRANCH   4  13
TORSDOF 6
ENDMDL
MODEL 4
REMARK VINA RESULT: -5.686851067      2.001      2.591
REMARK  6 active torsions:
REMARK  status: ('A' for Active; 'I' for Inactive)
REMARK    1  A    between atoms: C1_2  and  C2_3 
REMARK    2  A    between atoms: C2_3  and  C3_4 
REMARK    3  A    between atoms: C3_4  and  C4_6 
REMARK    4  A    between atoms: C4_6  and  C5_7 
REMARK    5  A    between atoms: C5_7  and  S1_8 
REMARK    6  A    between atoms: C8_11  and  O3_12 
ROOT
HETATM    1  S1  UNL     1      57.872  -3.450 -56.167  1.00  0.00    -0.217 SA
HETATM    2  C6  UNL     1      57.999  -5.113 -56.800  1.00  0.00     0.066 C 
HETATM    3  C7  UNL     1      58.022  -4.777 -58.287  1.00  0.00     0.042 C 
HETATM    4  C8  UNL     1      56.766  -3.932 -58.440  1.00  0.00     0.127 C 
HETATM    5  C9  UNL     1      56.990  -2.713 -57.551  1.00  0.00     0.095 C 
ENDROOT
BRANCH   1   6
HETATM    6  C5  UNL     1      56.786  -3.377 -54.768  1.00  0.00     0.071 C 
BRANCH   6   7
HETATM    7  C4  UNL     1      55.379  -3.072 -55.195  1.00  0.00     0.088 C 
BRANCH   7   8
HETATM    8  C3  UNL     1      54.517  -4.226 -54.773  1.00  0.00     0.134 C 
HETATM    9  O2  UNL     1      54.286  -5.099 -55.586  1.00  0.00    -0.298 OA
BRANCH   8  10
HETATM   10  C2  UNL     1      53.964  -4.306 -53.423  1.00  0.00     0.147 C 
BRANCH  10  11
HETATM   11  C1  UNL     1      52.906  -5.331 -53.315  1.00  0.00     0.238 C 
HETATM   12  O1  UNL     1      51.804  -5.074 -52.899  1.00  0.00    -0.306 OA
ENDBRANCH  10  11
ENDBRANCH   8  10
ENDBRANCH   7   8
ENDBRANCH   6   7
ENDBRANCH   1   6
BRANCH   4  13
HETATM   13  O3  UNL     1      55.685  -4.671 -58.015  1.00  0.00    -0.395 OA
ATOM     14  H3  UNL     1      55.723  -4.747 -57.069  1.00  0.00     0.210 HD
ENDBRANCH   4  13
TORSDOF 6
ENDMDL
MODEL 5
REMARK VINA RESULT: -5.671157593      0.994      1.129
REMARK  6 active torsions:
REMARK  status: ('A' for Active; 'I' for Inactive)
REMARK    1  A    between atoms: C1_2  and  C2_3 
REMARK    2  A    between atoms: C2_3  and  C3_4 
REMARK    3  A    between atoms: C3_4  and  C4_6 
REMARK    4  A    between atoms: C4_6  and  C5_7 
REMARK    5  A    between atoms: C5_7  and  S1_8 
REMARK    6  A    between atoms: C8_11  and  O3_12 
ROOT
HETATM    1  S1  UNL     1      55.969  -3.554 -56.330  1.00  0.00    -0.217 SA
HETATM    2  C6  UNL     1      57.578  -3.358 -55.584  1.00  0.00     0.066 C 
HETATM    3  C7  UNL     1      58.425  -3.633 -56.822  1.00  0.00     0.042 C 
HETATM    4  C8  UNL     1      57.890  -4.983 -57.278  1.00  0.00     0.127 C 
HETATM    5  C9  UNL     1      56.420  -4.742 -57.605  1.00  0.00     0.095 C 
ENDROOT
BRANCH   1   6
HETATM    6  C5  UNL     1      54.849  -4.380 -55.233  1.00  0.00     0.071 C 
BRANCH   6   7
HETATM    7  C4  UNL     1      54.140  -3.397 -54.348  1.00  0.00     0.088 C 
BRANCH   7   8
HETATM    8  C3  UNL     1      54.595  -3.644 -52.938  1.00  0.00     0.134 C 
HETATM    9  O2  UNL     1      53.927  -4.378 -52.238  1.00  0.00    -0.298 OA
BRANCH   8  10
HETATM   10  C2  UNL     1      55.808  -3.021 -52.414  1.00  0.00     0.147 C 
BRANCH  10  11
HETATM   11  C1  UNL     1      55.654  -2.604 -51.006  1.00  0.00     0.238 C 
HETATM   12  O1  UNL     1      56.163  -1.599 -50.575  1.00  0.00    -0.306 OA
ENDBRANCH  10  11
ENDBRANCH   8  10
ENDBRANCH   7   8
ENDBRANCH   6   7
ENDBRANCH   1   6
BRANCH   4  13
HETATM   13  O3  UNL     1      58.034  -5.883 -56.247  1.00  0.00    -0.395 OA
ATOM     14  H3  UNL     1      57.803  -6.748 -56.565  1.00  0.00     0.210 HD
ENDBRANCH   4  13
TORSDOF 6
ENDMDL
