MODEL 1
REMARK VINA RESULT: -7.900298195      0.000      0.000
REMARK  14 active torsions:
REMARK  status: ('A' for Active; 'I' for Inactive)
REMARK    1  A    between atoms: C2_2  and  C3_3 
REMARK    2  A    between atoms: C4_4  and  C6_6 
REMARK    3  A    between atoms: C6_6  and  C7_7 
REMARK    4  A    between atoms: C7_7  and  C8_8 
REMARK    5  A    between atoms: C9_9  and  C10_10 
REMARK    6  A    between atoms: N1_11  and  O1_13 
REMARK    7  A    between atoms: O1_13  and  C11_14 
REMARK    8  A    between atoms: C11_14  and  C12_15 
REMARK    9  A    between atoms: N2_16  and  O2_18 
REMARK   10  A    between atoms: C13_22  and  C15_24 
REMARK   11  A    between atoms: C24_34  and  C26_36 
REMARK   12  A    between atoms: C26_36  and  C27_37 
REMARK   13  A    between atoms: C27_37  and  C28_38 
REMARK   14  A    between atoms: C34_44  and  O6_45 
ROOT
HETATM    1  C3  UNL     1      18.191  45.028  -2.645  1.00  0.00     0.065 C 
HETATM    2  C4  UNL     1      19.003  46.256  -2.239  1.00  0.00     0.100 C 
HETATM    3  C5  UNL     1      20.533  45.890  -2.332  1.00  0.00     0.050 C 
HETATM    4  O3  UNL     1      18.870  47.056  -3.342  1.00  0.00    -0.228 OA
HETATM    5  O4  UNL     1      19.105  46.108  -4.291  1.00  0.00    -0.224 OA
HETATM    6  C13 UNL     1      17.983  45.282  -4.124  1.00  0.00     0.125 C 
HETATM    7  C14 UNL     1      16.890  46.362  -4.291  1.00  0.00     0.055 C 
ENDROOT
BRANCH   6   8
HETATM    8  C15 UNL     1      17.800  44.166  -5.052  1.00  0.00    -0.013 C 
HETATM    9  C16 UNL     1      16.685  44.195  -6.038  1.00  0.00     0.041 C 
HETATM   10  C17 UNL     1      16.495  42.894  -6.757  1.00  0.00     0.019 C 
HETATM   11  C18 UNL     1      17.284  42.565  -7.963  1.00  0.00    -0.005 C 
HETATM   12  C19 UNL     1      17.134  43.824  -8.877  1.00  0.00     0.021 C 
HETATM   13  C20 UNL     1      18.766  42.383  -7.782  1.00  0.00    -0.006 C 
HETATM   14  C24 UNL     1      16.650  41.466  -8.732  1.00  0.00    -0.015 C 
HETATM   15  C21 UNL     1      19.151  40.954  -7.976  1.00  0.00     0.176 C 
HETATM   16  C31 UNL     1      19.491  43.146  -6.735  1.00  0.00     0.029 C 
HETATM   17  O5  UNL     1      19.691  40.164  -7.219  1.00  0.00    -0.288 OA
HETATM   18  C22 UNL     1      18.783  40.466  -9.332  1.00  0.00     0.052 C 
HETATM   19  C23 UNL     1      17.565  40.738  -9.688  1.00  0.00    -0.013 C 
HETATM   20  C32 UNL     1      20.106  44.396  -7.316  1.00  0.00     0.027 C 
HETATM   21  C33 UNL     1      20.800  42.326  -6.481  1.00  0.00     0.027 C 
HETATM   22  C34 UNL     1      18.871  43.209  -5.409  1.00  0.00     0.061 C 
HETATM   23  C25 UNL     1      15.635  42.104  -9.770  1.00  0.00     0.021 C 
BRANCH  22  24
HETATM   24  O6  UNL     1      19.755  42.932  -4.359  1.00  0.00    -0.363 OA
ATOM     25  H6  UNL     1      20.658  43.164  -4.546  1.00  0.00     0.217 HD
ENDBRANCH  22  24
BRANCH  14  26
HETATM   26  C26 UNL     1      15.821  40.419  -8.102  1.00  0.00     0.014 C 
BRANCH  26  27
HETATM   27  C27 UNL     1      14.816  39.610  -8.757  1.00  0.00     0.005 C 
BRANCH  27  28
HETATM   28  C28 UNL     1      13.505  39.669  -7.908  1.00  0.00    -0.023 C 
HETATM   29  C29 UNL     1      13.768  40.275  -6.557  1.00  0.00     0.009 C 
HETATM   30  C30 UNL     1      12.384  40.311  -8.648  1.00  0.00     0.009 C 
ENDBRANCH  27  28
ENDBRANCH  26  27
ENDBRANCH  14  26
ENDBRANCH   6   8
BRANCH   1  31
HETATM   31  C2  UNL     1      17.092  44.636  -1.816  1.00  0.00     0.007 C 
HETATM   32  C1  UNL     1      16.820  43.361  -1.192  1.00  0.00     0.006 C 
ENDBRANCH   1  31
BRANCH   2  33
HETATM   33  C6  UNL     1      18.784  46.725  -0.900  1.00  0.00     0.045 C 
BRANCH  33  34
HETATM   34  C7  UNL     1      19.759  46.127   0.092  1.00  0.00     0.030 C 
BRANCH  34  35
HETATM   35  C8  UNL     1      19.545  46.910   1.384  1.00  0.00    -0.025 C 
HETATM   36  C9  UNL     1      20.257  47.987   1.610  1.00  0.00     0.015 C 
BRANCH  36  37
HETATM   37  C10 UNL     1      20.061  48.745   2.845  1.00  0.00     0.114 C 
HETATM   38  N1  UNL     1      20.759  48.854   3.825  1.00  0.00    -0.278 N 
ATOM     39  H1  UNL     1      20.267  49.485   4.459  1.00  0.00     0.193 HD
BRANCH  38  40
HETATM   40  O1  UNL     1      21.854  48.522   4.420  1.00  0.00    -0.276 OA
BRANCH  40  41
HETATM   41  C11 UNL     1      23.187  48.731   3.851  1.00  0.00     0.247 C 
BRANCH  41  42
HETATM   42  C12 UNL     1      23.532  50.158   4.309  1.00  0.00     0.115 C 
HETATM   43  N2  UNL     1      24.765  50.478   4.192  1.00  0.00    -0.282 N 
ATOM     44  H2  UNL     1      25.441  49.813   3.818  1.00  0.00     0.193 HD
BRANCH  43  45
HETATM   45  O2  UNL     1      25.173  51.770   4.591  1.00  0.00    -0.290 OA
ATOM     46  H2  UNL     1      25.106  52.008   5.508  1.00  0.00     0.244 HD
ENDBRANCH  43  45
ENDBRANCH  41  42
ENDBRANCH  40  41
ENDBRANCH  38  40
ENDBRANCH  36  37
ENDBRANCH  34  35
ENDBRANCH  33  34
ENDBRANCH   2  33
TORSDOF 14
ENDMDL
MODEL 2
REMARK VINA RESULT: -7.832576948      3.322      4.947
REMARK  14 active torsions:
REMARK  status: ('A' for Active; 'I' for Inactive)
REMARK    1  A    between atoms: C2_2  and  C3_3 
REMARK    2  A    between atoms: C4_4  and  C6_6 
REMARK    3  A    between atoms: C6_6  and  C7_7 
REMARK    4  A    between atoms: C7_7  and  C8_8 
REMARK    5  A    between atoms: C9_9  and  C10_10 
REMARK    6  A    between atoms: N1_11  and  O1_13 
REMARK    7  A    between atoms: O1_13  and  C11_14 
REMARK    8  A    between atoms: C11_14  and  C12_15 
REMARK    9  A    between atoms: N2_16  and  O2_18 
REMARK   10  A    between atoms: C13_22  and  C15_24 
REMARK   11  A    between atoms: C24_34  and  C26_36 
REMARK   12  A    between atoms: C26_36  and  C27_37 
REMARK   13  A    between atoms: C27_37  and  C28_38 
REMARK   14  A    between atoms: C34_44  and  O6_45 
ROOT
HETATM    1  C3  UNL     1      19.464  45.752  -3.246  1.00  0.00     0.065 C 
HETATM    2  C4  UNL     1      19.710  46.744  -2.112  1.00  0.00     0.100 C 
HETATM    3  C5  UNL     1      19.341  48.187  -2.626  1.00  0.00     0.050 C 
HETATM    4  O3  UNL     1      18.646  46.493  -1.286  1.00  0.00    -0.228 OA
HETATM    5  O4  UNL     1      17.674  46.454  -2.239  1.00  0.00    -0.224 OA
HETATM    6  C13 UNL     1      18.047  45.305  -2.952  1.00  0.00     0.125 C 
HETATM    7  C14 UNL     1      18.078  44.314  -1.766  1.00  0.00     0.055 C 
ENDROOT
BRANCH   6   8
HETATM    8  C15 UNL     1      17.172  44.844  -4.031  1.00  0.00    -0.013 C 
HETATM    9  C16 UNL     1      17.010  43.387  -4.285  1.00  0.00     0.041 C 
HETATM   10  C17 UNL     1      16.269  43.084  -5.551  1.00  0.00     0.019 C 
HETATM   11  C18 UNL     1      14.791  43.049  -5.583  1.00  0.00    -0.005 C 
HETATM   12  C19 UNL     1      14.403  42.124  -4.383  1.00  0.00     0.021 C 
HETATM   13  C20 UNL     1      14.071  44.345  -5.332  1.00  0.00    -0.006 C 
HETATM   14  C24 UNL     1      14.300  42.329  -6.784  1.00  0.00    -0.015 C 
HETATM   15  C21 UNL     1      13.403  44.828  -6.577  1.00  0.00     0.176 C 
HETATM   16  C31 UNL     1      14.664  45.370  -4.438  1.00  0.00     0.029 C 
HETATM   17  O5  UNL     1      13.545  45.863  -7.208  1.00  0.00    -0.288 OA
HETATM   18  C22 UNL     1      12.419  43.838  -7.090  1.00  0.00     0.052 C 
HETATM   19  C23 UNL     1      12.871  42.624  -7.170  1.00  0.00    -0.013 C 
HETATM   20  C32 UNL     1      14.114  45.240  -3.038  1.00  0.00     0.027 C 
HETATM   21  C33 UNL     1      13.966  46.709  -4.851  1.00  0.00     0.027 C 
HETATM   22  C34 UNL     1      16.089  45.664  -4.617  1.00  0.00     0.061 C 
HETATM   23  C25 UNL     1      14.167  40.791  -6.424  1.00  0.00     0.021 C 
BRANCH  22  24
HETATM   24  O6  UNL     1      16.380  47.033  -4.670  1.00  0.00    -0.363 OA
ATOM     25  H6  UNL     1      17.301  47.224  -4.803  1.00  0.00     0.217 HD
ENDBRANCH  22  24
BRANCH  14  26
HETATM   26  C26 UNL     1      15.053  42.279  -8.053  1.00  0.00     0.014 C 
BRANCH  26  27
HETATM   27  C27 UNL     1      15.986  41.250  -8.458  1.00  0.00     0.005 C 
BRANCH  27  28
HETATM   28  C28 UNL     1      17.316  41.939  -8.905  1.00  0.00    -0.023 C 
HETATM   29  C29 UNL     1      17.187  43.436  -8.856  1.00  0.00     0.009 C 
HETATM   30  C30 UNL     1      18.497  41.413  -8.167  1.00  0.00     0.009 C 
ENDBRANCH  27  28
ENDBRANCH  26  27
ENDBRANCH  14  26
ENDBRANCH   6   8
BRANCH   1  31
HETATM   31  C2  UNL     1      20.481  44.788  -3.539  1.00  0.00     0.007 C 
HETATM   32  C1  UNL     1      20.718  44.041  -4.754  1.00  0.00     0.006 C 
ENDBRANCH   1  31
BRANCH   2  33
HETATM   33  C6  UNL     1      21.064  46.820  -1.643  1.00  0.00     0.045 C 
BRANCH  33  34
HETATM   34  C7  UNL     1      21.189  46.490  -0.170  1.00  0.00     0.030 C 
BRANCH  34  35
HETATM   35  C8  UNL     1      22.100  47.570   0.406  1.00  0.00    -0.025 C 
HETATM   36  C9  UNL     1      23.210  47.876  -0.219  1.00  0.00     0.015 C 
BRANCH  36  37
HETATM   37  C10 UNL     1      24.092  48.909   0.325  1.00  0.00     0.114 C 
HETATM   38  N1  UNL     1      25.129  49.364  -0.094  1.00  0.00    -0.278 N 
ATOM     39  H1  UNL     1      25.421  50.077   0.576  1.00  0.00     0.193 HD
BRANCH  38  40
HETATM   40  O1  UNL     1      26.029  49.344  -1.018  1.00  0.00    -0.276 OA
BRANCH  40  41
HETATM   41  C11 UNL     1      27.346  49.971  -0.888  1.00  0.00     0.247 C 
BRANCH  41  42
HETATM   42  C12 UNL     1      27.367  50.965  -2.061  1.00  0.00     0.115 C 
HETATM   43  N2  UNL     1      27.745  52.149  -1.757  1.00  0.00    -0.282 N 
ATOM     44  H2  UNL     1      28.007  52.381  -0.800  1.00  0.00     0.193 HD
BRANCH  43  45
HETATM   45  O2  UNL     1      27.791  53.130  -2.773  1.00  0.00    -0.290 OA
ATOM     46  H2  UNL     1      27.274  53.920  -2.669  1.00  0.00     0.244 HD
ENDBRANCH  43  45
ENDBRANCH  41  42
ENDBRANCH  40  41
ENDBRANCH  38  40
ENDBRANCH  36  37
ENDBRANCH  34  35
ENDBRANCH  33  34
ENDBRANCH   2  33
TORSDOF 14
ENDMDL
MODEL 3
REMARK VINA RESULT: -7.819795717      3.585      6.722
REMARK  14 active torsions:
REMARK  status: ('A' for Active; 'I' for Inactive)
REMARK    1  A    between atoms: C2_2  and  C3_3 
REMARK    2  A    between atoms: C4_4  and  C6_6 
REMARK    3  A    between atoms: C6_6  and  C7_7 
REMARK    4  A    between atoms: C7_7  and  C8_8 
REMARK    5  A    between atoms: C9_9  and  C10_10 
REMARK    6  A    between atoms: N1_11  and  O1_13 
REMARK    7  A    between atoms: O1_13  and  C11_14 
REMARK    8  A    between atoms: C11_14  and  C12_15 
REMARK    9  A    between atoms: N2_16  and  O2_18 
REMARK   10  A    between atoms: C13_22  and  C15_24 
REMARK   11  A    between atoms: C24_34  and  C26_36 
REMARK   12  A    between atoms: C26_36  and  C27_37 
REMARK   13  A    between atoms: C27_37  and  C28_38 
REMARK   14  A    between atoms: C34_44  and  O6_45 
ROOT
HETATM    1  C3  UNL     1      20.489  48.128   1.468  1.00  0.00     0.065 C 
HETATM    2  C4  UNL     1      20.109  48.724   2.822  1.00  0.00     0.100 C 
HETATM    3  C5  UNL     1      19.338  50.075   2.569  1.00  0.00     0.050 C 
HETATM    4  O3  UNL     1      19.074  47.913   3.204  1.00  0.00    -0.228 OA
HETATM    5  O4  UNL     1      18.403  47.896   2.019  1.00  0.00    -0.224 OA
HETATM    6  C13 UNL     1      19.316  47.207   1.207  1.00  0.00     0.125 C 
HETATM    7  C14 UNL     1      19.475  45.943   2.081  1.00  0.00     0.055 C 
ENDROOT
BRANCH   6   8
HETATM    8  C15 UNL     1      18.915  46.882  -0.163  1.00  0.00    -0.013 C 
HETATM    9  C16 UNL     1      19.104  45.500  -0.683  1.00  0.00     0.041 C 
HETATM   10  C17 UNL     1      18.858  45.382  -2.156  1.00  0.00     0.019 C 
HETATM   11  C18 UNL     1      17.494  45.181  -2.691  1.00  0.00    -0.005 C 
HETATM   12  C19 UNL     1      16.925  43.989  -1.854  1.00  0.00     0.021 C 
HETATM   13  C20 UNL     1      16.512  46.303  -2.498  1.00  0.00    -0.006 C 
HETATM   14  C24 UNL     1      17.536  44.674  -4.084  1.00  0.00    -0.015 C 
HETATM   15  C21 UNL     1      16.188  46.952  -3.803  1.00  0.00     0.176 C 
HETATM   16  C31 UNL     1      16.606  47.183  -1.306  1.00  0.00     0.029 C 
HETATM   17  O5  UNL     1      16.331  48.105  -4.177  1.00  0.00    -0.288 OA
HETATM   18  C22 UNL     1      15.605  45.983  -4.767  1.00  0.00     0.052 C 
HETATM   19  C23 UNL     1      16.269  44.873  -4.880  1.00  0.00    -0.013 C 
HETATM   20  C32 UNL     1      15.681  46.702  -0.214  1.00  0.00     0.027 C 
HETATM   21  C33 UNL     1      15.842  48.487  -1.715  1.00  0.00     0.027 C 
HETATM   22  C34 UNL     1      17.939  47.672  -0.944  1.00  0.00     0.061 C 
HETATM   23  C25 UNL     1      17.576  43.089  -4.039  1.00  0.00     0.021 C 
BRANCH  22  24
HETATM   24  O6  UNL     1      17.982  49.047  -0.679  1.00  0.00    -0.363 OA
ATOM     25  H6  UNL     1      17.257  49.533  -1.053  1.00  0.00     0.217 HD
ENDBRANCH  22  24
BRANCH  14  26
HETATM   26  C26 UNL     1      18.642  44.977  -5.016  1.00  0.00     0.014 C 
BRANCH  26  27
HETATM   27  C27 UNL     1      19.003  44.219  -6.194  1.00  0.00     0.005 C 
BRANCH  27  28
HETATM   28  C28 UNL     1      20.482  43.738  -6.037  1.00  0.00    -0.023 C 
HETATM   29  C29 UNL     1      21.033  44.133  -4.695  1.00  0.00     0.009 C 
HETATM   30  C30 UNL     1      20.639  42.291  -6.349  1.00  0.00     0.009 C 
ENDBRANCH  27  28
ENDBRANCH  26  27
ENDBRANCH  14  26
ENDBRANCH   6   8
BRANCH   1  31
HETATM   31  C2  UNL     1      21.830  47.663   1.282  1.00  0.00     0.007 C 
HETATM   32  C1  UNL     1      22.687  47.768   0.122  1.00  0.00     0.006 C 
ENDBRANCH   1  31
BRANCH   2  33
HETATM   33  C6  UNL     1      21.211  49.047   3.684  1.00  0.00     0.045 C 
BRANCH  33  34
HETATM   34  C7  UNL     1      21.321  50.533   3.956  1.00  0.00     0.030 C 
BRANCH  34  35
HETATM   35  C8  UNL     1      22.811  50.794   4.151  1.00  0.00    -0.025 C 
HETATM   36  C9  UNL     1      23.662  50.382   3.243  1.00  0.00     0.015 C 
BRANCH  36  37
HETATM   37  C10 UNL     1      25.093  50.626   3.421  1.00  0.00     0.114 C 
HETATM   38  N1  UNL     1      25.947  50.935   2.625  1.00  0.00    -0.278 N 
ATOM     39  H1  UNL     1      26.816  51.020   3.155  1.00  0.00     0.193 HD
BRANCH  38  40
HETATM   40  O1  UNL     1      26.242  51.205   1.399  1.00  0.00    -0.276 OA
BRANCH  40  41
HETATM   41  C11 UNL     1      26.173  50.229   0.310  1.00  0.00     0.247 C 
BRANCH  41  42
HETATM   42  C12 UNL     1      27.515  50.431  -0.413  1.00  0.00     0.115 C 
HETATM   43  N2  UNL     1      28.007  51.608  -0.317  1.00  0.00    -0.282 N 
ATOM     44  H2  UNL     1      27.520  52.333   0.209  1.00  0.00     0.193 HD
BRANCH  43  45
HETATM   45  O2  UNL     1      29.237  51.886  -0.954  1.00  0.00    -0.290 OA
ATOM     46  H2  UNL     1      29.356  51.616  -1.856  1.00  0.00     0.244 HD
ENDBRANCH  43  45
ENDBRANCH  41  42
ENDBRANCH  40  41
ENDBRANCH  38  40
ENDBRANCH  36  37
ENDBRANCH  34  35
ENDBRANCH  33  34
ENDBRANCH   2  33
TORSDOF 14
ENDMDL
MODEL 4
REMARK VINA RESULT: -7.732150376      3.501      6.487
REMARK  14 active torsions:
REMARK  status: ('A' for Active; 'I' for Inactive)
REMARK    1  A    between atoms: C2_2  and  C3_3 
REMARK    2  A    between atoms: C4_4  and  C6_6 
REMARK    3  A    between atoms: C6_6  and  C7_7 
REMARK    4  A    between atoms: C7_7  and  C8_8 
REMARK    5  A    between atoms: C9_9  and  C10_10 
REMARK    6  A    between atoms: N1_11  and  O1_13 
REMARK    7  A    between atoms: O1_13  and  C11_14 
REMARK    8  A    between atoms: C11_14  and  C12_15 
REMARK    9  A    between atoms: N2_16  and  O2_18 
REMARK   10  A    between atoms: C13_22  and  C15_24 
REMARK   11  A    between atoms: C24_34  and  C26_36 
REMARK   12  A    between atoms: C26_36  and  C27_37 
REMARK   13  A    between atoms: C27_37  and  C28_38 
REMARK   14  A    between atoms: C34_44  and  O6_45 
ROOT
HETATM    1  C3  UNL     1      20.212  48.119   1.461  1.00  0.00     0.065 C 
HETATM    2  C4  UNL     1      19.780  48.728   2.792  1.00  0.00     0.100 C 
HETATM    3  C5  UNL     1      19.008  50.070   2.496  1.00  0.00     0.050 C 
HETATM    4  O3  UNL     1      18.738  47.914   3.147  1.00  0.00    -0.228 OA
HETATM    5  O4  UNL     1      18.110  47.876   1.940  1.00  0.00    -0.224 OA
HETATM    6  C13 UNL     1      19.056  47.185   1.170  1.00  0.00     0.125 C 
HETATM    7  C14 UNL     1      19.195  45.933   2.065  1.00  0.00     0.055 C 
ENDROOT
BRANCH   6   8
HETATM    8  C15 UNL     1      18.708  46.839  -0.209  1.00  0.00    -0.013 C 
HETATM    9  C16 UNL     1      18.938  45.456  -0.709  1.00  0.00     0.041 C 
HETATM   10  C17 UNL     1      18.744  45.319  -2.188  1.00  0.00     0.019 C 
HETATM   11  C18 UNL     1      17.402  45.088  -2.766  1.00  0.00    -0.005 C 
HETATM   12  C19 UNL     1      16.827  43.894  -1.936  1.00  0.00     0.021 C 
HETATM   13  C20 UNL     1      16.394  46.194  -2.616  1.00  0.00    -0.006 C 
HETATM   14  C24 UNL     1      17.500  44.569  -4.152  1.00  0.00    -0.015 C 
HETATM   15  C21 UNL     1      16.102  46.825  -3.938  1.00  0.00     0.176 C 
HETATM   16  C31 UNL     1      16.432  47.087  -1.431  1.00  0.00     0.029 C 
HETATM   17  O5  UNL     1      16.237  47.976  -4.319  1.00  0.00    -0.288 OA
HETATM   18  C22 UNL     1      15.569  45.836  -4.911  1.00  0.00     0.052 C 
HETATM   19  C23 UNL     1      16.256  44.737  -4.991  1.00  0.00    -0.013 C 
HETATM   20  C32 UNL     1      15.480  46.599  -0.365  1.00  0.00     0.027 C 
HETATM   21  C33 UNL     1      15.660  48.373  -1.878  1.00  0.00     0.027 C 
HETATM   22  C34 UNL     1      17.744  47.604  -1.031  1.00  0.00     0.061 C 
HETATM   23  C25 UNL     1      17.566  42.986  -4.089  1.00  0.00     0.021 C 
BRANCH  22  24
HETATM   24  O6  UNL     1      17.754  48.982  -0.778  1.00  0.00    -0.363 OA
ATOM     25  H6  UNL     1      17.980  49.206   0.117  1.00  0.00     0.217 HD
ENDBRANCH  22  24
BRANCH  14  26
HETATM   26  C26 UNL     1      18.630  44.884  -5.049  1.00  0.00     0.014 C 
BRANCH  26  27
HETATM   27  C27 UNL     1      19.040  44.125  -6.211  1.00  0.00     0.005 C 
BRANCH  27  28
HETATM   28  C28 UNL     1      20.525  43.679  -6.011  1.00  0.00    -0.023 C 
HETATM   29  C29 UNL     1      21.038  44.116  -4.666  1.00  0.00     0.009 C 
HETATM   30  C30 UNL     1      20.719  42.230  -6.287  1.00  0.00     0.009 C 
ENDBRANCH  27  28
ENDBRANCH  26  27
ENDBRANCH  14  26
ENDBRANCH   6   8
BRANCH   1  31
HETATM   31  C2  UNL     1      21.563  47.662   1.329  1.00  0.00     0.007 C 
HETATM   32  C1  UNL     1      22.372  47.517   0.139  1.00  0.00     0.006 C 
ENDBRANCH   1  31
BRANCH   2  33
HETATM   33  C6  UNL     1      20.848  49.071   3.689  1.00  0.00     0.045 C 
BRANCH  33  34
HETATM   34  C7  UNL     1      20.923  50.558   3.961  1.00  0.00     0.030 C 
BRANCH  34  35
HETATM   35  C8  UNL     1      22.413  50.870   4.068  1.00  0.00    -0.025 C 
HETATM   36  C9  UNL     1      23.271  50.153   3.385  1.00  0.00     0.015 C 
BRANCH  36  37
HETATM   37  C10 UNL     1      24.702  50.441   3.480  1.00  0.00     0.114 C 
HETATM   38  N1  UNL     1      25.295  51.491   3.535  1.00  0.00    -0.278 N 
ATOM     39  H1  UNL     1      26.286  51.258   3.607  1.00  0.00     0.193 HD
BRANCH  38  40
HETATM   40  O1  UNL     1      25.224  52.780   3.542  1.00  0.00    -0.276 OA
BRANCH  40  41
HETATM   41  C11 UNL     1      25.864  53.626   4.552  1.00  0.00     0.247 C 
BRANCH  41  42
HETATM   42  C12 UNL     1      25.160  53.197   5.850  1.00  0.00     0.115 C 
HETATM   43  N2  UNL     1      25.936  52.723   6.752  1.00  0.00    -0.282 N 
ATOM     44  H2  UNL     1      26.940  52.652   6.589  1.00  0.00     0.193 HD
BRANCH  43  45
HETATM   45  O2  UNL     1      25.375  52.300   7.977  1.00  0.00    -0.290 OA
ATOM     46  H2  UNL     1      24.975  51.440   8.024  1.00  0.00     0.244 HD
ENDBRANCH  43  45
ENDBRANCH  41  42
ENDBRANCH  40  41
ENDBRANCH  38  40
ENDBRANCH  36  37
ENDBRANCH  34  35
ENDBRANCH  33  34
ENDBRANCH   2  33
TORSDOF 14
ENDMDL
MODEL 5
REMARK VINA RESULT: -7.592164506      2.267      4.158
REMARK  14 active torsions:
REMARK  status: ('A' for Active; 'I' for Inactive)
REMARK    1  A    between atoms: C2_2  and  C3_3 
REMARK    2  A    between atoms: C4_4  and  C6_6 
REMARK    3  A    between atoms: C6_6  and  C7_7 
REMARK    4  A    between atoms: C7_7  and  C8_8 
REMARK    5  A    between atoms: C9_9  and  C10_10 
REMARK    6  A    between atoms: N1_11  and  O1_13 
REMARK    7  A    between atoms: O1_13  and  C11_14 
REMARK    8  A    between atoms: C11_14  and  C12_15 
REMARK    9  A    between atoms: N2_16  and  O2_18 
REMARK   10  A    between atoms: C13_22  and  C15_24 
REMARK   11  A    between atoms: C24_34  and  C26_36 
REMARK   12  A    between atoms: C26_36  and  C27_37 
REMARK   13  A    between atoms: C27_37  and  C28_38 
REMARK   14  A    between atoms: C34_44  and  O6_45 
ROOT
HETATM    1  C3  UNL     1      19.138  45.434  -3.679  1.00  0.00     0.065 C 
HETATM    2  C4  UNL     1      19.282  46.397  -2.502  1.00  0.00     0.100 C 
HETATM    3  C5  UNL     1      18.776  47.817  -2.960  1.00  0.00     0.050 C 
HETATM    4  O3  UNL     1      18.245  46.010  -1.696  1.00  0.00    -0.228 OA
HETATM    5  O4  UNL     1      17.285  45.917  -2.657  1.00  0.00    -0.224 OA
HETATM    6  C13 UNL     1      17.771  44.839  -3.413  1.00  0.00     0.125 C 
HETATM    7  C14 UNL     1      17.894  43.808  -2.269  1.00  0.00     0.055 C 
ENDROOT
BRANCH   6   8
HETATM    8  C15 UNL     1      16.948  44.342  -4.517  1.00  0.00    -0.013 C 
HETATM    9  C16 UNL     1      16.801  42.876  -4.732  1.00  0.00     0.041 C 
HETATM   10  C17 UNL     1      16.122  42.530  -6.021  1.00  0.00     0.019 C 
HETATM   11  C18 UNL     1      14.647  42.489  -6.121  1.00  0.00    -0.005 C 
HETATM   12  C19 UNL     1      14.204  41.603  -4.912  1.00  0.00     0.021 C 
HETATM   13  C20 UNL     1      13.913  43.790  -5.947  1.00  0.00    -0.006 C 
HETATM   14  C24 UNL     1      14.214  41.729  -7.320  1.00  0.00    -0.015 C 
HETATM   15  C21 UNL     1      13.304  44.230  -7.237  1.00  0.00     0.176 C 
HETATM   16  C31 UNL     1      14.462  44.846  -5.060  1.00  0.00     0.029 C 
HETATM   17  O5  UNL     1      13.474  45.245  -7.894  1.00  0.00    -0.288 OA
HETATM   18  C22 UNL     1      12.347  43.222  -7.764  1.00  0.00     0.052 C 
HETATM   19  C23 UNL     1      12.804  42.007  -7.783  1.00  0.00    -0.013 C 
HETATM   20  C32 UNL     1      13.846  44.759  -3.684  1.00  0.00     0.027 C 
HETATM   21  C33 UNL     1      13.782  46.168  -5.549  1.00  0.00     0.027 C 
HETATM   22  C34 UNL     1      15.892  45.138  -5.181  1.00  0.00     0.061 C 
HETATM   23  C25 UNL     1      14.067  40.203  -6.918  1.00  0.00     0.021 C 
BRANCH  22  24
HETATM   24  O6  UNL     1      16.184  46.506  -5.264  1.00  0.00    -0.363 OA
ATOM     25  H6  UNL     1      15.524  47.011  -5.725  1.00  0.00     0.217 HD
ENDBRANCH  22  24
BRANCH  14  26
HETATM   26  C26 UNL     1      15.026  41.641  -8.551  1.00  0.00     0.014 C 
BRANCH  26  27
HETATM   27  C27 UNL     1      15.755  40.481  -9.017  1.00  0.00     0.005 C 
BRANCH  27  28
HETATM   28  C28 UNL     1      17.154  40.951  -9.531  1.00  0.00    -0.023 C 
HETATM   29  C29 UNL     1      17.509  42.298  -8.963  1.00  0.00     0.009 C 
HETATM   30  C30 UNL     1      18.205  39.917  -9.325  1.00  0.00     0.009 C 
ENDBRANCH  27  28
ENDBRANCH  26  27
ENDBRANCH  14  26
ENDBRANCH   6   8
BRANCH   1  31
HETATM   31  C2  UNL     1      20.245  44.587  -4.002  1.00  0.00     0.007 C 
HETATM   32  C1  UNL     1      20.556  43.914  -5.244  1.00  0.00     0.006 C 
ENDBRANCH   1  31
BRANCH   2  33
HETATM   33  C6  UNL     1      20.621  46.585  -2.020  1.00  0.00     0.045 C 
BRANCH  33  34
HETATM   34  C7  UNL     1      20.721  46.454  -0.514  1.00  0.00     0.030 C 
BRANCH  34  35
HETATM   35  C8  UNL     1      21.947  47.272  -0.122  1.00  0.00    -0.025 C 
HETATM   36  C9  UNL     1      22.028  47.773   1.086  1.00  0.00     0.015 C 
BRANCH  36  37
HETATM   37  C10 UNL     1      23.199  48.560   1.473  1.00  0.00     0.114 C 
HETATM   38  N1  UNL     1      23.591  48.913   2.558  1.00  0.00    -0.278 N 
ATOM     39  H1  UNL     1      24.453  49.435   2.397  1.00  0.00     0.193 HD
BRANCH  38  40
HETATM   40  O1  UNL     1      23.397  48.918   3.834  1.00  0.00    -0.276 OA
BRANCH  40  41
HETATM   41  C11 UNL     1      22.572  49.910   4.529  1.00  0.00     0.247 C 
BRANCH  41  42
HETATM   42  C12 UNL     1      22.602  49.416   5.985  1.00  0.00     0.115 C 
HETATM   43  N2  UNL     1      22.455  48.153   6.129  1.00  0.00    -0.282 N 
ATOM     44  H2  UNL     1      22.332  47.548   5.317  1.00  0.00     0.193 HD
BRANCH  43  45
HETATM   45  O2  UNL     1      22.466  47.611   7.433  1.00  0.00    -0.290 OA
ATOM     46  H2  UNL     1      21.889  46.883   7.630  1.00  0.00     0.244 HD
ENDBRANCH  43  45
ENDBRANCH  41  42
ENDBRANCH  40  41
ENDBRANCH  38  40
ENDBRANCH  36  37
ENDBRANCH  34  35
ENDBRANCH  33  34
ENDBRANCH   2  33
TORSDOF 14
ENDMDL
