MODEL 1
REMARK VINA RESULT: -8.414638510      0.000      0.000
REMARK  15 active torsions:
REMARK  status: ('A' for Active; 'I' for Inactive)
REMARK    1  A    between atoms: O1_2  and  C2_3 
REMARK    2  A    between atoms: C2_3  and  C4_5 
REMARK    3  A    between atoms: C2_3  and  C16_22 
REMARK    4  A    between atoms: C4_5  and  C5_6 
REMARK    5  A    between atoms: C5_6  and  C6_7 
REMARK    6  A    between atoms: C6_7  and  C7_8 
REMARK    7  A    between atoms: C7_8  and  O2_9 
REMARK    8  A    between atoms: C7_8  and  C8_11 
REMARK    9  A    between atoms: C8_11  and  C9_13 
REMARK   10  A    between atoms: C9_13  and  C10_14 
REMARK   11  A    between atoms: C10_14  and  S1_15 
REMARK   12  A    between atoms: S1_15  and  C11_16 
REMARK   13  A    between atoms: C11_16  and  C12_17 
REMARK   14  A    between atoms: C21_27  and  C22_28 
REMARK   15  A    between atoms: C25_31  and  O4_32 
ROOT
HETATM    1  C16 UNL     1      19.386  48.131  -0.119  1.00  0.00     0.029 C 
HETATM    2  C17 UNL     1      18.072  48.853  -0.296  1.00  0.00     0.009 C 
HETATM    3  C18 UNL     1      17.255  48.057  -1.288  1.00  0.00     0.010 C 
HETATM    4  C19 UNL     1      18.090  46.861  -1.635  1.00  0.00     0.023 C 
HETATM    5  C20 UNL     1      18.281  46.724  -3.057  1.00  0.00    -0.074 C 
HETATM    6  C21 UNL     1      18.460  46.606  -4.338  1.00  0.00     0.003 C 
HETATM    7  C31 UNL     1      19.346  48.031  -2.587  1.00  0.00     0.044 C 
HETATM    8  C32 UNL     1      19.426  47.235  -1.332  1.00  0.00    -0.027 C 
HETATM    9  C33 UNL     1      20.553  46.243  -1.433  1.00  0.00     0.016 C 
ENDROOT
BRANCH   1  10
HETATM   10  C2  UNL     1      19.386  47.523   1.237  1.00  0.00     0.061 C 
HETATM   11  C3  UNL     1      19.481  46.063   1.376  1.00  0.00     0.046 C 
BRANCH  10  12
HETATM   12  O1  UNL     1      18.141  47.941   1.792  1.00  0.00    -0.385 OA
HETATM   13  C1  UNL     1      17.711  47.025   2.744  1.00  0.00     0.202 C 
ENDBRANCH  10  12
BRANCH  10  14
HETATM   14  C4  UNL     1      20.520  48.165   1.988  1.00  0.00     0.038 C 
BRANCH  14  15
HETATM   15  C5  UNL     1      21.868  47.901   1.281  1.00  0.00     0.006 C 
BRANCH  15  16
HETATM   16  C6  UNL     1      22.932  48.187   2.322  1.00  0.00     0.039 C 
BRANCH  16  17
HETATM   17  C7  UNL     1      22.483  49.040   3.475  1.00  0.00     0.187 C 
BRANCH  17  18
HETATM   18  O2  UNL     1      22.621  48.267   4.677  1.00  0.00    -0.388 OA
ATOM     19  H2  UNL     1      23.207  47.543   4.493  1.00  0.00     0.210 HD
ENDBRANCH  17  18
BRANCH  17  20
HETATM   20  C8  UNL     1      23.535  50.140   3.707  1.00  0.00     0.156 C 
HETATM   21  O3  UNL     1      23.460  50.860   4.650  1.00  0.00    -0.295 OA
BRANCH  20  22
HETATM   22  C9  UNL     1      24.625  50.270   2.722  1.00  0.00     0.091 C 
BRANCH  22  23
HETATM   23  C10 UNL     1      25.408  51.542   2.864  1.00  0.00     0.081 C 
BRANCH  23  24
HETATM   24  S1  UNL     1      26.632  51.591   1.499  1.00  0.00    -0.164 SA
BRANCH  24  25
HETATM   25  C11 UNL     1      26.266  50.359   0.253  1.00  0.00     0.112 C 
BRANCH  25  26
HETATM   26  C12 UNL     1      27.491  50.133  -0.631  1.00  0.00    -0.042 A 
HETATM   27  C13 UNL     1      28.496  51.013  -0.700  1.00  0.00     0.015 A 
HETATM   28  C14 UNL     1      29.578  50.684  -1.470  1.00  0.00     0.050 A 
HETATM   29  S2  UNL     1      29.157  49.151  -2.077  1.00  0.00    -0.113 SA
HETATM   30  C15 UNL     1      27.633  48.970  -1.343  1.00  0.00     0.057 A 
ENDBRANCH  25  26
ENDBRANCH  24  25
ENDBRANCH  23  24
ENDBRANCH  22  23
ENDBRANCH  20  22
ENDBRANCH  17  20
ENDBRANCH  16  17
ENDBRANCH  15  16
ENDBRANCH  14  15
ENDBRANCH  10  14
ENDBRANCH   1  10
BRANCH   6  31
HETATM   31  C22 UNL     1      17.641  45.546  -4.986  1.00  0.00     0.004 C 
HETATM   32  C23 UNL     1      18.160  44.407  -5.289  1.00  0.00    -0.062 C 
HETATM   33  C24 UNL     1      19.556  44.023  -5.039  1.00  0.00     0.067 C 
HETATM   34  C28 UNL     1      17.338  43.399  -6.056  1.00  0.00     0.037 C 
HETATM   35  C25 UNL     1      20.361  44.086  -6.343  1.00  0.00     0.129 C 
HETATM   36  C26 UNL     1      19.437  43.795  -7.521  1.00  0.00     0.111 C 
HETATM   37  C27 UNL     1      18.306  42.924  -7.127  1.00  0.00     0.141 C 
HETATM   38  O5  UNL     1      18.103  41.853  -7.609  1.00  0.00    -0.297 OA
HETATM   39  C29 UNL     1      16.966  42.275  -5.157  1.00  0.00     0.028 C 
HETATM   40  C30 UNL     1      16.182  44.037  -6.758  1.00  0.00     0.028 C 
BRANCH  35  41
HETATM   41  O4  UNL     1      21.300  43.077  -6.269  1.00  0.00    -0.395 OA
ATOM     42  H4  UNL     1      22.096  43.476  -5.939  1.00  0.00     0.210 HD
ENDBRANCH  35  41
ENDBRANCH   6  31
TORSDOF 15
ENDMDL
MODEL 2
REMARK VINA RESULT: -8.282334972      4.380     11.412
REMARK  15 active torsions:
REMARK  status: ('A' for Active; 'I' for Inactive)
REMARK    1  A    between atoms: O1_2  and  C2_3 
REMARK    2  A    between atoms: C2_3  and  C4_5 
REMARK    3  A    between atoms: C2_3  and  C16_22 
REMARK    4  A    between atoms: C4_5  and  C5_6 
REMARK    5  A    between atoms: C5_6  and  C6_7 
REMARK    6  A    between atoms: C6_7  and  C7_8 
REMARK    7  A    between atoms: C7_8  and  O2_9 
REMARK    8  A    between atoms: C7_8  and  C8_11 
REMARK    9  A    between atoms: C8_11  and  C9_13 
REMARK   10  A    between atoms: C9_13  and  C10_14 
REMARK   11  A    between atoms: C10_14  and  S1_15 
REMARK   12  A    between atoms: S1_15  and  C11_16 
REMARK   13  A    between atoms: C11_16  and  C12_17 
REMARK   14  A    between atoms: C21_27  and  C22_28 
REMARK   15  A    between atoms: C25_31  and  O4_32 
ROOT
HETATM    1  C16 UNL     1      19.480  45.938  -1.081  1.00  0.00     0.029 C 
HETATM    2  C17 UNL     1      18.115  46.126  -0.465  1.00  0.00     0.009 C 
HETATM    3  C18 UNL     1      18.185  47.358   0.409  1.00  0.00     0.010 C 
HETATM    4  C19 UNL     1      19.576  47.892   0.248  1.00  0.00     0.023 C 
HETATM    5  C20 UNL     1      20.244  48.064   1.514  1.00  0.00    -0.074 C 
HETATM    6  C21 UNL     1      20.848  48.210   2.654  1.00  0.00     0.003 C 
HETATM    7  C31 UNL     1      20.271  46.338   1.225  1.00  0.00     0.044 C 
HETATM    8  C32 UNL     1      20.353  46.788  -0.192  1.00  0.00    -0.027 C 
HETATM    9  C33 UNL     1      21.796  46.959  -0.584  1.00  0.00     0.016 C 
ENDROOT
BRANCH   1  10
HETATM   10  C2  UNL     1      19.370  46.269  -2.525  1.00  0.00     0.061 C 
HETATM   11  C3  UNL     1      19.831  47.580  -3.005  1.00  0.00     0.046 C 
BRANCH  10  12
HETATM   12  O1  UNL     1      17.973  46.168  -2.788  1.00  0.00    -0.385 OA
HETATM   13  C1  UNL     1      17.541  47.272  -3.513  1.00  0.00     0.202 C 
ENDBRANCH  10  12
BRANCH  10  14
HETATM   14  C4  UNL     1      20.107  45.187  -3.264  1.00  0.00     0.038 C 
BRANCH  14  15
HETATM   15  C5  UNL     1      19.909  45.328  -4.790  1.00  0.00     0.006 C 
BRANCH  15  16
HETATM   16  C6  UNL     1      20.508  44.074  -5.393  1.00  0.00     0.039 C 
BRANCH  16  17
HETATM   17  C7  UNL     1      19.898  43.639  -6.697  1.00  0.00     0.187 C 
BRANCH  17  18
HETATM   18  O2  UNL     1      20.940  43.606  -7.683  1.00  0.00    -0.388 OA
ATOM     19  H2  UNL     1      21.006  44.471  -8.068  1.00  0.00     0.210 HD
ENDBRANCH  17  18
BRANCH  17  20
HETATM   20  C8  UNL     1      19.540  42.145  -6.592  1.00  0.00     0.156 C 
HETATM   21  O3  UNL     1      19.955  41.485  -5.695  1.00  0.00    -0.295 OA
BRANCH  20  22
HETATM   22  C9  UNL     1      18.678  41.568  -7.640  1.00  0.00     0.091 C 
BRANCH  22  23
HETATM   23  C10 UNL     1      17.607  42.505  -8.114  1.00  0.00     0.081 C 
BRANCH  23  24
HETATM   24  S1  UNL     1      16.266  42.488  -6.862  1.00  0.00    -0.164 SA
BRANCH  24  25
HETATM   25  C11 UNL     1      16.301  43.965  -5.853  1.00  0.00     0.112 C 
BRANCH  25  26
HETATM   26  C12 UNL     1      16.287  43.586  -4.374  1.00  0.00    -0.042 A 
HETATM   27  C13 UNL     1      17.290  42.913  -3.798  1.00  0.00     0.015 A 
HETATM   28  C14 UNL     1      17.211  42.682  -2.452  1.00  0.00     0.050 A 
HETATM   29  S2  UNL     1      15.733  43.412  -2.030  1.00  0.00    -0.113 SA
HETATM   30  C15 UNL     1      15.260  43.988  -3.559  1.00  0.00     0.057 A 
ENDBRANCH  25  26
ENDBRANCH  24  25
ENDBRANCH  23  24
ENDBRANCH  22  23
ENDBRANCH  20  22
ENDBRANCH  17  20
ENDBRANCH  16  17
ENDBRANCH  15  16
ENDBRANCH  14  15
ENDBRANCH  10  14
ENDBRANCH   1  10
BRANCH   6  31
HETATM   31  C22 UNL     1      20.946  49.616   3.131  1.00  0.00     0.004 C 
HETATM   32  C23 UNL     1      21.778  49.940   4.059  1.00  0.00    -0.062 C 
HETATM   33  C24 UNL     1      22.699  49.011   4.726  1.00  0.00     0.067 C 
HETATM   34  C28 UNL     1      21.766  51.347   4.606  1.00  0.00     0.037 C 
HETATM   35  C25 UNL     1      22.171  48.659   6.123  1.00  0.00     0.129 C 
HETATM   36  C26 UNL     1      21.360  49.832   6.666  1.00  0.00     0.111 C 
HETATM   37  C27 UNL     1      21.823  51.123   6.108  1.00  0.00     0.141 C 
HETATM   38  O5  UNL     1      22.245  52.013   6.777  1.00  0.00    -0.297 OA
HETATM   39  C29 UNL     1      22.980  52.070   4.142  1.00  0.00     0.028 C 
HETATM   40  C30 UNL     1      20.480  52.052   4.313  1.00  0.00     0.028 C 
BRANCH  35  41
HETATM   41  O4  UNL     1      23.279  48.489   6.927  1.00  0.00    -0.395 OA
ATOM     42  H4  UNL     1      23.152  49.053   7.680  1.00  0.00     0.210 HD
ENDBRANCH  35  41
ENDBRANCH   6  31
TORSDOF 15
ENDMDL
MODEL 3
REMARK VINA RESULT: -8.216452096      4.445     11.461
REMARK  15 active torsions:
REMARK  status: ('A' for Active; 'I' for Inactive)
REMARK    1  A    between atoms: O1_2  and  C2_3 
REMARK    2  A    between atoms: C2_3  and  C4_5 
REMARK    3  A    between atoms: C2_3  and  C16_22 
REMARK    4  A    between atoms: C4_5  and  C5_6 
REMARK    5  A    between atoms: C5_6  and  C6_7 
REMARK    6  A    between atoms: C6_7  and  C7_8 
REMARK    7  A    between atoms: C7_8  and  O2_9 
REMARK    8  A    between atoms: C7_8  and  C8_11 
REMARK    9  A    between atoms: C8_11  and  C9_13 
REMARK   10  A    between atoms: C9_13  and  C10_14 
REMARK   11  A    between atoms: C10_14  and  S1_15 
REMARK   12  A    between atoms: S1_15  and  C11_16 
REMARK   13  A    between atoms: C11_16  and  C12_17 
REMARK   14  A    between atoms: C21_27  and  C22_28 
REMARK   15  A    between atoms: C25_31  and  O4_32 
ROOT
HETATM    1  C16 UNL     1      18.748  46.279  -0.761  1.00  0.00     0.029 C 
HETATM    2  C17 UNL     1      17.472  46.918  -0.267  1.00  0.00     0.009 C 
HETATM    3  C18 UNL     1      17.865  48.140   0.533  1.00  0.00     0.010 C 
HETATM    4  C19 UNL     1      19.361  48.217   0.448  1.00  0.00     0.023 C 
HETATM    5  C20 UNL     1      19.977  48.284   1.750  1.00  0.00    -0.074 C 
HETATM    6  C21 UNL     1      20.531  48.336   2.923  1.00  0.00     0.003 C 
HETATM    7  C31 UNL     1      19.492  46.612   1.571  1.00  0.00     0.044 C 
HETATM    8  C32 UNL     1      19.787  46.897   0.140  1.00  0.00    -0.027 C 
HETATM    9  C33 UNL     1      21.233  46.595  -0.147  1.00  0.00     0.016 C 
ENDROOT
BRANCH   1  10
HETATM   10  C2  UNL     1      18.826  46.507  -2.227  1.00  0.00     0.061 C 
HETATM   11  C3  UNL     1      19.772  47.499  -2.756  1.00  0.00     0.046 C 
BRANCH  10  12
HETATM   12  O1  UNL     1      17.507  46.925  -2.573  1.00  0.00    -0.385 OA
HETATM   13  C1  UNL     1      17.387  47.037  -3.952  1.00  0.00     0.202 C 
ENDBRANCH  10  12
BRANCH  10  14
HETATM   14  C4  UNL     1      19.115  45.169  -2.848  1.00  0.00     0.038 C 
BRANCH  14  15
HETATM   15  C5  UNL     1      20.497  45.170  -3.540  1.00  0.00     0.006 C 
BRANCH  15  16
HETATM   16  C6  UNL     1      20.227  44.787  -4.981  1.00  0.00     0.039 C 
BRANCH  16  17
HETATM   17  C7  UNL     1      20.868  43.503  -5.430  1.00  0.00     0.187 C 
BRANCH  17  18
HETATM   18  O2  UNL     1      20.282  42.430  -4.680  1.00  0.00    -0.388 OA
ATOM     19  H2  UNL     1      19.368  42.365  -4.927  1.00  0.00     0.210 HD
ENDBRANCH  17  18
BRANCH  17  20
HETATM   20  C8  UNL     1      20.369  43.180  -6.851  1.00  0.00     0.156 C 
HETATM   21  O3  UNL     1      20.331  44.026  -7.685  1.00  0.00    -0.295 OA
BRANCH  20  22
HETATM   22  C9  UNL     1      19.938  41.798  -7.132  1.00  0.00     0.091 C 
BRANCH  22  23
HETATM   23  C10 UNL     1      19.261  41.644  -8.462  1.00  0.00     0.081 C 
BRANCH  23  24
HETATM   24  S1  UNL     1      17.452  41.751  -8.176  1.00  0.00    -0.164 SA
BRANCH  24  25
HETATM   25  C11 UNL     1      16.939  43.440  -7.884  1.00  0.00     0.112 C 
BRANCH  25  26
HETATM   26  C12 UNL     1      16.322  43.564  -6.492  1.00  0.00    -0.042 A 
HETATM   27  C13 UNL     1      16.866  42.987  -5.414  1.00  0.00     0.015 A 
HETATM   28  C14 UNL     1      16.273  43.216  -4.203  1.00  0.00     0.050 A 
HETATM   29  S2  UNL     1      14.968  44.231  -4.607  1.00  0.00    -0.113 SA
HETATM   30  C15 UNL     1      15.210  44.339  -6.288  1.00  0.00     0.057 A 
ENDBRANCH  25  26
ENDBRANCH  24  25
ENDBRANCH  23  24
ENDBRANCH  22  23
ENDBRANCH  20  22
ENDBRANCH  17  20
ENDBRANCH  16  17
ENDBRANCH  15  16
ENDBRANCH  14  15
ENDBRANCH  10  14
ENDBRANCH   1  10
BRANCH   6  31
HETATM   31  C22 UNL     1      21.026  49.682   3.319  1.00  0.00     0.004 C 
HETATM   32  C23 UNL     1      21.893  49.814   4.262  1.00  0.00    -0.062 C 
HETATM   33  C24 UNL     1      22.482  48.705   5.025  1.00  0.00     0.067 C 
HETATM   34  C28 UNL     1      22.282  51.198   4.723  1.00  0.00     0.037 C 
HETATM   35  C25 UNL     1      21.838  48.622   6.415  1.00  0.00     0.129 C 
HETATM   36  C26 UNL     1      21.395  50.016   6.850  1.00  0.00     0.111 C 
HETATM   37  C27 UNL     1      22.232  51.073   6.236  1.00  0.00     0.141 C 
HETATM   38  O5  UNL     1      22.880  51.846   6.869  1.00  0.00    -0.297 OA
HETATM   39  C29 UNL     1      23.666  51.499   4.272  1.00  0.00     0.028 C 
HETATM   40  C30 UNL     1      21.268  52.224   4.331  1.00  0.00     0.028 C 
BRANCH  35  41
HETATM   41  O4  UNL     1      22.827  48.194   7.277  1.00  0.00    -0.395 OA
ATOM     42  H4  UNL     1      23.184  48.974   7.684  1.00  0.00     0.210 HD
ENDBRANCH  35  41
ENDBRANCH   6  31
TORSDOF 15
ENDMDL
MODEL 4
REMARK VINA RESULT: -8.139337468      6.380     12.332
REMARK  15 active torsions:
REMARK  status: ('A' for Active; 'I' for Inactive)
REMARK    1  A    between atoms: O1_2  and  C2_3 
REMARK    2  A    between atoms: C2_3  and  C4_5 
REMARK    3  A    between atoms: C2_3  and  C16_22 
REMARK    4  A    between atoms: C4_5  and  C5_6 
REMARK    5  A    between atoms: C5_6  and  C6_7 
REMARK    6  A    between atoms: C6_7  and  C7_8 
REMARK    7  A    between atoms: C7_8  and  O2_9 
REMARK    8  A    between atoms: C7_8  and  C8_11 
REMARK    9  A    between atoms: C8_11  and  C9_13 
REMARK   10  A    between atoms: C9_13  and  C10_14 
REMARK   11  A    between atoms: C10_14  and  S1_15 
REMARK   12  A    between atoms: S1_15  and  C11_16 
REMARK   13  A    between atoms: C11_16  and  C12_17 
REMARK   14  A    between atoms: C21_27  and  C22_28 
REMARK   15  A    between atoms: C25_31  and  O4_32 
ROOT
HETATM    1  C16 UNL     1      29.574  49.835  -1.908  1.00  0.00     0.029 C 
HETATM    2  C17 UNL     1      30.134  51.084  -1.272  1.00  0.00     0.009 C 
HETATM    3  C18 UNL     1      30.450  52.052  -2.390  1.00  0.00     0.010 C 
HETATM    4  C19 UNL     1      30.022  51.367  -3.653  1.00  0.00     0.023 C 
HETATM    5  C20 UNL     1      31.084  51.306  -4.626  1.00  0.00    -0.074 C 
HETATM    6  C21 UNL     1      32.043  51.244  -5.499  1.00  0.00     0.003 C 
HETATM    7  C31 UNL     1      31.495  50.086  -3.440  1.00  0.00     0.044 C 
HETATM    8  C32 UNL     1      30.013  49.980  -3.343  1.00  0.00    -0.027 C 
HETATM    9  C33 UNL     1      29.513  48.966  -4.336  1.00  0.00     0.016 C 
ENDROOT
BRANCH   1  10
HETATM   10  C2  UNL     1      28.123  49.782  -1.592  1.00  0.00     0.061 C 
HETATM   11  C3  UNL     1      27.518  48.510  -1.171  1.00  0.00     0.046 C 
BRANCH  10  12
HETATM   12  O1  UNL     1      27.499  50.187  -2.809  1.00  0.00    -0.385 OA
HETATM   13  C1  UNL     1      26.617  51.233  -2.569  1.00  0.00     0.202 C 
ENDBRANCH  10  12
BRANCH  10  14
HETATM   14  C4  UNL     1      27.884  50.818  -0.528  1.00  0.00     0.038 C 
BRANCH  14  15
HETATM   15  C5  UNL     1      26.776  50.360   0.447  1.00  0.00     0.006 C 
BRANCH  15  16
HETATM   16  C6  UNL     1      26.658  51.469   1.473  1.00  0.00     0.039 C 
BRANCH  16  17
HETATM   17  C7  UNL     1      25.622  51.244   2.538  1.00  0.00     0.187 C 
BRANCH  17  18
HETATM   18  O2  UNL     1      26.292  50.765   3.713  1.00  0.00    -0.388 OA
ATOM     19  H2  UNL     1      25.630  50.500   4.340  1.00  0.00     0.210 HD
ENDBRANCH  17  18
BRANCH  17  20
HETATM   20  C8  UNL     1      25.116  52.616   3.023  1.00  0.00     0.156 C 
HETATM   21  O3  UNL     1      25.387  53.606   2.425  1.00  0.00    -0.295 OA
BRANCH  20  22
HETATM   22  C9  UNL     1      24.297  52.655   4.249  1.00  0.00     0.091 C 
BRANCH  22  23
HETATM   23  C10 UNL     1      22.894  52.165   4.044  1.00  0.00     0.081 C 
BRANCH  23  24
HETATM   24  S1  UNL     1      22.568  50.879   5.312  1.00  0.00    -0.164 SA
BRANCH  24  25
HETATM   25  C11 UNL     1      23.171  49.279   4.784  1.00  0.00     0.112 C 
BRANCH  25  26
HETATM   26  C12 UNL     1      22.462  48.853   3.501  1.00  0.00    -0.042 A 
HETATM   27  C13 UNL     1      23.131  48.513   2.393  1.00  0.00     0.015 A 
HETATM   28  C14 UNL     1      22.404  48.081   1.318  1.00  0.00     0.050 A 
HETATM   29  S2  UNL     1      20.803  48.162   1.888  1.00  0.00    -0.113 SA
HETATM   30  C15 UNL     1      21.096  48.737   3.462  1.00  0.00     0.057 A 
ENDBRANCH  25  26
ENDBRANCH  24  25
ENDBRANCH  23  24
ENDBRANCH  22  23
ENDBRANCH  20  22
ENDBRANCH  17  20
ENDBRANCH  16  17
ENDBRANCH  15  16
ENDBRANCH  14  15
ENDBRANCH  10  14
ENDBRANCH   1  10
BRANCH   6  31
HETATM   31  C22 UNL     1      31.925  52.211  -6.624  1.00  0.00     0.004 C 
HETATM   32  C23 UNL     1      32.959  52.549  -7.313  1.00  0.00    -0.062 C 
HETATM   33  C24 UNL     1      34.321  52.042  -7.093  1.00  0.00     0.067 C 
HETATM   34  C28 UNL     1      32.829  53.623  -8.366  1.00  0.00     0.037 C 
HETATM   35  C25 UNL     1      35.167  53.103  -6.378  1.00  0.00     0.129 C 
HETATM   36  C26 UNL     1      34.663  54.492  -6.757  1.00  0.00     0.111 C 
HETATM   37  C27 UNL     1      34.041  54.500  -8.102  1.00  0.00     0.141 C 
HETATM   38  O5  UNL     1      34.440  55.166  -9.005  1.00  0.00    -0.297 OA
HETATM   39  C29 UNL     1      32.918  53.006  -9.716  1.00  0.00     0.028 C 
HETATM   40  C30 UNL     1      31.616  54.471  -8.154  1.00  0.00     0.028 C 
BRANCH  35  41
HETATM   41  O4  UNL     1      36.453  52.963  -6.859  1.00  0.00    -0.395 OA
ATOM     42  H4  UNL     1      36.976  52.639  -6.136  1.00  0.00     0.210 HD
ENDBRANCH  35  41
ENDBRANCH   6  31
TORSDOF 15
ENDMDL
MODEL 5
REMARK VINA RESULT: -8.125823182      5.643      9.878
REMARK  15 active torsions:
REMARK  status: ('A' for Active; 'I' for Inactive)
REMARK    1  A    between atoms: O1_2  and  C2_3 
REMARK    2  A    between atoms: C2_3  and  C4_5 
REMARK    3  A    between atoms: C2_3  and  C16_22 
REMARK    4  A    between atoms: C4_5  and  C5_6 
REMARK    5  A    between atoms: C5_6  and  C6_7 
REMARK    6  A    between atoms: C6_7  and  C7_8 
REMARK    7  A    between atoms: C7_8  and  O2_9 
REMARK    8  A    between atoms: C7_8  and  C8_11 
REMARK    9  A    between atoms: C8_11  and  C9_13 
REMARK   10  A    between atoms: C9_13  and  C10_14 
REMARK   11  A    between atoms: C10_14  and  S1_15 
REMARK   12  A    between atoms: S1_15  and  C11_16 
REMARK   13  A    between atoms: C11_16  and  C12_17 
REMARK   14  A    between atoms: C21_27  and  C22_28 
REMARK   15  A    between atoms: C25_31  and  O4_32 
ROOT
HETATM    1  C16 UNL     1      25.020  52.771   5.560  1.00  0.00     0.029 C 
HETATM    2  C17 UNL     1      26.406  53.347   5.728  1.00  0.00     0.009 C 
HETATM    3  C18 UNL     1      26.997  53.500   4.344  1.00  0.00     0.010 C 
HETATM    4  C19 UNL     1      25.926  53.055   3.393  1.00  0.00     0.023 C 
HETATM    5  C20 UNL     1      26.389  52.030   2.492  1.00  0.00    -0.074 C 
HETATM    6  C21 UNL     1      26.804  51.102   1.685  1.00  0.00     0.003 C 
HETATM    7  C31 UNL     1      26.156  51.209   4.019  1.00  0.00     0.044 C 
HETATM    8  C32 UNL     1      25.070  52.218   4.157  1.00  0.00    -0.027 C 
HETATM    9  C33 UNL     1      23.795  51.671   3.575  1.00  0.00     0.016 C 
ENDROOT
BRANCH   1  10
HETATM   10  C2  UNL     1      24.046  53.844   5.885  1.00  0.00     0.061 C 
HETATM   11  C3  UNL     1      23.360  54.555   4.797  1.00  0.00     0.046 C 
BRANCH  10  12
HETATM   12  O1  UNL     1      24.821  54.793   6.614  1.00  0.00    -0.385 OA
HETATM   13  C1  UNL     1      24.136  55.997   6.712  1.00  0.00     0.202 C 
ENDBRANCH  10  12
BRANCH  10  14
HETATM   14  C4  UNL     1      23.019  53.222   6.792  1.00  0.00     0.038 C 
BRANCH  14  15
HETATM   15  C5  UNL     1      23.670  52.178   7.727  1.00  0.00     0.006 C 
BRANCH  15  16
HETATM   16  C6  UNL     1      22.676  51.037   7.812  1.00  0.00     0.039 C 
BRANCH  16  17
HETATM   17  C7  UNL     1      22.837  49.972   6.764  1.00  0.00     0.187 C 
BRANCH  17  18
HETATM   18  O2  UNL     1      23.281  48.773   7.417  1.00  0.00    -0.388 OA
ATOM     19  H2  UNL     1      23.951  49.013   8.045  1.00  0.00     0.210 HD
ENDBRANCH  17  18
BRANCH  17  20
HETATM   20  C8  UNL     1      21.437  49.547   6.282  1.00  0.00     0.156 C 
HETATM   21  O3  UNL     1      20.969  48.510   6.624  1.00  0.00    -0.295 OA
BRANCH  20  22
HETATM   22  C9  UNL     1      20.710  50.463   5.384  1.00  0.00     0.091 C 
BRANCH  22  23
HETATM   23  C10 UNL     1      19.404  49.909   4.898  1.00  0.00     0.081 C 
BRANCH  23  24
HETATM   24  S1  UNL     1      19.711  49.125   3.268  1.00  0.00    -0.164 SA
BRANCH  24  25
HETATM   25  C11 UNL     1      21.443  48.731   3.052  1.00  0.00     0.112 C 
BRANCH  25  26
HETATM   26  C12 UNL     1      21.672  48.128   1.668  1.00  0.00    -0.042 A 
HETATM   27  C13 UNL     1      22.857  48.184   1.049  1.00  0.00     0.015 A 
HETATM   28  C14 UNL     1      22.975  47.554  -0.158  1.00  0.00     0.050 A 
HETATM   29  S2  UNL     1      21.423  46.900  -0.397  1.00  0.00    -0.113 SA
HETATM   30  C15 UNL     1      20.672  47.439   1.032  1.00  0.00     0.057 A 
ENDBRANCH  25  26
ENDBRANCH  24  25
ENDBRANCH  23  24
ENDBRANCH  22  23
ENDBRANCH  20  22
ENDBRANCH  17  20
ENDBRANCH  16  17
ENDBRANCH  15  16
ENDBRANCH  14  15
ENDBRANCH  10  14
ENDBRANCH   1  10
BRANCH   6  31
HETATM   31  C22 UNL     1      27.088  51.562   0.298  1.00  0.00     0.004 C 
HETATM   32  C23 UNL     1      27.393  50.718  -0.626  1.00  0.00    -0.062 C 
HETATM   33  C24 UNL     1      27.487  49.264  -0.441  1.00  0.00     0.067 C 
HETATM   34  C28 UNL     1      27.795  51.227  -1.989  1.00  0.00     0.037 C 
HETATM   35  C25 UNL     1      28.958  48.837  -0.368  1.00  0.00     0.129 C 
HETATM   36  C26 UNL     1      29.805  49.800  -1.194  1.00  0.00     0.111 C 
HETATM   37  C27 UNL     1      29.028  50.397  -2.305  1.00  0.00     0.141 C 
HETATM   38  O5  UNL     1      29.317  50.265  -3.453  1.00  0.00    -0.297 OA
HETATM   39  C29 UNL     1      26.711  50.938  -2.965  1.00  0.00     0.028 C 
HETATM   40  C30 UNL     1      28.224  52.659  -1.949  1.00  0.00     0.028 C 
BRANCH  35  41
HETATM   41  O4  UNL     1      29.030  47.588  -0.950  1.00  0.00    -0.395 OA
ATOM     42  H4  UNL     1      29.116  47.733  -1.885  1.00  0.00     0.210 HD
ENDBRANCH  35  41
ENDBRANCH   6  31
TORSDOF 15
ENDMDL
