MODEL 1
REMARK VINA RESULT: -6.000766070      0.000      0.000
REMARK  4 active torsions:
REMARK  status: ('A' for Active; 'I' for Inactive)
REMARK    1  A    between atoms: O1_2  and  C2_3 
REMARK    2  A    between atoms: C5_6  and  S1_7 
REMARK    3  A    between atoms: S1_7  and  C6_8 
REMARK    4  A    between atoms: C7_13  and  O2_14 
ROOT
HETATM    1  C2  UNL     1      32.931   0.826   9.954  1.00  0.00     0.152 C 
HETATM    2  C3  UNL     1      32.723   1.005   8.465  1.00  0.00     0.036 C 
HETATM    3  C4  UNL     1      33.122   2.332   7.950  1.00  0.00     0.021 C 
HETATM    4  C5  UNL     1      34.547   2.633   7.765  1.00  0.00     0.086 C 
HETATM    5  C7  UNL     1      35.521   1.798   8.564  1.00  0.00     0.164 C 
HETATM    6  C8  UNL     1      35.084   1.791   9.966  1.00  0.00     0.183 A 
HETATM    7  O3  UNL     1      35.285   0.889  10.930  1.00  0.00    -0.370 OA
HETATM    8  C9  UNL     1      34.351   0.444  10.109  1.00  0.00     0.182 A 
ENDROOT
BRANCH   4   9
HETATM    9  S1  UNL     1      34.834   4.360   8.278  1.00  0.00    -0.090 SA
BRANCH   9  10
HETATM   10  C6  UNL     1      34.968   5.432   6.860  1.00  0.00     0.148 C 
HETATM   11  N1  UNL     1      35.323   4.976   5.713  1.00  0.00    -0.382 N 
ATOM     12  H12 UNL     1      35.537   3.987   5.586  1.00  0.00     0.157 HD
ATOM     13  H11 UNL     1      35.399   5.589   4.902  1.00  0.00     0.157 HD
HETATM   14  N2  UNL     1      34.670   6.806   7.037  1.00  0.00    -0.075 NA
ENDBRANCH   9  10
ENDBRANCH   4   9
BRANCH   5  15
HETATM   15  O2  UNL     1      36.755   2.458   8.479  1.00  0.00    -0.392 OA
ATOM     16  H2  UNL     1      36.765   3.087   9.191  1.00  0.00     0.210 HD
ENDBRANCH   5  15
BRANCH   1  17
HETATM   17  O1  UNL     1      32.119  -0.107  10.522  1.00  0.00    -0.388 OA
HETATM   18  C1  UNL     1      31.399   0.329  11.620  1.00  0.00     0.202 C 
ENDBRANCH   1  17
TORSDOF 4
ENDMDL
MODEL 2
REMARK VINA RESULT: -5.829142785      3.922      5.344
REMARK  4 active torsions:
REMARK  status: ('A' for Active; 'I' for Inactive)
REMARK    1  A    between atoms: O1_2  and  C2_3 
REMARK    2  A    between atoms: C5_6  and  S1_7 
REMARK    3  A    between atoms: S1_7  and  C6_8 
REMARK    4  A    between atoms: C7_13  and  O2_14 
ROOT
HETATM    1  C2  UNL     1      34.882   1.262   7.129  1.00  0.00     0.152 C 
HETATM    2  C3  UNL     1      33.703   2.123   7.531  1.00  0.00     0.036 C 
HETATM    3  C4  UNL     1      32.732   1.449   8.419  1.00  0.00     0.021 C 
HETATM    4  C5  UNL     1      33.058   1.270   9.838  1.00  0.00     0.086 C 
HETATM    5  C7  UNL     1      34.524   1.316  10.204  1.00  0.00     0.164 C 
HETATM    6  C8  UNL     1      35.254   0.417   9.300  1.00  0.00     0.183 A 
HETATM    7  O3  UNL     1      36.527   0.444   8.896  1.00  0.00    -0.370 OA
HETATM    8  C9  UNL     1      35.846   1.370   8.245  1.00  0.00     0.182 A 
ENDROOT
BRANCH   4   9
HETATM    9  S1  UNL     1      32.467  -0.377  10.355  1.00  0.00    -0.090 SA
BRANCH   9  10
HETATM   10  C6  UNL     1      31.018  -0.240  11.383  1.00  0.00     0.148 C 
HETATM   11  N1  UNL     1      30.154  -1.188  11.444  1.00  0.00    -0.382 N 
ATOM     12  H12 UNL     1      30.277  -2.045  10.905  1.00  0.00     0.157 HD
ATOM     13  H11 UNL     1      29.325  -1.110  12.033  1.00  0.00     0.157 HD
HETATM   14  N2  UNL     1      30.846   0.950  12.132  1.00  0.00    -0.075 NA
ENDBRANCH   9  10
ENDBRANCH   4   9
BRANCH   5  15
HETATM   15  O2  UNL     1      34.613   0.812  11.509  1.00  0.00    -0.392 OA
ATOM     16  H2  UNL     1      34.336  -0.095  11.459  1.00  0.00     0.210 HD
ENDBRANCH   5  15
BRANCH   1  17
HETATM   17  O1  UNL     1      35.465   1.627   5.955  1.00  0.00    -0.388 OA
HETATM   18  C1  UNL     1      36.139   2.834   5.982  1.00  0.00     0.202 C 
ENDBRANCH   1  17
TORSDOF 4
ENDMDL
MODEL 3
REMARK VINA RESULT: -5.713696145      1.115      1.115
REMARK  4 active torsions:
REMARK  status: ('A' for Active; 'I' for Inactive)
REMARK    1  A    between atoms: O1_2  and  C2_3 
REMARK    2  A    between atoms: C5_6  and  S1_7 
REMARK    3  A    between atoms: S1_7  and  C6_8 
REMARK    4  A    between atoms: C7_13  and  O2_14 
ROOT
HETATM    1  C2  UNL     1      32.561   1.164   9.791  1.00  0.00     0.152 C 
HETATM    2  C3  UNL     1      32.630   1.070   8.282  1.00  0.00     0.036 C 
HETATM    3  C4  UNL     1      33.567   2.026   7.654  1.00  0.00     0.021 C 
HETATM    4  C5  UNL     1      35.010   1.765   7.716  1.00  0.00     0.086 C 
HETATM    5  C7  UNL     1      35.482   0.842   8.816  1.00  0.00     0.164 C 
HETATM    6  C8  UNL     1      34.898   1.298  10.084  1.00  0.00     0.183 A 
HETATM    7  O3  UNL     1      34.615   0.620  11.199  1.00  0.00    -0.370 OA
HETATM    8  C9  UNL     1      33.696   0.356  10.287  1.00  0.00     0.182 A 
ENDROOT
BRANCH   4   9
HETATM    9  S1  UNL     1      35.864   3.352   7.996  1.00  0.00    -0.090 SA
BRANCH   9  10
HETATM   10  C6  UNL     1      34.758   4.726   7.740  1.00  0.00     0.148 C 
HETATM   11  N1  UNL     1      34.588   5.233   6.572  1.00  0.00    -0.382 N 
ATOM     12  H12 UNL     1      35.084   4.862   5.762  1.00  0.00     0.157 HD
ATOM     13  H11 UNL     1      33.955   6.019   6.425  1.00  0.00     0.157 HD
HETATM   14  N2  UNL     1      34.070   5.242   8.865  1.00  0.00    -0.075 NA
ENDBRANCH   9  10
ENDBRANCH   4   9
BRANCH   5  15
HETATM   15  O2  UNL     1      36.874   0.996   8.879  1.00  0.00    -0.392 OA
ATOM     16  H2  UNL     1      37.065   1.825   8.455  1.00  0.00     0.210 HD
ENDBRANCH   5  15
BRANCH   1  17
HETATM   17  O1  UNL     1      31.390   0.722  10.324  1.00  0.00    -0.388 OA
HETATM   18  C1  UNL     1      31.369   0.627  11.704  1.00  0.00     0.202 C 
ENDBRANCH   1  17
TORSDOF 4
ENDMDL
MODEL 4
REMARK VINA RESULT: -5.641825376      3.147      3.987
REMARK  4 active torsions:
REMARK  status: ('A' for Active; 'I' for Inactive)
REMARK    1  A    between atoms: O1_2  and  C2_3 
REMARK    2  A    between atoms: C5_6  and  S1_7 
REMARK    3  A    between atoms: S1_7  and  C6_8 
REMARK    4  A    between atoms: C7_13  and  O2_14 
ROOT
HETATM    1  C2  UNL     1      32.993   0.832   9.486  1.00  0.00     0.152 C 
HETATM    2  C3  UNL     1      34.293   1.050  10.230  1.00  0.00     0.036 C 
HETATM    3  C4  UNL     1      35.476   0.445   9.581  1.00  0.00     0.021 C 
HETATM    4  C5  UNL     1      36.063   1.097   8.405  1.00  0.00     0.086 C 
HETATM    5  C7  UNL     1      35.162   2.034   7.633  1.00  0.00     0.164 C 
HETATM    6  C8  UNL     1      33.895   1.341   7.367  1.00  0.00     0.183 A 
HETATM    7  O3  UNL     1      32.668   1.829   7.163  1.00  0.00    -0.370 OA
HETATM    8  C9  UNL     1      32.950   1.888   8.453  1.00  0.00     0.182 A 
ENDROOT
BRANCH   4   9
HETATM    9  S1  UNL     1      36.562  -0.201   7.224  1.00  0.00    -0.090 SA
BRANCH   9  10
HETATM   10  C6  UNL     1      38.311  -0.122   6.892  1.00  0.00     0.148 C 
HETATM   11  N1  UNL     1      39.085  -1.111   7.163  1.00  0.00    -0.382 N 
ATOM     12  H12 UNL     1      38.716  -1.967   7.576  1.00  0.00     0.157 HD
ATOM     13  H11 UNL     1      40.085  -1.066   6.972  1.00  0.00     0.157 HD
HETATM   14  N2  UNL     1      38.824   1.068   6.319  1.00  0.00    -0.075 NA
ENDBRANCH   9  10
ENDBRANCH   4   9
BRANCH   5  15
HETATM   15  O2  UNL     1      35.810   2.274   6.413  1.00  0.00    -0.392 OA
ATOM     16  H2  UNL     1      35.208   2.796   5.896  1.00  0.00     0.210 HD
ENDBRANCH   5  15
BRANCH   1  17
HETATM   17  O1  UNL     1      31.884   0.886  10.273  1.00  0.00    -0.388 OA
HETATM   18  C1  UNL     1      31.835  -0.052  11.288  1.00  0.00     0.202 C 
ENDBRANCH   1  17
TORSDOF 4
ENDMDL
MODEL 5
REMARK VINA RESULT: -5.583328243      1.083      1.159
REMARK  4 active torsions:
REMARK  status: ('A' for Active; 'I' for Inactive)
REMARK    1  A    between atoms: O1_2  and  C2_3 
REMARK    2  A    between atoms: C5_6  and  S1_7 
REMARK    3  A    between atoms: S1_7  and  C6_8 
REMARK    4  A    between atoms: C7_13  and  O2_14 
ROOT
HETATM    1  C2  UNL     1      34.134   0.997  10.154  1.00  0.00     0.152 C 
HETATM    2  C3  UNL     1      33.184   1.483   9.079  1.00  0.00     0.036 C 
HETATM    3  C4  UNL     1      33.572   2.767   8.458  1.00  0.00     0.021 C 
HETATM    4  C5  UNL     1      34.662   2.791   7.476  1.00  0.00     0.086 C 
HETATM    5  C7  UNL     1      35.641   1.640   7.526  1.00  0.00     0.164 C 
HETATM    6  C8  UNL     1      36.086   1.472   8.916  1.00  0.00     0.183 A 
HETATM    7  O3  UNL     1      36.536   0.388   9.554  1.00  0.00    -0.370 OA
HETATM    8  C9  UNL     1      35.223   0.305   9.432  1.00  0.00     0.182 A 
ENDROOT
BRANCH   4   9
HETATM    9  S1  UNL     1      35.651   4.298   7.761  1.00  0.00    -0.090 SA
BRANCH   9  10
HETATM   10  C6  UNL     1      35.311   5.528   6.516  1.00  0.00     0.148 C 
HETATM   11  N1  UNL     1      35.628   5.335   5.287  1.00  0.00    -0.382 N 
ATOM     12  H12 UNL     1      36.083   4.471   4.992  1.00  0.00     0.157 HD
ATOM     13  H11 UNL     1      35.433   6.038   4.575  1.00  0.00     0.157 HD
HETATM   14  N2  UNL     1      34.679   6.728   6.925  1.00  0.00    -0.075 NA
ENDBRANCH   9  10
ENDBRANCH   4   9
BRANCH   5  15
HETATM   15  O2  UNL     1      36.737   2.031   6.745  1.00  0.00    -0.392 OA
ATOM     16  H2  UNL     1      36.509   1.816   5.848  1.00  0.00     0.210 HD
ENDBRANCH   5  15
BRANCH   1  17
HETATM   17  O1  UNL     1      33.564   0.168  11.070  1.00  0.00    -0.388 OA
HETATM   18  C1  UNL     1      32.232  -0.130  10.846  1.00  0.00     0.202 C 
ENDBRANCH   1  17
TORSDOF 4
ENDMDL
