MODEL 1
REMARK VINA RESULT: -8.559039075      0.000      0.000
REMARK  6 active torsions:
REMARK  status: ('A' for Active; 'I' for Inactive)
REMARK    1  A    between atoms: C2_2  and  O2_4 
REMARK    2  A    between atoms: O2_4  and  C3_5 
REMARK    3  A    between atoms: C6_8  and  O3_10 
REMARK    4  A    between atoms: C10_14  and  C11_15 
REMARK    5  A    between atoms: C11_15  and  C12_16 
REMARK    6  A    between atoms: C19_24  and  C20_25 
ROOT
HETATM    1  C3  UNL     1     -22.163 -17.255  12.157  1.00  0.00     0.089 A 
HETATM    2  C4  UNL     1     -22.708 -17.920  13.148  1.00  0.00     0.015 A 
HETATM    3  C5  UNL     1     -22.723 -17.420  14.524  1.00  0.00     0.072 A 
HETATM    4  C6  UNL     1     -22.160 -16.097  14.814  1.00  0.00     0.085 A 
HETATM    5  C7  UNL     1     -21.151 -16.257  15.964  1.00  0.00     0.051 C 
HETATM    6  C8  UNL     1     -21.521 -15.414  13.672  1.00  0.00    -0.008 A 
HETATM    7  C9  UNL     1     -20.893 -14.178  13.893  1.00  0.00     0.019 A 
HETATM    8  C10 UNL     1     -20.288 -13.476  12.883  1.00  0.00    -0.045 A 
HETATM    9  C16 UNL     1     -20.325 -14.042  11.643  1.00  0.00    -0.010 A 
HETATM   10  C17 UNL     1     -20.930 -15.258  11.374  1.00  0.00     0.091 A 
HETATM   11  C18 UNL     1     -21.548 -15.978  12.391  1.00  0.00     0.041 A 
HETATM   12  O4  UNL     1     -20.937 -15.789  10.094  1.00  0.00    -0.333 OA
HETATM   13  C19 UNL     1     -19.824 -15.532   9.257  1.00  0.00     0.221 C 
HETATM   14  C24 UNL     1     -19.051 -14.356   9.658  1.00  0.00     0.164 C 
HETATM   15  O5  UNL     1     -17.895 -14.192   9.320  1.00  0.00    -0.294 OA
HETATM   16  C25 UNL     1     -19.685 -13.314  10.511  1.00  0.00     0.123 C 
ENDROOT
BRANCH   8  17
HETATM   17  C11 UNL     1     -19.617 -12.168  13.092  1.00  0.00     0.066 C 
BRANCH  17  18
HETATM   18  C12 UNL     1     -18.277 -12.290  13.670  1.00  0.00    -0.020 C 
HETATM   19  C13 UNL     1     -17.685 -11.213  14.162  1.00  0.00    -0.091 C 
HETATM   20  C14 UNL     1     -16.306 -11.320  14.761  1.00  0.00     0.042 C 
HETATM   21  C15 UNL     1     -18.319  -9.873  14.159  1.00  0.00     0.042 C 
ENDBRANCH  17  18
ENDBRANCH   8  17
BRANCH   4  22
HETATM   22  O3  UNL     1     -23.223 -15.290  15.317  1.00  0.00    -0.385 OA
ATOM     23  H3  UNL     1     -23.322 -14.556  14.723  1.00  0.00     0.211 HD
ENDBRANCH   4  22
BRANCH   1  24
HETATM   24  O2  UNL     1     -22.179 -17.793  10.850  1.00  0.00    -0.279 OA
BRANCH  24  25
HETATM   25  C2  UNL     1     -21.800 -19.134  10.668  1.00  0.00     0.260 C 
HETATM   26  C1  UNL     1     -20.521 -19.676  11.139  1.00  0.00     0.126 C 
HETATM   27  O1  UNL     1     -22.619 -19.878  10.072  1.00  0.00    -0.265 OA
ENDBRANCH  24  25
ENDBRANCH   1  24
BRANCH  13  28
HETATM   28  C20 UNL     1     -18.974 -16.744   9.140  1.00  0.00     0.015 C 
HETATM   29  C21 UNL     1     -19.268 -17.719   8.310  1.00  0.00    -0.088 C 
HETATM   30  C22 UNL     1     -20.484 -17.612   7.459  1.00  0.00     0.042 C 
HETATM   31  C23 UNL     1     -18.422 -18.929   8.190  1.00  0.00     0.042 C 
ENDBRANCH  13  28
TORSDOF 6
ENDMDL
MODEL 2
REMARK VINA RESULT: -8.546373168      1.265      1.679
REMARK  6 active torsions:
REMARK  status: ('A' for Active; 'I' for Inactive)
REMARK    1  A    between atoms: C2_2  and  O2_4 
REMARK    2  A    between atoms: O2_4  and  C3_5 
REMARK    3  A    between atoms: C6_8  and  O3_10 
REMARK    4  A    between atoms: C10_14  and  C11_15 
REMARK    5  A    between atoms: C11_15  and  C12_16 
REMARK    6  A    between atoms: C19_24  and  C20_25 
ROOT
HETATM    1  C3  UNL     1     -22.120 -18.517  12.655  1.00  0.00     0.089 A 
HETATM    2  C4  UNL     1     -22.524 -19.005  13.804  1.00  0.00     0.015 A 
HETATM    3  C5  UNL     1     -22.657 -18.185  15.010  1.00  0.00     0.072 A 
HETATM    4  C6  UNL     1     -22.385 -16.745  14.935  1.00  0.00     0.085 A 
HETATM    5  C7  UNL     1     -21.376 -16.399  16.043  1.00  0.00     0.051 C 
HETATM    6  C8  UNL     1     -21.891 -16.260  13.631  1.00  0.00    -0.008 A 
HETATM    7  C9  UNL     1     -21.536 -14.907  13.508  1.00  0.00     0.019 A 
HETATM    8  C10 UNL     1     -21.081 -14.376  12.329  1.00  0.00    -0.045 A 
HETATM    9  C16 UNL     1     -20.987 -15.234  11.272  1.00  0.00    -0.010 A 
HETATM   10  C17 UNL     1     -21.323 -16.576  11.344  1.00  0.00     0.091 A 
HETATM   11  C18 UNL     1     -21.787 -17.124  12.535  1.00  0.00     0.041 A 
HETATM   12  O4  UNL     1     -21.205 -17.405  10.239  1.00  0.00    -0.333 OA
HETATM   13  C19 UNL     1     -20.163 -17.148   9.317  1.00  0.00     0.221 C 
HETATM   14  C24 UNL     1     -19.656 -15.775   9.376  1.00  0.00     0.164 C 
HETATM   15  O5  UNL     1     -18.556 -15.471   8.958  1.00  0.00    -0.294 OA
HETATM   16  C25 UNL     1     -20.501 -14.703   9.967  1.00  0.00     0.123 C 
ENDROOT
BRANCH   8  17
HETATM   17  C11 UNL     1     -20.699 -12.950  12.173  1.00  0.00     0.066 C 
BRANCH  17  18
HETATM   18  C12 UNL     1     -19.769 -12.483  13.204  1.00  0.00    -0.020 C 
HETATM   19  C13 UNL     1     -18.494 -12.317  12.895  1.00  0.00    -0.091 C 
HETATM   20  C14 UNL     1     -17.522 -11.838  13.943  1.00  0.00     0.042 C 
HETATM   21  C15 UNL     1     -17.951 -12.582  11.541  1.00  0.00     0.042 C 
ENDBRANCH  17  18
ENDBRANCH   8  17
BRANCH   4  22
HETATM   22  O3  UNL     1     -23.598 -16.072  15.265  1.00  0.00    -0.385 OA
ATOM     23  H3  UNL     1     -23.629 -15.280  14.742  1.00  0.00     0.211 HD
ENDBRANCH   4  22
BRANCH   1  24
HETATM   24  O2  UNL     1     -22.011 -19.360  11.526  1.00  0.00    -0.279 OA
BRANCH  24  25
HETATM   25  C2  UNL     1     -23.168 -20.002  11.050  1.00  0.00     0.260 C 
HETATM   26  C1  UNL     1     -23.461 -21.416  11.302  1.00  0.00     0.126 C 
HETATM   27  O1  UNL     1     -23.969 -19.301  10.381  1.00  0.00    -0.265 OA
ENDBRANCH  24  25
ENDBRANCH   1  24
BRANCH  13  28
HETATM   28  C20 UNL     1     -19.077 -18.150   9.471  1.00  0.00     0.015 C 
HETATM   29  C21 UNL     1     -19.107 -19.304   8.845  1.00  0.00    -0.088 C 
HETATM   30  C22 UNL     1     -20.256 -19.624   7.955  1.00  0.00     0.042 C 
HETATM   31  C23 UNL     1     -18.027 -20.306   8.995  1.00  0.00     0.042 C 
ENDBRANCH  13  28
TORSDOF 6
ENDMDL
MODEL 3
REMARK VINA RESULT: -7.920638437      4.509      7.293
REMARK  6 active torsions:
REMARK  status: ('A' for Active; 'I' for Inactive)
REMARK    1  A    between atoms: C2_2  and  O2_4 
REMARK    2  A    between atoms: O2_4  and  C3_5 
REMARK    3  A    between atoms: C6_8  and  O3_10 
REMARK    4  A    between atoms: C10_14  and  C11_15 
REMARK    5  A    between atoms: C11_15  and  C12_16 
REMARK    6  A    between atoms: C19_24  and  C20_25 
ROOT
HETATM    1  C3  UNL     1     -26.147 -19.425  14.967  1.00  0.00     0.089 A 
HETATM    2  C4  UNL     1     -27.008 -20.398  15.153  1.00  0.00     0.015 A 
HETATM    3  C5  UNL     1     -27.555 -20.731  16.470  1.00  0.00     0.072 A 
HETATM    4  C6  UNL     1     -27.179 -19.918  17.632  1.00  0.00     0.085 A 
HETATM    5  C7  UNL     1     -26.675 -20.871  18.729  1.00  0.00     0.051 C 
HETATM    6  C8  UNL     1     -26.174 -18.868  17.373  1.00  0.00    -0.008 A 
HETATM    7  C9  UNL     1     -25.709 -18.102  18.454  1.00  0.00     0.019 A 
HETATM    8  C10 UNL     1     -24.785 -17.101  18.295  1.00  0.00    -0.045 A 
HETATM    9  C16 UNL     1     -24.336 -16.885  17.025  1.00  0.00    -0.010 A 
HETATM   10  C17 UNL     1     -24.763 -17.614  15.927  1.00  0.00     0.091 A 
HETATM   11  C18 UNL     1     -25.700 -18.631  16.077  1.00  0.00     0.041 A 
HETATM   12  O4  UNL     1     -24.271 -17.354  14.658  1.00  0.00    -0.333 OA
HETATM   13  C19 UNL     1     -22.932 -16.911  14.536  1.00  0.00     0.221 C 
HETATM   14  C24 UNL     1     -22.399 -16.319  15.765  1.00  0.00     0.164 C 
HETATM   15  O5  UNL     1     -21.206 -16.231  15.979  1.00  0.00    -0.294 OA
HETATM   16  C25 UNL     1     -23.335 -15.804  16.800  1.00  0.00     0.123 C 
ENDROOT
BRANCH   8  17
HETATM   17  C11 UNL     1     -24.277 -16.278  19.421  1.00  0.00     0.066 C 
BRANCH  17  18
HETATM   18  C12 UNL     1     -25.118 -16.353  20.618  1.00  0.00    -0.020 C 
HETATM   19  C13 UNL     1     -26.032 -15.418  20.824  1.00  0.00    -0.091 C 
HETATM   20  C14 UNL     1     -26.906 -15.478  22.051  1.00  0.00     0.042 C 
HETATM   21  C15 UNL     1     -26.250 -14.284  19.894  1.00  0.00     0.042 C 
ENDBRANCH  17  18
ENDBRANCH   8  17
BRANCH   4  22
HETATM   22  O3  UNL     1     -28.374 -19.321  18.131  1.00  0.00    -0.385 OA
ATOM     23  H3  UNL     1     -29.074 -19.951  18.007  1.00  0.00     0.211 HD
ENDBRANCH   4  22
BRANCH   1  24
HETATM   24  O2  UNL     1     -25.654 -19.154  13.671  1.00  0.00    -0.279 OA
BRANCH  24  25
HETATM   25  C2  UNL     1     -25.145 -20.219  12.907  1.00  0.00     0.260 C 
HETATM   26  C1  UNL     1     -24.033 -21.065  13.353  1.00  0.00     0.126 C 
HETATM   27  O1  UNL     1     -25.692 -20.431  11.795  1.00  0.00    -0.265 OA
ENDBRANCH  24  25
ENDBRANCH   1  24
BRANCH  13  28
HETATM   28  C20 UNL     1     -22.069 -18.006  14.026  1.00  0.00     0.015 C 
HETATM   29  C21 UNL     1     -21.654 -18.036  12.780  1.00  0.00    -0.088 C 
HETATM   30  C22 UNL     1     -22.054 -16.946  11.850  1.00  0.00     0.042 C 
HETATM   31  C23 UNL     1     -20.793 -19.127  12.266  1.00  0.00     0.042 C 
ENDBRANCH  13  28
TORSDOF 6
ENDMDL
MODEL 4
REMARK VINA RESULT: -7.624797142      1.802      6.955
REMARK  6 active torsions:
REMARK  status: ('A' for Active; 'I' for Inactive)
REMARK    1  A    between atoms: C2_2  and  O2_4 
REMARK    2  A    between atoms: O2_4  and  C3_5 
REMARK    3  A    between atoms: C6_8  and  O3_10 
REMARK    4  A    between atoms: C10_14  and  C11_15 
REMARK    5  A    between atoms: C11_15  and  C12_16 
REMARK    6  A    between atoms: C19_24  and  C20_25 
ROOT
HETATM    1  C3  UNL     1     -20.384 -16.538   9.764  1.00  0.00     0.089 A 
HETATM    2  C4  UNL     1     -19.735 -17.179   8.821  1.00  0.00     0.015 A 
HETATM    3  C5  UNL     1     -19.697 -18.640   8.738  1.00  0.00     0.072 A 
HETATM    4  C6  UNL     1     -20.456 -19.436   9.710  1.00  0.00     0.085 A 
HETATM    5  C7  UNL     1     -19.494 -20.463  10.331  1.00  0.00     0.051 C 
HETATM    6  C8  UNL     1     -21.130 -18.665  10.773  1.00  0.00    -0.008 A 
HETATM    7  C9  UNL     1     -21.811 -19.364  11.782  1.00  0.00     0.019 A 
HETATM    8  C10 UNL     1     -22.471 -18.722  12.798  1.00  0.00    -0.045 A 
HETATM    9  C16 UNL     1     -22.432 -17.358  12.780  1.00  0.00    -0.010 A 
HETATM   10  C17 UNL     1     -21.773 -16.624  11.809  1.00  0.00     0.091 A 
HETATM   11  C18 UNL     1     -21.101 -17.265  10.774  1.00  0.00     0.041 A 
HETATM   12  O4  UNL     1     -21.762 -15.238  11.842  1.00  0.00    -0.333 OA
HETATM   13  C19 UNL     1     -21.771 -14.598  13.104  1.00  0.00     0.221 C 
HETATM   14  C24 UNL     1     -22.279 -15.444  14.185  1.00  0.00     0.164 C 
HETATM   15  O5  UNL     1     -22.023 -15.229  15.354  1.00  0.00    -0.294 OA
HETATM   16  C25 UNL     1     -23.139 -16.615  13.861  1.00  0.00     0.123 C 
ENDROOT
BRANCH   8  17
HETATM   17  C11 UNL     1     -23.198 -19.439  13.875  1.00  0.00     0.066 C 
BRANCH  17  18
HETATM   18  C12 UNL     1     -24.178 -20.403  13.370  1.00  0.00    -0.020 C 
HETATM   19  C13 UNL     1     -25.461 -20.077  13.365  1.00  0.00    -0.091 C 
HETATM   20  C14 UNL     1     -26.484 -21.056  12.849  1.00  0.00     0.042 C 
HETATM   21  C15 UNL     1     -25.963 -18.769  13.850  1.00  0.00     0.042 C 
ENDBRANCH  17  18
ENDBRANCH   8  17
BRANCH   4  22
HETATM   22  O3  UNL     1     -21.425 -20.180   8.975  1.00  0.00    -0.385 OA
ATOM     23  H3  UNL     1     -21.514 -21.023   9.404  1.00  0.00     0.211 HD
ENDBRANCH   4  22
BRANCH   1  24
HETATM   24  O2  UNL     1     -20.382 -15.125   9.790  1.00  0.00    -0.279 OA
BRANCH  24  25
HETATM   25  C2  UNL     1     -19.381 -14.439   9.079  1.00  0.00     0.260 C 
HETATM   26  C1  UNL     1     -18.154 -13.937   9.706  1.00  0.00     0.126 C 
HETATM   27  O1  UNL     1     -19.577 -14.268   7.850  1.00  0.00    -0.265 OA
ENDBRANCH  24  25
ENDBRANCH   1  24
BRANCH  13  28
HETATM   28  C20 UNL     1     -20.427 -14.046  13.414  1.00  0.00     0.015 C 
HETATM   29  C21 UNL     1     -19.952 -12.990  12.794  1.00  0.00    -0.088 C 
HETATM   30  C22 UNL     1     -20.779 -12.321  11.753  1.00  0.00     0.042 C 
HETATM   31  C23 UNL     1     -18.613 -12.437  13.100  1.00  0.00     0.042 C 
ENDBRANCH  13  28
TORSDOF 6
ENDMDL
MODEL 5
REMARK VINA RESULT: -7.605838936      1.847      6.564
REMARK  6 active torsions:
REMARK  status: ('A' for Active; 'I' for Inactive)
REMARK    1  A    between atoms: C2_2  and  O2_4 
REMARK    2  A    between atoms: O2_4  and  C3_5 
REMARK    3  A    between atoms: C6_8  and  O3_10 
REMARK    4  A    between atoms: C10_14  and  C11_15 
REMARK    5  A    between atoms: C11_15  and  C12_16 
REMARK    6  A    between atoms: C19_24  and  C20_25 
ROOT
HETATM    1  C3  UNL     1     -20.304 -16.648   9.727  1.00  0.00     0.089 A 
HETATM    2  C4  UNL     1     -19.625 -17.246   8.778  1.00  0.00     0.015 A 
HETATM    3  C5  UNL     1     -19.486 -18.701   8.700  1.00  0.00     0.072 A 
HETATM    4  C6  UNL     1     -20.175 -19.544   9.685  1.00  0.00     0.085 A 
HETATM    5  C7  UNL     1     -19.135 -20.498  10.296  1.00  0.00     0.051 C 
HETATM    6  C8  UNL     1     -20.885 -18.816  10.755  1.00  0.00    -0.008 A 
HETATM    7  C9  UNL     1     -21.502 -19.557  11.776  1.00  0.00     0.019 A 
HETATM    8  C10 UNL     1     -22.191 -18.958  12.798  1.00  0.00    -0.045 A 
HETATM    9  C16 UNL     1     -22.248 -17.595  12.776  1.00  0.00    -0.010 A 
HETATM   10  C17 UNL     1     -21.655 -16.820  11.793  1.00  0.00     0.091 A 
HETATM   11  C18 UNL     1     -20.954 -17.418  10.750  1.00  0.00     0.041 A 
HETATM   12  O4  UNL     1     -21.741 -15.437  11.820  1.00  0.00    -0.333 OA
HETATM   13  C19 UNL     1     -21.776 -14.793  13.080  1.00  0.00     0.221 C 
HETATM   14  C24 UNL     1     -22.209 -15.668  14.171  1.00  0.00     0.164 C 
HETATM   15  O5  UNL     1     -21.952 -15.430  15.335  1.00  0.00    -0.294 OA
HETATM   16  C25 UNL     1     -22.989 -16.897  13.864  1.00  0.00     0.123 C 
ENDROOT
BRANCH   8  17
HETATM   17  C11 UNL     1     -22.851 -19.718  13.889  1.00  0.00     0.066 C 
BRANCH  17  18
HETATM   18  C12 UNL     1     -22.051 -20.844  14.376  1.00  0.00    -0.020 C 
HETATM   19  C13 UNL     1     -21.035 -20.609  15.191  1.00  0.00    -0.091 C 
HETATM   20  C14 UNL     1     -20.200 -21.754  15.703  1.00  0.00     0.042 C 
HETATM   21  C15 UNL     1     -20.662 -19.246  15.642  1.00  0.00     0.042 C 
ENDBRANCH  17  18
ENDBRANCH   8  17
BRANCH   4  22
HETATM   22  O3  UNL     1     -21.100 -20.357   8.966  1.00  0.00    -0.385 OA
ATOM     23  H3  UNL     1     -21.965 -20.159   9.303  1.00  0.00     0.211 HD
ENDBRANCH   4  22
BRANCH   1  24
HETATM   24  O2  UNL     1     -20.400 -15.238   9.748  1.00  0.00    -0.279 OA
BRANCH  24  25
HETATM   25  C2  UNL     1     -19.454 -14.487   9.028  1.00  0.00     0.260 C 
HETATM   26  C1  UNL     1     -18.238 -13.937   9.635  1.00  0.00     0.126 C 
HETATM   27  O1  UNL     1     -19.691 -14.299   7.808  1.00  0.00    -0.265 OA
ENDBRANCH  24  25
ENDBRANCH   1  24
BRANCH  13  28
HETATM   28  C20 UNL     1     -20.470 -14.148  13.368  1.00  0.00     0.015 C 
HETATM   29  C21 UNL     1     -20.083 -13.058  12.745  1.00  0.00    -0.088 C 
HETATM   30  C22 UNL     1     -20.974 -12.447  11.721  1.00  0.00     0.042 C 
HETATM   31  C23 UNL     1     -18.781 -12.411  13.029  1.00  0.00     0.042 C 
ENDBRANCH  13  28
TORSDOF 6
ENDMDL
