MODEL 1
REMARK VINA RESULT: -6.809625274      0.000      0.000
REMARK  17 active torsions:
REMARK  status: ('A' for Active; 'I' for Inactive)
REMARK    1  A    between atoms: C3_3  and  C5_5 
REMARK    2  A    between atoms: C5_5  and  C6_7 
REMARK    3  A    between atoms: C6_7  and  C7_8 
REMARK    4  A    between atoms: C8_9  and  C9_10 
REMARK    5  A    between atoms: C9_10  and  O3_12 
REMARK    6  A    between atoms: O3_12  and  C10_13 
REMARK    7  A    between atoms: C14_17  and  O4_18 
REMARK    8  A    between atoms: C14_17  and  O5_20 
REMARK    9  A    between atoms: O5_20  and  C15_21 
REMARK   10  A    between atoms: C15_21  and  C16_23 
REMARK   11  A    between atoms: C22_29  and  C23_30 
REMARK   12  A    between atoms: C23_30  and  C24_31 
REMARK   13  A    between atoms: C24_31  and  C25_32 
REMARK   14  A    between atoms: C26_33  and  C27_34 
REMARK   15  A    between atoms: C26_33  and  C29_36 
REMARK   16  A    between atoms: C29_36  and  O7_37 
REMARK   17  A    between atoms: C31_40  and  O8_42 
ROOT
HETATM    1  C7  UNL     1     -12.098 -15.312 -49.728  1.00  0.00     0.043 C 
HETATM    2  C8  UNL     1     -11.872 -16.669 -49.046  1.00  0.00     0.157 C 
HETATM    3  C14 UNL     1     -13.250 -17.044 -48.444  1.00  0.00     0.192 C 
HETATM    4  C20 UNL     1     -13.696 -15.684 -48.138  1.00  0.00     0.084 C 
HETATM    5  C21 UNL     1     -14.879 -15.398 -47.398  1.00  0.00    -0.013 C 
HETATM    6  C22 UNL     1     -15.608 -14.319 -47.632  1.00  0.00    -0.080 C 
HETATM    7  C30 UNL     1     -15.199 -13.376 -48.672  1.00  0.00     0.072 C 
HETATM    8  C31 UNL     1     -13.697 -13.499 -48.986  1.00  0.00     0.066 C 
HETATM    9  C32 UNL     1     -13.385 -12.400 -49.908  1.00  0.00     0.047 C 
HETATM   10  C33 UNL     1     -13.496 -14.914 -49.461  1.00  0.00     0.007 C 
HETATM   11  C34 UNL     1     -14.524 -15.219 -50.465  1.00  0.00     0.020 C 
ENDROOT
BRANCH   3  12
HETATM   12  O4  UNL     1     -13.044 -17.720 -47.232  1.00  0.00    -0.364 OA
ATOM     13  H4  UNL     1     -12.566 -17.149 -46.641  1.00  0.00     0.213 HD
ENDBRANCH   3  12
BRANCH   3  14
HETATM   14  O5  UNL     1     -13.934 -17.858 -49.298  1.00  0.00    -0.281 OA
BRANCH  14  15
HETATM   15  C15 UNL     1     -14.699 -18.939 -49.004  1.00  0.00     0.269 C 
HETATM   16  O6  UNL     1     -14.181 -19.963 -48.511  1.00  0.00    -0.264 OA
BRANCH  15  17
HETATM   17  C16 UNL     1     -16.167 -18.969 -49.248  1.00  0.00     0.037 C 
HETATM   18  C17 UNL     1     -16.870 -18.322 -48.080  1.00  0.00     0.025 C 
HETATM   19  C18 UNL     1     -16.664 -20.420 -49.294  1.00  0.00     0.025 C 
HETATM   20  C19 UNL     1     -16.600 -18.289 -50.498  1.00  0.00     0.025 C 
ENDBRANCH  15  17
ENDBRANCH  14  15
ENDBRANCH   3  14
BRANCH   2  21
HETATM   21  C9  UNL     1     -10.788 -16.685 -48.084  1.00  0.00     0.269 C 
HETATM   22  O2  UNL     1     -10.273 -15.543 -47.772  1.00  0.00    -0.265 OA
BRANCH  21  23
HETATM   23  O3  UNL     1     -10.215 -17.757 -47.442  1.00  0.00    -0.311 OA
BRANCH  23  24
HETATM   24  C10 UNL     1      -9.162 -18.541 -47.925  1.00  0.00     0.060 C 
HETATM   25  C11 UNL     1      -9.256 -19.902 -47.220  1.00  0.00     0.045 C 
HETATM   26  C12 UNL     1      -7.849 -17.947 -47.458  1.00  0.00     0.045 C 
HETATM   27  C13 UNL     1      -9.201 -18.769 -49.398  1.00  0.00     0.045 C 
ENDBRANCH  23  24
ENDBRANCH  21  23
ENDBRANCH   2  21
BRANCH   1  28
HETATM   28  C6  UNL     1     -11.584 -15.494 -51.089  1.00  0.00     0.035 C 
BRANCH  28  29
HETATM   29  C5  UNL     1     -10.581 -14.625 -51.662  1.00  0.00     0.174 C 
HETATM   30  O1  UNL     1     -10.443 -14.579 -52.910  1.00  0.00    -0.288 OA
BRANCH  29  31
HETATM   31  C3  UNL     1      -9.692 -13.774 -50.849  1.00  0.00    -0.016 C 
HETATM   32  C2  UNL     1      -8.545 -14.190 -50.360  1.00  0.00    -0.020 C 
HETATM   33  C1  UNL     1      -7.966 -15.525 -50.535  1.00  0.00     0.036 C 
HETATM   34  C4  UNL     1     -10.136 -12.386 -50.579  1.00  0.00     0.052 C 
ENDBRANCH  29  31
ENDBRANCH  28  29
ENDBRANCH   1  28
BRANCH   6  35
HETATM   35  C23 UNL     1     -16.871 -14.059 -46.809  1.00  0.00     0.038 C 
BRANCH  35  36
HETATM   36  C24 UNL     1     -17.365 -15.314 -46.201  1.00  0.00     0.032 C 
BRANCH  36  37
HETATM   37  C25 UNL     1     -18.766 -15.364 -45.830  1.00  0.00    -0.022 C 
HETATM   38  C26 UNL     1     -19.620 -16.316 -45.651  1.00  0.00    -0.061 C 
BRANCH  38  39
HETATM   39  C27 UNL     1     -19.551 -17.768 -45.742  1.00  0.00     0.031 C 
HETATM   40  C28 UNL     1     -20.303 -18.291 -46.975  1.00  0.00     0.010 C 
ENDBRANCH  38  39
BRANCH  38  41
HETATM   41  C29 UNL     1     -21.019 -15.823 -45.205  1.00  0.00     0.198 C 
BRANCH  41  42
HETATM   42  O7  UNL     1     -21.560 -16.713 -44.319  1.00  0.00    -0.397 OA
ATOM     43  H7  UNL     1     -21.936 -16.243 -43.584  1.00  0.00     0.209 HD
ENDBRANCH  41  42
ENDBRANCH  38  41
ENDBRANCH  36  37
ENDBRANCH  35  36
ENDBRANCH   6  35
BRANCH   8  44
HETATM   44  O8  UNL     1     -13.051 -13.266 -47.778  1.00  0.00    -0.389 OA
ATOM     45  H8  UNL     1     -12.358 -12.649 -47.980  1.00  0.00     0.210 HD
ENDBRANCH   8  44
TORSDOF 17
ENDMDL
MODEL 2
REMARK VINA RESULT: -6.733291258      2.489      7.988
REMARK  17 active torsions:
REMARK  status: ('A' for Active; 'I' for Inactive)
REMARK    1  A    between atoms: C3_3  and  C5_5 
REMARK    2  A    between atoms: C5_5  and  C6_7 
REMARK    3  A    between atoms: C6_7  and  C7_8 
REMARK    4  A    between atoms: C8_9  and  C9_10 
REMARK    5  A    between atoms: C9_10  and  O3_12 
REMARK    6  A    between atoms: O3_12  and  C10_13 
REMARK    7  A    between atoms: C14_17  and  O4_18 
REMARK    8  A    between atoms: C14_17  and  O5_20 
REMARK    9  A    between atoms: O5_20  and  C15_21 
REMARK   10  A    between atoms: C15_21  and  C16_23 
REMARK   11  A    between atoms: C22_29  and  C23_30 
REMARK   12  A    between atoms: C23_30  and  C24_31 
REMARK   13  A    between atoms: C24_31  and  C25_32 
REMARK   14  A    between atoms: C26_33  and  C27_34 
REMARK   15  A    between atoms: C26_33  and  C29_36 
REMARK   16  A    between atoms: C29_36  and  O7_37 
REMARK   17  A    between atoms: C31_40  and  O8_42 
ROOT
HETATM    1  C7  UNL     1     -13.463 -16.288 -49.912  1.00  0.00     0.043 C 
HETATM    2  C8  UNL     1     -12.571 -16.505 -51.143  1.00  0.00     0.157 C 
HETATM    3  C14 UNL     1     -11.572 -15.320 -51.123  1.00  0.00     0.192 C 
HETATM    4  C20 UNL     1     -12.476 -14.326 -50.541  1.00  0.00     0.084 C 
HETATM    5  C21 UNL     1     -12.146 -12.945 -50.423  1.00  0.00    -0.013 C 
HETATM    6  C22 UNL     1     -12.588 -12.201 -49.423  1.00  0.00    -0.080 C 
HETATM    7  C30 UNL     1     -13.450 -12.795 -48.401  1.00  0.00     0.072 C 
HETATM    8  C31 UNL     1     -14.150 -14.065 -48.921  1.00  0.00     0.066 C 
HETATM    9  C32 UNL     1     -15.100 -14.461 -47.874  1.00  0.00     0.047 C 
HETATM   10  C33 UNL     1     -13.042 -15.019 -49.283  1.00  0.00     0.007 C 
HETATM   11  C34 UNL     1     -12.083 -15.063 -48.171  1.00  0.00     0.020 C 
ENDROOT
BRANCH   3  12
HETATM   12  O4  UNL     1     -11.297 -14.940 -52.445  1.00  0.00    -0.364 OA
ATOM     13  H4  UNL     1     -10.655 -14.239 -52.434  1.00  0.00     0.213 HD
ENDBRANCH   3  12
BRANCH   3  14
HETATM   14  O5  UNL     1     -10.410 -15.690 -50.513  1.00  0.00    -0.281 OA
BRANCH  14  15
HETATM   15  C15 UNL     1      -9.599 -16.738 -50.805  1.00  0.00     0.269 C 
HETATM   16  O6  UNL     1      -9.067 -16.829 -51.931  1.00  0.00    -0.264 OA
BRANCH  15  17
HETATM   17  C16 UNL     1      -9.304 -17.817 -49.823  1.00  0.00     0.037 C 
HETATM   18  C17 UNL     1      -7.848 -18.195 -49.937  1.00  0.00     0.025 C 
HETATM   19  C18 UNL     1     -10.101 -19.079 -50.173  1.00  0.00     0.025 C 
HETATM   20  C19 UNL     1      -9.593 -17.462 -48.408  1.00  0.00     0.025 C 
ENDBRANCH  15  17
ENDBRANCH  14  15
ENDBRANCH   3  14
BRANCH   2  21
HETATM   21  C9  UNL     1     -13.293 -16.643 -52.391  1.00  0.00     0.269 C 
HETATM   22  O2  UNL     1     -13.001 -17.667 -53.120  1.00  0.00    -0.265 OA
BRANCH  21  23
HETATM   23  O3  UNL     1     -14.262 -15.828 -52.926  1.00  0.00    -0.311 OA
BRANCH  23  24
HETATM   24  C10 UNL     1     -15.623 -16.130 -53.043  1.00  0.00     0.060 C 
HETATM   25  C11 UNL     1     -15.834 -16.719 -54.445  1.00  0.00     0.045 C 
HETATM   26  C12 UNL     1     -16.418 -14.840 -53.035  1.00  0.00     0.045 C 
HETATM   27  C13 UNL     1     -16.114 -17.117 -52.037  1.00  0.00     0.045 C 
ENDBRANCH  23  24
ENDBRANCH  21  23
ENDBRANCH   2  21
BRANCH   1  28
HETATM   28  C6  UNL     1     -13.421 -17.566 -49.195  1.00  0.00     0.035 C 
BRANCH  28  29
HETATM   29  C5  UNL     1     -14.353 -17.895 -48.140  1.00  0.00     0.174 C 
HETATM   30  O1  UNL     1     -14.006 -17.746 -46.941  1.00  0.00    -0.288 OA
BRANCH  29  31
HETATM   31  C3  UNL     1     -15.712 -18.406 -48.395  1.00  0.00    -0.016 C 
HETATM   32  C2  UNL     1     -15.957 -19.471 -49.127  1.00  0.00    -0.020 C 
HETATM   33  C1  UNL     1     -14.956 -20.311 -49.790  1.00  0.00     0.036 C 
HETATM   34  C4  UNL     1     -16.844 -17.664 -47.791  1.00  0.00     0.052 C 
ENDBRANCH  29  31
ENDBRANCH  28  29
ENDBRANCH   1  28
BRANCH   6  35
HETATM   35  C23 UNL     1     -12.204 -10.724 -49.343  1.00  0.00     0.038 C 
BRANCH  35  36
HETATM   36  C24 UNL     1     -11.095 -10.524 -48.384  1.00  0.00     0.032 C 
BRANCH  36  37
HETATM   37  C25 UNL     1     -10.009  -9.657 -48.796  1.00  0.00    -0.022 C 
HETATM   38  C26 UNL     1      -9.243  -9.599 -49.834  1.00  0.00    -0.061 C 
BRANCH  38  39
HETATM   39  C27 UNL     1      -9.133 -10.384 -51.056  1.00  0.00     0.031 C 
HETATM   40  C28 UNL     1      -8.617 -11.802 -50.769  1.00  0.00     0.010 C 
ENDBRANCH  38  39
BRANCH  38  41
HETATM   41  C29 UNL     1      -8.240  -8.418 -49.803  1.00  0.00     0.198 C 
BRANCH  41  42
HETATM   42  O7  UNL     1      -7.410  -8.492 -50.887  1.00  0.00    -0.397 OA
ATOM     43  H7  UNL     1      -7.026  -7.639 -51.054  1.00  0.00     0.209 HD
ENDBRANCH  41  42
ENDBRANCH  38  41
ENDBRANCH  36  37
ENDBRANCH  35  36
ENDBRANCH   6  35
BRANCH   8  44
HETATM   44  O8  UNL     1     -14.862 -13.657 -50.042  1.00  0.00    -0.389 OA
ATOM     45  H8  UNL     1     -15.185 -14.458 -50.437  1.00  0.00     0.210 HD
ENDBRANCH   8  44
TORSDOF 17
ENDMDL
MODEL 3
REMARK VINA RESULT: -6.695277441      1.722      2.334
REMARK  17 active torsions:
REMARK  status: ('A' for Active; 'I' for Inactive)
REMARK    1  A    between atoms: C3_3  and  C5_5 
REMARK    2  A    between atoms: C5_5  and  C6_7 
REMARK    3  A    between atoms: C6_7  and  C7_8 
REMARK    4  A    between atoms: C8_9  and  C9_10 
REMARK    5  A    between atoms: C9_10  and  O3_12 
REMARK    6  A    between atoms: O3_12  and  C10_13 
REMARK    7  A    between atoms: C14_17  and  O4_18 
REMARK    8  A    between atoms: C14_17  and  O5_20 
REMARK    9  A    between atoms: O5_20  and  C15_21 
REMARK   10  A    between atoms: C15_21  and  C16_23 
REMARK   11  A    between atoms: C22_29  and  C23_30 
REMARK   12  A    between atoms: C23_30  and  C24_31 
REMARK   13  A    between atoms: C24_31  and  C25_32 
REMARK   14  A    between atoms: C26_33  and  C27_34 
REMARK   15  A    between atoms: C26_33  and  C29_36 
REMARK   16  A    between atoms: C29_36  and  O7_37 
REMARK   17  A    between atoms: C31_40  and  O8_42 
ROOT
HETATM    1  C7  UNL     1     -13.007 -16.857 -50.135  1.00  0.00     0.043 C 
HETATM    2  C8  UNL     1     -13.119 -18.180 -49.364  1.00  0.00     0.157 C 
HETATM    3  C14 UNL     1     -14.336 -17.989 -48.424  1.00  0.00     0.192 C 
HETATM    4  C20 UNL     1     -14.167 -16.554 -48.190  1.00  0.00     0.084 C 
HETATM    5  C21 UNL     1     -14.936 -15.822 -47.241  1.00  0.00    -0.013 C 
HETATM    6  C22 UNL     1     -15.261 -14.554 -47.430  1.00  0.00    -0.080 C 
HETATM    7  C30 UNL     1     -14.820 -13.863 -48.641  1.00  0.00     0.072 C 
HETATM    8  C31 UNL     1     -13.597 -14.554 -49.272  1.00  0.00     0.066 C 
HETATM    9  C32 UNL     1     -13.156 -13.680 -50.366  1.00  0.00     0.047 C 
HETATM   10  C33 UNL     1     -14.048 -15.951 -49.607  1.00  0.00     0.007 C 
HETATM   11  C34 UNL     1     -15.338 -15.869 -50.306  1.00  0.00     0.020 C 
ENDROOT
BRANCH   3  12
HETATM   12  O4  UNL     1     -14.085 -18.661 -47.218  1.00  0.00    -0.364 OA
ATOM     13  H4  UNL     1     -13.149 -18.801 -47.136  1.00  0.00     0.213 HD
ENDBRANCH   3  12
BRANCH   3  14
HETATM   14  O5  UNL     1     -15.462 -18.504 -48.996  1.00  0.00    -0.281 OA
BRANCH  14  15
HETATM   15  C15 UNL     1     -16.637 -18.831 -48.403  1.00  0.00     0.269 C 
HETATM   16  O6  UNL     1     -16.817 -18.599 -47.189  1.00  0.00    -0.264 OA
BRANCH  15  17
HETATM   17  C16 UNL     1     -17.756 -19.471 -49.147  1.00  0.00     0.037 C 
HETATM   18  C17 UNL     1     -19.048 -19.200 -48.415  1.00  0.00     0.025 C 
HETATM   19  C18 UNL     1     -17.582 -20.995 -49.151  1.00  0.00     0.025 C 
HETATM   20  C19 UNL     1     -17.904 -19.016 -50.555  1.00  0.00     0.025 C 
ENDBRANCH  15  17
ENDBRANCH  14  15
ENDBRANCH   3  14
BRANCH   2  21
HETATM   21  C9  UNL     1     -11.906 -18.581 -48.679  1.00  0.00     0.269 C 
HETATM   22  O2  UNL     1     -11.777 -19.838 -48.417  1.00  0.00    -0.265 OA
BRANCH  21  23
HETATM   23  O3  UNL     1     -10.852 -17.805 -48.258  1.00  0.00    -0.311 OA
BRANCH  23  24
HETATM   24  C10 UNL     1      -9.663 -17.578 -48.960  1.00  0.00     0.060 C 
HETATM   25  C11 UNL     1      -8.508 -17.963 -48.024  1.00  0.00     0.045 C 
HETATM   26  C12 UNL     1      -9.503 -16.089 -49.189  1.00  0.00     0.045 C 
HETATM   27  C13 UNL     1      -9.539 -18.372 -50.216  1.00  0.00     0.045 C 
ENDBRANCH  23  24
ENDBRANCH  21  23
ENDBRANCH   2  21
BRANCH   1  28
HETATM   28  C6  UNL     1     -12.960 -17.255 -51.545  1.00  0.00     0.035 C 
BRANCH  28  29
HETATM   29  C5  UNL     1     -12.522 -16.356 -52.590  1.00  0.00     0.174 C 
HETATM   30  O1  UNL     1     -13.379 -15.755 -53.286  1.00  0.00    -0.288 OA
BRANCH  29  31
HETATM   31  C3  UNL     1     -11.102 -16.102 -52.893  1.00  0.00    -0.016 C 
HETATM   32  C2  UNL     1     -10.342 -16.948 -53.552  1.00  0.00    -0.020 C 
HETATM   33  C1  UNL     1     -10.760 -18.247 -54.087  1.00  0.00     0.036 C 
HETATM   34  C4  UNL     1     -10.522 -14.823 -52.417  1.00  0.00     0.052 C 
ENDBRANCH  29  31
ENDBRANCH  28  29
ENDBRANCH   1  28
BRANCH   6  35
HETATM   35  C23 UNL     1     -16.089 -13.813 -46.379  1.00  0.00     0.038 C 
BRANCH  35  36
HETATM   36  C24 UNL     1     -17.535 -13.986 -46.638  1.00  0.00     0.032 C 
BRANCH  36  37
HETATM   37  C25 UNL     1     -18.162 -15.189 -46.126  1.00  0.00    -0.022 C 
HETATM   38  C26 UNL     1     -19.371 -15.513 -45.809  1.00  0.00    -0.061 C 
BRANCH  38  39
HETATM   39  C27 UNL     1     -20.646 -14.809 -45.828  1.00  0.00     0.031 C 
HETATM   40  C28 UNL     1     -21.796 -15.713 -45.361  1.00  0.00     0.010 C 
ENDBRANCH  38  39
BRANCH  38  41
HETATM   41  C29 UNL     1     -19.519 -16.982 -45.338  1.00  0.00     0.198 C 
BRANCH  41  42
HETATM   42  O7  UNL     1     -18.288 -17.497 -45.044  1.00  0.00    -0.397 OA
ATOM     43  H7  UNL     1     -18.045 -18.139 -45.702  1.00  0.00     0.209 HD
ENDBRANCH  41  42
ENDBRANCH  38  41
ENDBRANCH  36  37
ENDBRANCH  35  36
ENDBRANCH   6  35
BRANCH   8  44
HETATM   44  O8  UNL     1     -12.624 -14.553 -48.279  1.00  0.00    -0.389 OA
ATOM     45  H8  UNL     1     -11.927 -14.002 -48.613  1.00  0.00     0.210 HD
ENDBRANCH   8  44
TORSDOF 17
ENDMDL
MODEL 4
REMARK VINA RESULT: -6.624941430      2.234      3.634
REMARK  17 active torsions:
REMARK  status: ('A' for Active; 'I' for Inactive)
REMARK    1  A    between atoms: C3_3  and  C5_5 
REMARK    2  A    between atoms: C5_5  and  C6_7 
REMARK    3  A    between atoms: C6_7  and  C7_8 
REMARK    4  A    between atoms: C8_9  and  C9_10 
REMARK    5  A    between atoms: C9_10  and  O3_12 
REMARK    6  A    between atoms: O3_12  and  C10_13 
REMARK    7  A    between atoms: C14_17  and  O4_18 
REMARK    8  A    between atoms: C14_17  and  O5_20 
REMARK    9  A    between atoms: O5_20  and  C15_21 
REMARK   10  A    between atoms: C15_21  and  C16_23 
REMARK   11  A    between atoms: C22_29  and  C23_30 
REMARK   12  A    between atoms: C23_30  and  C24_31 
REMARK   13  A    between atoms: C24_31  and  C25_32 
REMARK   14  A    between atoms: C26_33  and  C27_34 
REMARK   15  A    between atoms: C26_33  and  C29_36 
REMARK   16  A    between atoms: C29_36  and  O7_37 
REMARK   17  A    between atoms: C31_40  and  O8_42 
ROOT
HETATM    1  C7  UNL     1     -12.502 -14.221 -49.908  1.00  0.00     0.043 C 
HETATM    2  C8  UNL     1     -11.887 -15.055 -51.042  1.00  0.00     0.157 C 
HETATM    3  C14 UNL     1     -13.016 -16.023 -51.479  1.00  0.00     0.192 C 
HETATM    4  C20 UNL     1     -13.640 -16.185 -50.166  1.00  0.00     0.084 C 
HETATM    5  C21 UNL     1     -14.680 -17.124 -49.906  1.00  0.00    -0.013 C 
HETATM    6  C22 UNL     1     -15.633 -16.888 -49.020  1.00  0.00    -0.080 C 
HETATM    7  C30 UNL     1     -15.633 -15.633 -48.269  1.00  0.00     0.072 C 
HETATM    8  C31 UNL     1     -14.231 -14.997 -48.234  1.00  0.00     0.066 C 
HETATM    9  C32 UNL     1     -14.329 -13.850 -47.322  1.00  0.00     0.047 C 
HETATM   10  C33 UNL     1     -13.865 -14.740 -49.672  1.00  0.00     0.007 C 
HETATM   11  C34 UNL     1     -15.000 -14.078 -50.330  1.00  0.00     0.020 C 
ENDROOT
BRANCH   3  12
HETATM   12  O4  UNL     1     -12.441 -17.250 -51.845  1.00  0.00    -0.364 OA
ATOM     13  H4  UNL     1     -12.079 -17.169 -52.720  1.00  0.00     0.213 HD
ENDBRANCH   3  12
BRANCH   3  14
HETATM   14  O5  UNL     1     -13.692 -15.510 -52.547  1.00  0.00    -0.281 OA
BRANCH  14  15
HETATM   15  C15 UNL     1     -14.288 -16.176 -53.568  1.00  0.00     0.269 C 
HETATM   16  O6  UNL     1     -13.599 -16.810 -54.394  1.00  0.00    -0.264 OA
BRANCH  15  17
HETATM   17  C16 UNL     1     -15.764 -16.187 -53.760  1.00  0.00     0.037 C 
HETATM   18  C17 UNL     1     -16.345 -17.359 -53.007  1.00  0.00     0.025 C 
HETATM   19  C18 UNL     1     -16.101 -16.421 -55.238  1.00  0.00     0.025 C 
HETATM   20  C19 UNL     1     -16.455 -14.948 -53.316  1.00  0.00     0.025 C 
ENDBRANCH  15  17
ENDBRANCH  14  15
ENDBRANCH   3  14
BRANCH   2  21
HETATM   21  C9  UNL     1     -10.646 -15.719 -50.695  1.00  0.00     0.269 C 
HETATM   22  O2  UNL     1      -9.964 -16.219 -51.669  1.00  0.00    -0.265 OA
BRANCH  21  23
HETATM   23  O3  UNL     1     -10.078 -15.899 -49.456  1.00  0.00    -0.311 OA
BRANCH  23  24
HETATM   24  C10 UNL     1      -9.873 -17.124 -48.812  1.00  0.00     0.060 C 
HETATM   25  C11 UNL     1      -9.946 -16.855 -47.302  1.00  0.00     0.045 C 
HETATM   26  C12 UNL     1      -8.450 -17.581 -49.061  1.00  0.00     0.045 C 
HETATM   27  C13 UNL     1     -10.882 -18.166 -49.156  1.00  0.00     0.045 C 
ENDBRANCH  23  24
ENDBRANCH  21  23
ENDBRANCH   2  21
BRANCH   1  28
HETATM   28  C6  UNL     1     -12.252 -12.830 -50.297  1.00  0.00     0.035 C 
BRANCH  28  29
HETATM   29  C5  UNL     1     -11.201 -12.035 -49.702  1.00  0.00     0.174 C 
HETATM   30  O1  UNL     1     -10.002 -12.377 -49.865  1.00  0.00    -0.288 OA
BRANCH  29  31
HETATM   31  C3  UNL     1     -11.459 -10.826 -48.899  1.00  0.00    -0.016 C 
HETATM   32  C2  UNL     1     -10.918  -9.657 -49.161  1.00  0.00    -0.020 C 
HETATM   33  C1  UNL     1      -9.999  -9.359 -50.263  1.00  0.00     0.036 C 
HETATM   34  C4  UNL     1     -12.375 -10.960 -47.741  1.00  0.00     0.052 C 
ENDBRANCH  29  31
ENDBRANCH  28  29
ENDBRANCH   1  28
BRANCH   6  35
HETATM   35  C23 UNL     1     -16.726 -17.929 -48.780  1.00  0.00     0.038 C 
BRANCH  35  36
HETATM   36  C24 UNL     1     -16.907 -18.171 -47.332  1.00  0.00     0.032 C 
BRANCH  36  37
HETATM   37  C25 UNL     1     -18.221 -17.912 -46.775  1.00  0.00    -0.022 C 
HETATM   38  C26 UNL     1     -18.709 -17.005 -45.996  1.00  0.00    -0.061 C 
BRANCH  38  39
HETATM   39  C27 UNL     1     -18.152 -15.836 -45.330  1.00  0.00     0.031 C 
HETATM   40  C28 UNL     1     -18.440 -14.549 -46.118  1.00  0.00     0.010 C 
ENDBRANCH  38  39
BRANCH  38  41
HETATM   41  C29 UNL     1     -20.228 -17.163 -45.732  1.00  0.00     0.198 C 
BRANCH  41  42
HETATM   42  O7  UNL     1     -20.430 -17.584 -44.447  1.00  0.00    -0.397 OA
ATOM     43  H7  UNL     1     -21.362 -17.673 -44.283  1.00  0.00     0.209 HD
ENDBRANCH  41  42
ENDBRANCH  38  41
ENDBRANCH  36  37
ENDBRANCH  35  36
ENDBRANCH   6  35
BRANCH   8  44
HETATM   44  O8  UNL     1     -13.408 -15.957 -47.659  1.00  0.00    -0.389 OA
ATOM     45  H8  UNL     1     -12.998 -15.525 -46.919  1.00  0.00     0.210 HD
ENDBRANCH   8  44
TORSDOF 17
ENDMDL
MODEL 5
REMARK VINA RESULT: -6.560973604      2.571      8.475
REMARK  17 active torsions:
REMARK  status: ('A' for Active; 'I' for Inactive)
REMARK    1  A    between atoms: C3_3  and  C5_5 
REMARK    2  A    between atoms: C5_5  and  C6_7 
REMARK    3  A    between atoms: C6_7  and  C7_8 
REMARK    4  A    between atoms: C8_9  and  C9_10 
REMARK    5  A    between atoms: C9_10  and  O3_12 
REMARK    6  A    between atoms: O3_12  and  C10_13 
REMARK    7  A    between atoms: C14_17  and  O4_18 
REMARK    8  A    between atoms: C14_17  and  O5_20 
REMARK    9  A    between atoms: O5_20  and  C15_21 
REMARK   10  A    between atoms: C15_21  and  C16_23 
REMARK   11  A    between atoms: C22_29  and  C23_30 
REMARK   12  A    between atoms: C23_30  and  C24_31 
REMARK   13  A    between atoms: C24_31  and  C25_32 
REMARK   14  A    between atoms: C26_33  and  C27_34 
REMARK   15  A    between atoms: C26_33  and  C29_36 
REMARK   16  A    between atoms: C29_36  and  O7_37 
REMARK   17  A    between atoms: C31_40  and  O8_42 
ROOT
HETATM    1  C7  UNL     1     -13.751 -16.251 -49.921  1.00  0.00     0.043 C 
HETATM    2  C8  UNL     1     -12.920 -16.526 -51.183  1.00  0.00     0.157 C 
HETATM    3  C14 UNL     1     -11.835 -15.418 -51.191  1.00  0.00     0.192 C 
HETATM    4  C20 UNL     1     -12.641 -14.364 -50.574  1.00  0.00     0.084 C 
HETATM    5  C21 UNL     1     -12.204 -13.012 -50.461  1.00  0.00    -0.013 C 
HETATM    6  C22 UNL     1     -12.555 -12.245 -49.443  1.00  0.00    -0.080 C 
HETATM    7  C30 UNL     1     -13.424 -12.780 -48.394  1.00  0.00     0.072 C 
HETATM    8  C31 UNL     1     -14.234 -13.990 -48.896  1.00  0.00     0.066 C 
HETATM    9  C32 UNL     1     -15.176 -14.321 -47.819  1.00  0.00     0.047 C 
HETATM   10  C33 UNL     1     -13.214 -15.022 -49.300  1.00  0.00     0.007 C 
HETATM   11  C34 UNL     1     -12.224 -15.146 -48.222  1.00  0.00     0.020 C 
ENDROOT
BRANCH   3  12
HETATM   12  O4  UNL     1     -11.577 -15.050 -52.521  1.00  0.00    -0.364 OA
ATOM     13  H4  UNL     1     -10.642 -14.916 -52.624  1.00  0.00     0.213 HD
ENDBRANCH   3  12
BRANCH   3  14
HETATM   14  O5  UNL     1     -10.684 -15.879 -50.624  1.00  0.00    -0.281 OA
BRANCH  14  15
HETATM   15  C15 UNL     1      -9.472 -16.065 -51.204  1.00  0.00     0.269 C 
HETATM   16  O6  UNL     1      -9.311 -16.967 -52.053  1.00  0.00    -0.264 OA
BRANCH  15  17
HETATM   17  C16 UNL     1      -8.289 -15.226 -50.869  1.00  0.00     0.037 C 
HETATM   18  C17 UNL     1      -7.459 -15.032 -52.114  1.00  0.00     0.025 C 
HETATM   19  C18 UNL     1      -7.389 -15.961 -49.867  1.00  0.00     0.025 C 
HETATM   20  C19 UNL     1      -8.618 -13.890 -50.305  1.00  0.00     0.025 C 
ENDBRANCH  15  17
ENDBRANCH  14  15
ENDBRANCH   3  14
BRANCH   2  21
HETATM   21  C9  UNL     1     -13.693 -16.599 -52.406  1.00  0.00     0.269 C 
HETATM   22  O2  UNL     1     -13.468 -17.612 -53.174  1.00  0.00    -0.265 OA
BRANCH  21  23
HETATM   23  O3  UNL     1     -14.649 -15.732 -52.881  1.00  0.00    -0.311 OA
BRANCH  23  24
HETATM   24  C10 UNL     1     -15.933 -16.078 -53.316  1.00  0.00     0.060 C 
HETATM   25  C11 UNL     1     -16.785 -14.801 -53.260  1.00  0.00     0.045 C 
HETATM   26  C12 UNL     1     -16.562 -17.013 -52.303  1.00  0.00     0.045 C 
HETATM   27  C13 UNL     1     -15.979 -16.617 -54.705  1.00  0.00     0.045 C 
ENDBRANCH  23  24
ENDBRANCH  21  23
ENDBRANCH   2  21
BRANCH   1  28
HETATM   28  C6  UNL     1     -13.781 -17.534 -49.212  1.00  0.00     0.035 C 
BRANCH  28  29
HETATM   29  C5  UNL     1     -14.637 -17.770 -48.071  1.00  0.00     0.174 C 
HETATM   30  O1  UNL     1     -14.151 -17.714 -46.913  1.00  0.00    -0.288 OA
BRANCH  29  31
HETATM   31  C3  UNL     1     -16.073 -18.080 -48.191  1.00  0.00    -0.016 C 
HETATM   32  C2  UNL     1     -16.549 -18.989 -49.014  1.00  0.00    -0.020 C 
HETATM   33  C1  UNL     1     -15.761 -19.827 -49.922  1.00  0.00     0.036 C 
HETATM   34  C4  UNL     1     -17.010 -17.315 -47.334  1.00  0.00     0.052 C 
ENDBRANCH  29  31
ENDBRANCH  28  29
ENDBRANCH   1  28
BRANCH   6  35
HETATM   35  C23 UNL     1     -12.058 -10.801 -49.368  1.00  0.00     0.038 C 
BRANCH  35  36
HETATM   36  C24 UNL     1     -10.609 -10.763 -49.070  1.00  0.00     0.032 C 
BRANCH  36  37
HETATM   37  C25 UNL     1      -9.709 -10.525 -50.182  1.00  0.00    -0.022 C 
HETATM   38  C26 UNL     1      -8.796  -9.648 -50.434  1.00  0.00    -0.061 C 
BRANCH  38  39
HETATM   39  C27 UNL     1      -8.265  -8.503 -49.707  1.00  0.00     0.031 C 
HETATM   40  C28 UNL     1      -6.790  -8.250 -50.055  1.00  0.00     0.010 C 
ENDBRANCH  38  39
BRANCH  38  41
HETATM   41  C29 UNL     1      -8.075  -9.870 -51.787  1.00  0.00     0.198 C 
BRANCH  41  42
HETATM   42  O7  UNL     1      -8.569 -10.991 -52.393  1.00  0.00    -0.397 OA
ATOM     43  H7  UNL     1      -8.006 -11.236 -53.119  1.00  0.00     0.209 HD
ENDBRANCH  41  42
ENDBRANCH  38  41
ENDBRANCH  36  37
ENDBRANCH  35  36
ENDBRANCH   6  35
BRANCH   8  44
HETATM   44  O8  UNL     1     -14.952 -13.522 -49.989  1.00  0.00    -0.389 OA
ATOM     45  H8  UNL     1     -14.861 -14.193 -50.654  1.00  0.00     0.210 HD
ENDBRANCH   8  44
TORSDOF 17
ENDMDL
