MODEL 1
REMARK VINA RESULT: -9.245331719      0.000      0.000
REMARK  6 active torsions:
REMARK  status: ('A' for Active; 'I' for Inactive)
REMARK    1  A    between atoms: C3_3  and  C4_4 
REMARK    2  A    between atoms: C5_5  and  N1_6 
REMARK    3  A    between atoms: N1_6  and  C6_8 
REMARK    4  A    between atoms: C10_13  and  C11_14 
REMARK    5  A    between atoms: C11_14  and  N2_15 
REMARK    6  A    between atoms: C23_32  and  O3_33 
ROOT
HETATM    1  C1  UNL     1      -3.348  -1.836 -11.635  1.00  0.00     0.012 C 
HETATM    2  C2  UNL     1      -3.746  -1.450 -12.709  1.00  0.00    -0.113 C 
HETATM    3  C3  UNL     1      -4.214  -0.961 -14.008  1.00  0.00     0.135 C 
ENDROOT
BRANCH   3   4
HETATM    4  C4  UNL     1      -4.073   0.517 -14.042  1.00  0.00     0.004 A 
HETATM    5  C5  UNL     1      -5.205   1.296 -13.819  1.00  0.00     0.044 A 
HETATM    6  C21 UNL     1      -5.013   2.653 -13.845  1.00  0.00     0.075 A 
HETATM    7  C22 UNL     1      -3.749   3.226 -14.087  1.00  0.00     0.153 A 
HETATM    8  F1  UNL     1      -3.626   4.557 -14.102  1.00  0.00    -0.203 F 
HETATM    9  C23 UNL     1      -2.644   2.444 -14.307  1.00  0.00     0.129 A 
HETATM   10  C25 UNL     1      -2.827   1.086 -14.280  1.00  0.00     0.079 A 
HETATM   11 CL2  UNL     1      -1.452   0.038 -14.553  1.00  0.00    -0.081 Cl
BRANCH   5  12
HETATM   12  N1  UNL     1      -6.426   0.668 -13.535  1.00  0.00    -0.351 N 
ATOM     13  H1  UNL     1      -6.421   0.063 -12.714  1.00  0.00     0.166 HD
BRANCH  12  14
HETATM   14  C6  UNL     1      -7.659   0.747 -14.214  1.00  0.00     0.110 A 
HETATM   15  C7  UNL     1      -8.370   1.902 -14.395  1.00  0.00     0.052 A 
HETATM   16  C8  UNL     1      -9.547   1.933 -15.137  1.00  0.00     0.025 A 
HETATM   17  C9  UNL     1     -10.254   3.083 -15.312  1.00  0.00     0.058 A 
HETATM   18  C19 UNL     1      -9.977   0.749 -15.692  1.00  0.00     0.115 A 
HETATM   19 CL1  UNL     1      -9.666   4.549 -14.588  1.00  0.00    -0.082 Cl
HETATM   20  C10 UNL     1     -11.448   3.157 -16.053  1.00  0.00     0.004 A 
HETATM   21  C17 UNL     1     -11.866   1.976 -16.602  1.00  0.00     0.044 A 
HETATM   22  C18 UNL     1     -11.143   0.789 -16.424  1.00  0.00     0.082 A 
HETATM   23  N4  UNL     1     -11.595  -0.436 -17.006  1.00  0.00    -0.099 NA
HETATM   24  O1  UNL     1      -9.295  -0.368 -15.524  1.00  0.00    -0.271 OA
HETATM   25  C20 UNL     1      -8.199  -0.390 -14.830  1.00  0.00     0.315 A 
HETATM   26  O2  UNL     1      -7.557  -1.461 -14.676  1.00  0.00    -0.257 OA
BRANCH  20  27
HETATM   27  C11 UNL     1     -12.122   4.460 -16.225  1.00  0.00     0.098 C 
BRANCH  27  28
HETATM   28  N2  UNL     1     -13.434   4.474 -15.738  1.00  0.00    -0.386 N 
HETATM   29  C12 UNL     1     -13.702   4.026 -14.431  1.00  0.00     0.141 C 
HETATM   30  C13 UNL     1     -15.077   4.539 -13.981  1.00  0.00     0.136 C 
HETATM   31  N3  UNL     1     -16.052   3.931 -14.824  1.00  0.00    -0.414 N 
HETATM   32  C14 UNL     1     -16.556   2.676 -14.360  1.00  0.00     0.143 C 
HETATM   33  C15 UNL     1     -15.812   3.995 -16.225  1.00  0.00     0.136 C 
HETATM   34  C16 UNL     1     -14.508   4.570 -16.653  1.00  0.00     0.141 C 
ENDBRANCH  27  28
ENDBRANCH  20  27
ENDBRANCH  12  14
ENDBRANCH   5  12
BRANCH   9  35
HETATM   35  O3  UNL     1      -1.385   3.001 -14.548  1.00  0.00    -0.351 OA
HETATM   36  C24 UNL     1      -1.098   3.788 -15.675  1.00  0.00     0.210 C 
ENDBRANCH   9  35
ENDBRANCH   3   4
TORSDOF 6
ENDMDL
MODEL 2
REMARK VINA RESULT: -9.115868965      1.977      3.239
REMARK  6 active torsions:
REMARK  status: ('A' for Active; 'I' for Inactive)
REMARK    1  A    between atoms: C3_3  and  C4_4 
REMARK    2  A    between atoms: C5_5  and  N1_6 
REMARK    3  A    between atoms: N1_6  and  C6_8 
REMARK    4  A    between atoms: C10_13  and  C11_14 
REMARK    5  A    between atoms: C11_14  and  N2_15 
REMARK    6  A    between atoms: C23_32  and  O3_33 
ROOT
HETATM    1  C1  UNL     1      -3.347  -1.838 -11.734  1.00  0.00     0.012 C 
HETATM    2  C2  UNL     1      -3.747  -1.442 -12.804  1.00  0.00    -0.113 C 
HETATM    3  C3  UNL     1      -4.217  -0.941 -14.099  1.00  0.00     0.135 C 
ENDROOT
BRANCH   3   4
HETATM    4  C4  UNL     1      -4.064   0.535 -14.125  1.00  0.00     0.004 A 
HETATM    5  C5  UNL     1      -5.195   1.323 -13.929  1.00  0.00     0.044 A 
HETATM    6  C21 UNL     1      -4.993   2.678 -13.947  1.00  0.00     0.075 A 
HETATM    7  C22 UNL     1      -3.718   3.241 -14.155  1.00  0.00     0.153 A 
HETATM    8  F1  UNL     1      -3.585   4.571 -14.164  1.00  0.00    -0.203 F 
HETATM    9  C23 UNL     1      -2.614   2.452 -14.348  1.00  0.00     0.129 A 
HETATM   10  C25 UNL     1      -2.807   1.096 -14.329  1.00  0.00     0.079 A 
HETATM   11 CL2  UNL     1      -1.434   0.038 -14.569  1.00  0.00    -0.081 Cl
BRANCH   5  12
HETATM   12  N1  UNL     1      -6.428   0.703 -13.678  1.00  0.00    -0.351 N 
ATOM     13  H1  UNL     1      -6.421   0.011 -12.929  1.00  0.00     0.166 HD
BRANCH  12  14
HETATM   14  C6  UNL     1      -7.676   0.894 -14.307  1.00  0.00     0.110 A 
HETATM   15  C7  UNL     1      -8.238   2.115 -14.555  1.00  0.00     0.052 A 
HETATM   16  C8  UNL     1      -9.441   2.245 -15.244  1.00  0.00     0.025 A 
HETATM   17  C9  UNL     1     -10.000   3.463 -15.486  1.00  0.00     0.058 A 
HETATM   18  C19 UNL     1     -10.052   1.089 -15.675  1.00  0.00     0.115 A 
HETATM   19 CL1  UNL     1      -9.186   4.889 -14.919  1.00  0.00    -0.082 Cl
HETATM   20  C10 UNL     1     -11.213   3.638 -16.178  1.00  0.00     0.004 A 
HETATM   21  C17 UNL     1     -11.812   2.484 -16.603  1.00  0.00     0.044 A 
HETATM   22  C18 UNL     1     -11.241   1.228 -16.356  1.00  0.00     0.082 A 
HETATM   23  N4  UNL     1     -11.882   0.033 -16.808  1.00  0.00    -0.099 NA
HETATM   24  O1  UNL     1      -9.514  -0.092 -15.441  1.00  0.00    -0.271 OA
HETATM   25  C20 UNL     1      -8.393  -0.206 -14.798  1.00  0.00     0.315 A 
HETATM   26  O2  UNL     1      -7.889  -1.339 -14.579  1.00  0.00    -0.257 OA
BRANCH  20  27
HETATM   27  C11 UNL     1     -11.720   5.001 -16.432  1.00  0.00     0.098 C 
BRANCH  27  28
HETATM   28  N2  UNL     1     -11.053   5.657 -17.474  1.00  0.00    -0.386 N 
HETATM   29  C12 UNL     1     -10.516   4.912 -18.540  1.00  0.00     0.141 C 
HETATM   30  C13 UNL     1     -10.245   5.840 -19.733  1.00  0.00     0.136 C 
HETATM   31  N3  UNL     1      -9.232   6.759 -19.332  1.00  0.00    -0.414 N 
HETATM   32  C14 UNL     1      -7.892   6.327 -19.579  1.00  0.00     0.143 C 
HETATM   33  C15 UNL     1      -9.425   7.417 -18.085  1.00  0.00     0.136 C 
HETATM   34  C16 UNL     1     -10.592   6.979 -17.273  1.00  0.00     0.141 C 
ENDBRANCH  27  28
ENDBRANCH  20  27
ENDBRANCH  12  14
ENDBRANCH   5  12
BRANCH   9  35
HETATM   35  O3  UNL     1      -1.344   2.999 -14.555  1.00  0.00    -0.351 OA
HETATM   36  C24 UNL     1      -1.021   3.783 -15.675  1.00  0.00     0.210 C 
ENDBRANCH   9  35
ENDBRANCH   3   4
TORSDOF 6
ENDMDL
MODEL 3
REMARK VINA RESULT: -9.064307356      1.869      2.815
REMARK  6 active torsions:
REMARK  status: ('A' for Active; 'I' for Inactive)
REMARK    1  A    between atoms: C3_3  and  C4_4 
REMARK    2  A    between atoms: C5_5  and  N1_6 
REMARK    3  A    between atoms: N1_6  and  C6_8 
REMARK    4  A    between atoms: C10_13  and  C11_14 
REMARK    5  A    between atoms: C11_14  and  N2_15 
REMARK    6  A    between atoms: C23_32  and  O3_33 
ROOT
HETATM    1  C1  UNL     1      -3.348  -1.829 -11.717  1.00  0.00     0.012 C 
HETATM    2  C2  UNL     1      -3.743  -1.431 -12.788  1.00  0.00    -0.113 C 
HETATM    3  C3  UNL     1      -4.207  -0.928 -14.084  1.00  0.00     0.135 C 
ENDROOT
BRANCH   3   4
HETATM    4  C4  UNL     1      -4.035   0.547 -14.114  1.00  0.00     0.004 A 
HETATM    5  C5  UNL     1      -5.153   1.349 -13.898  1.00  0.00     0.044 A 
HETATM    6  C21 UNL     1      -4.932   2.702 -13.920  1.00  0.00     0.075 A 
HETATM    7  C22 UNL     1      -3.655   3.248 -14.151  1.00  0.00     0.153 A 
HETATM    8  F1  UNL     1      -3.504   4.577 -14.163  1.00  0.00    -0.203 F 
HETATM    9  C23 UNL     1      -2.565   2.444 -14.363  1.00  0.00     0.129 A 
HETATM   10  C25 UNL     1      -2.775   1.091 -14.340  1.00  0.00     0.079 A 
HETATM   11 CL2  UNL     1      -1.420   0.015 -14.604  1.00  0.00    -0.081 Cl
BRANCH   5  12
HETATM   12  N1  UNL     1      -6.388   0.746 -13.625  1.00  0.00    -0.351 N 
ATOM     13  H1  UNL     1      -6.391   0.101 -12.835  1.00  0.00     0.166 HD
BRANCH  12  14
HETATM   14  C6  UNL     1      -7.628   0.898 -14.279  1.00  0.00     0.110 A 
HETATM   15  C7  UNL     1      -8.207   2.102 -14.570  1.00  0.00     0.052 A 
HETATM   16  C8  UNL     1      -9.400   2.193 -15.282  1.00  0.00     0.025 A 
HETATM   17  C9  UNL     1      -9.974   3.394 -15.567  1.00  0.00     0.058 A 
HETATM   18  C19 UNL     1      -9.985   1.016 -15.690  1.00  0.00     0.115 A 
HETATM   19 CL1  UNL     1      -9.194   4.849 -15.026  1.00  0.00    -0.082 Cl
HETATM   20  C10 UNL     1     -11.179   3.529 -16.283  1.00  0.00     0.004 A 
HETATM   21  C17 UNL     1     -11.752   2.354 -16.685  1.00  0.00     0.044 A 
HETATM   22  C18 UNL     1     -11.164   1.115 -16.394  1.00  0.00     0.082 A 
HETATM   23  N4  UNL     1     -11.777  -0.102 -16.823  1.00  0.00    -0.099 NA
HETATM   24  O1  UNL     1      -9.431  -0.149 -15.414  1.00  0.00    -0.271 OA
HETATM   25  C20 UNL     1      -8.320  -0.227 -14.750  1.00  0.00     0.315 A 
HETATM   26  O2  UNL     1      -7.801  -1.344 -14.492  1.00  0.00    -0.257 OA
BRANCH  20  27
HETATM   27  C11 UNL     1     -11.703   4.877 -16.582  1.00  0.00     0.098 C 
BRANCH  27  28
HETATM   28  N2  UNL     1     -11.650   5.204 -17.943  1.00  0.00    -0.386 N 
HETATM   29  C12 UNL     1     -12.800   5.069 -18.742  1.00  0.00     0.141 C 
HETATM   30  C13 UNL     1     -12.629   5.880 -20.034  1.00  0.00     0.136 C 
HETATM   31  N3  UNL     1     -11.558   5.291 -20.765  1.00  0.00    -0.414 N 
HETATM   32  C14 UNL     1     -11.942   4.251 -21.669  1.00  0.00     0.143 C 
HETATM   33  C15 UNL     1     -10.356   5.040 -20.046  1.00  0.00     0.136 C 
HETATM   34  C16 UNL     1     -10.390   5.296 -18.580  1.00  0.00     0.141 C 
ENDBRANCH  27  28
ENDBRANCH  20  27
ENDBRANCH  12  14
ENDBRANCH   5  12
BRANCH   9  35
HETATM   35  O3  UNL     1      -1.292   2.975 -14.593  1.00  0.00    -0.351 OA
HETATM   36  C24 UNL     1      -0.978   3.754 -15.719  1.00  0.00     0.210 C 
ENDBRANCH   9  35
ENDBRANCH   3   4
TORSDOF 6
ENDMDL
MODEL 4
REMARK VINA RESULT: -9.058715165      2.526      3.887
REMARK  6 active torsions:
REMARK  status: ('A' for Active; 'I' for Inactive)
REMARK    1  A    between atoms: C3_3  and  C4_4 
REMARK    2  A    between atoms: C5_5  and  N1_6 
REMARK    3  A    between atoms: N1_6  and  C6_8 
REMARK    4  A    between atoms: C10_13  and  C11_14 
REMARK    5  A    between atoms: C11_14  and  N2_15 
REMARK    6  A    between atoms: C23_32  and  O3_33 
ROOT
HETATM    1  C1  UNL     1      -1.384   4.161 -15.668  1.00  0.00     0.012 C 
HETATM    2  C2  UNL     1      -2.141   3.303 -16.059  1.00  0.00    -0.113 C 
HETATM    3  C3  UNL     1      -3.073   2.267 -16.512  1.00  0.00     0.135 C 
ENDROOT
BRANCH   3   4
HETATM    4  C4  UNL     1      -3.817   1.745 -15.338  1.00  0.00     0.004 A 
HETATM    5  C5  UNL     1      -5.054   2.306 -15.034  1.00  0.00     0.044 A 
HETATM    6  C21 UNL     1      -5.704   1.774 -13.950  1.00  0.00     0.075 A 
HETATM    7  C22 UNL     1      -5.152   0.726 -13.188  1.00  0.00     0.153 A 
HETATM    8  F1  UNL     1      -5.832   0.251 -12.140  1.00  0.00    -0.203 F 
HETATM    9  C23 UNL     1      -3.931   0.186 -13.500  1.00  0.00     0.129 A 
HETATM   10  C25 UNL     1      -3.276   0.710 -14.583  1.00  0.00     0.079 A 
HETATM   11 CL2  UNL     1      -1.714   0.059 -15.030  1.00  0.00    -0.081 Cl
BRANCH   5  12
HETATM   12  N1  UNL     1      -5.573   3.313 -15.860  1.00  0.00    -0.351 N 
ATOM     13  H1  UNL     1      -4.887   3.791 -16.445  1.00  0.00     0.166 HD
BRANCH  12  14
HETATM   14  C6  UNL     1      -6.902   3.765 -16.004  1.00  0.00     0.110 A 
HETATM   15  C7  UNL     1      -8.009   2.996 -15.773  1.00  0.00     0.052 A 
HETATM   16  C8  UNL     1      -9.297   3.516 -15.861  1.00  0.00     0.025 A 
HETATM   17  C9  UNL     1     -10.397   2.746 -15.635  1.00  0.00     0.058 A 
HETATM   18  C19 UNL     1      -9.422   4.847 -16.190  1.00  0.00     0.115 A 
HETATM   19 CL1  UNL     1     -10.182   1.072 -15.225  1.00  0.00    -0.082 Cl
HETATM   20  C10 UNL     1     -11.716   3.232 -15.714  1.00  0.00     0.004 A 
HETATM   21  C17 UNL     1     -11.829   4.556 -16.041  1.00  0.00     0.044 A 
HETATM   22  C18 UNL     1     -10.700   5.352 -16.275  1.00  0.00     0.082 A 
HETATM   23  N4  UNL     1     -10.839   6.734 -16.614  1.00  0.00    -0.099 NA
HETATM   24  O1  UNL     1      -8.358   5.594 -16.412  1.00  0.00    -0.271 OA
HETATM   25  C20 UNL     1      -7.160   5.104 -16.328  1.00  0.00     0.315 A 
HETATM   26  O2  UNL     1      -6.152   5.826 -16.542  1.00  0.00    -0.257 OA
BRANCH  20  27
HETATM   27  C11 UNL     1     -12.846   2.333 -15.408  1.00  0.00     0.098 C 
BRANCH  27  28
HETATM   28  N2  UNL     1     -13.967   3.001 -14.901  1.00  0.00    -0.386 N 
HETATM   29  C12 UNL     1     -14.106   3.182 -13.512  1.00  0.00     0.141 C 
HETATM   30  C13 UNL     1     -15.134   4.288 -13.236  1.00  0.00     0.136 C 
HETATM   31  N3  UNL     1     -16.395   3.822 -13.711  1.00  0.00    -0.414 N 
HETATM   32  C14 UNL     1     -17.170   3.095 -12.756  1.00  0.00     0.143 C 
HETATM   33  C15 UNL     1     -16.421   3.288 -15.030  1.00  0.00     0.136 C 
HETATM   34  C16 UNL     1     -15.110   3.149 -15.720  1.00  0.00     0.141 C 
ENDBRANCH  27  28
ENDBRANCH  20  27
ENDBRANCH  12  14
ENDBRANCH   5  12
BRANCH   9  35
HETATM   35  O3  UNL     1      -3.373  -0.855 -12.750  1.00  0.00    -0.351 OA
HETATM   36  C24 UNL     1      -3.840  -2.177 -12.809  1.00  0.00     0.210 C 
ENDBRANCH   9  35
ENDBRANCH   3   4
TORSDOF 6
ENDMDL
MODEL 5
REMARK VINA RESULT: -8.703657332      2.627      3.943
REMARK  6 active torsions:
REMARK  status: ('A' for Active; 'I' for Inactive)
REMARK    1  A    between atoms: C3_3  and  C4_4 
REMARK    2  A    between atoms: C5_5  and  N1_6 
REMARK    3  A    between atoms: N1_6  and  C6_8 
REMARK    4  A    between atoms: C10_13  and  C11_14 
REMARK    5  A    between atoms: C11_14  and  N2_15 
REMARK    6  A    between atoms: C23_32  and  O3_33 
ROOT
HETATM    1  C1  UNL     1      -1.410   4.188 -15.681  1.00  0.00     0.012 C 
HETATM    2  C2  UNL     1      -2.229   3.395 -16.084  1.00  0.00    -0.113 C 
HETATM    3  C3  UNL     1      -3.236   2.438 -16.551  1.00  0.00     0.135 C 
ENDROOT
BRANCH   3   4
HETATM    4  C4  UNL     1      -3.947   1.878 -15.374  1.00  0.00     0.004 A 
HETATM    5  C5  UNL     1      -5.164   2.444 -15.004  1.00  0.00     0.044 A 
HETATM    6  C21 UNL     1      -5.784   1.877 -13.921  1.00  0.00     0.075 A 
HETATM    7  C22 UNL     1      -5.223   0.791 -13.222  1.00  0.00     0.153 A 
HETATM    8  F1  UNL     1      -5.875   0.282 -12.171  1.00  0.00    -0.203 F 
HETATM    9  C23 UNL     1      -4.022   0.246 -13.597  1.00  0.00     0.129 A 
HETATM   10  C25 UNL     1      -3.397   0.805 -14.681  1.00  0.00     0.079 A 
HETATM   11 CL2  UNL     1      -1.861   0.151 -15.207  1.00  0.00    -0.081 Cl
BRANCH   5  12
HETATM   12  N1  UNL     1      -5.696   3.491 -15.770  1.00  0.00    -0.351 N 
ATOM     13  H1  UNL     1      -5.033   4.226 -16.019  1.00  0.00     0.166 HD
BRANCH  12  14
HETATM   14  C6  UNL     1      -7.009   3.681 -16.248  1.00  0.00     0.110 A 
HETATM   15  C7  UNL     1      -8.040   2.807 -16.042  1.00  0.00     0.052 A 
HETATM   16  C8  UNL     1      -9.335   3.082 -16.476  1.00  0.00     0.025 A 
HETATM   17  C9  UNL     1     -10.358   2.207 -16.273  1.00  0.00     0.058 A 
HETATM   18  C19 UNL     1      -9.545   4.277 -17.125  1.00  0.00     0.115 A 
HETATM   19 CL1  UNL     1     -10.036   0.712 -15.450  1.00  0.00    -0.082 Cl
HETATM   20  C10 UNL     1     -11.680   2.446 -16.696  1.00  0.00     0.004 A 
HETATM   21  C17 UNL     1     -11.879   3.637 -17.339  1.00  0.00     0.044 A 
HETATM   22  C18 UNL     1     -10.828   4.540 -17.551  1.00  0.00     0.082 A 
HETATM   23  N4  UNL     1     -11.056   5.780 -18.223  1.00  0.00    -0.099 NA
HETATM   24  O1  UNL     1      -8.555   5.126 -17.325  1.00  0.00    -0.271 OA
HETATM   25  C20 UNL     1      -7.351   4.864 -16.918  1.00  0.00     0.315 A 
HETATM   26  O2  UNL     1      -6.413   5.680 -17.114  1.00  0.00    -0.257 OA
BRANCH  20  27
HETATM   27  C11 UNL     1     -12.734   1.458 -16.392  1.00  0.00     0.098 C 
BRANCH  27  28
HETATM   28  N2  UNL     1     -13.568   1.843 -15.335  1.00  0.00    -0.386 N 
HETATM   29  C12 UNL     1     -14.949   1.583 -15.402  1.00  0.00     0.141 C 
HETATM   30  C13 UNL     1     -15.562   1.681 -13.998  1.00  0.00     0.136 C 
HETATM   31  N3  UNL     1     -15.426   3.033 -13.570  1.00  0.00    -0.414 N 
HETATM   32  C14 UNL     1     -16.514   3.891 -13.920  1.00  0.00     0.143 C 
HETATM   33  C15 UNL     1     -14.136   3.620 -13.709  1.00  0.00     0.136 C 
HETATM   34  C16 UNL     1     -13.105   2.805 -14.408  1.00  0.00     0.141 C 
ENDBRANCH  27  28
ENDBRANCH  20  27
ENDBRANCH  12  14
ENDBRANCH   5  12
BRANCH   9  35
HETATM   35  O3  UNL     1      -3.455  -0.832 -12.911  1.00  0.00    -0.351 OA
HETATM   36  C24 UNL     1      -3.931  -2.148 -13.024  1.00  0.00     0.210 C 
ENDBRANCH   9  35
ENDBRANCH   3   4
TORSDOF 6
ENDMDL
