MODEL 1
REMARK VINA RESULT: -8.452461388      0.000      0.000
REMARK  6 active torsions:
REMARK  status: ('A' for Active; 'I' for Inactive)
REMARK    1  A    between atoms: C2_2  and  C3_3 
REMARK    2  A    between atoms: C2_2  and  N4_17 
REMARK    3  A    between atoms: C3_3  and  N1_4 
REMARK    4  A    between atoms: C8_12  and  C9_13 
REMARK    5  A    between atoms: C13_22  and  O1_23 
REMARK    6  A    between atoms: O1_23  and  C14_24 
ROOT
HETATM    1  C9  UNL     1      -3.594   2.408 -14.832  1.00  0.00     0.113 C 
HETATM    2  C10 UNL     1      -3.690   2.965 -16.233  1.00  0.00     0.027 C 
HETATM    3  C11 UNL     1      -2.210   2.471 -14.378  1.00  0.00     0.065 C 
HETATM    4  N3  UNL     1      -1.108   2.544 -14.020  1.00  0.00    -0.197 NA
ENDROOT
BRANCH   1   5
HETATM    5  C8  UNL     1      -4.146   0.973 -14.768  1.00  0.00     0.126 C 
HETATM    6  N1  UNL     1      -5.131   0.929 -13.778  1.00  0.00    -0.382 N 
HETATM    7  C4  UNL     1      -4.937   0.349 -12.530  1.00  0.00     0.091 C 
HETATM    8  C5  UNL     1      -3.678  -0.432 -12.382  1.00  0.00     0.220 C 
HETATM    9  C6  UNL     1      -3.978  -1.921 -12.522  1.00  0.00     0.046 C 
HETATM   10  N2  UNL     1      -2.618  -0.092 -13.266  1.00  0.00    -0.065 N 
HETATM   11  C7  UNL     1      -3.041  -0.017 -14.633  1.00  0.00     0.259 C 
ATOM     12  H22 UNL     1      -2.163   0.772 -12.976  1.00  0.00     0.278 HD
ATOM     13  H21 UNL     1      -1.834  -0.735 -13.160  1.00  0.00     0.278 HD
BRANCH   6  14
HETATM   14  C3  UNL     1      -6.343   1.655 -14.016  1.00  0.00     0.147 C 
BRANCH  14  15
HETATM   15  C2  UNL     1      -7.581   0.867 -13.661  1.00  0.00     0.113 C 
HETATM   16  C1  UNL     1      -7.553  -0.493 -14.389  1.00  0.00     0.034 C 
BRANCH  15  17
HETATM   17  N4  UNL     1      -8.775   1.493 -13.857  1.00  0.00    -0.220 N 
HETATM   18  C12 UNL     1      -9.472   2.303 -14.461  1.00  0.00     0.680 A 
HETATM   19  N5  UNL     1     -10.791   2.490 -14.124  1.00  0.00    -0.169 N 
HETATM   20  N6  UNL     1      -9.020   3.063 -15.478  1.00  0.00    -0.201 N 
HETATM   21  C13 UNL     1     -11.594   3.362 -14.748  1.00  0.00     0.181 A 
ATOM     22  H5  UNL     1     -11.179   1.937 -13.360  1.00  0.00     0.186 HD
HETATM   23  C20 UNL     1     -11.092   4.119 -15.782  1.00  0.00     0.078 A 
HETATM   24 BR1  UNL     1     -12.163   5.397 -16.740  1.00  0.00    -0.045 Br
HETATM   25  C21 UNL     1      -9.765   3.955 -16.148  1.00  0.00     0.129 A 
ATOM     26  H6  UNL     1      -8.045   2.952 -15.756  1.00  0.00     0.183 HD
ATOM     27  H4  UNL     1      -9.396   1.088 -13.157  1.00  0.00     0.178 HD
BRANCH  21  28
HETATM   28  O1  UNL     1     -12.916   3.522 -14.381  1.00  0.00    -0.290 OA
BRANCH  28  29
HETATM   29  C14 UNL     1     -13.940   2.633 -14.358  1.00  0.00     0.099 A 
HETATM   30  C15 UNL     1     -14.004   1.651 -15.360  1.00  0.00     0.041 A 
HETATM   31  C16 UNL     1     -14.986   0.711 -15.437  1.00  0.00     0.026 A 
HETATM   32  C17 UNL     1     -15.999   0.670 -14.512  1.00  0.00     0.035 A 
HETATM   33 CL1  UNL     1     -17.238  -0.551 -14.644  1.00  0.00    -0.084 Cl
HETATM   34  C18 UNL     1     -15.979   1.609 -13.513  1.00  0.00     0.050 A 
HETATM   35  C19 UNL     1     -14.967   2.571 -13.440  1.00  0.00     0.069 A 
HETATM   36 CL2  UNL     1     -14.993   3.731 -12.135  1.00  0.00    -0.081 Cl
ENDBRANCH  28  29
ENDBRANCH  21  28
ENDBRANCH  15  17
ENDBRANCH  14  15
ENDBRANCH   6  14
ENDBRANCH   1   5
TORSDOF 6
ENDMDL
MODEL 2
REMARK VINA RESULT: -8.404359524      2.732      3.729
REMARK  6 active torsions:
REMARK  status: ('A' for Active; 'I' for Inactive)
REMARK    1  A    between atoms: C2_2  and  C3_3 
REMARK    2  A    between atoms: C2_2  and  N4_17 
REMARK    3  A    between atoms: C3_3  and  N1_4 
REMARK    4  A    between atoms: C8_12  and  C9_13 
REMARK    5  A    between atoms: C13_22  and  O1_23 
REMARK    6  A    between atoms: O1_23  and  C14_24 
ROOT
HETATM    1  C9  UNL     1      -2.066   2.144 -14.607  1.00  0.00     0.113 C 
HETATM    2  C10 UNL     1      -1.546   3.104 -15.651  1.00  0.00     0.027 C 
HETATM    3  C11 UNL     1      -1.149   1.017 -14.484  1.00  0.00     0.065 C 
HETATM    4  N3  UNL     1      -0.402   0.134 -14.380  1.00  0.00    -0.197 NA
ENDROOT
BRANCH   1   5
HETATM    5  C8  UNL     1      -3.493   1.678 -14.946  1.00  0.00     0.126 C 
HETATM    6  N1  UNL     1      -4.394   2.556 -14.336  1.00  0.00    -0.382 N 
HETATM    7  C4  UNL     1      -5.124   2.237 -13.198  1.00  0.00     0.091 C 
HETATM    8  C5  UNL     1      -5.061   0.808 -12.784  1.00  0.00     0.220 C 
HETATM    9  C6  UNL     1      -6.322   0.084 -13.242  1.00  0.00     0.046 C 
HETATM   10  N2  UNL     1      -3.926   0.074 -13.223  1.00  0.00    -0.065 N 
HETATM   11  C7  UNL     1      -3.672   0.234 -14.624  1.00  0.00     0.259 C 
ATOM     12  H22 UNL     1      -3.101   0.311 -12.673  1.00  0.00     0.278 HD
ATOM     13  H21 UNL     1      -4.010  -0.912 -12.977  1.00  0.00     0.278 HD
BRANCH   6  14
HETATM   14  C3  UNL     1      -4.444   3.900 -14.829  1.00  0.00     0.147 C 
BRANCH  14  15
HETATM   15  C2  UNL     1      -5.338   4.052 -16.037  1.00  0.00     0.113 C 
HETATM   16  C1  UNL     1      -5.334   5.525 -16.499  1.00  0.00     0.034 C 
BRANCH  15  17
HETATM   17  N4  UNL     1      -6.613   3.592 -15.910  1.00  0.00    -0.220 N 
HETATM   18  C12 UNL     1      -7.820   3.796 -15.816  1.00  0.00     0.680 A 
HETATM   19  N5  UNL     1      -8.707   2.753 -15.699  1.00  0.00    -0.169 N 
HETATM   20  N6  UNL     1      -8.370   5.027 -15.818  1.00  0.00    -0.201 N 
HETATM   21  C13 UNL     1     -10.031   2.920 -15.591  1.00  0.00     0.181 A 
ATOM     22  H5  UNL     1      -8.337   1.802 -15.693  1.00  0.00     0.186 HD
HETATM   23  C20 UNL     1     -10.552   4.194 -15.597  1.00  0.00     0.078 A 
HETATM   24 BR1  UNL     1     -12.438   4.539 -15.448  1.00  0.00    -0.045 Br
HETATM   25  C21 UNL     1      -9.685   5.270 -15.715  1.00  0.00     0.129 A 
ATOM     26  H6  UNL     1      -7.743   5.827 -15.903  1.00  0.00     0.183 HD
ATOM     27  H4  UNL     1      -6.519   2.577 -15.876  1.00  0.00     0.178 HD
BRANCH  21  28
HETATM   28  O1  UNL     1     -10.892   1.845 -15.476  1.00  0.00    -0.290 OA
BRANCH  28  29
HETATM   29  C14 UNL     1     -11.009   0.723 -16.227  1.00  0.00     0.099 A 
HETATM   30  C15 UNL     1      -9.902  -0.136 -16.332  1.00  0.00     0.041 A 
HETATM   31  C16 UNL     1      -9.905  -1.288 -17.060  1.00  0.00     0.026 A 
HETATM   32  C17 UNL     1     -11.022  -1.684 -17.751  1.00  0.00     0.035 A 
HETATM   33 CL1  UNL     1     -10.986  -3.166 -18.671  1.00  0.00    -0.084 Cl
HETATM   34  C18 UNL     1     -12.128  -0.877 -17.678  1.00  0.00     0.050 A 
HETATM   35  C19 UNL     1     -12.118   0.303 -16.929  1.00  0.00     0.069 A 
HETATM   36 CL2  UNL     1     -13.565   1.280 -16.866  1.00  0.00    -0.081 Cl
ENDBRANCH  28  29
ENDBRANCH  21  28
ENDBRANCH  15  17
ENDBRANCH  14  15
ENDBRANCH   6  14
ENDBRANCH   1   5
TORSDOF 6
ENDMDL
MODEL 3
REMARK VINA RESULT: -8.369257432      1.617      2.192
REMARK  6 active torsions:
REMARK  status: ('A' for Active; 'I' for Inactive)
REMARK    1  A    between atoms: C2_2  and  C3_3 
REMARK    2  A    between atoms: C2_2  and  N4_17 
REMARK    3  A    between atoms: C3_3  and  N1_4 
REMARK    4  A    between atoms: C8_12  and  C9_13 
REMARK    5  A    between atoms: C13_22  and  O1_23 
REMARK    6  A    between atoms: O1_23  and  C14_24 
ROOT
HETATM    1  C9  UNL     1      -3.601   2.378 -14.817  1.00  0.00     0.113 C 
HETATM    2  C10 UNL     1      -3.783   2.947 -16.204  1.00  0.00     0.027 C 
HETATM    3  C11 UNL     1      -2.200   2.487 -14.427  1.00  0.00     0.065 C 
HETATM    4  N3  UNL     1      -1.086   2.598 -14.119  1.00  0.00    -0.197 NA
ENDROOT
BRANCH   1   5
HETATM    5  C8  UNL     1      -4.095   0.923 -14.747  1.00  0.00     0.126 C 
HETATM    6  N1  UNL     1      -5.068   0.841 -13.747  1.00  0.00    -0.382 N 
HETATM    7  C4  UNL     1      -4.840   0.270 -12.501  1.00  0.00     0.091 C 
HETATM    8  C5  UNL     1      -3.550  -0.461 -12.364  1.00  0.00     0.220 C 
HETATM    9  C6  UNL     1      -3.792  -1.961 -12.501  1.00  0.00     0.046 C 
HETATM   10  N2  UNL     1      -2.513  -0.081 -13.258  1.00  0.00    -0.065 N 
HETATM   11  C7  UNL     1      -2.951  -0.024 -14.621  1.00  0.00     0.259 C 
ATOM     12  H22 UNL     1      -2.089   0.801 -12.973  1.00  0.00     0.278 HD
ATOM     13  H21 UNL     1      -1.702  -0.692 -13.160  1.00  0.00     0.278 HD
BRANCH   6  14
HETATM   14  C3  UNL     1      -6.310   1.518 -13.975  1.00  0.00     0.147 C 
BRANCH  14  15
HETATM   15  C2  UNL     1      -7.514   0.659 -13.671  1.00  0.00     0.113 C 
HETATM   16  C1  UNL     1      -7.267  -0.775 -14.183  1.00  0.00     0.034 C 
BRANCH  15  17
HETATM   17  N4  UNL     1      -8.717   1.125 -14.107  1.00  0.00    -0.220 N 
HETATM   18  C12 UNL     1      -9.385   1.800 -14.884  1.00  0.00     0.680 A 
HETATM   19  N5  UNL     1     -10.753   1.859 -14.775  1.00  0.00    -0.169 N 
HETATM   20  N6  UNL     1      -8.852   2.527 -15.887  1.00  0.00    -0.201 N 
HETATM   21  C13 UNL     1     -11.528   2.581 -15.595  1.00  0.00     0.181 A 
ATOM     22  H5  UNL     1     -11.203   1.325 -14.031  1.00  0.00     0.186 HD
HETATM   23  C20 UNL     1     -10.943   3.309 -16.606  1.00  0.00     0.078 A 
HETATM   24 BR1  UNL     1     -11.968   4.376 -17.835  1.00  0.00    -0.045 Br
HETATM   25  C21 UNL     1      -9.564   3.272 -16.746  1.00  0.00     0.129 A 
ATOM     26  H6  UNL     1      -7.838   2.509 -16.000  1.00  0.00     0.183 HD
ATOM     27  H4  UNL     1      -9.400   0.707 -13.475  1.00  0.00     0.178 HD
BRANCH  21  28
HETATM   28  O1  UNL     1     -12.902   2.614 -15.453  1.00  0.00    -0.290 OA
BRANCH  28  29
HETATM   29  C14 UNL     1     -13.688   3.355 -14.635  1.00  0.00     0.099 A 
HETATM   30  C15 UNL     1     -13.298   3.522 -13.295  1.00  0.00     0.041 A 
HETATM   31  C16 UNL     1     -14.010   4.242 -12.384  1.00  0.00     0.026 A 
HETATM   32  C17 UNL     1     -15.182   4.863 -12.735  1.00  0.00     0.035 A 
HETATM   33 CL1  UNL     1     -16.064   5.777 -11.538  1.00  0.00    -0.084 Cl
HETATM   34  C18 UNL     1     -15.603   4.729 -14.032  1.00  0.00     0.050 A 
HETATM   35  C19 UNL     1     -14.868   3.989 -14.963  1.00  0.00     0.069 A 
HETATM   36 CL2  UNL     1     -15.453   3.867 -16.603  1.00  0.00    -0.081 Cl
ENDBRANCH  28  29
ENDBRANCH  21  28
ENDBRANCH  15  17
ENDBRANCH  14  15
ENDBRANCH   6  14
ENDBRANCH   1   5
TORSDOF 6
ENDMDL
MODEL 4
REMARK VINA RESULT: -8.216134435      0.841      1.003
REMARK  6 active torsions:
REMARK  status: ('A' for Active; 'I' for Inactive)
REMARK    1  A    between atoms: C2_2  and  C3_3 
REMARK    2  A    between atoms: C2_2  and  N4_17 
REMARK    3  A    between atoms: C3_3  and  N1_4 
REMARK    4  A    between atoms: C8_12  and  C9_13 
REMARK    5  A    between atoms: C13_22  and  O1_23 
REMARK    6  A    between atoms: O1_23  and  C14_24 
ROOT
HETATM    1  C9  UNL     1      -3.624   2.362 -14.764  1.00  0.00     0.113 C 
HETATM    2  C10 UNL     1      -3.832   2.980 -16.126  1.00  0.00     0.027 C 
HETATM    3  C11 UNL     1      -2.214   2.446 -14.402  1.00  0.00     0.065 C 
HETATM    4  N3  UNL     1      -1.093   2.536 -14.116  1.00  0.00    -0.197 NA
ENDROOT
BRANCH   1   5
HETATM    5  C8  UNL     1      -4.131   0.910 -14.732  1.00  0.00     0.126 C 
HETATM    6  N1  UNL     1      -5.111   0.811 -13.741  1.00  0.00    -0.382 N 
HETATM    7  C4  UNL     1      -4.896   0.209 -12.508  1.00  0.00     0.091 C 
HETATM    8  C5  UNL     1      -3.613  -0.536 -12.380  1.00  0.00     0.220 C 
HETATM    9  C6  UNL     1      -3.866  -2.029 -12.555  1.00  0.00     0.046 C 
HETATM   10  N2  UNL     1      -2.566  -0.142 -13.258  1.00  0.00    -0.065 N 
HETATM   11  C7  UNL     1      -2.995  -0.049 -14.622  1.00  0.00     0.259 C 
ATOM     12  H22 UNL     1      -2.137   0.729 -12.949  1.00  0.00     0.278 HD
ATOM     13  H21 UNL     1      -1.761  -0.762 -13.169  1.00  0.00     0.278 HD
BRANCH   6  14
HETATM   14  C3  UNL     1      -6.346   1.504 -13.960  1.00  0.00     0.147 C 
BRANCH  14  15
HETATM   15  C2  UNL     1      -7.558   0.666 -13.632  1.00  0.00     0.113 C 
HETATM   16  C1  UNL     1      -7.407  -0.731 -14.270  1.00  0.00     0.034 C 
BRANCH  15  17
HETATM   17  N4  UNL     1      -8.770   1.206 -13.939  1.00  0.00    -0.220 N 
HETATM   18  C12 UNL     1      -9.448   2.105 -14.426  1.00  0.00     0.680 A 
HETATM   19  N5  UNL     1     -10.820   2.041 -14.419  1.00  0.00    -0.169 N 
HETATM   20  N6  UNL     1      -8.923   3.209 -14.995  1.00  0.00    -0.201 N 
HETATM   21  C13 UNL     1     -11.606   2.995 -14.934  1.00  0.00     0.181 A 
ATOM     22  H5  UNL     1     -11.264   1.224 -13.998  1.00  0.00     0.186 HD
HETATM   23  C20 UNL     1     -11.030   4.106 -15.506  1.00  0.00     0.078 A 
HETATM   24 BR1  UNL     1     -12.070   5.530 -16.272  1.00  0.00    -0.045 Br
HETATM   25  C21 UNL     1      -9.647   4.204 -15.531  1.00  0.00     0.129 A 
ATOM     26  H6  UNL     1      -7.907   3.294 -15.020  1.00  0.00     0.183 HD
ATOM     27  H4  UNL     1      -9.450   0.528 -13.594  1.00  0.00     0.178 HD
BRANCH  21  28
HETATM   28  O1  UNL     1     -12.984   2.894 -14.907  1.00  0.00    -0.290 OA
BRANCH  28  29
HETATM   29  C14 UNL     1     -13.803   1.886 -15.296  1.00  0.00     0.099 A 
HETATM   30  C15 UNL     1     -13.470   1.153 -16.448  1.00  0.00     0.041 A 
HETATM   31  C16 UNL     1     -14.219   0.123 -16.932  1.00  0.00     0.026 A 
HETATM   32  C17 UNL     1     -15.375  -0.266 -16.303  1.00  0.00     0.035 A 
HETATM   33 CL1  UNL     1     -16.306  -1.591 -16.954  1.00  0.00    -0.084 Cl
HETATM   34  C18 UNL     1     -15.740   0.419 -15.174  1.00  0.00     0.050 A 
HETATM   35  C19 UNL     1     -14.967   1.475 -14.682  1.00  0.00     0.069 A 
HETATM   36 CL2  UNL     1     -15.482   2.300 -13.231  1.00  0.00    -0.081 Cl
ENDBRANCH  28  29
ENDBRANCH  21  28
ENDBRANCH  15  17
ENDBRANCH  14  15
ENDBRANCH   6  14
ENDBRANCH   1   5
TORSDOF 6
ENDMDL
MODEL 5
REMARK VINA RESULT: -8.168250604      5.665      8.335
REMARK  6 active torsions:
REMARK  status: ('A' for Active; 'I' for Inactive)
REMARK    1  A    between atoms: C2_2  and  C3_3 
REMARK    2  A    between atoms: C2_2  and  N4_17 
REMARK    3  A    between atoms: C3_3  and  N1_4 
REMARK    4  A    between atoms: C8_12  and  C9_13 
REMARK    5  A    between atoms: C13_22  and  O1_23 
REMARK    6  A    between atoms: O1_23  and  C14_24 
ROOT
HETATM    1  C9  UNL     1      -4.103   0.472 -12.900  1.00  0.00     0.113 C 
HETATM    2  C10 UNL     1      -2.706   0.043 -13.281  1.00  0.00     0.027 C 
HETATM    3  C11 UNL     1      -4.612  -0.405 -11.851  1.00  0.00     0.065 C 
HETATM    4  N3  UNL     1      -4.999  -1.096 -11.003  1.00  0.00    -0.197 NA
ENDROOT
BRANCH   1   5
HETATM    5  C8  UNL     1      -5.032   0.484 -14.126  1.00  0.00     0.126 C 
HETATM    6  N1  UNL     1      -5.555   1.773 -14.264  1.00  0.00    -0.382 N 
HETATM    7  C4  UNL     1      -6.861   2.110 -13.928  1.00  0.00     0.091 C 
HETATM    8  C5  UNL     1      -7.754   0.960 -13.619  1.00  0.00     0.220 C 
HETATM    9  C6  UNL     1      -8.628   0.648 -14.829  1.00  0.00     0.046 C 
HETATM   10  N2  UNL     1      -7.115  -0.237 -13.194  1.00  0.00    -0.065 N 
HETATM   11  C7  UNL     1      -6.031  -0.619 -14.050  1.00  0.00     0.259 C 
ATOM     12  H22 UNL     1      -6.808  -0.164 -12.225  1.00  0.00     0.278 HD
ATOM     13  H21 UNL     1      -7.789  -0.996 -13.096  1.00  0.00     0.278 HD
BRANCH   6  14
HETATM   14  C3  UNL     1      -4.647   2.821 -14.625  1.00  0.00     0.147 C 
BRANCH  14  15
HETATM   15  C2  UNL     1      -4.701   3.168 -16.093  1.00  0.00     0.113 C 
HETATM   16  C1  UNL     1      -3.288   3.054 -16.703  1.00  0.00     0.034 C 
BRANCH  15  17
HETATM   17  N4  UNL     1      -5.267   4.364 -16.414  1.00  0.00    -0.220 N 
HETATM   18  C12 UNL     1      -6.221   5.136 -16.393  1.00  0.00     0.680 A 
HETATM   19  N5  UNL     1      -6.142   6.375 -16.981  1.00  0.00    -0.169 N 
HETATM   20  N6  UNL     1      -7.401   4.846 -15.809  1.00  0.00    -0.201 N 
HETATM   21  C13 UNL     1      -7.153   7.253 -16.989  1.00  0.00     0.181 A 
ATOM     22  H5  UNL     1      -5.268   6.639 -17.436  1.00  0.00     0.186 HD
HETATM   23  C20 UNL     1      -8.341   6.918 -16.381  1.00  0.00     0.078 A 
HETATM   24 BR1  UNL     1      -9.851   8.108 -16.338  1.00  0.00    -0.045 Br
HETATM   25  C21 UNL     1      -8.456   5.675 -15.777  1.00  0.00     0.129 A 
ATOM     26  H6  UNL     1      -7.499   3.935 -15.361  1.00  0.00     0.183 HD
ATOM     27  H4  UNL     1      -4.540   4.866 -16.922  1.00  0.00     0.178 HD
BRANCH  21  28
HETATM   28  O1  UNL     1      -7.035   8.491 -17.592  1.00  0.00    -0.290 OA
BRANCH  28  29
HETATM   29  C14 UNL     1      -6.246   9.550 -17.286  1.00  0.00     0.099 A 
HETATM   30  C15 UNL     1      -6.323  10.098 -15.995  1.00  0.00     0.041 A 
HETATM   31  C16 UNL     1      -5.581  11.162 -15.578  1.00  0.00     0.026 A 
HETATM   32  C17 UNL     1      -4.691  11.776 -16.423  1.00  0.00     0.035 A 
HETATM   33 CL1  UNL     1      -3.758  13.135 -15.851  1.00  0.00    -0.084 Cl
HETATM   34  C18 UNL     1      -4.580  11.276 -17.694  1.00  0.00     0.050 A 
HETATM   35  C19 UNL     1      -5.345  10.183 -18.115  1.00  0.00     0.069 A 
HETATM   36 CL2  UNL     1      -5.147   9.587 -19.745  1.00  0.00    -0.081 Cl
ENDBRANCH  28  29
ENDBRANCH  21  28
ENDBRANCH  15  17
ENDBRANCH  14  15
ENDBRANCH   6  14
ENDBRANCH   1   5
TORSDOF 6
ENDMDL
