MODEL 1
REMARK VINA RESULT: -7.557841880      0.000      0.000
REMARK  13 active torsions:
REMARK  status: ('A' for Active; 'I' for Inactive)
REMARK    1  A    between atoms: C2_2  and  C3_4 
REMARK    2  A    between atoms: C3_4  and  N1_5 
REMARK    3  A    between atoms: N1_5  and  C4_7 
REMARK    4  A    between atoms: N2_10  and  C7_11 
REMARK    5  A    between atoms: C7_11  and  C8_12 
REMARK    6  A    between atoms: C8_12  and  C9_13 
REMARK    7  A    between atoms: C9_13  and  C10_14 
REMARK    8  A    between atoms: C10_14  and  N3_15 
REMARK    9  A    between atoms: C10_14  and  C27_37 
REMARK       I    between atoms: N3_15  and  C11_17 
REMARK   10  A    between atoms: C11_17  and  C12_19 
REMARK   11  A    between atoms: C12_19  and  N4_20 
REMARK   12  A    between atoms: C12_19  and  C24_34 
REMARK       I    between atoms: N4_20  and  C13_22 
REMARK   13  A    between atoms: C13_22  and  C14_24 
ROOT
HETATM    1  N3  UNL     1      -8.045  32.900   1.149  1.00  0.00    -0.332 N 
ATOM      2  H3  UNL     1      -7.579  32.327   1.853  1.00  0.00     0.168 HD
HETATM    3  C11 UNL     1      -7.335  33.979   0.582  1.00  0.00     0.244 C 
HETATM    4  O2  UNL     1      -7.925  34.682  -0.276  1.00  0.00    -0.271 OA
ENDROOT
BRANCH   1   5
HETATM    5  C10 UNL     1      -9.420  32.563   0.774  1.00  0.00    -0.007 C 
BRANCH   5   6
HETATM    6  C9  UNL     1     -10.293  32.171   1.894  1.00  0.00     0.054 C 
BRANCH   6   7
HETATM    7  C8  UNL     1     -10.957  33.235   2.693  1.00  0.00     0.036 C 
BRANCH   7   8
HETATM    8  C7  UNL     1     -12.158  33.819   1.932  1.00  0.00     0.272 C 
BRANCH   8   9
HETATM    9  N2  UNL     1     -11.943  35.159   1.515  1.00  0.00     0.088 N 
HETATM   10  C6  UNL     1     -10.834  35.708   2.257  1.00  0.00     0.274 C 
HETATM   11  C5  UNL     1     -10.040  36.759   1.578  1.00  0.00     0.055 C 
HETATM   12  C4  UNL     1     -10.823  37.625   0.637  1.00  0.00     0.080 C 
HETATM   13  C31 UNL     1     -11.827  36.830  -0.167  1.00  0.00     0.055 C 
HETATM   14  C30 UNL     1     -11.685  35.340   0.112  1.00  0.00     0.274 C 
BRANCH  12  15
HETATM   15  N1  UNL     1     -10.036  38.415  -0.260  1.00  0.00    -0.410 N 
ATOM     16  H1  UNL     1     -10.152  38.344  -1.271  1.00  0.00     0.154 HD
BRANCH  15  17
HETATM   17  C3  UNL     1      -9.091  39.298   0.313  1.00  0.00     0.192 C 
BRANCH  17  18
HETATM   18  C2  UNL     1      -9.190  40.612  -0.434  1.00  0.00     0.140 C 
HETATM   19  C1  UNL     1      -8.381  41.767   0.060  1.00  0.00     0.092 C 
HETATM   20  O1  UNL     1      -9.888  40.750  -1.394  1.00  0.00    -0.297 OA
ENDBRANCH  17  18
ENDBRANCH  15  17
ENDBRANCH  12  15
ENDBRANCH   8   9
ENDBRANCH   7   8
ENDBRANCH   6   7
ENDBRANCH   5   6
BRANCH   5  21
HETATM   21  C27 UNL     1      -9.476  31.754  -0.474  1.00  0.00     0.023 C 
HETATM   22  C28 UNL     1      -8.335  30.852  -0.751  1.00  0.00     0.016 C 
HETATM   23  C29 UNL     1     -10.772  30.973  -0.546  1.00  0.00     0.016 C 
ENDBRANCH   5  21
ENDBRANCH   1   5
BRANCH   3  24
HETATM   24  C12 UNL     1      -5.940  34.270   0.983  1.00  0.00     0.180 C 
BRANCH  24  25
HETATM   25  N4  UNL     1      -5.887  34.889   2.287  1.00  0.00    -0.347 N 
HETATM   26  C13 UNL     1      -6.108  36.275   2.451  1.00  0.00     0.227 C 
HETATM   27  O3  UNL     1      -6.370  37.041   1.470  1.00  0.00    -0.273 OA
ATOM     28  H4  UNL     1      -5.687  34.314   3.106  1.00  0.00     0.163 HD
BRANCH  26  29
HETATM   29  C14 UNL     1      -6.042  36.930   3.793  1.00  0.00     0.042 C 
HETATM   30  C15 UNL     1      -5.459  36.023   4.830  1.00  0.00     0.024 C 
HETATM   31  C16 UNL     1      -5.438  36.773   6.146  1.00  0.00    -0.013 C 
HETATM   32  C17 UNL     1      -6.833  37.156   6.592  1.00  0.00     0.009 C 
HETATM   33  C21 UNL     1      -4.616  38.044   6.041  1.00  0.00     0.009 C 
HETATM   34  C18 UNL     1      -7.465  38.006   5.517  1.00  0.00    -0.013 C 
HETATM   35  C19 UNL     1      -6.661  39.273   5.334  1.00  0.00     0.009 C 
HETATM   36  C23 UNL     1      -7.467  37.233   4.231  1.00  0.00     0.024 C 
HETATM   37  C20 UNL     1      -5.241  38.920   5.002  1.00  0.00    -0.013 C 
HETATM   38  C22 UNL     1      -5.211  38.169   3.685  1.00  0.00     0.024 C 
ENDBRANCH  26  29
ENDBRANCH  24  25
BRANCH  24  39
HETATM   39  C24 UNL     1      -5.148  32.997   0.922  1.00  0.00     0.009 C 
HETATM   40  C25 UNL     1      -3.776  33.284   1.497  1.00  0.00     0.012 C 
HETATM   41  C26 UNL     1      -5.064  32.433  -0.471  1.00  0.00     0.012 C 
ENDBRANCH  24  39
ENDBRANCH   3  24
TORSDOF 13
ENDMDL
MODEL 2
REMARK VINA RESULT: -7.251610380      1.066      2.001
REMARK  13 active torsions:
REMARK  status: ('A' for Active; 'I' for Inactive)
REMARK    1  A    between atoms: C2_2  and  C3_4 
REMARK    2  A    between atoms: C3_4  and  N1_5 
REMARK    3  A    between atoms: N1_5  and  C4_7 
REMARK    4  A    between atoms: N2_10  and  C7_11 
REMARK    5  A    between atoms: C7_11  and  C8_12 
REMARK    6  A    between atoms: C8_12  and  C9_13 
REMARK    7  A    between atoms: C9_13  and  C10_14 
REMARK    8  A    between atoms: C10_14  and  N3_15 
REMARK    9  A    between atoms: C10_14  and  C27_37 
REMARK       I    between atoms: N3_15  and  C11_17 
REMARK   10  A    between atoms: C11_17  and  C12_19 
REMARK   11  A    between atoms: C12_19  and  N4_20 
REMARK   12  A    between atoms: C12_19  and  C24_34 
REMARK       I    between atoms: N4_20  and  C13_22 
REMARK   13  A    between atoms: C13_22  and  C14_24 
ROOT
HETATM    1  N3  UNL     1      -8.730  32.023   0.555  1.00  0.00    -0.332 N 
ATOM      2  H3  UNL     1      -8.158  31.465   1.188  1.00  0.00     0.168 HD
HETATM    3  C11 UNL     1      -8.183  33.208   0.020  1.00  0.00     0.244 C 
HETATM    4  O2  UNL     1      -8.903  33.890  -0.750  1.00  0.00    -0.271 OA
ENDROOT
BRANCH   1   5
HETATM    5  C10 UNL     1     -10.083  31.556   0.242  1.00  0.00    -0.007 C 
BRANCH   5   6
HETATM    6  C9  UNL     1     -10.991  31.459   1.397  1.00  0.00     0.054 C 
BRANCH   6   7
HETATM    7  C8  UNL     1     -12.114  32.427   1.511  1.00  0.00     0.036 C 
BRANCH   7   8
HETATM    8  C7  UNL     1     -11.701  33.644   2.353  1.00  0.00     0.272 C 
BRANCH   8   9
HETATM    9  N2  UNL     1     -11.148  34.691   1.570  1.00  0.00     0.088 N 
HETATM   10  C6  UNL     1     -12.016  34.942   0.444  1.00  0.00     0.274 C 
HETATM   11  C5  UNL     1     -12.022  36.324  -0.090  1.00  0.00     0.055 C 
HETATM   12  C4  UNL     1     -10.715  37.049   0.033  1.00  0.00     0.080 C 
HETATM   13  C31 UNL     1     -10.036  36.777   1.356  1.00  0.00     0.055 C 
HETATM   14  C30 UNL     1     -10.926  35.934   2.259  1.00  0.00     0.274 C 
BRANCH  12  15
HETATM   15  N1  UNL     1     -10.783  38.464  -0.167  1.00  0.00    -0.410 N 
ATOM     16  H1  UNL     1     -11.507  38.883  -0.751  1.00  0.00     0.154 HD
BRANCH  15  17
HETATM   17  C3  UNL     1      -9.806  39.258   0.478  1.00  0.00     0.192 C 
BRANCH  17  18
HETATM   18  C2  UNL     1      -9.507  40.434  -0.430  1.00  0.00     0.140 C 
HETATM   19  C1  UNL     1      -8.507  41.444   0.029  1.00  0.00     0.092 C 
HETATM   20  O1  UNL     1     -10.042  40.574  -1.489  1.00  0.00    -0.297 OA
ENDBRANCH  17  18
ENDBRANCH  15  17
ENDBRANCH  12  15
ENDBRANCH   8   9
ENDBRANCH   7   8
ENDBRANCH   6   7
ENDBRANCH   5   6
BRANCH   5  21
HETATM   21  C27 UNL     1     -10.075  30.436  -0.738  1.00  0.00     0.023 C 
HETATM   22  C28 UNL     1     -11.141  29.416  -0.613  1.00  0.00     0.016 C 
HETATM   23  C29 UNL     1     -10.042  30.967  -2.156  1.00  0.00     0.016 C 
ENDBRANCH   5  21
ENDBRANCH   1   5
BRANCH   3  24
HETATM   24  C12 UNL     1      -6.804  33.629   0.355  1.00  0.00     0.180 C 
BRANCH  24  25
HETATM   25  N4  UNL     1      -6.786  34.500   1.506  1.00  0.00    -0.347 N 
HETATM   26  C13 UNL     1      -6.293  35.821   1.420  1.00  0.00     0.227 C 
HETATM   27  O3  UNL     1      -5.850  36.311   0.333  1.00  0.00    -0.273 OA
ATOM     28  H4  UNL     1      -7.137  34.155   2.400  1.00  0.00     0.163 HD
BRANCH  26  29
HETATM   29  C14 UNL     1      -6.256  36.728   2.608  1.00  0.00     0.042 C 
HETATM   30  C15 UNL     1      -6.868  38.061   2.313  1.00  0.00     0.024 C 
HETATM   31  C16 UNL     1      -6.782  38.902   3.571  1.00  0.00    -0.013 C 
HETATM   32  C17 UNL     1      -5.345  39.130   3.991  1.00  0.00     0.009 C 
HETATM   33  C21 UNL     1      -7.507  38.238   4.727  1.00  0.00     0.009 C 
HETATM   34  C18 UNL     1      -4.691  37.788   4.214  1.00  0.00    -0.013 C 
HETATM   35  C19 UNL     1      -5.401  37.057   5.330  1.00  0.00     0.009 C 
HETATM   36  C23 UNL     1      -4.798  36.985   2.952  1.00  0.00     0.024 C 
HETATM   37  C20 UNL     1      -6.856  36.918   4.989  1.00  0.00    -0.013 C 
HETATM   38  C22 UNL     1      -6.993  36.076   3.735  1.00  0.00     0.024 C 
ENDBRANCH  26  29
ENDBRANCH  24  25
BRANCH  24  39
HETATM   39  C24 UNL     1      -5.961  32.403   0.551  1.00  0.00     0.009 C 
HETATM   40  C25 UNL     1      -4.637  32.848   1.137  1.00  0.00     0.012 C 
HETATM   41  C26 UNL     1      -5.776  31.618  -0.720  1.00  0.00     0.012 C 
ENDBRANCH  24  39
ENDBRANCH   3  24
TORSDOF 13
ENDMDL
MODEL 3
REMARK VINA RESULT: -7.236923561      0.449      1.414
REMARK  13 active torsions:
REMARK  status: ('A' for Active; 'I' for Inactive)
REMARK    1  A    between atoms: C2_2  and  C3_4 
REMARK    2  A    between atoms: C3_4  and  N1_5 
REMARK    3  A    between atoms: N1_5  and  C4_7 
REMARK    4  A    between atoms: N2_10  and  C7_11 
REMARK    5  A    between atoms: C7_11  and  C8_12 
REMARK    6  A    between atoms: C8_12  and  C9_13 
REMARK    7  A    between atoms: C9_13  and  C10_14 
REMARK    8  A    between atoms: C10_14  and  N3_15 
REMARK    9  A    between atoms: C10_14  and  C27_37 
REMARK       I    between atoms: N3_15  and  C11_17 
REMARK   10  A    between atoms: C11_17  and  C12_19 
REMARK   11  A    between atoms: C12_19  and  N4_20 
REMARK   12  A    between atoms: C12_19  and  C24_34 
REMARK       I    between atoms: N4_20  and  C13_22 
REMARK   13  A    between atoms: C13_22  and  C14_24 
ROOT
HETATM    1  N3  UNL     1      -8.336  32.624   1.038  1.00  0.00    -0.332 N 
ATOM      2  H3  UNL     1      -7.794  32.022   1.657  1.00  0.00     0.168 HD
HETATM    3  C11 UNL     1      -7.709  33.760   0.484  1.00  0.00     0.244 C 
HETATM    4  O2  UNL     1      -8.392  34.499  -0.268  1.00  0.00    -0.271 OA
ENDROOT
BRANCH   1   5
HETATM    5  C10 UNL     1      -9.731  32.270   0.766  1.00  0.00    -0.007 C 
BRANCH   5   6
HETATM    6  C9  UNL     1     -10.514  31.870   1.947  1.00  0.00     0.054 C 
BRANCH   6   7
HETATM    7  C8  UNL     1     -11.155  32.926   2.775  1.00  0.00     0.036 C 
BRANCH   7   8
HETATM    8  C7  UNL     1     -12.063  33.818   1.915  1.00  0.00     0.272 C 
BRANCH   8   9
HETATM    9  N2  UNL     1     -11.362  34.895   1.313  1.00  0.00     0.088 N 
HETATM   10  C6  UNL     1     -12.062  35.299   0.117  1.00  0.00     0.274 C 
HETATM   11  C5  UNL     1     -11.932  36.722  -0.277  1.00  0.00     0.055 C 
HETATM   12  C4  UNL     1     -10.619  37.353   0.081  1.00  0.00     0.080 C 
HETATM   13  C31 UNL     1     -10.133  36.922   1.445  1.00  0.00     0.055 C 
HETATM   14  C30 UNL     1     -11.173  36.055   2.142  1.00  0.00     0.274 C 
BRANCH  12  15
HETATM   15  N1  UNL     1     -10.592  38.781   0.011  1.00  0.00    -0.410 N 
ATOM     16  H1  UNL     1     -11.428  39.318  -0.218  1.00  0.00     0.154 HD
BRANCH  15  17
HETATM   17  C3  UNL     1      -9.356  39.419   0.275  1.00  0.00     0.192 C 
BRANCH  17  18
HETATM   18  C2  UNL     1      -9.332  40.705  -0.526  1.00  0.00     0.140 C 
HETATM   19  C1  UNL     1      -8.450  41.815  -0.054  1.00  0.00     0.092 C 
HETATM   20  O1  UNL     1      -9.990  40.855  -1.513  1.00  0.00    -0.297 OA
ENDBRANCH  17  18
ENDBRANCH  15  17
ENDBRANCH  12  15
ENDBRANCH   8   9
ENDBRANCH   7   8
ENDBRANCH   6   7
ENDBRANCH   5   6
BRANCH   5  21
HETATM   21  C27 UNL     1      -9.869  31.458  -0.474  1.00  0.00     0.023 C 
HETATM   22  C28 UNL     1      -8.684  30.690  -0.918  1.00  0.00     0.016 C 
HETATM   23  C29 UNL     1     -11.067  30.536  -0.377  1.00  0.00     0.016 C 
ENDBRANCH   5  21
ENDBRANCH   1   5
BRANCH   3  24
HETATM   24  C12 UNL     1      -6.291  34.067   0.777  1.00  0.00     0.180 C 
BRANCH  24  25
HETATM   25  N4  UNL     1      -6.153  34.758   2.038  1.00  0.00    -0.347 N 
HETATM   26  C13 UNL     1      -6.255  36.164   2.119  1.00  0.00     0.227 C 
HETATM   27  O3  UNL     1      -6.480  36.888   1.098  1.00  0.00    -0.273 OA
ATOM     28  H4  UNL     1      -5.979  34.219   2.887  1.00  0.00     0.163 HD
BRANCH  26  29
HETATM   29  C14 UNL     1      -6.102  36.892   3.416  1.00  0.00     0.042 C 
HETATM   30  C15 UNL     1      -4.988  37.890   3.369  1.00  0.00     0.024 C 
HETATM   31  C16 UNL     1      -4.913  38.568   4.722  1.00  0.00    -0.013 C 
HETATM   32  C17 UNL     1      -4.606  37.578   5.826  1.00  0.00     0.009 C 
HETATM   33  C21 UNL     1      -6.220  39.259   5.064  1.00  0.00     0.009 C 
HETATM   34  C18 UNL     1      -5.680  36.517   5.832  1.00  0.00    -0.013 C 
HETATM   35  C19 UNL     1      -7.019  37.154   6.125  1.00  0.00     0.009 C 
HETATM   36  C23 UNL     1      -5.727  35.871   4.479  1.00  0.00     0.024 C 
HETATM   37  C20 UNL     1      -7.297  38.222   5.109  1.00  0.00    -0.013 C 
HETATM   38  C22 UNL     1      -7.387  37.588   3.734  1.00  0.00     0.024 C 
ENDBRANCH  26  29
ENDBRANCH  24  25
BRANCH  24  39
HETATM   39  C24 UNL     1      -5.505  32.789   0.736  1.00  0.00     0.009 C 
HETATM   40  C25 UNL     1      -4.155  33.063   1.368  1.00  0.00     0.012 C 
HETATM   41  C26 UNL     1      -5.368  32.237  -0.658  1.00  0.00     0.012 C 
ENDBRANCH  24  39
ENDBRANCH   3  24
TORSDOF 13
ENDMDL
MODEL 4
REMARK VINA RESULT: -7.087731210      2.428      5.970
REMARK  13 active torsions:
REMARK  status: ('A' for Active; 'I' for Inactive)
REMARK    1  A    between atoms: C2_2  and  C3_4 
REMARK    2  A    between atoms: C3_4  and  N1_5 
REMARK    3  A    between atoms: N1_5  and  C4_7 
REMARK    4  A    between atoms: N2_10  and  C7_11 
REMARK    5  A    between atoms: C7_11  and  C8_12 
REMARK    6  A    between atoms: C8_12  and  C9_13 
REMARK    7  A    between atoms: C9_13  and  C10_14 
REMARK    8  A    between atoms: C10_14  and  N3_15 
REMARK    9  A    between atoms: C10_14  and  C27_37 
REMARK       I    between atoms: N3_15  and  C11_17 
REMARK   10  A    between atoms: C11_17  and  C12_19 
REMARK   11  A    between atoms: C12_19  and  N4_20 
REMARK   12  A    between atoms: C12_19  and  C24_34 
REMARK       I    between atoms: N4_20  and  C13_22 
REMARK   13  A    between atoms: C13_22  and  C14_24 
ROOT
HETATM    1  N3  UNL     1     -10.525  32.002   0.528  1.00  0.00    -0.332 N 
ATOM      2  H3  UNL     1     -10.422  32.938   0.138  1.00  0.00     0.168 HD
HETATM    3  C11 UNL     1     -11.177  31.858   1.771  1.00  0.00     0.244 C 
HETATM    4  O2  UNL     1     -11.288  30.700   2.244  1.00  0.00    -0.271 OA
ENDROOT
BRANCH   1   5
HETATM    5  C10 UNL     1      -9.991  30.868  -0.229  1.00  0.00    -0.007 C 
BRANCH   5   6
HETATM    6  C9  UNL     1      -8.630  31.057  -0.757  1.00  0.00     0.054 C 
BRANCH   6   7
HETATM    7  C8  UNL     1      -7.905  32.317  -0.440  1.00  0.00     0.036 C 
BRANCH   7   8
HETATM    8  C7  UNL     1      -6.420  32.201  -0.818  1.00  0.00     0.272 C 
BRANCH   8   9
HETATM    9  N2  UNL     1      -5.610  33.158  -0.153  1.00  0.00     0.088 N 
HETATM   10  C6  UNL     1      -6.217  34.460  -0.286  1.00  0.00     0.274 C 
HETATM   11  C5  UNL     1      -5.958  35.426   0.808  1.00  0.00     0.055 C 
HETATM   12  C4  UNL     1      -4.619  35.280   1.468  1.00  0.00     0.080 C 
HETATM   13  C31 UNL     1      -4.235  33.831   1.663  1.00  0.00     0.055 C 
HETATM   14  C30 UNL     1      -5.373  32.908   1.244  1.00  0.00     0.274 C 
BRANCH  12  15
HETATM   15  N1  UNL     1      -4.479  35.965   2.716  1.00  0.00    -0.410 N 
ATOM     16  H1  UNL     1      -3.763  36.679   2.851  1.00  0.00     0.154 HD
BRANCH  15  17
HETATM   17  C3  UNL     1      -5.373  35.612   3.753  1.00  0.00     0.192 C 
BRANCH  17  18
HETATM   18  C2  UNL     1      -5.297  36.699   4.806  1.00  0.00     0.140 C 
HETATM   19  C1  UNL     1      -5.152  38.114   4.352  1.00  0.00     0.092 C 
HETATM   20  O1  UNL     1      -5.347  36.459   5.977  1.00  0.00    -0.297 OA
ENDBRANCH  17  18
ENDBRANCH  15  17
ENDBRANCH  12  15
ENDBRANCH   8   9
ENDBRANCH   7   8
ENDBRANCH   6   7
ENDBRANCH   5   6
BRANCH   5  21
HETATM   21  C27 UNL     1     -11.013  30.265  -1.127  1.00  0.00     0.023 C 
HETATM   22  C28 UNL     1     -10.799  30.399  -2.587  1.00  0.00     0.016 C 
HETATM   23  C29 UNL     1     -11.238  28.808  -0.778  1.00  0.00     0.016 C 
ENDBRANCH   5  21
ENDBRANCH   1   5
BRANCH   3  24
HETATM   24  C12 UNL     1     -11.714  33.035   2.491  1.00  0.00     0.180 C 
BRANCH  24  25
HETATM   25  N4  UNL     1     -11.185  34.266   1.953  1.00  0.00    -0.347 N 
HETATM   26  C13 UNL     1     -10.671  35.276   2.798  1.00  0.00     0.227 C 
HETATM   27  O3  UNL     1     -10.641  35.151   4.063  1.00  0.00    -0.273 OA
ATOM     28  H4  UNL     1     -11.181  34.410   0.943  1.00  0.00     0.163 HD
BRANCH  26  29
HETATM   29  C14 UNL     1     -10.133  36.560   2.254  1.00  0.00     0.042 C 
HETATM   30  C15 UNL     1      -8.693  36.757   2.608  1.00  0.00     0.024 C 
HETATM   31  C16 UNL     1      -8.244  38.078   2.016  1.00  0.00    -0.013 C 
HETATM   32  C17 UNL     1      -9.029  39.240   2.588  1.00  0.00     0.009 C 
HETATM   33  C21 UNL     1      -8.419  38.093   0.509  1.00  0.00     0.009 C 
HETATM   34  C18 UNL     1     -10.495  39.013   2.309  1.00  0.00    -0.013 C 
HETATM   35  C19 UNL     1     -10.727  38.974   0.816  1.00  0.00     0.009 C 
HETATM   36  C23 UNL     1     -10.901  37.698   2.906  1.00  0.00     0.024 C 
HETATM   37  C20 UNL     1      -9.872  37.903   0.206  1.00  0.00    -0.013 C 
HETATM   38  C22 UNL     1     -10.288  36.556   0.766  1.00  0.00     0.024 C 
ENDBRANCH  26  29
ENDBRANCH  24  25
BRANCH  24  39
HETATM   39  C24 UNL     1     -13.213  32.986   2.441  1.00  0.00     0.009 C 
HETATM   40  C25 UNL     1     -13.616  32.829   0.988  1.00  0.00     0.012 C 
HETATM   41  C26 UNL     1     -13.855  34.191   3.072  1.00  0.00     0.012 C 
ENDBRANCH  24  39
ENDBRANCH   3  24
TORSDOF 13
ENDMDL
MODEL 5
REMARK VINA RESULT: -7.022195260      3.538      6.328
REMARK  13 active torsions:
REMARK  status: ('A' for Active; 'I' for Inactive)
REMARK    1  A    between atoms: C2_2  and  C3_4 
REMARK    2  A    between atoms: C3_4  and  N1_5 
REMARK    3  A    between atoms: N1_5  and  C4_7 
REMARK    4  A    between atoms: N2_10  and  C7_11 
REMARK    5  A    between atoms: C7_11  and  C8_12 
REMARK    6  A    between atoms: C8_12  and  C9_13 
REMARK    7  A    between atoms: C9_13  and  C10_14 
REMARK    8  A    between atoms: C10_14  and  N3_15 
REMARK    9  A    between atoms: C10_14  and  C27_37 
REMARK       I    between atoms: N3_15  and  C11_17 
REMARK   10  A    between atoms: C11_17  and  C12_19 
REMARK   11  A    between atoms: C12_19  and  N4_20 
REMARK   12  A    between atoms: C12_19  and  C24_34 
REMARK       I    between atoms: N4_20  and  C13_22 
REMARK   13  A    between atoms: C13_22  and  C14_24 
ROOT
HETATM    1  N3  UNL     1      -8.303  34.140  -0.055  1.00  0.00    -0.332 N 
ATOM      2  H3  UNL     1      -7.948  34.874  -0.667  1.00  0.00     0.168 HD
HETATM    3  C11 UNL     1      -7.439  33.603   0.923  1.00  0.00     0.244 C 
HETATM    4  O2  UNL     1      -7.887  32.692   1.663  1.00  0.00    -0.271 OA
ENDROOT
BRANCH   1   5
HETATM    5  C10 UNL     1      -9.685  33.690  -0.232  1.00  0.00    -0.007 C 
BRANCH   5   6
HETATM    6  C9  UNL     1      -9.876  32.650  -1.257  1.00  0.00     0.054 C 
BRANCH   6   7
HETATM    7  C8  UNL     1     -10.603  31.406  -0.891  1.00  0.00     0.036 C 
BRANCH   7   8
HETATM    8  C7  UNL     1      -9.844  30.165  -1.386  1.00  0.00     0.272 C 
BRANCH   8   9
HETATM    9  N2  UNL     1     -10.680  29.254  -2.083  1.00  0.00     0.088 N 
HETATM   10  C6  UNL     1     -12.047  29.462  -1.670  1.00  0.00     0.274 C 
HETATM   11  C5  UNL     1     -13.095  29.144  -2.667  1.00  0.00     0.055 C 
HETATM   12  C4  UNL     1     -12.751  28.023  -3.602  1.00  0.00     0.080 C 
HETATM   13  C31 UNL     1     -11.307  28.075  -4.047  1.00  0.00     0.055 C 
HETATM   14  C30 UNL     1     -10.623  29.329  -3.518  1.00  0.00     0.274 C 
BRANCH  12  15
HETATM   15  N1  UNL     1     -13.586  27.917  -4.759  1.00  0.00    -0.410 N 
ATOM     16  H1  UNL     1     -13.314  27.347  -5.559  1.00  0.00     0.154 HD
BRANCH  15  17
HETATM   17  C3  UNL     1     -14.804  28.636  -4.746  1.00  0.00     0.192 C 
BRANCH  17  18
HETATM   18  C2  UNL     1     -14.830  29.505  -5.987  1.00  0.00     0.140 C 
HETATM   19  C1  UNL     1     -13.993  30.742  -6.001  1.00  0.00     0.092 C 
HETATM   20  O1  UNL     1     -15.492  29.232  -6.944  1.00  0.00    -0.297 OA
ENDBRANCH  17  18
ENDBRANCH  15  17
ENDBRANCH  12  15
ENDBRANCH   8   9
ENDBRANCH   7   8
ENDBRANCH   6   7
ENDBRANCH   5   6
BRANCH   5  21
HETATM   21  C27 UNL     1     -10.649  34.824  -0.198  1.00  0.00     0.023 C 
HETATM   22  C28 UNL     1     -11.971  34.572   0.421  1.00  0.00     0.016 C 
HETATM   23  C29 UNL     1     -10.015  36.045   0.436  1.00  0.00     0.016 C 
ENDBRANCH   5  21
ENDBRANCH   1   5
BRANCH   3  24
HETATM   24  C12 UNL     1      -6.053  34.102   1.073  1.00  0.00     0.180 C 
BRANCH  24  25
HETATM   25  N4  UNL     1      -5.890  34.835   2.307  1.00  0.00    -0.347 N 
HETATM   26  C13 UNL     1      -6.312  36.178   2.424  1.00  0.00     0.227 C 
HETATM   27  O3  UNL     1      -6.862  36.803   1.462  1.00  0.00    -0.273 OA
ATOM     28  H4  UNL     1      -5.460  34.374   3.109  1.00  0.00     0.163 HD
BRANCH  26  29
HETATM   29  C14 UNL     1      -6.136  36.951   3.691  1.00  0.00     0.042 C 
HETATM   30  C15 UNL     1      -5.177  38.087   3.524  1.00  0.00     0.024 C 
HETATM   31  C16 UNL     1      -5.066  38.803   4.855  1.00  0.00    -0.013 C 
HETATM   32  C17 UNL     1      -4.526  37.890   5.936  1.00  0.00     0.009 C 
HETATM   33  C21 UNL     1      -6.416  39.322   5.315  1.00  0.00     0.009 C 
HETATM   34  C18 UNL     1      -5.441  36.697   6.059  1.00  0.00    -0.013 C 
HETATM   35  C19 UNL     1      -6.820  37.157   6.473  1.00  0.00     0.009 C 
HETATM   36  C23 UNL     1      -5.528  36.016   4.725  1.00  0.00     0.024 C 
HETATM   37  C20 UNL     1      -7.335  38.153   5.476  1.00  0.00    -0.013 C 
HETATM   38  C22 UNL     1      -7.468  37.478   4.124  1.00  0.00     0.024 C 
ENDBRANCH  26  29
ENDBRANCH  24  25
BRANCH  24  39
HETATM   39  C24 UNL     1      -5.111  32.939   0.969  1.00  0.00     0.009 C 
HETATM   40  C25 UNL     1      -3.737  33.426   1.383  1.00  0.00     0.012 C 
HETATM   41  C26 UNL     1      -5.097  32.326  -0.405  1.00  0.00     0.012 C 
ENDBRANCH  24  39
ENDBRANCH   3  24
TORSDOF 13
ENDMDL
