MODEL 1
REMARK VINA RESULT: -6.235087617      0.000      0.000
REMARK  17 active torsions:
REMARK  status: ('A' for Active; 'I' for Inactive)
REMARK    1  A    between atoms: C4_4  and  C5_5 
REMARK    2  A    between atoms: C7_8  and  C8_9 
REMARK    3  A    between atoms: C8_9  and  C9_10 
REMARK    4  A    between atoms: C9_10  and  C10_11 
REMARK    5  A    between atoms: C10_11  and  O2_12 
REMARK    6  A    between atoms: C10_11  and  C11_14 
REMARK    7  A    between atoms: C11_14  and  C12_15 
REMARK    8  A    between atoms: C12_15  and  O3_16 
REMARK    9  A    between atoms: C12_15  and  C13_18 
REMARK   10  A    between atoms: C13_18  and  C14_19 
REMARK   11  A    between atoms: N1_24  and  C17_25 
REMARK   12  A    between atoms: C17_25  and  C18_26 
REMARK   13  A    between atoms: C21_29  and  C22_30 
REMARK   14  A    between atoms: C22_30  and  O6_31 
REMARK   15  A    between atoms: C22_30  and  N2_33 
REMARK   16  A    between atoms: N2_33  and  C23_34 
REMARK   17  A    between atoms: N2_33  and  C26_37 
ROOT
HETATM    1  C5  UNL     1      -9.678  36.115   1.433  1.00  0.00     0.019 C 
HETATM    2  C6  UNL     1      -9.220  34.812   0.913  1.00  0.00     0.162 C 
HETATM    3  O1  UNL     1      -9.773  34.586  -0.158  1.00  0.00    -0.292 OA
HETATM    4  C7  UNL     1      -8.328  33.710   1.268  1.00  0.00     0.062 C 
HETATM    5  C15 UNL     1      -7.216  34.023   2.184  1.00  0.00     0.032 C 
HETATM    6  C16 UNL     1      -7.037  35.548   2.220  1.00  0.00     0.124 C 
HETATM    7  N1  UNL     1      -7.893  36.103   3.130  1.00  0.00    -0.377 N 
HETATM    8  C21 UNL     1      -9.224  36.541   2.786  1.00  0.00     0.195 C 
ENDROOT
BRANCH   4   9
HETATM    9  C8  UNL     1      -7.836  33.082  -0.046  1.00  0.00     0.015 C 
BRANCH   9  10
HETATM   10  C9  UNL     1      -8.331  31.697  -0.268  1.00  0.00     0.032 C 
BRANCH  10  11
HETATM   11  C10 UNL     1      -8.986  31.512  -1.602  1.00  0.00     0.120 C 
BRANCH  11  12
HETATM   12  O2  UNL     1      -8.848  32.716  -2.324  1.00  0.00    -0.395 OA
ATOM     13  H2  UNL     1      -9.439  33.356  -1.945  1.00  0.00     0.210 HD
ENDBRANCH  11  12
BRANCH  11  14
HETATM   14  C11 UNL     1     -10.485  31.312  -1.353  1.00  0.00     0.064 C 
BRANCH  14  15
HETATM   15  C12 UNL     1     -10.646  30.803   0.078  1.00  0.00     0.130 C 
BRANCH  15  16
HETATM   16  O3  UNL     1     -11.212  29.527   0.033  1.00  0.00    -0.395 OA
ATOM     17  H3  UNL     1     -11.510  29.298   0.905  1.00  0.00     0.210 HD
ENDBRANCH  15  16
BRANCH  15  18
HETATM   18  C13 UNL     1     -11.601  31.733   0.761  1.00  0.00     0.144 C 
BRANCH  18  19
HETATM   19  C14 UNL     1     -11.437  31.634   2.208  1.00  0.00     0.175 C 
HETATM   20  O4  UNL     1     -11.306  30.526   2.763  1.00  0.00    -0.648 OA
HETATM   21  O5  UNL     1     -11.426  32.784   2.979  1.00  0.00    -0.648 OA
ENDBRANCH  18  19
ENDBRANCH  15  18
ENDBRANCH  14  15
ENDBRANCH  11  14
ENDBRANCH  10  11
ENDBRANCH   9  10
ENDBRANCH   4   9
BRANCH   1  22
HETATM   22  C4  UNL     1      -9.879  37.148   0.410  1.00  0.00     0.015 C 
HETATM   23  C2  UNL     1     -11.074  37.922   0.169  1.00  0.00    -0.087 C 
HETATM   24  C1  UNL     1     -11.672  38.807   1.191  1.00  0.00     0.043 C 
HETATM   25  C3  UNL     1     -12.215  37.208  -0.560  1.00  0.00     0.043 C 
ENDBRANCH   1  22
BRANCH   8  26
HETATM   26  C22 UNL     1     -10.066  36.043   3.903  1.00  0.00     0.142 C 
BRANCH  26  27
HETATM   27  O6  UNL     1      -9.764  34.813   4.303  1.00  0.00    -0.348 OA
ATOM     28  H6  UNL     1      -8.836  34.671   4.453  1.00  0.00     0.219 HD
ENDBRANCH  26  27
BRANCH  26  29
HETATM   29  N2  UNL     1     -11.126  36.584   4.654  1.00  0.00    -0.351 N 
BRANCH  29  30
HETATM   30  C23 UNL     1     -10.710  37.581   5.659  1.00  0.00     0.079 C 
HETATM   31  C24 UNL     1     -10.070  38.804   5.138  1.00  0.00     0.032 C 
HETATM   32  C25 UNL     1      -9.836  37.010   6.737  1.00  0.00     0.032 C 
ENDBRANCH  29  30
BRANCH  29  33
HETATM   33  C26 UNL     1     -12.518  36.239   4.518  1.00  0.00     0.024 C 
HETATM   34  C27 UNL     1     -12.944  35.915   3.095  1.00  0.00     0.037 C 
HETATM   35  C28 UNL     1     -12.985  35.110   5.446  1.00  0.00     0.037 C 
HETATM   36  C29 UNL     1     -13.432  37.401   4.950  1.00  0.00     0.037 C 
ENDBRANCH  29  33
ENDBRANCH  26  29
ENDBRANCH   8  26
BRANCH   7  37
HETATM   37  C17 UNL     1      -7.308  36.780   4.208  1.00  0.00     0.063 C 
BRANCH  37  38
HETATM   38  C18 UNL     1      -5.854  36.792   4.408  1.00  0.00     0.016 C 
HETATM   39  C19 UNL     1      -5.316  36.378   5.735  1.00  0.00     0.015 C 
HETATM   40  C20 UNL     1      -5.382  38.247   4.208  1.00  0.00     0.015 C 
ENDBRANCH  37  38
ENDBRANCH   7  37
TORSDOF 17
ENDMDL
MODEL 2
REMARK VINA RESULT: -6.151822046      0.363      1.837
REMARK  17 active torsions:
REMARK  status: ('A' for Active; 'I' for Inactive)
REMARK    1  A    between atoms: C4_4  and  C5_5 
REMARK    2  A    between atoms: C7_8  and  C8_9 
REMARK    3  A    between atoms: C8_9  and  C9_10 
REMARK    4  A    between atoms: C9_10  and  C10_11 
REMARK    5  A    between atoms: C10_11  and  O2_12 
REMARK    6  A    between atoms: C10_11  and  C11_14 
REMARK    7  A    between atoms: C11_14  and  C12_15 
REMARK    8  A    between atoms: C12_15  and  O3_16 
REMARK    9  A    between atoms: C12_15  and  C13_18 
REMARK   10  A    between atoms: C13_18  and  C14_19 
REMARK   11  A    between atoms: N1_24  and  C17_25 
REMARK   12  A    between atoms: C17_25  and  C18_26 
REMARK   13  A    between atoms: C21_29  and  C22_30 
REMARK   14  A    between atoms: C22_30  and  O6_31 
REMARK   15  A    between atoms: C22_30  and  N2_33 
REMARK   16  A    between atoms: N2_33  and  C23_34 
REMARK   17  A    between atoms: N2_33  and  C26_37 
ROOT
HETATM    1  C5  UNL     1      -9.546  36.142   1.447  1.00  0.00     0.019 C 
HETATM    2  C6  UNL     1      -9.122  34.823   0.937  1.00  0.00     0.162 C 
HETATM    3  O1  UNL     1      -9.707  34.589  -0.115  1.00  0.00    -0.292 OA
HETATM    4  C7  UNL     1      -8.238  33.714   1.286  1.00  0.00     0.062 C 
HETATM    5  C15 UNL     1      -7.097  34.023   2.168  1.00  0.00     0.032 C 
HETATM    6  C16 UNL     1      -6.894  35.546   2.173  1.00  0.00     0.124 C 
HETATM    7  N1  UNL     1      -7.717  36.129   3.096  1.00  0.00    -0.377 N 
HETATM    8  C21 UNL     1      -9.050  36.583   2.781  1.00  0.00     0.195 C 
ENDROOT
BRANCH   4   9
HETATM    9  C8  UNL     1      -7.791  33.057  -0.030  1.00  0.00     0.015 C 
BRANCH   9  10
HETATM   10  C9  UNL     1      -8.361  31.700  -0.244  1.00  0.00     0.032 C 
BRANCH  10  11
HETATM   11  C10 UNL     1      -9.002  31.536  -1.587  1.00  0.00     0.120 C 
BRANCH  11  12
HETATM   12  O2  UNL     1      -8.868  32.755  -2.285  1.00  0.00    -0.395 OA
ATOM     13  H2  UNL     1      -8.459  32.570  -3.122  1.00  0.00     0.210 HD
ENDBRANCH  11  12
BRANCH  11  14
HETATM   14  C11 UNL     1     -10.501  31.317  -1.358  1.00  0.00     0.064 C 
BRANCH  14  15
HETATM   15  C12 UNL     1     -10.677  30.845   0.084  1.00  0.00     0.130 C 
BRANCH  15  16
HETATM   16  O3  UNL     1     -11.254  29.574   0.067  1.00  0.00    -0.395 OA
ATOM     17  H3  UNL     1     -10.807  29.030   0.705  1.00  0.00     0.210 HD
ENDBRANCH  15  16
BRANCH  15  18
HETATM   18  C13 UNL     1     -11.629  31.801   0.736  1.00  0.00     0.144 C 
BRANCH  18  19
HETATM   19  C14 UNL     1     -11.477  31.738   2.187  1.00  0.00     0.175 C 
HETATM   20  O4  UNL     1     -11.480  32.776   2.876  1.00  0.00    -0.648 OA
HETATM   21  O5  UNL     1     -11.328  30.511   2.810  1.00  0.00    -0.648 OA
ENDBRANCH  18  19
ENDBRANCH  15  18
ENDBRANCH  14  15
ENDBRANCH  11  14
ENDBRANCH  10  11
ENDBRANCH   9  10
ENDBRANCH   4   9
BRANCH   1  22
HETATM   22  C4  UNL     1      -9.758  37.162   0.413  1.00  0.00     0.015 C 
HETATM   23  C2  UNL     1     -10.935  37.976   0.214  1.00  0.00    -0.087 C 
HETATM   24  C1  UNL     1     -11.447  38.904   1.244  1.00  0.00     0.043 C 
HETATM   25  C3  UNL     1     -12.136  37.292  -0.444  1.00  0.00     0.043 C 
ENDBRANCH   1  22
BRANCH   8  26
HETATM   26  C22 UNL     1      -9.869  36.115   3.928  1.00  0.00     0.142 C 
BRANCH  26  27
HETATM   27  O6  UNL     1      -9.746  34.820   4.190  1.00  0.00    -0.348 OA
ATOM     28  H6  UNL     1     -10.563  34.336   4.148  1.00  0.00     0.219 HD
ENDBRANCH  26  27
BRANCH  26  29
HETATM   29  N2  UNL     1     -10.759  36.741   4.821  1.00  0.00    -0.351 N 
BRANCH  29  30
HETATM   30  C23 UNL     1     -12.160  36.293   4.695  1.00  0.00     0.079 C 
HETATM   31  C24 UNL     1     -12.516  35.056   5.416  1.00  0.00     0.032 C 
HETATM   32  C25 UNL     1     -12.616  36.161   3.271  1.00  0.00     0.032 C 
ENDBRANCH  29  30
BRANCH  29  33
HETATM   33  C26 UNL     1     -10.411  37.743   5.796  1.00  0.00     0.024 C 
HETATM   34  C27 UNL     1      -9.482  37.249   6.893  1.00  0.00     0.037 C 
HETATM   35  C28 UNL     1      -9.833  39.033   5.199  1.00  0.00     0.037 C 
HETATM   36  C29 UNL     1     -11.656  38.267   6.535  1.00  0.00     0.037 C 
ENDBRANCH  29  33
ENDBRANCH  26  29
ENDBRANCH   8  26
BRANCH   7  37
HETATM   37  C17 UNL     1      -7.093  36.814   4.148  1.00  0.00     0.063 C 
BRANCH  37  38
HETATM   38  C18 UNL     1      -5.650  36.697   4.389  1.00  0.00     0.016 C 
HETATM   39  C19 UNL     1      -5.181  36.431   5.779  1.00  0.00     0.015 C 
HETATM   40  C20 UNL     1      -5.015  38.046   3.993  1.00  0.00     0.015 C 
ENDBRANCH  37  38
ENDBRANCH   7  37
TORSDOF 17
ENDMDL
MODEL 3
REMARK VINA RESULT: -5.981883171      1.800      3.220
REMARK  17 active torsions:
REMARK  status: ('A' for Active; 'I' for Inactive)
REMARK    1  A    between atoms: C4_4  and  C5_5 
REMARK    2  A    between atoms: C7_8  and  C8_9 
REMARK    3  A    between atoms: C8_9  and  C9_10 
REMARK    4  A    between atoms: C9_10  and  C10_11 
REMARK    5  A    between atoms: C10_11  and  O2_12 
REMARK    6  A    between atoms: C10_11  and  C11_14 
REMARK    7  A    between atoms: C11_14  and  C12_15 
REMARK    8  A    between atoms: C12_15  and  O3_16 
REMARK    9  A    between atoms: C12_15  and  C13_18 
REMARK   10  A    between atoms: C13_18  and  C14_19 
REMARK   11  A    between atoms: N1_24  and  C17_25 
REMARK   12  A    between atoms: C17_25  and  C18_26 
REMARK   13  A    between atoms: C21_29  and  C22_30 
REMARK   14  A    between atoms: C22_30  and  O6_31 
REMARK   15  A    between atoms: C22_30  and  N2_33 
REMARK   16  A    between atoms: N2_33  and  C23_34 
REMARK   17  A    between atoms: N2_33  and  C26_37 
ROOT
HETATM    1  C5  UNL     1     -10.800  35.576   0.987  1.00  0.00     0.019 C 
HETATM    2  C6  UNL     1      -9.741  34.638   0.569  1.00  0.00     0.162 C 
HETATM    3  O1  UNL     1      -9.798  34.477  -0.645  1.00  0.00    -0.292 OA
HETATM    4  C7  UNL     1      -8.655  33.842   1.138  1.00  0.00     0.062 C 
HETATM    5  C15 UNL     1      -8.096  34.300   2.423  1.00  0.00     0.032 C 
HETATM    6  C16 UNL     1      -8.536  35.755   2.647  1.00  0.00     0.124 C 
HETATM    7  N1  UNL     1      -9.778  35.790   3.217  1.00  0.00    -0.377 N 
HETATM    8  C21 UNL     1     -10.994  35.830   2.442  1.00  0.00     0.195 C 
ENDROOT
BRANCH   4   9
HETATM    9  C8  UNL     1      -7.574  33.705   0.053  1.00  0.00     0.015 C 
BRANCH   9  10
HETATM   10  C9  UNL     1      -7.072  32.316  -0.118  1.00  0.00     0.032 C 
BRANCH  10  11
HETATM   11  C10 UNL     1      -7.665  31.617  -1.302  1.00  0.00     0.120 C 
BRANCH  11  12
HETATM   12  O2  UNL     1      -8.189  32.599  -2.170  1.00  0.00    -0.395 OA
ATOM     13  H2  UNL     1      -8.270  32.214  -3.034  1.00  0.00     0.210 HD
ENDBRANCH  11  12
BRANCH  11  14
HETATM   14  C11 UNL     1      -8.852  30.788  -0.800  1.00  0.00     0.064 C 
BRANCH  14  15
HETATM   15  C12 UNL     1     -10.036  31.083  -1.719  1.00  0.00     0.130 C 
BRANCH  15  16
HETATM   16  O3  UNL     1     -11.021  31.736  -0.977  1.00  0.00    -0.395 OA
ATOM     17  H3  UNL     1     -11.871  31.409  -1.250  1.00  0.00     0.210 HD
ENDBRANCH  15  16
BRANCH  15  18
HETATM   18  C13 UNL     1     -10.568  29.758  -2.173  1.00  0.00     0.144 C 
BRANCH  18  19
HETATM   19  C14 UNL     1     -11.633  29.319  -1.276  1.00  0.00     0.175 C 
HETATM   20  O4  UNL     1     -12.830  29.505  -1.565  1.00  0.00    -0.648 OA
HETATM   21  O5  UNL     1     -11.313  28.687  -0.087  1.00  0.00    -0.648 OA
ENDBRANCH  18  19
ENDBRANCH  15  18
ENDBRANCH  14  15
ENDBRANCH  11  14
ENDBRANCH  10  11
ENDBRANCH   9  10
ENDBRANCH   4   9
BRANCH   1  22
HETATM   22  C4  UNL     1     -11.049  36.679   0.051  1.00  0.00     0.015 C 
HETATM   23  C2  UNL     1     -10.633  38.055   0.187  1.00  0.00    -0.087 C 
HETATM   24  C1  UNL     1      -9.212  38.453   0.290  1.00  0.00     0.043 C 
HETATM   25  C3  UNL     1     -11.435  38.918   1.164  1.00  0.00     0.043 C 
ENDBRANCH   1  22
BRANCH   8  26
HETATM   26  C22 UNL     1     -11.886  34.856   3.123  1.00  0.00     0.142 C 
BRANCH  26  27
HETATM   27  O6  UNL     1     -11.276  33.744   3.514  1.00  0.00    -0.348 OA
ATOM     28  H6  UNL     1     -10.817  33.823   4.342  1.00  0.00     0.219 HD
ENDBRANCH  26  27
BRANCH  26  29
HETATM   29  N2  UNL     1     -13.251  34.842   3.461  1.00  0.00    -0.351 N 
BRANCH  29  30
HETATM   30  C23 UNL     1     -14.133  34.314   2.401  1.00  0.00     0.079 C 
HETATM   31  C24 UNL     1     -13.656  33.109   1.697  1.00  0.00     0.032 C 
HETATM   32  C25 UNL     1     -14.514  35.343   1.377  1.00  0.00     0.032 C 
ENDBRANCH  29  30
BRANCH  29  33
HETATM   33  C26 UNL     1     -13.818  35.293   4.706  1.00  0.00     0.024 C 
HETATM   34  C27 UNL     1     -15.254  34.851   4.934  1.00  0.00     0.037 C 
HETATM   35  C28 UNL     1     -12.986  34.939   5.946  1.00  0.00     0.037 C 
HETATM   36  C29 UNL     1     -13.860  36.831   4.782  1.00  0.00     0.037 C 
ENDBRANCH  29  33
ENDBRANCH  26  29
ENDBRANCH   8  26
BRANCH   7  37
HETATM   37  C17 UNL     1      -9.868  36.376   4.487  1.00  0.00     0.063 C 
BRANCH  37  38
HETATM   38  C18 UNL     1     -10.292  37.770   4.660  1.00  0.00     0.016 C 
HETATM   39  C19 UNL     1      -9.348  38.855   4.267  1.00  0.00     0.015 C 
HETATM   40  C20 UNL     1     -10.554  37.979   6.167  1.00  0.00     0.015 C 
ENDBRANCH  37  38
ENDBRANCH   7  37
TORSDOF 17
ENDMDL
MODEL 4
REMARK VINA RESULT: -5.973612789      2.069      4.134
REMARK  17 active torsions:
REMARK  status: ('A' for Active; 'I' for Inactive)
REMARK    1  A    between atoms: C4_4  and  C5_5 
REMARK    2  A    between atoms: C7_8  and  C8_9 
REMARK    3  A    between atoms: C8_9  and  C9_10 
REMARK    4  A    between atoms: C9_10  and  C10_11 
REMARK    5  A    between atoms: C10_11  and  O2_12 
REMARK    6  A    between atoms: C10_11  and  C11_14 
REMARK    7  A    between atoms: C11_14  and  C12_15 
REMARK    8  A    between atoms: C12_15  and  O3_16 
REMARK    9  A    between atoms: C12_15  and  C13_18 
REMARK   10  A    between atoms: C13_18  and  C14_19 
REMARK   11  A    between atoms: N1_24  and  C17_25 
REMARK   12  A    between atoms: C17_25  and  C18_26 
REMARK   13  A    between atoms: C21_29  and  C22_30 
REMARK   14  A    between atoms: C22_30  and  O6_31 
REMARK   15  A    between atoms: C22_30  and  N2_33 
REMARK   16  A    between atoms: N2_33  and  C23_34 
REMARK   17  A    between atoms: N2_33  and  C26_37 
ROOT
HETATM    1  C5  UNL     1      -8.062  35.650   3.132  1.00  0.00     0.019 C 
HETATM    2  C6  UNL     1      -7.203  34.783   2.302  1.00  0.00     0.162 C 
HETATM    3  O1  UNL     1      -7.288  33.626   2.700  1.00  0.00    -0.292 OA
HETATM    4  C7  UNL     1      -6.286  34.864   1.167  1.00  0.00     0.062 C 
HETATM    5  C15 UNL     1      -6.466  36.000   0.245  1.00  0.00     0.032 C 
HETATM    6  C16 UNL     1      -7.857  36.605   0.494  1.00  0.00     0.124 C 
HETATM    7  N1  UNL     1      -7.805  37.499   1.527  1.00  0.00    -0.377 N 
HETATM    8  C21 UNL     1      -8.025  37.121   2.901  1.00  0.00     0.195 C 
ENDROOT
BRANCH   4   9
HETATM    9  C8  UNL     1      -6.345  33.512   0.437  1.00  0.00     0.015 C 
BRANCH   9  10
HETATM   10  C9  UNL     1      -7.147  33.543  -0.815  1.00  0.00     0.032 C 
BRANCH  10  11
HETATM   11  C10 UNL     1      -8.230  32.509  -0.846  1.00  0.00     0.120 C 
BRANCH  11  12
HETATM   12  O2  UNL     1      -8.306  31.999  -2.160  1.00  0.00    -0.395 OA
ATOM     13  H2  UNL     1      -9.169  32.199  -2.502  1.00  0.00     0.210 HD
ENDBRANCH  11  12
BRANCH  11  14
HETATM   14  C11 UNL     1      -9.557  33.224  -0.569  1.00  0.00     0.064 C 
BRANCH  14  15
HETATM   15  C12 UNL     1     -10.495  32.207   0.078  1.00  0.00     0.130 C 
BRANCH  15  16
HETATM   16  O3  UNL     1     -11.799  32.704   0.014  1.00  0.00    -0.395 OA
ATOM     17  H3  UNL     1     -12.346  32.191   0.597  1.00  0.00     0.210 HD
ENDBRANCH  15  16
BRANCH  15  18
HETATM   18  C13 UNL     1     -10.088  32.098   1.515  1.00  0.00     0.144 C 
BRANCH  18  19
HETATM   19  C14 UNL     1     -11.206  31.600   2.311  1.00  0.00     0.175 C 
HETATM   20  O4  UNL     1     -11.266  30.403   2.650  1.00  0.00    -0.648 OA
HETATM   21  O5  UNL     1     -12.215  32.466   2.695  1.00  0.00    -0.648 OA
ENDBRANCH  18  19
ENDBRANCH  15  18
ENDBRANCH  14  15
ENDBRANCH  11  14
ENDBRANCH  10  11
ENDBRANCH   9  10
ENDBRANCH   4   9
BRANCH   1  22
HETATM   22  C4  UNL     1      -9.334  35.043   3.541  1.00  0.00     0.015 C 
HETATM   23  C2  UNL     1     -10.666  35.534   3.273  1.00  0.00    -0.087 C 
HETATM   24  C1  UNL     1     -11.187  35.719   1.902  1.00  0.00     0.043 C 
HETATM   25  C3  UNL     1     -11.143  36.715   4.121  1.00  0.00     0.043 C 
ENDBRANCH   1  22
BRANCH   8  26
HETATM   26  C22 UNL     1      -6.955  37.834   3.645  1.00  0.00     0.142 C 
BRANCH  26  27
HETATM   27  O6  UNL     1      -5.739  37.665   3.140  1.00  0.00    -0.348 OA
ATOM     28  H6  UNL     1      -5.162  38.411   3.260  1.00  0.00     0.219 HD
ENDBRANCH  26  27
BRANCH  26  29
HETATM   29  N2  UNL     1      -6.932  38.666   4.779  1.00  0.00    -0.351 N 
BRANCH  29  30
HETATM   30  C23 UNL     1      -6.806  37.943   6.060  1.00  0.00     0.079 C 
HETATM   31  C24 UNL     1      -5.804  36.862   6.102  1.00  0.00     0.032 C 
HETATM   32  C25 UNL     1      -8.111  37.402   6.567  1.00  0.00     0.032 C 
ENDBRANCH  29  30
BRANCH  29  33
HETATM   33  C26 UNL     1      -7.027  40.104   4.773  1.00  0.00     0.024 C 
HETATM   34  C27 UNL     1      -8.415  40.635   4.453  1.00  0.00     0.037 C 
HETATM   35  C28 UNL     1      -6.519  40.778   6.054  1.00  0.00     0.037 C 
HETATM   36  C29 UNL     1      -6.109  40.725   3.703  1.00  0.00     0.037 C 
ENDBRANCH  29  33
ENDBRANCH  26  29
ENDBRANCH   8  26
BRANCH   7  37
HETATM   37  C17 UNL     1      -8.128  38.828   1.220  1.00  0.00     0.063 C 
BRANCH  37  38
HETATM   38  C18 UNL     1      -9.310  39.165   0.418  1.00  0.00     0.016 C 
HETATM   39  C19 UNL     1      -9.282  40.410  -0.401  1.00  0.00     0.015 C 
HETATM   40  C20 UNL     1     -10.486  39.345   1.400  1.00  0.00     0.015 C 
ENDBRANCH  37  38
ENDBRANCH   7  37
TORSDOF 17
ENDMDL
MODEL 5
REMARK VINA RESULT: -5.882744380      2.152      4.347
REMARK  17 active torsions:
REMARK  status: ('A' for Active; 'I' for Inactive)
REMARK    1  A    between atoms: C4_4  and  C5_5 
REMARK    2  A    between atoms: C7_8  and  C8_9 
REMARK    3  A    between atoms: C8_9  and  C9_10 
REMARK    4  A    between atoms: C9_10  and  C10_11 
REMARK    5  A    between atoms: C10_11  and  O2_12 
REMARK    6  A    between atoms: C10_11  and  C11_14 
REMARK    7  A    between atoms: C11_14  and  C12_15 
REMARK    8  A    between atoms: C12_15  and  O3_16 
REMARK    9  A    between atoms: C12_15  and  C13_18 
REMARK   10  A    between atoms: C13_18  and  C14_19 
REMARK   11  A    between atoms: N1_24  and  C17_25 
REMARK   12  A    between atoms: C17_25  and  C18_26 
REMARK   13  A    between atoms: C21_29  and  C22_30 
REMARK   14  A    between atoms: C22_30  and  O6_31 
REMARK   15  A    between atoms: C22_30  and  N2_33 
REMARK   16  A    between atoms: N2_33  and  C23_34 
REMARK   17  A    between atoms: N2_33  and  C26_37 
ROOT
HETATM    1  C5  UNL     1      -7.856  34.999   2.831  1.00  0.00     0.019 C 
HETATM    2  C6  UNL     1      -6.887  34.150   2.112  1.00  0.00     0.162 C 
HETATM    3  O1  UNL     1      -6.882  33.029   2.610  1.00  0.00    -0.292 OA
HETATM    4  C7  UNL     1      -5.935  34.220   1.005  1.00  0.00     0.062 C 
HETATM    5  C15 UNL     1      -6.180  35.250  -0.020  1.00  0.00     0.032 C 
HETATM    6  C16 UNL     1      -7.629  35.738   0.127  1.00  0.00     0.124 C 
HETATM    7  N1  UNL     1      -7.703  36.720   1.076  1.00  0.00    -0.377 N 
HETATM    8  C21 UNL     1      -7.944  36.442   2.471  1.00  0.00     0.195 C 
ENDROOT
BRANCH   4   9
HETATM    9  C8  UNL     1      -5.838  32.811   0.398  1.00  0.00     0.015 C 
BRANCH   9  10
HETATM   10  C9  UNL     1      -6.710  32.611  -0.790  1.00  0.00     0.032 C 
BRANCH  10  11
HETATM   11  C10 UNL     1      -7.965  31.855  -0.479  1.00  0.00     0.120 C 
BRANCH  11  12
HETATM   12  O2  UNL     1      -7.653  30.478  -0.473  1.00  0.00    -0.395 OA
ATOM     13  H2  UNL     1      -6.731  30.388  -0.262  1.00  0.00     0.210 HD
ENDBRANCH  11  12
BRANCH  11  14
HETATM   14  C11 UNL     1      -8.939  32.084  -1.640  1.00  0.00     0.064 C 
BRANCH  14  15
HETATM   15  C12 UNL     1     -10.322  31.640  -1.168  1.00  0.00     0.130 C 
BRANCH  15  16
HETATM   16  O3  UNL     1     -10.208  31.139   0.131  1.00  0.00    -0.395 OA
ATOM     17  H3  UNL     1     -11.046  30.773   0.388  1.00  0.00     0.210 HD
ENDBRANCH  15  16
BRANCH  15  18
HETATM   18  C13 UNL     1     -10.753  30.532  -2.079  1.00  0.00     0.144 C 
BRANCH  18  19
HETATM   19  C14 UNL     1     -10.987  29.317  -1.304  1.00  0.00     0.175 C 
HETATM   20  O4  UNL     1     -12.143  28.960  -1.008  1.00  0.00    -0.648 OA
HETATM   21  O5  UNL     1      -9.913  28.547  -0.892  1.00  0.00    -0.648 OA
ENDBRANCH  18  19
ENDBRANCH  15  18
ENDBRANCH  14  15
ENDBRANCH  11  14
ENDBRANCH  10  11
ENDBRANCH   9  10
ENDBRANCH   4   9
BRANCH   1  22
HETATM   22  C4  UNL     1      -9.083  34.312   3.251  1.00  0.00     0.015 C 
HETATM   23  C2  UNL     1     -10.422  34.529   2.755  1.00  0.00    -0.087 C 
HETATM   24  C1  UNL     1     -10.789  34.333   1.336  1.00  0.00     0.043 C 
HETATM   25  C3  UNL     1     -11.144  35.780   3.260  1.00  0.00     0.043 C 
ENDBRANCH   1  22
BRANCH   8  26
HETATM   26  C22 UNL     1      -6.976  37.315   3.183  1.00  0.00     0.142 C 
BRANCH  26  27
HETATM   27  O6  UNL     1      -5.854  37.541   2.511  1.00  0.00    -0.348 OA
ATOM     28  H6  UNL     1      -5.172  37.959   3.025  1.00  0.00     0.219 HD
ENDBRANCH  26  27
BRANCH  26  29
HETATM   29  N2  UNL     1      -6.976  37.975   4.426  1.00  0.00    -0.351 N 
BRANCH  29  30
HETATM   30  C23 UNL     1      -7.863  39.153   4.487  1.00  0.00     0.079 C 
HETATM   31  C24 UNL     1      -9.310  38.885   4.385  1.00  0.00     0.032 C 
HETATM   32  C25 UNL     1      -7.506  40.219   3.493  1.00  0.00     0.032 C 
ENDBRANCH  29  30
BRANCH  29  33
HETATM   33  C26 UNL     1      -6.200  37.600   5.580  1.00  0.00     0.024 C 
HETATM   34  C27 UNL     1      -5.469  36.274   5.435  1.00  0.00     0.037 C 
HETATM   35  C28 UNL     1      -5.204  38.668   6.049  1.00  0.00     0.037 C 
HETATM   36  C29 UNL     1      -7.089  37.428   6.826  1.00  0.00     0.037 C 
ENDBRANCH  29  33
ENDBRANCH  26  29
ENDBRANCH   8  26
BRANCH   7  37
HETATM   37  C17 UNL     1      -8.134  37.980   0.641  1.00  0.00     0.063 C 
BRANCH  37  38
HETATM   38  C18 UNL     1      -9.518  38.428   0.839  1.00  0.00     0.016 C 
HETATM   39  C19 UNL     1     -10.605  37.721   0.105  1.00  0.00     0.015 C 
HETATM   40  C20 UNL     1      -9.589  39.895   0.366  1.00  0.00     0.015 C 
ENDBRANCH  37  38
ENDBRANCH   7  37
TORSDOF 17
ENDMDL
