MODEL 1
REMARK VINA RESULT: -7.170812726      0.000      0.000
REMARK  10 active torsions:
REMARK  status: ('A' for Active; 'I' for Inactive)
REMARK    1  A    between atoms: C2_2  and  N1_3 
REMARK    2  A    between atoms: N2_6  and  C5_7 
REMARK    3  A    between atoms: C5_7  and  C6_8 
REMARK    4  A    between atoms: C5_7  and  C21_32 
REMARK    5  A    between atoms: C6_8  and  C7_10 
REMARK    6  A    between atoms: C7_10  and  C8_11 
REMARK    7  A    between atoms: C8_11  and  N3_12 
REMARK       I    between atoms: N3_12  and  C9_14 
REMARK       I    between atoms: C9_14  and  N4_16 
REMARK    8  A    between atoms: N4_16  and  C10_18 
REMARK    9  A    between atoms: C10_18  and  C13_21 
REMARK       I    between atoms: C13_21  and  N5_23 
REMARK   10  A    between atoms: N5_23  and  C14_25 
ROOT
HETATM    1  N3  UNL     1     -11.581  42.231  -1.107  1.00  0.00    -0.343 N 
ATOM      2  H3  UNL     1     -12.072  41.338  -1.093  1.00  0.00     0.164 HD
HETATM    3  C9  UNL     1     -12.284  43.436  -1.323  1.00  0.00     0.317 C 
HETATM    4  O2  UNL     1     -11.659  44.519  -1.346  1.00  0.00    -0.247 OA
HETATM    5  N4  UNL     1     -13.684  43.451  -1.515  1.00  0.00    -0.326 N 
ATOM      6  H4  UNL     1     -14.193  42.568  -1.491  1.00  0.00     0.165 HD
ENDROOT
BRANCH   1   7
HETATM    7  C8  UNL     1     -10.153  42.289  -0.907  1.00  0.00     0.132 C 
BRANCH   7   8
HETATM    8  C7  UNL     1      -9.718  41.935   0.472  1.00  0.00     0.104 C 
BRANCH   8   9
HETATM    9  C6  UNL     1      -8.312  42.281   0.795  1.00  0.00     0.168 C 
HETATM   10  O1  UNL     1      -7.475  41.649   0.143  1.00  0.00    -0.292 OA
BRANCH   9  11
HETATM   11  C5  UNL     1      -7.902  43.296   1.805  1.00  0.00     0.037 C 
BRANCH  11  12
HETATM   12  N2  UNL     1      -7.879  44.618   1.340  1.00  0.00    -0.280 NA
HETATM   13  C4  UNL     1      -7.861  44.923  -0.027  1.00  0.00     0.114 C 
HETATM   14  C3  UNL     1      -7.388  46.366  -0.198  1.00  0.00     0.131 C 
HETATM   15  N1  UNL     1      -7.325  47.095   1.012  1.00  0.00    -0.410 N 
HETATM   16  C25 UNL     1      -8.358  46.872   1.948  1.00  0.00     0.131 C 
HETATM   17  C24 UNL     1      -8.863  45.445   2.006  1.00  0.00     0.114 C 
BRANCH  15  18
HETATM   18  C2  UNL     1      -6.043  47.457   1.494  1.00  0.00     0.112 C 
HETATM   19  C1  UNL     1      -5.841  47.140   2.938  1.00  0.00     0.026 C 
ENDBRANCH  15  18
ENDBRANCH  11  12
BRANCH  11  20
HETATM   20  C21 UNL     1      -6.760  42.855   2.679  1.00  0.00     0.026 C 
HETATM   21  C22 UNL     1      -7.043  43.156   4.146  1.00  0.00     0.016 C 
HETATM   22  C23 UNL     1      -5.427  43.404   2.338  1.00  0.00     0.016 C 
ENDBRANCH  11  20
ENDBRANCH   9  11
ENDBRANCH   8   9
ENDBRANCH   7   8
ENDBRANCH   1   7
BRANCH   5  23
HETATM   23  C10 UNL     1     -14.415  44.667  -1.744  1.00  0.00     0.108 C 
HETATM   24  C11 UNL     1     -15.883  44.450  -1.987  1.00  0.00     0.049 C 
HETATM   25  C12 UNL     1     -13.857  45.303  -3.016  1.00  0.00     0.049 C 
BRANCH  23  26
HETATM   26  C13 UNL     1     -14.243  45.577  -0.597  1.00  0.00     0.245 C 
HETATM   27  O3  UNL     1     -14.826  45.355   0.474  1.00  0.00    -0.271 OA
HETATM   28  N5  UNL     1     -13.408  46.705  -0.728  1.00  0.00    -0.354 N 
ATOM     29  H5  UNL     1     -12.931  46.892  -1.609  1.00  0.00     0.162 HD
BRANCH  28  30
HETATM   30  C14 UNL     1     -13.236  47.594   0.396  1.00  0.00     0.084 C 
HETATM   31  C15 UNL     1     -12.944  49.004  -0.082  1.00  0.00     0.025 C 
HETATM   32  C16 UNL     1     -13.035  49.911   1.149  1.00  0.00     0.006 C 
HETATM   33  C17 UNL     1     -11.938  49.511   2.115  1.00  0.00    -0.019 C 
HETATM   34  C18 UNL     1     -12.082  50.289   3.400  1.00  0.00     0.010 C 
HETATM   35  C19 UNL     1     -11.982  48.052   2.446  1.00  0.00     0.006 C 
HETATM   36  C20 UNL     1     -12.082  47.151   1.257  1.00  0.00     0.025 C 
ENDBRANCH  28  30
ENDBRANCH  23  26
ENDBRANCH   5  23
TORSDOF 10
ENDMDL
MODEL 2
REMARK VINA RESULT: -7.140627362      1.246      1.558
REMARK  10 active torsions:
REMARK  status: ('A' for Active; 'I' for Inactive)
REMARK    1  A    between atoms: C2_2  and  N1_3 
REMARK    2  A    between atoms: N2_6  and  C5_7 
REMARK    3  A    between atoms: C5_7  and  C6_8 
REMARK    4  A    between atoms: C5_7  and  C21_32 
REMARK    5  A    between atoms: C6_8  and  C7_10 
REMARK    6  A    between atoms: C7_10  and  C8_11 
REMARK    7  A    between atoms: C8_11  and  N3_12 
REMARK       I    between atoms: N3_12  and  C9_14 
REMARK       I    between atoms: C9_14  and  N4_16 
REMARK    8  A    between atoms: N4_16  and  C10_18 
REMARK    9  A    between atoms: C10_18  and  C13_21 
REMARK       I    between atoms: C13_21  and  N5_23 
REMARK   10  A    between atoms: N5_23  and  C14_25 
ROOT
HETATM    1  N3  UNL     1     -11.467  41.797  -1.378  1.00  0.00    -0.343 N 
ATOM      2  H3  UNL     1     -12.052  40.981  -1.200  1.00  0.00     0.164 HD
HETATM    3  C9  UNL     1     -12.043  43.072  -1.553  1.00  0.00     0.317 C 
HETATM    4  O2  UNL     1     -11.305  44.057  -1.781  1.00  0.00    -0.247 OA
HETATM    5  N4  UNL     1     -13.440  43.269  -1.480  1.00  0.00    -0.326 N 
ATOM      6  H4  UNL     1     -14.040  42.466  -1.289  1.00  0.00     0.165 HD
ENDROOT
BRANCH   1   7
HETATM    7  C8  UNL     1     -10.031  41.669  -1.456  1.00  0.00     0.132 C 
BRANCH   7   8
HETATM    8  C7  UNL     1      -9.362  41.515  -0.134  1.00  0.00     0.104 C 
BRANCH   8   9
HETATM    9  C6  UNL     1      -8.463  42.632   0.248  1.00  0.00     0.168 C 
HETATM   10  O1  UNL     1      -7.773  43.063  -0.682  1.00  0.00    -0.292 OA
BRANCH   9  11
HETATM   11  C5  UNL     1      -8.370  43.212   1.616  1.00  0.00     0.037 C 
BRANCH  11  12
HETATM   12  N2  UNL     1      -8.624  44.588   1.693  1.00  0.00    -0.280 NA
HETATM   13  C4  UNL     1      -7.885  45.522   0.954  1.00  0.00     0.114 C 
HETATM   14  C3  UNL     1      -8.079  46.903   1.580  1.00  0.00     0.131 C 
HETATM   15  N1  UNL     1      -9.103  46.951   2.553  1.00  0.00    -0.410 N 
HETATM   16  C25 UNL     1     -10.272  46.203   2.291  1.00  0.00     0.131 C 
HETATM   17  C24 UNL     1     -10.035  44.889   1.577  1.00  0.00     0.114 C 
BRANCH  15  18
HETATM   18  C2  UNL     1      -8.718  47.153   3.902  1.00  0.00     0.112 C 
HETATM   19  C1  UNL     1      -9.716  47.931   4.692  1.00  0.00     0.026 C 
ENDBRANCH  15  18
ENDBRANCH  11  12
BRANCH  11  20
HETATM   20  C21 UNL     1      -7.220  42.679   2.424  1.00  0.00     0.026 C 
HETATM   21  C22 UNL     1      -7.295  43.158   3.869  1.00  0.00     0.016 C 
HETATM   22  C23 UNL     1      -5.863  42.973   1.905  1.00  0.00     0.016 C 
ENDBRANCH  11  20
ENDBRANCH   9  11
ENDBRANCH   8   9
ENDBRANCH   7   8
ENDBRANCH   1   7
BRANCH   5  23
HETATM   23  C10 UNL     1     -14.047  44.560  -1.664  1.00  0.00     0.108 C 
HETATM   24  C11 UNL     1     -15.547  44.539  -1.571  1.00  0.00     0.049 C 
HETATM   25  C12 UNL     1     -13.708  45.025  -3.079  1.00  0.00     0.049 C 
BRANCH  23  26
HETATM   26  C13 UNL     1     -13.512  45.508  -0.670  1.00  0.00     0.245 C 
HETATM   27  O3  UNL     1     -13.608  45.269   0.542  1.00  0.00    -0.271 OA
HETATM   28  N5  UNL     1     -12.890  46.694  -1.110  1.00  0.00    -0.354 N 
ATOM     29  H5  UNL     1     -12.813  46.895  -2.107  1.00  0.00     0.162 HD
BRANCH  28  30
HETATM   30  C14 UNL     1     -12.363  47.621  -0.137  1.00  0.00     0.084 C 
HETATM   31  C15 UNL     1     -13.447  48.576   0.328  1.00  0.00     0.025 C 
HETATM   32  C16 UNL     1     -12.874  49.336   1.528  1.00  0.00     0.006 C 
HETATM   33  C17 UNL     1     -11.700  50.165   1.047  1.00  0.00    -0.019 C 
HETATM   34  C18 UNL     1     -11.023  50.821   2.225  1.00  0.00     0.010 C 
HETATM   35  C19 UNL     1     -10.682  49.337   0.327  1.00  0.00     0.006 C 
HETATM   36  C20 UNL     1     -11.249  48.443  -0.730  1.00  0.00     0.025 C 
ENDBRANCH  28  30
ENDBRANCH  23  26
ENDBRANCH   5  23
TORSDOF 10
ENDMDL
MODEL 3
REMARK VINA RESULT: -7.053675763      1.221      2.487
REMARK  10 active torsions:
REMARK  status: ('A' for Active; 'I' for Inactive)
REMARK    1  A    between atoms: C2_2  and  N1_3 
REMARK    2  A    between atoms: N2_6  and  C5_7 
REMARK    3  A    between atoms: C5_7  and  C6_8 
REMARK    4  A    between atoms: C5_7  and  C21_32 
REMARK    5  A    between atoms: C6_8  and  C7_10 
REMARK    6  A    between atoms: C7_10  and  C8_11 
REMARK    7  A    between atoms: C8_11  and  N3_12 
REMARK       I    between atoms: N3_12  and  C9_14 
REMARK       I    between atoms: C9_14  and  N4_16 
REMARK    8  A    between atoms: N4_16  and  C10_18 
REMARK    9  A    between atoms: C10_18  and  C13_21 
REMARK       I    between atoms: C13_21  and  N5_23 
REMARK   10  A    between atoms: N5_23  and  C14_25 
ROOT
HETATM    1  N3  UNL     1     -11.662  42.295  -1.389  1.00  0.00    -0.343 N 
ATOM      2  H3  UNL     1     -12.144  41.402  -1.288  1.00  0.00     0.164 HD
HETATM    3  C9  UNL     1     -12.392  43.491  -1.557  1.00  0.00     0.317 C 
HETATM    4  O2  UNL     1     -11.778  44.574  -1.688  1.00  0.00    -0.247 OA
HETATM    5  N4  UNL     1     -13.804  43.499  -1.581  1.00  0.00    -0.326 N 
ATOM      6  H4  UNL     1     -14.302  42.617  -1.468  1.00  0.00     0.165 HD
ENDROOT
BRANCH   1   7
HETATM    7  C8  UNL     1     -10.220  42.360  -1.363  1.00  0.00     0.132 C 
BRANCH   7   8
HETATM    8  C7  UNL     1      -9.630  42.218  -0.004  1.00  0.00     0.104 C 
BRANCH   8   9
HETATM    9  C6  UNL     1      -9.530  43.478   0.773  1.00  0.00     0.168 C 
HETATM   10  O1  UNL     1     -10.592  43.834   1.294  1.00  0.00    -0.292 OA
BRANCH   9  11
HETATM   11  C5  UNL     1      -8.281  44.272   0.939  1.00  0.00     0.037 C 
BRANCH  11  12
HETATM   12  N2  UNL     1      -7.439  43.842   1.973  1.00  0.00    -0.280 NA
HETATM   13  C4  UNL     1      -7.942  43.284   3.156  1.00  0.00     0.114 C 
HETATM   14  C3  UNL     1      -6.854  43.346   4.227  1.00  0.00     0.131 C 
HETATM   15  N1  UNL     1      -5.580  43.702   3.726  1.00  0.00    -0.410 N 
HETATM   16  C25 UNL     1      -5.210  43.165   2.474  1.00  0.00     0.131 C 
HETATM   17  C24 UNL     1      -6.347  43.029   1.483  1.00  0.00     0.114 C 
BRANCH  15  18
HETATM   18  C2  UNL     1      -5.058  44.965   4.101  1.00  0.00     0.112 C 
HETATM   19  C1  UNL     1      -4.460  45.720   2.961  1.00  0.00     0.026 C 
ENDBRANCH  15  18
ENDBRANCH  11  12
BRANCH  11  20
HETATM   20  C21 UNL     1      -8.481  45.754   0.786  1.00  0.00     0.026 C 
HETATM   21  C22 UNL     1      -7.531  46.332  -0.256  1.00  0.00     0.016 C 
HETATM   22  C23 UNL     1      -8.363  46.561   2.024  1.00  0.00     0.016 C 
ENDBRANCH  11  20
ENDBRANCH   9  11
ENDBRANCH   8   9
ENDBRANCH   7   8
ENDBRANCH   1   7
BRANCH   5  23
HETATM   23  C10 UNL     1     -14.563  44.707  -1.759  1.00  0.00     0.108 C 
HETATM   24  C11 UNL     1     -16.038  44.470  -1.930  1.00  0.00     0.049 C 
HETATM   25  C12 UNL     1     -14.079  45.364  -3.050  1.00  0.00     0.049 C 
BRANCH  23  26
HETATM   26  C13 UNL     1     -14.346  45.607  -0.612  1.00  0.00     0.245 C 
HETATM   27  O3  UNL     1     -14.946  45.420   0.456  1.00  0.00    -0.271 OA
HETATM   28  N5  UNL     1     -13.448  46.686  -0.739  1.00  0.00    -0.354 N 
ATOM     29  H5  UNL     1     -12.955  46.843  -1.619  1.00  0.00     0.162 HD
BRANCH  28  30
HETATM   30  C14 UNL     1     -13.231  47.564   0.385  1.00  0.00     0.084 C 
HETATM   31  C15 UNL     1     -12.938  48.975  -0.093  1.00  0.00     0.025 C 
HETATM   32  C16 UNL     1     -12.982  49.875   1.146  1.00  0.00     0.006 C 
HETATM   33  C17 UNL     1     -11.860  49.456   2.075  1.00  0.00    -0.019 C 
HETATM   34  C18 UNL     1     -11.956  50.227   3.369  1.00  0.00     0.010 C 
HETATM   35  C19 UNL     1     -11.911  47.995   2.398  1.00  0.00     0.006 C 
HETATM   36  C20 UNL     1     -12.056  47.104   1.206  1.00  0.00     0.025 C 
ENDBRANCH  28  30
ENDBRANCH  23  26
ENDBRANCH   5  23
TORSDOF 10
ENDMDL
MODEL 4
REMARK VINA RESULT: -6.968731490      1.165      2.459
REMARK  10 active torsions:
REMARK  status: ('A' for Active; 'I' for Inactive)
REMARK    1  A    between atoms: C2_2  and  N1_3 
REMARK    2  A    between atoms: N2_6  and  C5_7 
REMARK    3  A    between atoms: C5_7  and  C6_8 
REMARK    4  A    between atoms: C5_7  and  C21_32 
REMARK    5  A    between atoms: C6_8  and  C7_10 
REMARK    6  A    between atoms: C7_10  and  C8_11 
REMARK    7  A    between atoms: C8_11  and  N3_12 
REMARK       I    between atoms: N3_12  and  C9_14 
REMARK       I    between atoms: C9_14  and  N4_16 
REMARK    8  A    between atoms: N4_16  and  C10_18 
REMARK    9  A    between atoms: C10_18  and  C13_21 
REMARK       I    between atoms: C13_21  and  N5_23 
REMARK   10  A    between atoms: N5_23  and  C14_25 
ROOT
HETATM    1  N3  UNL     1     -11.422  42.345  -1.130  1.00  0.00    -0.343 N 
ATOM      2  H3  UNL     1     -11.878  41.433  -1.113  1.00  0.00     0.164 HD
HETATM    3  C9  UNL     1     -12.173  43.521  -1.336  1.00  0.00     0.317 C 
HETATM    4  O2  UNL     1     -11.590  44.628  -1.362  1.00  0.00    -0.247 OA
HETATM    5  N4  UNL     1     -13.573  43.483  -1.515  1.00  0.00    -0.326 N 
ATOM      6  H4  UNL     1     -14.048  42.580  -1.488  1.00  0.00     0.165 HD
ENDROOT
BRANCH   1   7
HETATM    7  C8  UNL     1      -9.995  42.457  -0.944  1.00  0.00     0.132 C 
BRANCH   7   8
HETATM    8  C7  UNL     1      -9.571  42.519   0.482  1.00  0.00     0.104 C 
BRANCH   8   9
HETATM    9  C6  UNL     1      -8.138  42.835   0.699  1.00  0.00     0.168 C 
HETATM   10  O1  UNL     1      -7.366  41.938   0.345  1.00  0.00    -0.292 OA
BRANCH   9  11
HETATM   11  C5  UNL     1      -7.632  44.108   1.283  1.00  0.00     0.037 C 
BRANCH  11  12
HETATM   12  N2  UNL     1      -6.884  43.963   2.460  1.00  0.00    -0.280 NA
HETATM   13  C4  UNL     1      -7.260  43.069   3.472  1.00  0.00     0.114 C 
HETATM   14  C3  UNL     1      -6.542  43.462   4.762  1.00  0.00     0.131 C 
HETATM   15  N1  UNL     1      -5.528  44.431   4.579  1.00  0.00    -0.410 N 
HETATM   16  C25 UNL     1      -4.731  44.314   3.419  1.00  0.00     0.131 C 
HETATM   17  C24 UNL     1      -5.469  43.821   2.192  1.00  0.00     0.114 C 
BRANCH  15  18
HETATM   18  C2  UNL     1      -5.749  45.722   5.120  1.00  0.00     0.112 C 
HETATM   19  C1  UNL     1      -6.915  45.782   6.049  1.00  0.00     0.026 C 
ENDBRANCH  15  18
ENDBRANCH  11  12
BRANCH  11  20
HETATM   20  C21 UNL     1      -8.626  45.235   1.234  1.00  0.00     0.026 C 
HETATM   21  C22 UNL     1      -8.523  46.001  -0.079  1.00  0.00     0.016 C 
HETATM   22  C23 UNL     1      -8.564  46.209   2.349  1.00  0.00     0.016 C 
ENDBRANCH  11  20
ENDBRANCH   9  11
ENDBRANCH   8   9
ENDBRANCH   7   8
ENDBRANCH   1   7
BRANCH   5  23
HETATM   23  C10 UNL     1     -14.354  44.670  -1.734  1.00  0.00     0.108 C 
HETATM   24  C11 UNL     1     -15.816  44.398  -1.954  1.00  0.00     0.049 C 
HETATM   25  C12 UNL     1     -13.840  45.324  -3.016  1.00  0.00     0.049 C 
BRANCH  23  26
HETATM   26  C13 UNL     1     -14.198  45.588  -0.591  1.00  0.00     0.245 C 
HETATM   27  O3  UNL     1     -14.784  45.366   0.478  1.00  0.00    -0.271 OA
HETATM   28  N5  UNL     1     -13.374  46.724  -0.723  1.00  0.00    -0.354 N 
ATOM     29  H5  UNL     1     -12.893  46.911  -1.603  1.00  0.00     0.162 HD
BRANCH  28  30
HETATM   30  C14 UNL     1     -13.217  47.620   0.397  1.00  0.00     0.084 C 
HETATM   31  C15 UNL     1     -12.936  49.031  -0.087  1.00  0.00     0.025 C 
HETATM   32  C16 UNL     1     -13.044  49.944   1.138  1.00  0.00     0.006 C 
HETATM   33  C17 UNL     1     -11.948  49.560   2.112  1.00  0.00    -0.019 C 
HETATM   34  C18 UNL     1     -12.108  50.344   3.392  1.00  0.00     0.010 C 
HETATM   35  C19 UNL     1     -11.980  48.103   2.452  1.00  0.00     0.006 C 
HETATM   36  C20 UNL     1     -12.064  47.194   1.267  1.00  0.00     0.025 C 
ENDBRANCH  28  30
ENDBRANCH  23  26
ENDBRANCH   5  23
TORSDOF 10
ENDMDL
MODEL 5
REMARK VINA RESULT: -6.913298066      2.379      4.660
REMARK  10 active torsions:
REMARK  status: ('A' for Active; 'I' for Inactive)
REMARK    1  A    between atoms: C2_2  and  N1_3 
REMARK    2  A    between atoms: N2_6  and  C5_7 
REMARK    3  A    between atoms: C5_7  and  C6_8 
REMARK    4  A    between atoms: C5_7  and  C21_32 
REMARK    5  A    between atoms: C6_8  and  C7_10 
REMARK    6  A    between atoms: C7_10  and  C8_11 
REMARK    7  A    between atoms: C8_11  and  N3_12 
REMARK       I    between atoms: N3_12  and  C9_14 
REMARK       I    between atoms: C9_14  and  N4_16 
REMARK    8  A    between atoms: N4_16  and  C10_18 
REMARK    9  A    between atoms: C10_18  and  C13_21 
REMARK       I    between atoms: C13_21  and  N5_23 
REMARK   10  A    between atoms: N5_23  and  C14_25 
ROOT
HETATM    1  N3  UNL     1     -11.260  41.768  -1.139  1.00  0.00    -0.343 N 
ATOM      2  H3  UNL     1     -11.909  41.056  -0.803  1.00  0.00     0.164 HD
HETATM    3  C9  UNL     1     -11.712  43.069  -1.442  1.00  0.00     0.317 C 
HETATM    4  O2  UNL     1     -10.899  43.922  -1.862  1.00  0.00    -0.247 OA
HETATM    5  N4  UNL     1     -13.067  43.437  -1.284  1.00  0.00    -0.326 N 
ATOM      6  H4  UNL     1     -13.727  42.742  -0.937  1.00  0.00     0.165 HD
ENDROOT
BRANCH   1   7
HETATM    7  C8  UNL     1      -9.860  41.462  -1.313  1.00  0.00     0.132 C 
BRANCH   7   8
HETATM    8  C7  UNL     1      -9.043  41.634  -0.080  1.00  0.00     0.104 C 
BRANCH   8   9
HETATM    9  C6  UNL     1      -8.291  42.911   0.002  1.00  0.00     0.168 C 
HETATM   10  O1  UNL     1      -7.724  43.229  -1.048  1.00  0.00    -0.292 OA
BRANCH   9  11
HETATM   11  C5  UNL     1      -8.205  43.764   1.219  1.00  0.00     0.037 C 
BRANCH  11  12
HETATM   12  N2  UNL     1      -9.050  44.882   1.219  1.00  0.00    -0.280 NA
HETATM   13  C4  UNL     1      -9.115  45.763   0.131  1.00  0.00     0.114 C 
HETATM   14  C3  UNL     1      -9.745  47.073   0.601  1.00  0.00     0.131 C 
HETATM   15  N1  UNL     1     -10.315  47.002   1.893  1.00  0.00    -0.410 N 
HETATM   16  C25 UNL     1     -10.998  45.813   2.228  1.00  0.00     0.131 C 
HETATM   17  C24 UNL     1     -10.391  44.551   1.652  1.00  0.00     0.114 C 
BRANCH  15  18
HETATM   18  C2  UNL     1      -9.683  47.734   2.929  1.00  0.00     0.112 C 
HETATM   19  C1  UNL     1     -10.401  47.650   4.235  1.00  0.00     0.026 C 
ENDBRANCH  15  18
ENDBRANCH  11  12
BRANCH  11  20
HETATM   20  C21 UNL     1      -6.803  43.962   1.723  1.00  0.00     0.026 C 
HETATM   21  C22 UNL     1      -6.224  42.660   2.263  1.00  0.00     0.016 C 
HETATM   22  C23 UNL     1      -6.619  45.015   2.749  1.00  0.00     0.016 C 
ENDBRANCH  11  20
ENDBRANCH   9  11
ENDBRANCH   8   9
ENDBRANCH   7   8
ENDBRANCH   1   7
BRANCH   5  23
HETATM   23  C10 UNL     1     -13.547  44.756  -1.597  1.00  0.00     0.108 C 
HETATM   24  C11 UNL     1     -12.711  45.475  -2.618  1.00  0.00     0.049 C 
HETATM   25  C12 UNL     1     -13.471  45.584  -0.315  1.00  0.00     0.049 C 
BRANCH  23  26
HETATM   26  C13 UNL     1     -14.939  44.679  -2.076  1.00  0.00     0.245 C 
HETATM   27  O3  UNL     1     -15.653  43.709  -1.782  1.00  0.00    -0.271 OA
HETATM   28  N5  UNL     1     -15.455  45.719  -2.875  1.00  0.00    -0.354 N 
ATOM     29  H5  UNL     1     -14.868  46.517  -3.122  1.00  0.00     0.162 HD
BRANCH  28  30
HETATM   30  C14 UNL     1     -16.818  45.647  -3.342  1.00  0.00     0.084 C 
HETATM   31  C15 UNL     1     -16.856  45.336  -4.827  1.00  0.00     0.025 C 
HETATM   32  C16 UNL     1     -18.315  45.023  -5.172  1.00  0.00     0.006 C 
HETATM   33  C17 UNL     1     -19.136  46.276  -4.938  1.00  0.00    -0.019 C 
HETATM   34  C18 UNL     1     -20.600  45.969  -5.134  1.00  0.00     0.010 C 
HETATM   35  C19 UNL     1     -18.954  46.819  -3.555  1.00  0.00     0.006 C 
HETATM   36  C20 UNL     1     -17.528  46.958  -3.128  1.00  0.00     0.025 C 
ENDBRANCH  28  30
ENDBRANCH  23  26
ENDBRANCH   5  23
TORSDOF 10
ENDMDL
