MODEL 1
REMARK VINA RESULT: -7.359330500      0.000      0.000
REMARK  9 active torsions:
REMARK  status: ('A' for Active; 'I' for Inactive)
REMARK    1  A    between atoms: C2_2  and  N1_3 
REMARK    2  A    between atoms: N1_3  and  C3_4 
REMARK    3  A    between atoms: N1_3  and  C5_6 
REMARK    4  A    between atoms: C5_6  and  C6_7 
REMARK    5  A    between atoms: C6_7  and  N2_8 
REMARK    6  A    between atoms: N2_8  and  C7_11 
REMARK    7  A    between atoms: C13_19  and  S1_20 
REMARK    8  A    between atoms: S1_20  and  N4_23 
REMARK    9  A    between atoms: N4_23  and  C14_25 
ROOT
HETATM    1  C7  UNL     1      -7.758  42.701   0.925  1.00  0.00     0.195 A 
HETATM    2  C8  UNL     1      -8.240  42.402  -0.503  1.00  0.00     0.028 A 
HETATM    3  C9  UNL     1      -9.521  41.648  -0.619  1.00  0.00     0.064 C 
HETATM    4  C10 UNL     1     -10.663  42.528  -1.019  1.00  0.00     0.017 A 
HETATM    5  N3  UNL     1     -11.744  42.354  -1.800  1.00  0.00    -0.358 N 
ATOM      6  H3  UNL     1     -11.964  41.488  -2.292  1.00  0.00     0.166 HD
HETATM    7  C11 UNL     1     -12.496  43.464  -1.851  1.00  0.00     0.044 A 
HETATM    8  C12 UNL     1     -13.684  43.813  -2.492  1.00  0.00     0.055 A 
HETATM    9  C13 UNL     1     -14.243  45.067  -2.358  1.00  0.00     0.081 A 
HETATM   10  C18 UNL     1     -13.567  45.959  -1.554  1.00  0.00     0.026 A 
HETATM   11  C19 UNL     1     -12.394  45.638  -0.911  1.00  0.00     0.016 A 
HETATM   12  C20 UNL     1     -11.852  44.398  -1.053  1.00  0.00    -0.001 A 
HETATM   13  C21 UNL     1     -10.710  43.802  -0.539  1.00  0.00    -0.023 A 
HETATM   14  C22 UNL     1      -9.661  44.305   0.352  1.00  0.00     0.048 C 
HETATM   15  C23 UNL     1      -8.297  43.748   0.058  1.00  0.00     0.027 A 
ENDROOT
BRANCH   1  16
HETATM   16  N2  UNL     1      -6.368  42.444   1.127  1.00  0.00    -0.069 N 
ATOM     17  H22 UNL     1      -5.795  43.029   0.519  1.00  0.00     0.277 HD
ATOM     18  H21 UNL     1      -6.108  41.527   0.765  1.00  0.00     0.277 HD
BRANCH  16  19
HETATM   19  C6  UNL     1      -5.967  42.587   2.518  1.00  0.00     0.262 C 
BRANCH  19  20
HETATM   20  C5  UNL     1      -5.358  43.948   2.757  1.00  0.00     0.299 C 
BRANCH  20  21
HETATM   21  N1  UNL     1      -6.051  44.618   3.810  1.00  0.00     0.089 N 
BRANCH  21  22
HETATM   22  C2  UNL     1      -7.124  45.474   3.412  1.00  0.00     0.268 C 
HETATM   23  C1  UNL     1      -6.616  46.298   2.227  1.00  0.00     0.037 C 
ENDBRANCH  21  22
BRANCH  21  24
HETATM   24  C3  UNL     1      -6.435  43.711   4.880  1.00  0.00     0.268 C 
HETATM   25  C4  UNL     1      -5.427  43.759   6.030  1.00  0.00     0.037 C 
ENDBRANCH  21  24
ENDBRANCH  20  21
ENDBRANCH  19  20
ENDBRANCH  16  19
ENDBRANCH   1  16
BRANCH   9  26
HETATM   26  S1  UNL     1     -15.746  45.468  -3.186  1.00  0.00     0.259 S 
HETATM   27  O1  UNL     1     -16.064  44.246  -4.040  1.00  0.00    -0.201 OA
HETATM   28  O2  UNL     1     -16.772  45.624  -2.098  1.00  0.00    -0.201 OA
BRANCH  26  29
HETATM   29  N4  UNL     1     -15.496  46.847  -4.129  1.00  0.00    -0.307 N 
ATOM     30  H4  UNL     1     -14.553  47.173  -4.345  1.00  0.00     0.173 HD
BRANCH  29  31
HETATM   31  C14 UNL     1     -16.633  47.539  -4.612  1.00  0.00     0.029 C 
HETATM   32  C15 UNL     1     -17.766  46.704  -5.108  1.00  0.00     0.038 C 
HETATM   33  C16 UNL     1     -16.170  48.376  -5.817  1.00  0.00     0.038 C 
HETATM   34  C17 UNL     1     -17.182  48.570  -3.617  1.00  0.00     0.038 C 
ENDBRANCH  29  31
ENDBRANCH  26  29
ENDBRANCH   9  26
TORSDOF 9
ENDMDL
MODEL 2
REMARK VINA RESULT: -7.349454021      0.501      1.369
REMARK  9 active torsions:
REMARK  status: ('A' for Active; 'I' for Inactive)
REMARK    1  A    between atoms: C2_2  and  N1_3 
REMARK    2  A    between atoms: N1_3  and  C3_4 
REMARK    3  A    between atoms: N1_3  and  C5_6 
REMARK    4  A    between atoms: C5_6  and  C6_7 
REMARK    5  A    between atoms: C6_7  and  N2_8 
REMARK    6  A    between atoms: N2_8  and  C7_11 
REMARK    7  A    between atoms: C13_19  and  S1_20 
REMARK    8  A    between atoms: S1_20  and  N4_23 
REMARK    9  A    between atoms: N4_23  and  C14_25 
ROOT
HETATM    1  C7  UNL     1      -7.728  42.697   0.944  1.00  0.00     0.195 A 
HETATM    2  C8  UNL     1      -8.235  42.333  -0.460  1.00  0.00     0.028 A 
HETATM    3  C9  UNL     1      -9.535  41.606  -0.519  1.00  0.00     0.064 C 
HETATM    4  C10 UNL     1     -10.661  42.491  -0.954  1.00  0.00     0.017 A 
HETATM    5  N3  UNL     1     -11.755  42.302  -1.712  1.00  0.00    -0.358 N 
ATOM      6  H3  UNL     1     -12.003  41.416  -2.153  1.00  0.00     0.166 HD
HETATM    7  C11 UNL     1     -12.481  43.426  -1.814  1.00  0.00     0.044 A 
HETATM    8  C12 UNL     1     -13.668  43.769  -2.460  1.00  0.00     0.055 A 
HETATM    9  C13 UNL     1     -14.195  45.042  -2.388  1.00  0.00     0.081 A 
HETATM   10  C18 UNL     1     -13.487  45.960  -1.642  1.00  0.00     0.026 A 
HETATM   11  C19 UNL     1     -12.314  45.645  -0.995  1.00  0.00     0.016 A 
HETATM   12  C20 UNL     1     -11.805  44.386  -1.076  1.00  0.00    -0.001 A 
HETATM   13  C21 UNL     1     -10.671  43.790  -0.544  1.00  0.00    -0.023 A 
HETATM   14  C22 UNL     1      -9.599  44.315   0.307  1.00  0.00     0.048 C 
HETATM   15  C23 UNL     1      -8.253  43.709   0.028  1.00  0.00     0.027 A 
ENDROOT
BRANCH   1  16
HETATM   16  N2  UNL     1      -6.342  42.417   1.144  1.00  0.00    -0.069 N 
ATOM     17  H22 UNL     1      -5.771  42.861   0.425  1.00  0.00     0.277 HD
ATOM     18  H21 UNL     1      -6.132  41.440   0.940  1.00  0.00     0.277 HD
BRANCH  16  19
HETATM   19  C6  UNL     1      -5.882  42.781   2.475  1.00  0.00     0.262 C 
BRANCH  19  20
HETATM   20  C5  UNL     1      -7.055  42.984   3.404  1.00  0.00     0.299 C 
BRANCH  20  21
HETATM   21  N1  UNL     1      -6.819  44.104   4.256  1.00  0.00     0.089 N 
BRANCH  21  22
HETATM   22  C2  UNL     1      -5.987  43.866   5.394  1.00  0.00     0.268 C 
HETATM   23  C1  UNL     1      -6.289  44.977   6.402  1.00  0.00     0.037 C 
ENDBRANCH  21  22
BRANCH  21  24
HETATM   24  C3  UNL     1      -6.411  45.286   3.511  1.00  0.00     0.268 C 
HETATM   25  C4  UNL     1      -7.628  46.055   2.992  1.00  0.00     0.037 C 
ENDBRANCH  21  24
ENDBRANCH  20  21
ENDBRANCH  19  20
ENDBRANCH  16  19
ENDBRANCH   1  16
BRANCH   9  26
HETATM   26  S1  UNL     1     -15.699  45.435  -3.219  1.00  0.00     0.259 S 
HETATM   27  O1  UNL     1     -16.020  44.202  -4.055  1.00  0.00    -0.201 OA
HETATM   28  O2  UNL     1     -16.722  45.608  -2.132  1.00  0.00    -0.201 OA
BRANCH  26  29
HETATM   29  N4  UNL     1     -15.447  46.801  -4.182  1.00  0.00    -0.307 N 
ATOM     30  H4  UNL     1     -14.504  47.114  -4.413  1.00  0.00     0.173 HD
BRANCH  29  31
HETATM   31  C14 UNL     1     -16.583  47.497  -4.659  1.00  0.00     0.029 C 
HETATM   32  C15 UNL     1     -17.720  46.668  -5.155  1.00  0.00     0.038 C 
HETATM   33  C16 UNL     1     -16.121  48.338  -5.861  1.00  0.00     0.038 C 
HETATM   34  C17 UNL     1     -17.126  48.527  -3.658  1.00  0.00     0.038 C 
ENDBRANCH  29  31
ENDBRANCH  26  29
ENDBRANCH   9  26
TORSDOF 9
ENDMDL
MODEL 3
REMARK VINA RESULT: -7.322403192      1.409      2.118
REMARK  9 active torsions:
REMARK  status: ('A' for Active; 'I' for Inactive)
REMARK    1  A    between atoms: C2_2  and  N1_3 
REMARK    2  A    between atoms: N1_3  and  C3_4 
REMARK    3  A    between atoms: N1_3  and  C5_6 
REMARK    4  A    between atoms: C5_6  and  C6_7 
REMARK    5  A    between atoms: C6_7  and  N2_8 
REMARK    6  A    between atoms: N2_8  and  C7_11 
REMARK    7  A    between atoms: C13_19  and  S1_20 
REMARK    8  A    between atoms: S1_20  and  N4_23 
REMARK    9  A    between atoms: N4_23  and  C14_25 
ROOT
HETATM    1  C7  UNL     1      -7.037  42.585   1.768  1.00  0.00     0.195 A 
HETATM    2  C8  UNL     1      -7.372  42.829   0.288  1.00  0.00     0.028 A 
HETATM    3  C9  UNL     1      -8.467  41.995  -0.283  1.00  0.00     0.064 C 
HETATM    4  C10 UNL     1      -9.740  42.764  -0.448  1.00  0.00     0.017 A 
HETATM    5  N3  UNL     1     -10.720  42.757  -1.368  1.00  0.00    -0.358 N 
ATOM      6  H3  UNL     1     -10.735  42.149  -2.187  1.00  0.00     0.166 HD
HETATM    7  C11 UNL     1     -11.676  43.651  -1.074  1.00  0.00     0.044 A 
HETATM    8  C12 UNL     1     -12.874  44.037  -1.674  1.00  0.00     0.055 A 
HETATM    9  C13 UNL     1     -13.680  45.015  -1.129  1.00  0.00     0.081 A 
HETATM   10  C18 UNL     1     -13.241  45.592   0.043  1.00  0.00     0.026 A 
HETATM   11  C19 UNL     1     -12.063  45.228   0.655  1.00  0.00     0.016 A 
HETATM   12  C20 UNL     1     -11.277  44.262   0.106  1.00  0.00    -0.001 A 
HETATM   13  C21 UNL     1     -10.068  43.700   0.486  1.00  0.00    -0.023 A 
HETATM   14  C22 UNL     1      -9.190  43.952   1.633  1.00  0.00     0.048 C 
HETATM   15  C23 UNL     1      -7.729  43.795   1.324  1.00  0.00     0.027 A 
ENDROOT
BRANCH   1  16
HETATM   16  N2  UNL     1      -5.636  42.495   2.032  1.00  0.00    -0.069 N 
ATOM     17  H22 UNL     1      -5.098  42.519   1.167  1.00  0.00     0.277 HD
ATOM     18  H21 UNL     1      -5.384  41.562   2.357  1.00  0.00     0.277 HD
BRANCH  16  19
HETATM   19  C6  UNL     1      -5.175  43.514   2.963  1.00  0.00     0.262 C 
BRANCH  19  20
HETATM   20  C5  UNL     1      -5.767  43.287   4.333  1.00  0.00     0.299 C 
BRANCH  20  21
HETATM   21  N1  UNL     1      -6.346  44.496   4.823  1.00  0.00     0.089 N 
BRANCH  21  22
HETATM   22  C2  UNL     1      -6.174  44.757   6.218  1.00  0.00     0.268 C 
HETATM   23  C1  UNL     1      -5.045  43.845   6.701  1.00  0.00     0.037 C 
ENDBRANCH  21  22
BRANCH  21  24
HETATM   24  C3  UNL     1      -6.002  45.645   4.000  1.00  0.00     0.268 C 
HETATM   25  C4  UNL     1      -7.228  46.521   3.738  1.00  0.00     0.037 C 
ENDBRANCH  21  24
ENDBRANCH  20  21
ENDBRANCH  19  20
ENDBRANCH  16  19
ENDBRANCH   1  16
BRANCH   9  26
HETATM   26  S1  UNL     1     -15.186  45.475  -1.920  1.00  0.00     0.259 S 
HETATM   27  O1  UNL     1     -16.260  44.636  -1.238  1.00  0.00    -0.201 OA
HETATM   28  O2  UNL     1     -15.379  46.930  -1.597  1.00  0.00    -0.201 OA
BRANCH  26  29
HETATM   29  N4  UNL     1     -15.064  45.123  -3.569  1.00  0.00    -0.307 N 
ATOM     30  H4  UNL     1     -14.168  44.878  -3.989  1.00  0.00     0.173 HD
BRANCH  29  31
HETATM   31  C14 UNL     1     -16.244  45.180  -4.350  1.00  0.00     0.029 C 
HETATM   32  C15 UNL     1     -16.762  43.884  -4.878  1.00  0.00     0.038 C 
HETATM   33  C16 UNL     1     -15.921  46.037  -5.585  1.00  0.00     0.038 C 
HETATM   34  C17 UNL     1     -17.393  45.924  -3.657  1.00  0.00     0.038 C 
ENDBRANCH  29  31
ENDBRANCH  26  29
ENDBRANCH   9  26
TORSDOF 9
ENDMDL
MODEL 4
REMARK VINA RESULT: -7.319753106      1.600      2.037
REMARK  9 active torsions:
REMARK  status: ('A' for Active; 'I' for Inactive)
REMARK    1  A    between atoms: C2_2  and  N1_3 
REMARK    2  A    between atoms: N1_3  and  C3_4 
REMARK    3  A    between atoms: N1_3  and  C5_6 
REMARK    4  A    between atoms: C5_6  and  C6_7 
REMARK    5  A    between atoms: C6_7  and  N2_8 
REMARK    6  A    between atoms: N2_8  and  C7_11 
REMARK    7  A    between atoms: C13_19  and  S1_20 
REMARK    8  A    between atoms: S1_20  and  N4_23 
REMARK    9  A    between atoms: N4_23  and  C14_25 
ROOT
HETATM    1  C7  UNL     1      -6.958  42.603   1.820  1.00  0.00     0.195 A 
HETATM    2  C8  UNL     1      -7.317  42.777   0.336  1.00  0.00     0.028 A 
HETATM    3  C9  UNL     1      -8.424  41.920  -0.175  1.00  0.00     0.064 C 
HETATM    4  C10 UNL     1      -9.697  42.685  -0.357  1.00  0.00     0.017 A 
HETATM    5  N3  UNL     1     -10.692  42.637  -1.260  1.00  0.00    -0.358 N 
ATOM      6  H3  UNL     1     -10.723  41.990  -2.047  1.00  0.00     0.166 HD
HETATM    7  C11 UNL     1     -11.640  43.549  -0.994  1.00  0.00     0.044 A 
HETATM    8  C12 UNL     1     -12.846  43.910  -1.592  1.00  0.00     0.055 A 
HETATM    9  C13 UNL     1     -13.640  44.917  -1.083  1.00  0.00     0.081 A 
HETATM   10  C18 UNL     1     -13.179  45.549   0.053  1.00  0.00     0.026 A 
HETATM   11  C19 UNL     1     -11.993  45.209   0.662  1.00  0.00     0.016 A 
HETATM   12  C20 UNL     1     -11.219  44.215   0.148  1.00  0.00    -0.001 A 
HETATM   13  C21 UNL     1     -10.006  43.667   0.535  1.00  0.00    -0.023 A 
HETATM   14  C22 UNL     1      -9.108  43.971   1.654  1.00  0.00     0.048 C 
HETATM   15  C23 UNL     1      -7.653  43.793   1.329  1.00  0.00     0.027 A 
ENDROOT
BRANCH   1  16
HETATM   16  N2  UNL     1      -5.553  42.521   2.065  1.00  0.00    -0.069 N 
ATOM     17  H22 UNL     1      -5.027  42.542   1.192  1.00  0.00     0.277 HD
ATOM     18  H21 UNL     1      -5.292  41.591   2.392  1.00  0.00     0.277 HD
BRANCH  16  19
HETATM   19  C6  UNL     1      -5.083  43.546   2.984  1.00  0.00     0.262 C 
BRANCH  19  20
HETATM   20  C5  UNL     1      -5.659  43.328   4.362  1.00  0.00     0.299 C 
BRANCH  20  21
HETATM   21  N1  UNL     1      -5.414  44.470   5.183  1.00  0.00     0.089 N 
BRANCH  21  22
HETATM   22  C2  UNL     1      -6.529  44.960   5.930  1.00  0.00     0.268 C 
HETATM   23  C1  UNL     1      -7.085  46.159   5.158  1.00  0.00     0.037 C 
ENDBRANCH  21  22
BRANCH  21  24
HETATM   24  C3  UNL     1      -4.225  44.310   6.006  1.00  0.00     0.268 C 
HETATM   25  C4  UNL     1      -4.468  43.305   7.134  1.00  0.00     0.037 C 
ENDBRANCH  21  24
ENDBRANCH  20  21
ENDBRANCH  19  20
ENDBRANCH  16  19
ENDBRANCH   1  16
BRANCH   9  26
HETATM   26  S1  UNL     1     -15.158  45.343  -1.870  1.00  0.00     0.259 S 
HETATM   27  O1  UNL     1     -16.235  44.634  -1.059  1.00  0.00    -0.201 OA
HETATM   28  O2  UNL     1     -15.284  46.833  -1.713  1.00  0.00    -0.201 OA
BRANCH  26  29
HETATM   29  N4  UNL     1     -15.113  44.799  -3.469  1.00  0.00    -0.307 N 
ATOM     30  H4  UNL     1     -14.299  44.302  -3.833  1.00  0.00     0.173 HD
BRANCH  29  31
HETATM   31  C14 UNL     1     -16.237  45.055  -4.291  1.00  0.00     0.029 C 
HETATM   32  C15 UNL     1     -17.440  45.630  -3.622  1.00  0.00     0.038 C 
HETATM   33  C16 UNL     1     -16.685  43.701  -4.869  1.00  0.00     0.038 C 
HETATM   34  C17 UNL     1     -15.905  45.906  -5.524  1.00  0.00     0.038 C 
ENDBRANCH  29  31
ENDBRANCH  26  29
ENDBRANCH   9  26
TORSDOF 9
ENDMDL
MODEL 5
REMARK VINA RESULT: -7.237213537      0.919      1.629
REMARK  9 active torsions:
REMARK  status: ('A' for Active; 'I' for Inactive)
REMARK    1  A    between atoms: C2_2  and  N1_3 
REMARK    2  A    between atoms: N1_3  and  C3_4 
REMARK    3  A    between atoms: N1_3  and  C5_6 
REMARK    4  A    between atoms: C5_6  and  C6_7 
REMARK    5  A    between atoms: C6_7  and  N2_8 
REMARK    6  A    between atoms: N2_8  and  C7_11 
REMARK    7  A    between atoms: C13_19  and  S1_20 
REMARK    8  A    between atoms: S1_20  and  N4_23 
REMARK    9  A    between atoms: N4_23  and  C14_25 
ROOT
HETATM    1  C7  UNL     1      -7.847  42.550   0.911  1.00  0.00     0.195 A 
HETATM    2  C8  UNL     1      -8.187  42.822  -0.562  1.00  0.00     0.028 A 
HETATM    3  C9  UNL     1      -9.304  42.019  -1.136  1.00  0.00     0.064 C 
HETATM    4  C10 UNL     1     -10.561  42.819  -1.282  1.00  0.00     0.017 A 
HETATM    5  N3  UNL     1     -11.547  42.846  -2.195  1.00  0.00    -0.358 N 
ATOM      6  H3  UNL     1     -11.582  42.249  -3.021  1.00  0.00     0.166 HD
HETATM    7  C11 UNL     1     -12.481  43.757  -1.882  1.00  0.00     0.044 A 
HETATM    8  C12 UNL     1     -13.674  44.178  -2.468  1.00  0.00     0.055 A 
HETATM    9  C13 UNL     1     -14.454  45.166  -1.905  1.00  0.00     0.081 A 
HETATM   10  C18 UNL     1     -13.994  45.717  -0.728  1.00  0.00     0.026 A 
HETATM   11  C19 UNL     1     -12.821  45.319  -0.130  1.00  0.00     0.016 A 
HETATM   12  C20 UNL     1     -12.060  44.344  -0.697  1.00  0.00    -0.001 A 
HETATM   13  C21 UNL     1     -10.861  43.750  -0.333  1.00  0.00    -0.023 A 
HETATM   14  C22 UNL     1      -9.970  43.967   0.810  1.00  0.00     0.048 C 
HETATM   15  C23 UNL     1      -8.514  43.781   0.489  1.00  0.00     0.027 A 
ENDROOT
BRANCH   1  16
HETATM   16  N2  UNL     1      -6.447  42.426   1.164  1.00  0.00    -0.069 N 
ATOM     17  H22 UNL     1      -5.907  43.018   0.533  1.00  0.00     0.277 HD
ATOM     18  H21 UNL     1      -6.100  41.513   0.870  1.00  0.00     0.277 HD
BRANCH  16  19
HETATM   19  C6  UNL     1      -6.102  42.692   2.552  1.00  0.00     0.262 C 
BRANCH  19  20
HETATM   20  C5  UNL     1      -5.528  44.081   2.700  1.00  0.00     0.299 C 
BRANCH  20  21
HETATM   21  N1  UNL     1      -5.391  44.411   4.081  1.00  0.00     0.089 N 
BRANCH  21  22
HETATM   22  C2  UNL     1      -5.928  43.468   5.011  1.00  0.00     0.268 C 
HETATM   23  C1  UNL     1      -4.985  43.451   6.216  1.00  0.00     0.037 C 
ENDBRANCH  21  22
BRANCH  21  24
HETATM   24  C3  UNL     1      -4.033  44.810   4.420  1.00  0.00     0.268 C 
HETATM   25  C4  UNL     1      -3.159  44.902   3.168  1.00  0.00     0.037 C 
ENDBRANCH  21  24
ENDBRANCH  20  21
ENDBRANCH  19  20
ENDBRANCH  16  19
ENDBRANCH   1  16
BRANCH   9  26
HETATM   26  S1  UNL     1     -15.956  45.669  -2.679  1.00  0.00     0.259 S 
HETATM   27  O1  UNL     1     -15.948  44.981  -4.038  1.00  0.00    -0.201 OA
HETATM   28  O2  UNL     1     -17.055  45.110  -1.818  1.00  0.00    -0.201 OA
BRANCH  26  29
HETATM   29  N4  UNL     1     -15.955  47.353  -2.824  1.00  0.00    -0.307 N 
ATOM     30  H4  UNL     1     -15.319  47.928  -2.272  1.00  0.00     0.173 HD
BRANCH  29  31
HETATM   31  C14 UNL     1     -16.863  47.942  -3.737  1.00  0.00     0.029 C 
HETATM   32  C15 UNL     1     -16.481  47.912  -5.178  1.00  0.00     0.038 C 
HETATM   33  C16 UNL     1     -16.972  49.430  -3.362  1.00  0.00     0.038 C 
HETATM   34  C17 UNL     1     -18.295  47.406  -3.596  1.00  0.00     0.038 C 
ENDBRANCH  29  31
ENDBRANCH  26  29
ENDBRANCH   9  26
TORSDOF 9
ENDMDL
