MODEL 1
REMARK VINA RESULT: -6.600648667      0.000      0.000
REMARK  7 active torsions:
REMARK  status: ('A' for Active; 'I' for Inactive)
REMARK    1  A    between atoms: C2_2  and  C3_3 
REMARK    2  A    between atoms: C3_3  and  C4_4 
REMARK    3  A    between atoms: C4_4  and  C5_5 
REMARK    4  A    between atoms: C5_5  and  C6_6 
REMARK    5  A    between atoms: C7_7  and  C8_8 
REMARK    6  A    between atoms: C8_8  and  O1_9 
REMARK    7  A    between atoms: C16_19  and  O3_20 
ROOT
HETATM    1  C5  UNL     1     -33.812  28.767  -0.843  1.00  0.00     0.233 C 
HETATM    2  O2  UNL     1     -35.103  28.306  -0.852  1.00  0.00    -0.337 OA
HETATM    3  C14 UNL     1     -35.084  27.249  -1.735  1.00  0.00     0.157 C 
HETATM    4  C15 UNL     1     -36.265  27.260  -2.681  1.00  0.00     0.066 C 
HETATM    5  C16 UNL     1     -35.768  27.817  -3.986  1.00  0.00     0.123 C 
HETATM    6  C17 UNL     1     -34.262  27.609  -3.989  1.00  0.00     0.066 C 
HETATM    7  C18 UNL     1     -33.851  27.459  -2.558  1.00  0.00     0.157 C 
HETATM    8  O4  UNL     1     -33.315  28.697  -2.138  1.00  0.00    -0.337 OA
ENDROOT
BRANCH   1   9
HETATM    9  C4  UNL     1     -32.884  27.947   0.031  1.00  0.00     0.083 C 
BRANCH   9  10
HETATM   10  C3  UNL     1     -31.477  28.463  -0.233  1.00  0.00     0.006 C 
BRANCH  10  11
HETATM   11  C2  UNL     1     -30.609  28.356   1.003  1.00  0.00    -0.004 C 
HETATM   12  C1  UNL     1     -30.616  29.716   1.667  1.00  0.00     0.005 C 
ENDBRANCH  10  11
ENDBRANCH   9  10
ENDBRANCH   1   9
BRANCH   1  13
HETATM   13  C6  UNL     1     -33.710  30.174  -0.429  1.00  0.00    -0.035 C 
HETATM   14  C7  UNL     1     -33.609  31.331  -0.097  1.00  0.00    -0.063 C 
BRANCH  14  15
HETATM   15  C8  UNL     1     -33.461  32.729   0.298  1.00  0.00     0.121 C 
HETATM   16  C9  UNL     1     -33.185  33.535  -0.937  1.00  0.00     0.051 C 
HETATM   17  C10 UNL     1     -32.897  34.962  -0.626  1.00  0.00     0.004 C 
HETATM   18  C11 UNL     1     -32.634  35.305   0.775  1.00  0.00     0.000 C 
HETATM   19  C12 UNL     1     -32.174  34.249   1.694  1.00  0.00     0.004 C 
HETATM   20  C13 UNL     1     -32.238  32.850   1.172  1.00  0.00     0.051 C 
BRANCH  15  21
HETATM   21  O1  UNL     1     -34.577  33.220   0.952  1.00  0.00    -0.378 OA
ATOM     22  H1  UNL     1     -34.997  32.569   1.501  1.00  0.00     0.211 HD
ENDBRANCH  15  21
ENDBRANCH  14  15
ENDBRANCH   1  13
BRANCH   5  23
HETATM   23  O3  UNL     1     -36.269  27.126  -5.089  1.00  0.00    -0.395 OA
ATOM     24  H3  UNL     1     -35.907  27.438  -5.910  1.00  0.00     0.210 HD
ENDBRANCH   5  23
TORSDOF 7
ENDMDL
MODEL 2
REMARK VINA RESULT: -6.414207554      3.183      4.660
REMARK  7 active torsions:
REMARK  status: ('A' for Active; 'I' for Inactive)
REMARK    1  A    between atoms: C2_2  and  C3_3 
REMARK    2  A    between atoms: C3_3  and  C4_4 
REMARK    3  A    between atoms: C4_4  and  C5_5 
REMARK    4  A    between atoms: C5_5  and  C6_6 
REMARK    5  A    between atoms: C7_7  and  C8_8 
REMARK    6  A    between atoms: C8_8  and  O1_9 
REMARK    7  A    between atoms: C16_19  and  O3_20 
ROOT
HETATM    1  C5  UNL     1     -33.047  32.375   1.387  1.00  0.00     0.233 C 
HETATM    2  O2  UNL     1     -34.409  32.527   1.364  1.00  0.00    -0.337 OA
HETATM    3  C14 UNL     1     -34.836  31.656   0.387  1.00  0.00     0.157 C 
HETATM    4  C15 UNL     1     -35.875  32.271  -0.526  1.00  0.00     0.066 C 
HETATM    5  C16 UNL     1     -35.159  32.674  -1.784  1.00  0.00     0.123 C 
HETATM    6  C17 UNL     1     -33.895  31.831  -1.842  1.00  0.00     0.066 C 
HETATM    7  C18 UNL     1     -33.619  31.382  -0.441  1.00  0.00     0.157 C 
HETATM    8  O4  UNL     1     -32.604  32.217   0.080  1.00  0.00    -0.337 OA
ENDROOT
BRANCH   1   9
HETATM    9  C4  UNL     1     -32.588  31.153   2.159  1.00  0.00     0.083 C 
BRANCH   9  10
HETATM   10  C3  UNL     1     -31.111  30.974   1.842  1.00  0.00     0.006 C 
BRANCH  10  11
HETATM   11  C2  UNL     1     -30.739  29.508   1.759  1.00  0.00    -0.004 C 
HETATM   12  C1  UNL     1     -30.911  29.089   0.315  1.00  0.00     0.005 C 
ENDBRANCH  10  11
ENDBRANCH   9  10
ENDBRANCH   1   9
BRANCH   1  13
HETATM   13  C6  UNL     1     -32.348  33.550   1.928  1.00  0.00    -0.035 C 
HETATM   14  C7  UNL     1     -31.792  34.523   2.377  1.00  0.00    -0.063 C 
BRANCH  14  15
HETATM   15  C8  UNL     1     -31.142  35.711   2.923  1.00  0.00     0.121 C 
HETATM   16  C9  UNL     1     -30.989  35.519   4.403  1.00  0.00     0.051 C 
HETATM   17  C10 UNL     1     -30.446  36.732   5.075  1.00  0.00     0.004 C 
HETATM   18  C11 UNL     1     -30.421  37.976   4.300  1.00  0.00     0.000 C 
HETATM   19  C12 UNL     1     -31.340  38.124   3.158  1.00  0.00     0.004 C 
HETATM   20  C13 UNL     1     -32.066  36.888   2.735  1.00  0.00     0.051 C 
BRANCH  15  21
HETATM   21  O1  UNL     1     -29.911  35.962   2.342  1.00  0.00    -0.378 OA
ATOM     22  H1  UNL     1     -29.581  36.830   2.541  1.00  0.00     0.211 HD
ENDBRANCH  15  21
ENDBRANCH  14  15
ENDBRANCH   1  13
BRANCH   5  23
HETATM   23  O3  UNL     1     -35.888  32.379  -2.935  1.00  0.00    -0.395 OA
ATOM     24  H3  UNL     1     -36.645  32.943  -3.043  1.00  0.00     0.210 HD
ENDBRANCH   5  23
TORSDOF 7
ENDMDL
MODEL 3
REMARK VINA RESULT: -6.279753520      1.559      6.676
REMARK  7 active torsions:
REMARK  status: ('A' for Active; 'I' for Inactive)
REMARK    1  A    between atoms: C2_2  and  C3_3 
REMARK    2  A    between atoms: C3_3  and  C4_4 
REMARK    3  A    between atoms: C4_4  and  C5_5 
REMARK    4  A    between atoms: C5_5  and  C6_6 
REMARK    5  A    between atoms: C7_7  and  C8_8 
REMARK    6  A    between atoms: C8_8  and  O1_9 
REMARK    7  A    between atoms: C16_19  and  O3_20 
ROOT
HETATM    1  C5  UNL     1     -34.006  29.561  -0.553  1.00  0.00     0.233 C 
HETATM    2  O2  UNL     1     -33.141  30.513  -1.027  1.00  0.00    -0.337 OA
HETATM    3  C14 UNL     1     -33.062  31.442  -0.014  1.00  0.00     0.157 C 
HETATM    4  C15 UNL     1     -33.140  32.865  -0.521  1.00  0.00     0.066 C 
HETATM    5  C16 UNL     1     -34.547  33.334  -0.277  1.00  0.00     0.123 C 
HETATM    6  C17 UNL     1     -35.104  32.448   0.825  1.00  0.00     0.066 C 
HETATM    7  C18 UNL     1     -34.280  31.199   0.824  1.00  0.00     0.157 C 
HETATM    8  O4  UNL     1     -35.019  30.203   0.148  1.00  0.00    -0.337 OA
ENDROOT
BRANCH   1   9
HETATM    9  C4  UNL     1     -33.358  28.581   0.406  1.00  0.00     0.083 C 
BRANCH   9  10
HETATM   10  C3  UNL     1     -32.281  27.854  -0.385  1.00  0.00     0.006 C 
BRANCH  10  11
HETATM   11  C2  UNL     1     -30.901  28.138   0.172  1.00  0.00    -0.004 C 
HETATM   12  C1  UNL     1     -30.085  26.877  -0.008  1.00  0.00     0.005 C 
ENDBRANCH  10  11
ENDBRANCH   9  10
ENDBRANCH   1   9
BRANCH   1  13
HETATM   13  C6  UNL     1     -34.656  28.794  -1.625  1.00  0.00    -0.035 C 
HETATM   14  C7  UNL     1     -35.189  28.179  -2.517  1.00  0.00    -0.063 C 
BRANCH  14  15
HETATM   15  C8  UNL     1     -35.836  27.457  -3.609  1.00  0.00     0.121 C 
HETATM   16  C9  UNL     1     -36.672  26.363  -3.013  1.00  0.00     0.051 C 
HETATM   17  C10 UNL     1     -37.279  25.488  -4.054  1.00  0.00     0.004 C 
HETATM   18  C11 UNL     1     -36.766  25.614  -5.421  1.00  0.00     0.000 C 
HETATM   19  C12 UNL     1     -35.417  26.169  -5.630  1.00  0.00     0.004 C 
HETATM   20  C13 UNL     1     -34.767  26.781  -4.432  1.00  0.00     0.051 C 
BRANCH  15  21
HETATM   21  O1  UNL     1     -36.615  28.277  -4.405  1.00  0.00    -0.378 OA
ATOM     22  H1  UNL     1     -36.275  28.365  -5.287  1.00  0.00     0.211 HD
ENDBRANCH  15  21
ENDBRANCH  14  15
ENDBRANCH   1  13
BRANCH   5  23
HETATM   23  O3  UNL     1     -34.601  34.644   0.198  1.00  0.00    -0.395 OA
ATOM     24  H3  UNL     1     -34.311  34.718   1.099  1.00  0.00     0.210 HD
ENDBRANCH   5  23
TORSDOF 7
ENDMDL
MODEL 4
REMARK VINA RESULT: -6.190802065      1.672      6.428
REMARK  7 active torsions:
REMARK  status: ('A' for Active; 'I' for Inactive)
REMARK    1  A    between atoms: C2_2  and  C3_3 
REMARK    2  A    between atoms: C3_3  and  C4_4 
REMARK    3  A    between atoms: C4_4  and  C5_5 
REMARK    4  A    between atoms: C5_5  and  C6_6 
REMARK    5  A    between atoms: C7_7  and  C8_8 
REMARK    6  A    between atoms: C8_8  and  O1_9 
REMARK    7  A    between atoms: C16_19  and  O3_20 
ROOT
HETATM    1  C5  UNL     1     -33.670  30.371   0.054  1.00  0.00     0.233 C 
HETATM    2  O2  UNL     1     -32.887  31.265  -0.631  1.00  0.00    -0.337 OA
HETATM    3  C14 UNL     1     -32.987  32.433   0.091  1.00  0.00     0.157 C 
HETATM    4  C15 UNL     1     -33.190  33.646  -0.791  1.00  0.00     0.066 C 
HETATM    5  C16 UNL     1     -34.655  33.978  -0.738  1.00  0.00     0.123 C 
HETATM    6  C17 UNL     1     -35.184  33.355   0.544  1.00  0.00     0.066 C 
HETATM    7  C18 UNL     1     -34.225  32.269   0.917  1.00  0.00     0.157 C 
HETATM    8  O4  UNL     1     -34.796  31.041   0.513  1.00  0.00    -0.337 OA
ENDROOT
BRANCH   1   9
HETATM    9  C4  UNL     1     -32.985  29.776   1.269  1.00  0.00     0.083 C 
BRANCH   9  10
HETATM   10  C3  UNL     1     -31.757  29.040   0.753  1.00  0.00     0.006 C 
BRANCH  10  11
HETATM   11  C2  UNL     1     -30.568  29.241   1.669  1.00  0.00    -0.004 C 
HETATM   12  C1  UNL     1     -30.255  30.721   1.669  1.00  0.00     0.005 C 
ENDBRANCH  10  11
ENDBRANCH   9  10
ENDBRANCH   1   9
BRANCH   1  13
HETATM   13  C6  UNL     1     -34.151  29.268  -0.789  1.00  0.00    -0.035 C 
HETATM   14  C7  UNL     1     -34.552  28.374  -1.495  1.00  0.00    -0.063 C 
BRANCH  14  15
HETATM   15  C8  UNL     1     -35.049  27.311  -2.364  1.00  0.00     0.121 C 
HETATM   16  C9  UNL     1     -34.516  27.552  -3.746  1.00  0.00     0.051 C 
HETATM   17  C10 UNL     1     -35.066  26.588  -4.738  1.00  0.00     0.004 C 
HETATM   18  C11 UNL     1     -36.215  25.778  -4.323  1.00  0.00     0.000 C 
HETATM   19  C12 UNL     1     -37.067  26.259  -3.222  1.00  0.00     0.004 C 
HETATM   20  C13 UNL     1     -36.549  27.432  -2.456  1.00  0.00     0.051 C 
BRANCH  15  21
HETATM   21  O1  UNL     1     -34.689  26.049  -1.926  1.00  0.00    -0.378 OA
ATOM     22  H1  UNL     1     -35.017  25.357  -2.487  1.00  0.00     0.211 HD
ENDBRANCH  15  21
ENDBRANCH  14  15
ENDBRANCH   1  13
BRANCH   5  23
HETATM   23  O3  UNL     1     -34.891  35.349  -0.643  1.00  0.00    -0.395 OA
ATOM     24  H3  UNL     1     -35.684  35.615  -1.092  1.00  0.00     0.210 HD
ENDBRANCH   5  23
TORSDOF 7
ENDMDL
MODEL 5
REMARK VINA RESULT: -6.137460674      0.989      1.291
REMARK  7 active torsions:
REMARK  status: ('A' for Active; 'I' for Inactive)
REMARK    1  A    between atoms: C2_2  and  C3_3 
REMARK    2  A    between atoms: C3_3  and  C4_4 
REMARK    3  A    between atoms: C4_4  and  C5_5 
REMARK    4  A    between atoms: C5_5  and  C6_6 
REMARK    5  A    between atoms: C7_7  and  C8_8 
REMARK    6  A    between atoms: C8_8  and  O1_9 
REMARK    7  A    between atoms: C16_19  and  O3_20 
ROOT
HETATM    1  C5  UNL     1     -33.926  28.881  -0.909  1.00  0.00     0.233 C 
HETATM    2  O2  UNL     1     -35.137  28.236  -0.905  1.00  0.00    -0.337 OA
HETATM    3  C14 UNL     1     -34.926  27.106  -1.662  1.00  0.00     0.157 C 
HETATM    4  C15 UNL     1     -36.051  26.841  -2.639  1.00  0.00     0.066 C 
HETATM    5  C16 UNL     1     -35.578  27.322  -3.982  1.00  0.00     0.123 C 
HETATM    6  C17 UNL     1     -34.060  27.339  -3.916  1.00  0.00     0.066 C 
HETATM    7  C18 UNL     1     -33.698  27.405  -2.466  1.00  0.00     0.157 C 
HETATM    8  O4  UNL     1     -33.365  28.747  -2.172  1.00  0.00    -0.337 OA
ENDROOT
BRANCH   1   9
HETATM    9  C4  UNL     1     -32.933  28.304   0.080  1.00  0.00     0.083 C 
BRANCH   9  10
HETATM   10  C3  UNL     1     -31.669  29.142  -0.043  1.00  0.00     0.006 C 
BRANCH  10  11
HETATM   11  C2  UNL     1     -30.924  29.214   1.274  1.00  0.00    -0.004 C 
HETATM   12  C1  UNL     1     -30.923  30.665   1.702  1.00  0.00     0.005 C 
ENDBRANCH  10  11
ENDBRANCH   9  10
ENDBRANCH   1   9
BRANCH   1  13
HETATM   13  C6  UNL     1     -34.046  30.324  -0.653  1.00  0.00    -0.035 C 
HETATM   14  C7  UNL     1     -34.146  31.512  -0.462  1.00  0.00    -0.063 C 
BRANCH  14  15
HETATM   15  C8  UNL     1     -34.265  32.953  -0.256  1.00  0.00     0.121 C 
HETATM   16  C9  UNL     1     -35.507  33.421  -0.956  1.00  0.00     0.051 C 
HETATM   17  C10 UNL     1     -35.655  34.902  -0.909  1.00  0.00     0.004 C 
HETATM   18  C11 UNL     1     -34.489  35.681  -0.483  1.00  0.00     0.000 C 
HETATM   19  C12 UNL     1     -33.148  35.085  -0.606  1.00  0.00     0.004 C 
HETATM   20  C13 UNL     1     -33.105  33.629  -0.942  1.00  0.00     0.051 C 
BRANCH  15  21
HETATM   21  O1  UNL     1     -34.309  33.300   1.082  1.00  0.00    -0.378 OA
ATOM     22  H1  UNL     1     -34.259  34.238   1.220  1.00  0.00     0.211 HD
ENDBRANCH  15  21
ENDBRANCH  14  15
ENDBRANCH   1  13
BRANCH   5  23
HETATM   23  O3  UNL     1     -35.923  26.451  -5.015  1.00  0.00    -0.395 OA
ATOM     24  H3  UNL     1     -36.363  26.891  -5.733  1.00  0.00     0.210 HD
ENDBRANCH   5  23
TORSDOF 7
ENDMDL
