MODEL 1
REMARK VINA RESULT: -6.548155847      0.000      0.000
REMARK  4 active torsions:
REMARK  status: ('A' for Active; 'I' for Inactive)
REMARK    1  A    between atoms: O1_1  and  C1_3 
REMARK    2  A    between atoms: C1_3  and  C2_4 
REMARK    3  A    between atoms: C4_7  and  N1_8 
REMARK    4  A    between atoms: N1_8  and  C5_10 
ROOT
HETATM    1  C2  UNL     1     -32.058  29.350   0.623  1.00  0.00     0.054 A 
HETATM    2  C3  UNL     1     -30.819  28.799   0.409  1.00  0.00     0.081 A 
HETATM    3  S1  UNL     1     -31.202  27.406  -0.494  1.00  0.00    -0.064 SA
HETATM    4  C4  UNL     1     -32.893  27.591  -0.556  1.00  0.00     0.145 A 
HETATM    5  N2  UNL     1     -33.080  28.737   0.136  1.00  0.00    -0.337 N 
ATOM      6  H2  UNL     1     -34.019  29.112   0.269  1.00  0.00     0.168 HD
ENDROOT
BRANCH   1   7
HETATM    7  C1  UNL     1     -32.142  30.638   1.441  1.00  0.00     0.130 C 
HETATM    8  C11 UNL     1     -33.606  30.828   1.872  1.00  0.00     0.317 C 
HETATM    9  N3  UNL     1     -33.823  32.234   2.078  1.00  0.00     0.091 N 
HETATM   10  C12 UNL     1     -32.666  32.933   2.623  1.00  0.00     0.273 C 
HETATM   11  C16 UNL     1     -34.092  32.878   0.793  1.00  0.00     0.273 C 
HETATM   12  C13 UNL     1     -31.551  32.980   1.617  1.00  0.00     0.038 C 
HETATM   13  C14 UNL     1     -31.820  31.850   0.605  1.00  0.00     0.031 C 
HETATM   14  C15 UNL     1     -33.066  32.304  -0.163  1.00  0.00     0.038 C 
BRANCH   7  15
HETATM   15  O1  UNL     1     -31.322  30.556   2.543  1.00  0.00    -0.381 OA
ATOM     16  H1  UNL     1     -30.631  31.207   2.486  1.00  0.00     0.211 HD
ENDBRANCH   7  15
ENDBRANCH   1   7
BRANCH   4  17
HETATM   17  N1  UNL     1     -33.835  26.870  -1.044  1.00  0.00    -0.366 N 
ATOM     18  H1  UNL     1     -34.416  26.411  -0.342  1.00  0.00     0.162 HD
BRANCH  17  19
HETATM   19  C5  UNL     1     -34.212  26.595  -2.371  1.00  0.00     0.083 C 
HETATM   20  C6  UNL     1     -35.656  26.117  -2.298  1.00  0.00     0.025 C 
HETATM   21  C7  UNL     1     -36.342  26.107  -3.613  1.00  0.00     0.002 C 
HETATM   22  C8  UNL     1     -35.372  26.201  -4.760  1.00  0.00     0.000 C 
HETATM   23  C9  UNL     1     -34.667  27.542  -4.644  1.00  0.00     0.002 C 
HETATM   24  C10 UNL     1     -34.035  27.757  -3.280  1.00  0.00     0.025 C 
ENDBRANCH  17  19
ENDBRANCH   4  17
TORSDOF 4
ENDMDL
MODEL 2
REMARK VINA RESULT: -6.539166833      2.097      6.851
REMARK  4 active torsions:
REMARK  status: ('A' for Active; 'I' for Inactive)
REMARK    1  A    between atoms: O1_1  and  C1_3 
REMARK    2  A    between atoms: C1_3  and  C2_4 
REMARK    3  A    between atoms: C4_7  and  N1_8 
REMARK    4  A    between atoms: N1_8  and  C5_10 
ROOT
HETATM    1  C2  UNL     1     -33.720  28.154  -1.466  1.00  0.00     0.054 A 
HETATM    2  C3  UNL     1     -32.506  27.527  -1.327  1.00  0.00     0.081 A 
HETATM    3  S1  UNL     1     -31.985  28.098   0.191  1.00  0.00    -0.064 SA
HETATM    4  C4  UNL     1     -33.317  29.088   0.569  1.00  0.00     0.145 A 
HETATM    5  N2  UNL     1     -34.110  28.927  -0.514  1.00  0.00    -0.337 N 
ATOM      6  H2  UNL     1     -35.005  29.410  -0.575  1.00  0.00     0.168 HD
ENDROOT
BRANCH   1   7
HETATM    7  C1  UNL     1     -34.514  27.909  -2.749  1.00  0.00     0.130 C 
HETATM    8  C11 UNL     1     -35.923  28.490  -2.549  1.00  0.00     0.317 C 
HETATM    9  N3  UNL     1     -36.820  27.773  -3.414  1.00  0.00     0.091 N 
HETATM   10  C12 UNL     1     -36.221  27.380  -4.684  1.00  0.00     0.273 C 
HETATM   11  C16 UNL     1     -37.219  26.521  -2.773  1.00  0.00     0.273 C 
HETATM   12  C13 UNL     1     -35.163  26.335  -4.472  1.00  0.00     0.038 C 
HETATM   13  C14 UNL     1     -34.729  26.438  -2.997  1.00  0.00     0.031 C 
HETATM   14  C15 UNL     1     -35.940  25.943  -2.200  1.00  0.00     0.038 C 
BRANCH   7  15
HETATM   15  O1  UNL     1     -33.891  28.512  -3.817  1.00  0.00    -0.381 OA
ATOM     16  H1  UNL     1     -34.499  28.609  -4.540  1.00  0.00     0.211 HD
ENDBRANCH   7  15
ENDBRANCH   1   7
BRANCH   4  17
HETATM   17  N1  UNL     1     -33.576  29.867   1.555  1.00  0.00    -0.366 N 
ATOM     18  H1  UNL     1     -34.159  29.445   2.278  1.00  0.00     0.162 HD
BRANCH  17  19
HETATM   19  C5  UNL     1     -33.202  31.197   1.822  1.00  0.00     0.083 C 
HETATM   20  C6  UNL     1     -31.693  31.167   2.029  1.00  0.00     0.025 C 
HETATM   21  C7  UNL     1     -31.064  32.509   1.979  1.00  0.00     0.002 C 
HETATM   22  C8  UNL     1     -32.074  33.615   2.117  1.00  0.00     0.000 C 
HETATM   23  C9  UNL     1     -33.007  33.525   0.921  1.00  0.00     0.002 C 
HETATM   24  C10 UNL     1     -33.619  32.144   0.756  1.00  0.00     0.025 C 
ENDBRANCH  17  19
ENDBRANCH   4  17
TORSDOF 4
ENDMDL
MODEL 3
REMARK VINA RESULT: -6.522912485      2.462      6.996
REMARK  4 active torsions:
REMARK  status: ('A' for Active; 'I' for Inactive)
REMARK    1  A    between atoms: O1_1  and  C1_3 
REMARK    2  A    between atoms: C1_3  and  C2_4 
REMARK    3  A    between atoms: C4_7  and  N1_8 
REMARK    4  A    between atoms: N1_8  and  C5_10 
ROOT
HETATM    1  C2  UNL     1     -34.721  27.826  -1.747  1.00  0.00     0.054 A 
HETATM    2  C3  UNL     1     -33.558  27.166  -2.060  1.00  0.00     0.081 A 
HETATM    3  S1  UNL     1     -32.595  27.477  -0.689  1.00  0.00    -0.064 SA
HETATM    4  C4  UNL     1     -33.703  28.414   0.201  1.00  0.00     0.145 A 
HETATM    5  N2  UNL     1     -34.778  28.441  -0.618  1.00  0.00    -0.337 N 
ATOM      6  H2  UNL     1     -35.623  28.941  -0.345  1.00  0.00     0.168 HD
ENDROOT
BRANCH   1   7
HETATM    7  C1  UNL     1     -35.858  27.802  -2.767  1.00  0.00     0.130 C 
HETATM    8  C11 UNL     1     -37.176  28.037  -2.010  1.00  0.00     0.317 C 
HETATM    9  N3  UNL     1     -38.234  27.434  -2.774  1.00  0.00     0.091 N 
HETATM   10  C12 UNL     1     -38.041  27.523  -4.216  1.00  0.00     0.273 C 
HETATM   11  C16 UNL     1     -38.292  26.003  -2.481  1.00  0.00     0.273 C 
HETATM   12  C13 UNL     1     -36.881  26.672  -4.650  1.00  0.00     0.038 C 
HETATM   13  C14 UNL     1     -36.008  26.443  -3.401  1.00  0.00     0.031 C 
HETATM   14  C15 UNL     1     -36.852  25.534  -2.500  1.00  0.00     0.038 C 
BRANCH   7  15
HETATM   15  O1  UNL     1     -35.666  28.779  -3.717  1.00  0.00    -0.381 OA
ATOM     16  H1  UNL     1     -36.479  29.244  -3.878  1.00  0.00     0.211 HD
ENDBRANCH   7  15
ENDBRANCH   1   7
BRANCH   4  17
HETATM   17  N1  UNL     1     -33.625  29.028   1.325  1.00  0.00    -0.366 N 
ATOM     18  H1  UNL     1     -34.123  28.568   2.088  1.00  0.00     0.162 HD
BRANCH  17  19
HETATM   19  C5  UNL     1     -32.978  30.220   1.698  1.00  0.00     0.083 C 
HETATM   20  C6  UNL     1     -31.494  29.883   1.756  1.00  0.00     0.025 C 
HETATM   21  C7  UNL     1     -30.618  31.079   1.792  1.00  0.00     0.002 C 
HETATM   22  C8  UNL     1     -31.378  32.329   2.146  1.00  0.00     0.000 C 
HETATM   23  C9  UNL     1     -32.394  32.565   1.041  1.00  0.00     0.002 C 
HETATM   24  C10 UNL     1     -33.277  31.355   0.786  1.00  0.00     0.025 C 
ENDBRANCH  17  19
ENDBRANCH   4  17
TORSDOF 4
ENDMDL
MODEL 4
REMARK VINA RESULT: -6.520322869      2.306      7.091
REMARK  4 active torsions:
REMARK  status: ('A' for Active; 'I' for Inactive)
REMARK    1  A    between atoms: O1_1  and  C1_3 
REMARK    2  A    between atoms: C1_3  and  C2_4 
REMARK    3  A    between atoms: C4_7  and  N1_8 
REMARK    4  A    between atoms: N1_8  and  C5_10 
ROOT
HETATM    1  C2  UNL     1     -32.538  29.588   1.003  1.00  0.00     0.054 A 
HETATM    2  C3  UNL     1     -31.239  29.159   0.885  1.00  0.00     0.081 A 
HETATM    3  S1  UNL     1     -30.391  30.361   1.746  1.00  0.00    -0.064 SA
HETATM    4  C4  UNL     1     -31.711  31.332   2.208  1.00  0.00     0.145 A 
HETATM    5  N2  UNL     1     -32.757  30.670   1.665  1.00  0.00    -0.337 N 
ATOM      6  H2  UNL     1     -33.706  31.022   1.778  1.00  0.00     0.168 HD
ENDROOT
BRANCH   1   7
HETATM    7  C1  UNL     1     -33.632  28.764   0.324  1.00  0.00     0.130 C 
HETATM    8  C11 UNL     1     -32.948  27.666  -0.506  1.00  0.00     0.317 C 
HETATM    9  N3  UNL     1     -33.838  27.304  -1.575  1.00  0.00     0.091 N 
HETATM   10  C12 UNL     1     -35.248  27.354  -1.206  1.00  0.00     0.273 C 
HETATM   11  C16 UNL     1     -33.694  28.258  -2.673  1.00  0.00     0.273 C 
HETATM   12  C13 UNL     1     -35.683  28.772  -0.964  1.00  0.00     0.038 C 
HETATM   13  C14 UNL     1     -34.407  29.584  -0.675  1.00  0.00     0.031 C 
HETATM   14  C15 UNL     1     -33.660  29.622  -2.014  1.00  0.00     0.038 C 
BRANCH   7  15
HETATM   15  O1  UNL     1     -34.464  28.208   1.268  1.00  0.00    -0.381 OA
ATOM     16  H1  UNL     1     -35.204  28.780   1.431  1.00  0.00     0.211 HD
ENDBRANCH   7  15
ENDBRANCH   1   7
BRANCH   4  17
HETATM   17  N1  UNL     1     -31.800  32.443   2.844  1.00  0.00    -0.366 N 
ATOM     18  H1  UNL     1     -32.304  32.377   3.729  1.00  0.00     0.162 HD
BRANCH  17  19
HETATM   19  C5  UNL     1     -31.328  33.734   2.545  1.00  0.00     0.083 C 
HETATM   20  C6  UNL     1     -32.273  34.282   1.484  1.00  0.00     0.025 C 
HETATM   21  C7  UNL     1     -32.154  35.747   1.288  1.00  0.00     0.002 C 
HETATM   22  C8  UNL     1     -30.890  36.299   1.888  1.00  0.00     0.000 C 
HETATM   23  C9  UNL     1     -30.962  36.063   3.387  1.00  0.00     0.002 C 
HETATM   24  C10 UNL     1     -31.233  34.610   3.740  1.00  0.00     0.025 C 
ENDBRANCH  17  19
ENDBRANCH   4  17
TORSDOF 4
ENDMDL
MODEL 5
REMARK VINA RESULT: -6.498425393      2.148      6.733
REMARK  4 active torsions:
REMARK  status: ('A' for Active; 'I' for Inactive)
REMARK    1  A    between atoms: O1_1  and  C1_3 
REMARK    2  A    between atoms: C1_3  and  C2_4 
REMARK    3  A    between atoms: C4_7  and  N1_8 
REMARK    4  A    between atoms: N1_8  and  C5_10 
ROOT
HETATM    1  C2  UNL     1     -33.741  27.720  -0.988  1.00  0.00     0.054 A 
HETATM    2  C3  UNL     1     -32.403  27.419  -1.061  1.00  0.00     0.081 A 
HETATM    3  S1  UNL     1     -31.754  28.397   0.174  1.00  0.00    -0.064 SA
HETATM    4  C4  UNL     1     -33.194  29.126   0.715  1.00  0.00     0.145 A 
HETATM    5  N2  UNL     1     -34.119  28.570  -0.099  1.00  0.00    -0.337 N 
ATOM      6  H2  UNL     1     -35.103  28.820  -0.009  1.00  0.00     0.168 HD
ENDROOT
BRANCH   1   7
HETATM    7  C1  UNL     1     -34.686  27.042  -1.980  1.00  0.00     0.130 C 
HETATM    8  C11 UNL     1     -34.205  27.384  -3.399  1.00  0.00     0.317 C 
HETATM    9  N3  UNL     1     -35.339  27.305  -4.279  1.00  0.00     0.091 N 
HETATM   10  C12 UNL     1     -36.288  26.259  -3.919  1.00  0.00     0.273 C 
HETATM   11  C16 UNL     1     -36.097  28.553  -4.209  1.00  0.00     0.273 C 
HETATM   12  C13 UNL     1     -36.977  26.588  -2.625  1.00  0.00     0.038 C 
HETATM   13  C14 UNL     1     -36.081  27.606  -1.894  1.00  0.00     0.031 C 
HETATM   14  C15 UNL     1     -36.183  28.885  -2.733  1.00  0.00     0.038 C 
BRANCH   7  15
HETATM   15  O1  UNL     1     -34.684  25.680  -1.784  1.00  0.00    -0.381 OA
ATOM     16  H1  UNL     1     -35.357  25.271  -2.316  1.00  0.00     0.211 HD
ENDBRANCH   7  15
ENDBRANCH   1   7
BRANCH   4  17
HETATM   17  N1  UNL     1     -33.443  30.018   1.603  1.00  0.00    -0.366 N 
ATOM     18  H1  UNL     1     -33.878  29.653   2.451  1.00  0.00     0.162 HD
BRANCH  17  19
HETATM   19  C5  UNL     1     -33.226  31.408   1.620  1.00  0.00     0.083 C 
HETATM   20  C6  UNL     1     -31.879  31.606   2.303  1.00  0.00     0.025 C 
HETATM   21  C7  UNL     1     -31.314  32.964   2.112  1.00  0.00     0.002 C 
HETATM   22  C8  UNL     1     -32.347  33.944   1.624  1.00  0.00     0.000 C 
HETATM   23  C9  UNL     1     -32.811  33.467   0.258  1.00  0.00     0.002 C 
HETATM   24  C10 UNL     1     -33.284  32.024   0.270  1.00  0.00     0.025 C 
ENDBRANCH  17  19
ENDBRANCH   4  17
TORSDOF 4
ENDMDL
