MODEL 1
REMARK VINA RESULT: -7.480400066      0.000      0.000
REMARK  3 active torsions:
REMARK  status: ('A' for Active; 'I' for Inactive)
REMARK    1  A    between atoms: C2_2  and  O1_4 
REMARK    2  A    between atoms: O1_4  and  C4_5 
REMARK    3  A    between atoms: C18_22  and  N2_24 
ROOT
HETATM    1  C4  UNL     1     -33.166  27.858  -0.844  1.00  0.00     0.153 C 
HETATM    2  C5  UNL     1     -31.693  27.772  -0.907  1.00  0.00     0.034 C 
HETATM    3  C6  UNL     1     -31.158  28.157   0.477  1.00  0.00     0.009 C 
HETATM    4  C7  UNL     1     -32.272  29.007   1.029  1.00  0.00     0.021 C 
HETATM    5  C8  UNL     1     -32.183  30.373   0.374  1.00  0.00     0.049 C 
HETATM    6  C9  UNL     1     -33.615  30.784   0.293  1.00  0.00     0.167 C 
HETATM    7  N1  UNL     1     -34.429  29.593   0.340  1.00  0.00    -0.056 N 
ATOM      8  H11 UNL     1     -35.051  29.508  -0.464  1.00  0.00     0.278 HD
ATOM      9  H12 UNL     1     -35.146  29.634   1.064  1.00  0.00     0.278 HD
HETATM   10  C10 UNL     1     -33.553  28.465   0.489  1.00  0.00     0.219 C 
HETATM   11  C11 UNL     1     -33.959  31.808   1.353  1.00  0.00     0.057 C 
HETATM   12  C12 UNL     1     -32.959  31.990   2.404  1.00  0.00    -0.023 C 
HETATM   13  C13 UNL     1     -32.253  33.091   2.540  1.00  0.00    -0.030 C 
HETATM   14  C14 UNL     1     -32.415  34.240   1.636  1.00  0.00     0.027 C 
HETATM   15  C15 UNL     1     -32.872  33.807   0.256  1.00  0.00     0.016 C 
HETATM   16  C16 UNL     1     -34.018  32.856   0.304  1.00  0.00     0.001 C 
HETATM   17  C17 UNL     1     -35.328  33.619   0.343  1.00  0.00     0.018 C 
HETATM   18  C18 UNL     1     -33.968  31.779  -0.760  1.00  0.00     0.161 C 
HETATM   19  C19 UNL     1     -35.339  31.616  -1.391  1.00  0.00     0.049 C 
ENDROOT
BRANCH  18  20
HETATM   20  N2  UNL     1     -32.904  31.984  -1.706  1.00  0.00    -0.068 N 
ATOM     21  H23 UNL     1     -32.238  31.213  -1.681  1.00  0.00     0.275 HD
ATOM     22  H22 UNL     1     -33.240  31.879  -2.664  1.00  0.00     0.275 HD
ATOM     23  H21 UNL     1     -32.433  32.880  -1.579  1.00  0.00     0.275 HD
ENDBRANCH  18  20
BRANCH   1  24
HETATM   24  O1  UNL     1     -33.870  26.713  -1.015  1.00  0.00    -0.379 OA
BRANCH  24  25
HETATM   25  C2  UNL     1     -34.335  26.450  -2.279  1.00  0.00     0.114 C 
HETATM   26  C1  UNL     1     -34.464  27.791  -2.992  1.00  0.00     0.039 C 
HETATM   27  C3  UNL     1     -35.746  25.904  -2.146  1.00  0.00     0.039 C 
ENDBRANCH  24  25
ENDBRANCH   1  24
TORSDOF 3
ENDMDL
MODEL 2
REMARK VINA RESULT: -7.118915957      1.555      3.472
REMARK  3 active torsions:
REMARK  status: ('A' for Active; 'I' for Inactive)
REMARK    1  A    between atoms: C2_2  and  O1_4 
REMARK    2  A    between atoms: O1_4  and  C4_5 
REMARK    3  A    between atoms: C18_22  and  N2_24 
ROOT
HETATM    1  C4  UNL     1     -35.508  28.776  -1.948  1.00  0.00     0.153 C 
HETATM    2  C5  UNL     1     -36.800  29.187  -1.364  1.00  0.00     0.034 C 
HETATM    3  C6  UNL     1     -36.803  30.719  -1.305  1.00  0.00     0.009 C 
HETATM    4  C7  UNL     1     -35.333  31.043  -1.274  1.00  0.00     0.021 C 
HETATM    5  C8  UNL     1     -34.826  30.773   0.130  1.00  0.00     0.049 C 
HETATM    6  C9  UNL     1     -33.428  30.315  -0.116  1.00  0.00     0.167 C 
HETATM    7  N1  UNL     1     -33.345  29.826  -1.471  1.00  0.00    -0.056 N 
ATOM      8  H11 UNL     1     -33.012  28.863  -1.524  1.00  0.00     0.278 HD
ATOM      9  H12 UNL     1     -32.592  30.260  -2.003  1.00  0.00     0.278 HD
HETATM   10  C10 UNL     1     -34.631  30.003  -2.083  1.00  0.00     0.219 C 
HETATM   11  C11 UNL     1     -32.423  31.399   0.210  1.00  0.00     0.057 C 
HETATM   12  C12 UNL     1     -32.979  32.735   0.417  1.00  0.00    -0.023 C 
HETATM   13  C13 UNL     1     -32.984  33.337   1.586  1.00  0.00    -0.030 C 
HETATM   14  C14 UNL     1     -32.423  32.707   2.792  1.00  0.00     0.027 C 
HETATM   15  C15 UNL     1     -32.510  31.195   2.726  1.00  0.00     0.016 C 
HETATM   16  C16 UNL     1     -32.026  30.649   1.427  1.00  0.00     0.001 C 
HETATM   17  C17 UNL     1     -30.528  30.418   1.484  1.00  0.00     0.018 C 
HETATM   18  C18 UNL     1     -32.812  29.452   0.933  1.00  0.00     0.161 C 
HETATM   19  C19 UNL     1     -31.857  28.382   0.432  1.00  0.00     0.049 C 
ENDROOT
BRANCH  18  20
HETATM   20  N2  UNL     1     -33.770  28.982   1.896  1.00  0.00    -0.068 N 
ATOM     21  H23 UNL     1     -34.583  28.574   1.435  1.00  0.00     0.275 HD
ATOM     22  H22 UNL     1     -33.426  28.155   2.383  1.00  0.00     0.275 HD
ATOM     23  H21 UNL     1     -34.050  29.707   2.557  1.00  0.00     0.275 HD
ENDBRANCH  18  20
BRANCH   1  24
HETATM   24  O1  UNL     1     -35.534  28.133  -3.140  1.00  0.00    -0.379 OA
BRANCH  24  25
HETATM   25  C2  UNL     1     -34.550  27.205  -3.370  1.00  0.00     0.114 C 
HETATM   26  C1  UNL     1     -34.904  26.495  -4.672  1.00  0.00     0.039 C 
HETATM   27  C3  UNL     1     -34.643  26.154  -2.277  1.00  0.00     0.039 C 
ENDBRANCH  24  25
ENDBRANCH   1  24
TORSDOF 3
ENDMDL
MODEL 3
REMARK VINA RESULT: -7.108622135      0.769      1.041
REMARK  3 active torsions:
REMARK  status: ('A' for Active; 'I' for Inactive)
REMARK    1  A    between atoms: C2_2  and  O1_4 
REMARK    2  A    between atoms: O1_4  and  C4_5 
REMARK    3  A    between atoms: C18_22  and  N2_24 
ROOT
HETATM    1  C4  UNL     1     -33.926  27.731  -1.312  1.00  0.00     0.153 C 
HETATM    2  C5  UNL     1     -32.471  27.504  -1.426  1.00  0.00     0.034 C 
HETATM    3  C6  UNL     1     -31.863  27.767  -0.044  1.00  0.00     0.009 C 
HETATM    4  C7  UNL     1     -32.871  28.693   0.582  1.00  0.00     0.021 C 
HETATM    5  C8  UNL     1     -32.666  30.074  -0.012  1.00  0.00     0.049 C 
HETATM    6  C9  UNL     1     -34.051  30.627  -0.028  1.00  0.00     0.167 C 
HETATM    7  N1  UNL     1     -34.977  29.521  -0.009  1.00  0.00    -0.056 N 
ATOM      8  H11 UNL     1     -35.626  29.536  -0.796  1.00  0.00     0.278 HD
ATOM      9  H12 UNL     1     -35.667  29.596   0.738  1.00  0.00     0.278 HD
HETATM   10  C10 UNL     1     -34.215  28.307   0.059  1.00  0.00     0.219 C 
HETATM   11  C11 UNL     1     -34.263  31.627   1.089  1.00  0.00     0.057 C 
HETATM   12  C12 UNL     1     -33.222  31.658   2.115  1.00  0.00    -0.023 C 
HETATM   13  C13 UNL     1     -32.407  32.677   2.279  1.00  0.00    -0.030 C 
HETATM   14  C14 UNL     1     -32.477  33.879   1.434  1.00  0.00     0.027 C 
HETATM   15  C15 UNL     1     -33.013  33.561   0.051  1.00  0.00     0.016 C 
HETATM   16  C16 UNL     1     -34.246  32.726   0.092  1.00  0.00     0.001 C 
HETATM   17  C17 UNL     1     -35.472  33.611   0.207  1.00  0.00     0.018 C 
HETATM   18  C18 UNL     1     -34.331  31.703  -1.022  1.00  0.00     0.161 C 
HETATM   19  C19 UNL     1     -35.729  31.705  -1.616  1.00  0.00     0.049 C 
ENDROOT
BRANCH  18  20
HETATM   20  N2  UNL     1     -33.279  31.848  -1.991  1.00  0.00    -0.068 N 
ATOM     21  H23 UNL     1     -33.119  32.830  -2.213  1.00  0.00     0.275 HD
ATOM     22  H22 UNL     1     -32.372  31.622  -1.583  1.00  0.00     0.275 HD
ATOM     23  H21 UNL     1     -33.446  31.304  -2.837  1.00  0.00     0.275 HD
ENDBRANCH  18  20
BRANCH   1  24
HETATM   24  O1  UNL     1     -34.745  26.670  -1.513  1.00  0.00    -0.379 OA
BRANCH  24  25
HETATM   25  C2  UNL     1     -35.675  26.781  -2.516  1.00  0.00     0.114 C 
HETATM   26  C1  UNL     1     -36.624  25.596  -2.373  1.00  0.00     0.039 C 
HETATM   27  C3  UNL     1     -34.952  26.587  -3.837  1.00  0.00     0.039 C 
ENDBRANCH  24  25
ENDBRANCH   1  24
TORSDOF 3
ENDMDL
MODEL 4
REMARK VINA RESULT: -6.886209439      1.703      2.669
REMARK  3 active torsions:
REMARK  status: ('A' for Active; 'I' for Inactive)
REMARK    1  A    between atoms: C2_2  and  O1_4 
REMARK    2  A    between atoms: O1_4  and  C4_5 
REMARK    3  A    between atoms: C18_22  and  N2_24 
ROOT
HETATM    1  C4  UNL     1     -35.553  28.623  -1.873  1.00  0.00     0.153 C 
HETATM    2  C5  UNL     1     -34.587  28.315  -2.947  1.00  0.00     0.034 C 
HETATM    3  C6  UNL     1     -33.436  27.530  -2.309  1.00  0.00     0.009 C 
HETATM    4  C7  UNL     1     -33.507  27.965  -0.869  1.00  0.00     0.021 C 
HETATM    5  C8  UNL     1     -32.902  29.353  -0.773  1.00  0.00     0.049 C 
HETATM    6  C9  UNL     1     -33.705  29.979   0.318  1.00  0.00     0.167 C 
HETATM    7  N1  UNL     1     -34.960  29.274   0.414  1.00  0.00    -0.056 N 
ATOM      8  H11 UNL     1     -35.768  29.888   0.311  1.00  0.00     0.278 HD
ATOM      9  H12 UNL     1     -35.158  28.947   1.360  1.00  0.00     0.278 HD
HETATM   10  C10 UNL     1     -34.944  28.210  -0.549  1.00  0.00     0.219 C 
HETATM   11  C11 UNL     1     -32.929  30.036   1.616  1.00  0.00     0.057 C 
HETATM   12  C12 UNL     1     -31.701  29.245   1.653  1.00  0.00    -0.023 C 
HETATM   13  C13 UNL     1     -30.502  29.782   1.706  1.00  0.00    -0.030 C 
HETATM   14  C14 UNL     1     -30.299  31.240   1.731  1.00  0.00     0.027 C 
HETATM   15  C15 UNL     1     -31.421  31.974   1.023  1.00  0.00     0.016 C 
HETATM   16  C16 UNL     1     -32.770  31.502   1.443  1.00  0.00     0.001 C 
HETATM   17  C17 UNL     1     -33.234  32.267   2.667  1.00  0.00     0.018 C 
HETATM   18  C18 UNL     1     -33.787  31.468   0.320  1.00  0.00     0.161 C 
HETATM   19  C19 UNL     1     -35.102  32.058   0.799  1.00  0.00     0.049 C 
ENDROOT
BRANCH  18  20
HETATM   20  N2  UNL     1     -33.288  32.051  -0.896  1.00  0.00    -0.068 N 
ATOM     21  H23 UNL     1     -33.028  33.026  -0.755  1.00  0.00     0.275 HD
ATOM     22  H22 UNL     1     -32.373  31.670  -1.137  1.00  0.00     0.275 HD
ATOM     23  H21 UNL     1     -33.941  31.955  -1.674  1.00  0.00     0.275 HD
ENDBRANCH  18  20
BRANCH   1  24
HETATM   24  O1  UNL     1     -36.790  28.078  -1.966  1.00  0.00    -0.379 OA
BRANCH  24  25
HETATM   25  C2  UNL     1     -37.052  27.312  -3.074  1.00  0.00     0.114 C 
HETATM   26  C1  UNL     1     -38.372  27.809  -3.655  1.00  0.00     0.039 C 
HETATM   27  C3  UNL     1     -37.306  25.891  -2.602  1.00  0.00     0.039 C 
ENDBRANCH  24  25
ENDBRANCH   1  24
TORSDOF 3
ENDMDL
MODEL 5
REMARK VINA RESULT: -6.822742808      1.997      5.888
REMARK  3 active torsions:
REMARK  status: ('A' for Active; 'I' for Inactive)
REMARK    1  A    between atoms: C2_2  and  O1_4 
REMARK    2  A    between atoms: O1_4  and  C4_5 
REMARK    3  A    between atoms: C18_22  and  N2_24 
ROOT
HETATM    1  C4  UNL     1     -33.260  31.394   0.397  1.00  0.00     0.153 C 
HETATM    2  C5  UNL     1     -33.220  30.601   1.643  1.00  0.00     0.034 C 
HETATM    3  C6  UNL     1     -32.597  29.244   1.296  1.00  0.00     0.009 C 
HETATM    4  C7  UNL     1     -32.889  29.122  -0.177  1.00  0.00     0.021 C 
HETATM    5  C8  UNL     1     -34.348  28.737  -0.331  1.00  0.00     0.049 C 
HETATM    6  C9  UNL     1     -34.727  29.419  -1.603  1.00  0.00     0.167 C 
HETATM    7  N1  UNL     1     -33.807  30.508  -1.822  1.00  0.00    -0.056 N 
ATOM      8  H11 UNL     1     -34.277  31.408  -1.923  1.00  0.00     0.278 HD
ATOM      9  H12 UNL     1     -33.371  30.478  -2.743  1.00  0.00     0.278 HD
HETATM   10  C10 UNL     1     -32.848  30.498  -0.753  1.00  0.00     0.219 C 
HETATM   11  C11 UNL     1     -34.809  28.440  -2.755  1.00  0.00     0.057 C 
HETATM   12  C12 UNL     1     -34.245  27.116  -2.499  1.00  0.00    -0.023 C 
HETATM   13  C13 UNL     1     -34.978  26.027  -2.416  1.00  0.00    -0.030 C 
HETATM   14  C14 UNL     1     -36.441  26.056  -2.575  1.00  0.00     0.027 C 
HETATM   15  C15 UNL     1     -37.025  27.390  -2.148  1.00  0.00     0.016 C 
HETATM   16  C16 UNL     1     -36.289  28.549  -2.727  1.00  0.00     0.001 C 
HETATM   17  C17 UNL     1     -36.854  28.899  -4.090  1.00  0.00     0.018 C 
HETATM   18  C18 UNL     1     -36.173  29.733  -1.789  1.00  0.00     0.161 C 
HETATM   19  C19 UNL     1     -36.479  31.016  -2.542  1.00  0.00     0.049 C 
ENDROOT
BRANCH  18  20
HETATM   20  N2  UNL     1     -36.936  29.561  -0.583  1.00  0.00    -0.068 N 
ATOM     21  H23 UNL     1     -37.524  28.729  -0.636  1.00  0.00     0.275 HD
ATOM     22  H22 UNL     1     -36.335  29.287   0.195  1.00  0.00     0.275 HD
ATOM     23  H21 UNL     1     -37.489  30.385  -0.346  1.00  0.00     0.275 HD
ENDBRANCH  18  20
BRANCH   1  24
HETATM   24  O1  UNL     1     -32.516  32.525   0.349  1.00  0.00    -0.379 OA
BRANCH  24  25
HETATM   25  C2  UNL     1     -32.925  33.574   1.132  1.00  0.00     0.114 C 
HETATM   26  C1  UNL     1     -32.987  34.803   0.232  1.00  0.00     0.039 C 
HETATM   27  C3  UNL     1     -31.826  33.848   2.145  1.00  0.00     0.039 C 
ENDBRANCH  24  25
ENDBRANCH   1  24
TORSDOF 3
ENDMDL
