MODEL 1
REMARK VINA RESULT: -7.091578340      0.000      0.000
REMARK  0 active torsions:
REMARK  status: ('A' for Active; 'I' for Inactive)
ROOT
HETATM    1  O1  UNL     1       0.719  67.897  66.747  1.00  0.00    -0.274 OA
HETATM    2  C1  UNL     1       1.900  67.487  66.549  1.00  0.00     0.217 C 
HETATM    3  C2  UNL     1       2.918  68.565  66.456  1.00  0.00     0.104 C 
HETATM    4  C3  UNL     1       3.917  68.340  65.356  1.00  0.00     0.036 C 
HETATM    5  C4  UNL     1       3.279  68.567  63.997  1.00  0.00     0.232 C 
HETATM    6  N1  UNL     1       4.222  68.338  62.943  1.00  0.00    -0.074 N 
ATOM      7  H11 UNL     1       5.181  68.312  63.287  1.00  0.00     0.277 HD
ATOM      8  H12 UNL     1       4.307  69.144  62.324  1.00  0.00     0.277 HD
HETATM    9  C5  UNL     1       3.872  67.134  62.222  1.00  0.00     0.259 C 
HETATM   10  C6  UNL     1       4.869  66.050  62.502  1.00  0.00     0.259 C 
HETATM   11  N2  UNL     1       4.276  64.745  62.484  1.00  0.00    -0.074 N 
ATOM     12  H21 UNL     1       4.640  64.194  61.707  1.00  0.00     0.277 HD
ATOM     13  H22 UNL     1       3.295  64.797  62.211  1.00  0.00     0.277 HD
HETATM   14  C7  UNL     1       4.423  64.028  63.734  1.00  0.00     0.232 C 
HETATM   15  C8  UNL     1       3.330  64.386  64.709  1.00  0.00     0.029 C 
HETATM   16  C9  UNL     1       3.892  64.362  66.105  1.00  0.00     0.021 C 
HETATM   17  C10 UNL     1       3.317  65.410  67.004  1.00  0.00     0.122 C 
HETATM   18  N3  UNL     1       2.190  66.107  66.431  1.00  0.00    -0.361 N 
ATOM     19  H3  UNL     1       1.536  65.548  65.884  1.00  0.00     0.162 HD
ENDROOT
TORSDOF 0
ENDMDL
MODEL 2
REMARK VINA RESULT: -6.882727646      2.577      4.287
REMARK  0 active torsions:
REMARK  status: ('A' for Active; 'I' for Inactive)
ROOT
HETATM    1  O1  UNL     1       5.492  65.747  65.623  1.00  0.00    -0.274 OA
HETATM    2  C1  UNL     1       5.063  66.824  65.116  1.00  0.00     0.217 C 
HETATM    3  C2  UNL     1       4.439  67.757  66.090  1.00  0.00     0.104 C 
HETATM    4  C3  UNL     1       3.181  68.395  65.573  1.00  0.00     0.036 C 
HETATM    5  C4  UNL     1       2.047  67.386  65.528  1.00  0.00     0.232 C 
HETATM    6  N1  UNL     1       0.849  67.984  65.019  1.00  0.00    -0.074 N 
ATOM      7  H11 UNL     1       0.900  69.003  65.018  1.00  0.00     0.277 HD
ATOM      8  H12 UNL     1       0.065  67.875  65.662  1.00  0.00     0.277 HD
HETATM    9  C5  UNL     1       0.552  67.455  63.707  1.00  0.00     0.259 C 
HETATM   10  C6  UNL     1       0.775  68.505  62.659  1.00  0.00     0.259 C 
HETATM   11  N2  UNL     1       1.224  67.950  61.417  1.00  0.00    -0.074 N 
ATOM     12  H21 UNL     1       0.522  68.079  60.688  1.00  0.00     0.277 HD
ATOM     13  H22 UNL     1       1.239  66.931  61.460  1.00  0.00     0.277 HD
HETATM   14  C7  UNL     1       2.509  68.463  60.988  1.00  0.00     0.232 C 
HETATM   15  C8  UNL     1       3.648  67.697  61.612  1.00  0.00     0.029 C 
HETATM   16  C9  UNL     1       4.791  68.641  61.867  1.00  0.00     0.021 C 
HETATM   17  C10 UNL     1       5.554  68.339  63.118  1.00  0.00     0.122 C 
HETATM   18  N3  UNL     1       5.184  67.085  63.731  1.00  0.00    -0.361 N 
ATOM     19  H3  UNL     1       4.990  66.307  63.100  1.00  0.00     0.162 HD
ENDROOT
TORSDOF 0
ENDMDL
MODEL 3
REMARK VINA RESULT: -6.877299439      2.992      4.904
REMARK  0 active torsions:
REMARK  status: ('A' for Active; 'I' for Inactive)
ROOT
HETATM    1  O1  UNL     1       3.314  62.748  67.965  1.00  0.00    -0.274 OA
HETATM    2  C1  UNL     1       3.732  63.941  68.022  1.00  0.00     0.217 C 
HETATM    3  C2  UNL     1       3.676  64.548  69.377  1.00  0.00     0.104 C 
HETATM    4  C3  UNL     1       3.187  65.969  69.368  1.00  0.00     0.036 C 
HETATM    5  C4  UNL     1       1.698  66.021  69.078  1.00  0.00     0.232 C 
HETATM    6  N1  UNL     1       1.228  67.374  69.051  1.00  0.00    -0.074 N 
ATOM      7  H11 UNL     1       1.899  68.021  69.466  1.00  0.00     0.277 HD
ATOM      8  H12 UNL     1       0.456  67.524  69.699  1.00  0.00     0.277 HD
HETATM    9  C5  UNL     1       0.881  67.749  67.698  1.00  0.00     0.259 C 
HETATM   10  C6  UNL     1       1.869  68.741  67.161  1.00  0.00     0.259 C 
HETATM   11  N2  UNL     1       2.068  68.605  65.749  1.00  0.00    -0.074 N 
ATOM     12  H21 UNL     1       1.724  69.428  65.255  1.00  0.00     0.277 HD
ATOM     13  H22 UNL     1       1.441  67.900  65.362  1.00  0.00     0.277 HD
HETATM   14  C7  UNL     1       3.441  68.324  65.385  1.00  0.00     0.232 C 
HETATM   15  C8  UNL     1       3.743  66.848  65.455  1.00  0.00     0.029 C 
HETATM   16  C9  UNL     1       5.166  66.660  65.905  1.00  0.00     0.021 C 
HETATM   17  C10 UNL     1       5.366  65.468  66.787  1.00  0.00     0.122 C 
HETATM   18  N3  UNL     1       4.207  64.611  66.870  1.00  0.00    -0.361 N 
ATOM     19  H3  UNL     1       3.676  64.474  66.010  1.00  0.00     0.162 HD
ENDROOT
TORSDOF 0
ENDMDL
MODEL 4
REMARK VINA RESULT: -6.865009985      2.617      3.357
REMARK  0 active torsions:
REMARK  status: ('A' for Active; 'I' for Inactive)
ROOT
HETATM    1  O1  UNL     1       0.583  65.832  65.064  1.00  0.00    -0.274 OA
HETATM    2  C1  UNL     1       1.152  66.935  64.819  1.00  0.00     0.217 C 
HETATM    3  C2  UNL     1       0.293  67.928  64.123  1.00  0.00     0.104 C 
HETATM    4  C3  UNL     1       1.011  68.665  63.027  1.00  0.00     0.036 C 
HETATM    5  C4  UNL     1       1.249  67.754  61.836  1.00  0.00     0.232 C 
HETATM    6  N1  UNL     1       1.949  68.445  60.794  1.00  0.00    -0.074 N 
ATOM      7  H11 UNL     1       1.938  69.455  60.931  1.00  0.00     0.277 HD
ATOM      8  H12 UNL     1       1.447  68.409  59.907  1.00  0.00     0.277 HD
HETATM    9  C5  UNL     1       3.294  67.928  60.677  1.00  0.00     0.259 C 
HETATM   10  C6  UNL     1       4.287  68.943  61.159  1.00  0.00     0.259 C 
HETATM   11  N2  UNL     1       5.438  68.339  61.761  1.00  0.00    -0.074 N 
ATOM     12  H21 UNL     1       6.273  68.518  61.204  1.00  0.00     0.277 HD
ATOM     13  H22 UNL     1       5.396  67.323  61.682  1.00  0.00     0.277 HD
HETATM   14  C7  UNL     1       5.644  68.737  63.138  1.00  0.00     0.232 C 
HETATM   15  C8  UNL     1       4.840  67.885  64.088  1.00  0.00     0.029 C 
HETATM   16  C9  UNL     1       4.395  68.732  65.249  1.00  0.00     0.021 C 
HETATM   17  C10 UNL     1       3.035  68.381  65.764  1.00  0.00     0.122 C 
HETATM   18  N3  UNL     1       2.496  67.170  65.192  1.00  0.00    -0.361 N 
ATOM     19  H3  UNL     1       3.153  66.404  65.040  1.00  0.00     0.162 HD
ENDROOT
TORSDOF 0
ENDMDL
MODEL 5
REMARK VINA RESULT: -6.855140576      1.395      1.906
REMARK  0 active torsions:
REMARK  status: ('A' for Active; 'I' for Inactive)
ROOT
HETATM    1  O1  UNL     1       1.173  66.497  66.936  1.00  0.00    -0.274 OA
HETATM    2  C1  UNL     1       2.336  66.231  66.515  1.00  0.00     0.217 C 
HETATM    3  C2  UNL     1       3.429  66.927  67.242  1.00  0.00     0.104 C 
HETATM    4  C3  UNL     1       4.501  67.456  66.331  1.00  0.00     0.036 C 
HETATM    5  C4  UNL     1       3.997  68.658  65.552  1.00  0.00     0.232 C 
HETATM    6  N1  UNL     1       5.009  69.156  64.669  1.00  0.00    -0.074 N 
ATOM      7  H11 UNL     1       5.932  68.787  64.897  1.00  0.00     0.277 HD
ATOM      8  H12 UNL     1       5.201  70.145  64.826  1.00  0.00     0.277 HD
HETATM    9  C5  UNL     1       4.642  68.887  63.296  1.00  0.00     0.259 C 
HETATM   10  C6  UNL     1       5.536  67.833  62.714  1.00  0.00     0.259 C 
HETATM   11  N2  UNL     1       4.862  67.015  61.751  1.00  0.00    -0.074 N 
ATOM     12  H21 UNL     1       5.252  67.156  60.820  1.00  0.00     0.277 HD
ATOM     13  H22 UNL     1       3.913  67.353  61.590  1.00  0.00     0.277 HD
HETATM   14  C7  UNL     1       4.852  65.608  62.095  1.00  0.00     0.232 C 
HETATM   15  C8  UNL     1       3.706  65.271  63.016  1.00  0.00     0.029 C 
HETATM   16  C9  UNL     1       4.144  64.190  63.966  1.00  0.00     0.021 C 
HETATM   17  C10 UNL     1       3.566  64.324  65.339  1.00  0.00     0.122 C 
HETATM   18  N3  UNL     1       2.542  65.337  65.437  1.00  0.00    -0.361 N 
ATOM     19  H3  UNL     1       1.900  65.418  64.648  1.00  0.00     0.162 HD
ENDROOT
TORSDOF 0
ENDMDL
