MODEL 1
REMARK VINA RESULT: -7.580891339      0.000      0.000
REMARK  4 active torsions:
REMARK  status: ('A' for Active; 'I' for Inactive)
REMARK    1  A    between atoms: O1_2  and  C2_3 
REMARK    2  A    between atoms: C2_3  and  C3_5 
REMARK    3  A    between atoms: C3_5  and  C4_6 
REMARK    4  A    between atoms: C4_6  and  N1_7 
ROOT
HETATM    1  C4  UNL     1     -25.908  79.823  12.470  1.00  0.00     0.132 C 
HETATM    2  C5  UNL     1     -26.368  81.229  12.740  1.00  0.00     0.040 C 
HETATM    3  C6  UNL     1     -27.683  81.447  12.032  1.00  0.00     0.012 C 
HETATM    4  C7  UNL     1     -27.551  81.451  10.534  1.00  0.00    -0.040 C 
HETATM    5  C8  UNL     1     -28.804  81.076   9.815  1.00  0.00     0.009 C 
HETATM    6  C9  UNL     1     -30.067  81.488  10.461  1.00  0.00     0.001 C 
HETATM    7  C10 UNL     1     -30.947  82.417   9.705  1.00  0.00     0.000 C 
HETATM    8  C11 UNL     1     -31.181  82.096   8.282  1.00  0.00     0.000 C 
HETATM    9  C12 UNL     1     -31.158  83.318   7.365  1.00  0.00     0.000 C 
HETATM   10  C13 UNL     1     -29.967  83.286   6.429  1.00  0.00     0.000 C 
HETATM   11  C14 UNL     1     -28.872  84.091   7.119  1.00  0.00     0.000 C 
HETATM   12  C15 UNL     1     -27.496  83.725   6.664  1.00  0.00     0.000 C 
HETATM   13  C16 UNL     1     -26.568  83.937   7.844  1.00  0.00     0.000 C 
HETATM   14  C17 UNL     1     -26.411  82.687   8.672  1.00  0.00     0.001 C 
HETATM   15  C18 UNL     1     -26.967  82.781  10.051  1.00  0.00     0.009 C 
HETATM   16  C19 UNL     1     -26.491  80.414  10.126  1.00  0.00     0.012 C 
HETATM   17  C20 UNL     1     -26.446  79.299  11.148  1.00  0.00     0.040 C 
ENDROOT
BRANCH   1  18
HETATM   18  C3  UNL     1     -24.394  79.727  12.443  1.00  0.00     0.149 C 
BRANCH  18  19
HETATM   19  C2  UNL     1     -23.757  80.717  13.326  1.00  0.00     0.260 C 
HETATM   20  O2  UNL     1     -22.871  81.505  12.914  1.00  0.00    -0.265 OA
BRANCH  19  21
HETATM   21  O1  UNL     1     -24.141  80.787  14.652  1.00  0.00    -0.326 OA
HETATM   22  C1  UNL     1     -23.872  81.946  15.443  1.00  0.00     0.213 C 
ENDBRANCH  19  21
ENDBRANCH  18  19
ENDBRANCH   1  18
BRANCH   1  23
HETATM   23  N1  UNL     1     -26.384  78.900  13.489  1.00  0.00    -0.070 N 
ATOM     24  H13 UNL     1     -27.104  78.265  13.146  1.00  0.00     0.275 HD
ATOM     25  H12 UNL     1     -25.692  78.193  13.740  1.00  0.00     0.275 HD
ATOM     26  H11 UNL     1     -26.691  79.457  14.286  1.00  0.00     0.275 HD
ENDBRANCH   1  23
TORSDOF 4
ENDMDL
MODEL 2
REMARK VINA RESULT: -7.136937669      4.298      6.707
REMARK  4 active torsions:
REMARK  status: ('A' for Active; 'I' for Inactive)
REMARK    1  A    between atoms: O1_2  and  C2_3 
REMARK    2  A    between atoms: C2_3  and  C3_5 
REMARK    3  A    between atoms: C3_5  and  C4_6 
REMARK    4  A    between atoms: C4_6  and  N1_7 
ROOT
HETATM    1  C4  UNL     1     -24.261  85.450   6.169  1.00  0.00     0.132 C 
HETATM    2  C5  UNL     1     -24.679  84.077   5.721  1.00  0.00     0.040 C 
HETATM    3  C6  UNL     1     -26.169  83.943   5.917  1.00  0.00     0.012 C 
HETATM    4  C7  UNL     1     -26.573  83.927   7.365  1.00  0.00    -0.040 C 
HETATM    5  C8  UNL     1     -27.975  84.381   7.606  1.00  0.00     0.009 C 
HETATM    6  C9  UNL     1     -28.951  84.052   6.548  1.00  0.00     0.001 C 
HETATM    7  C10 UNL     1     -30.095  83.179   6.924  1.00  0.00     0.000 C 
HETATM    8  C11 UNL     1     -30.796  83.512   8.181  1.00  0.00     0.000 C 
HETATM    9  C12 UNL     1     -31.169  82.290   9.018  1.00  0.00     0.000 C 
HETATM   10  C13 UNL     1     -30.385  82.245  10.313  1.00  0.00     0.000 C 
HETATM   11  C14 UNL     1     -29.167  81.373  10.034  1.00  0.00     0.000 C 
HETATM   12  C15 UNL     1     -28.020  81.649  10.951  1.00  0.00     0.000 C 
HETATM   13  C16 UNL     1     -26.750  81.380  10.168  1.00  0.00     0.000 C 
HETATM   14  C17 UNL     1     -26.238  82.619   9.478  1.00  0.00     0.001 C 
HETATM   15  C18 UNL     1     -26.277  82.562   7.991  1.00  0.00     0.009 C 
HETATM   16  C19 UNL     1     -25.666  84.895   8.143  1.00  0.00     0.012 C 
HETATM   17  C20 UNL     1     -25.198  86.005   7.230  1.00  0.00     0.040 C 
ENDROOT
BRANCH   1  18
HETATM   18  C3  UNL     1     -22.850  85.449   6.729  1.00  0.00     0.149 C 
BRANCH  18  19
HETATM   19  C2  UNL     1     -22.068  86.608   6.271  1.00  0.00     0.260 C 
HETATM   20  O2  UNL     1     -21.289  86.542   5.289  1.00  0.00    -0.265 OA
BRANCH  19  21
HETATM   21  O1  UNL     1     -22.189  87.812   6.940  1.00  0.00    -0.326 OA
HETATM   22  C1  UNL     1     -22.151  89.057   6.240  1.00  0.00     0.213 C 
ENDBRANCH  19  21
ENDBRANCH  18  19
ENDBRANCH   1  18
BRANCH   1  23
HETATM   23  N1  UNL     1     -24.291  86.404   5.070  1.00  0.00    -0.070 N 
ATOM     24  H13 UNL     1     -25.120  86.998   5.082  1.00  0.00     0.275 HD
ATOM     25  H12 UNL     1     -23.596  87.144   5.166  1.00  0.00     0.275 HD
ATOM     26  H11 UNL     1     -24.193  85.874   4.204  1.00  0.00     0.275 HD
ENDBRANCH   1  23
TORSDOF 4
ENDMDL
MODEL 3
REMARK VINA RESULT: -7.109998669      4.355      6.767
REMARK  4 active torsions:
REMARK  status: ('A' for Active; 'I' for Inactive)
REMARK    1  A    between atoms: O1_2  and  C2_3 
REMARK    2  A    between atoms: C2_3  and  C3_5 
REMARK    3  A    between atoms: C3_5  and  C4_6 
REMARK    4  A    between atoms: C4_6  and  N1_7 
ROOT
HETATM    1  C4  UNL     1     -24.104  85.484   6.134  1.00  0.00     0.132 C 
HETATM    2  C5  UNL     1     -24.525  84.111   5.687  1.00  0.00     0.040 C 
HETATM    3  C6  UNL     1     -26.019  83.987   5.868  1.00  0.00     0.012 C 
HETATM    4  C7  UNL     1     -26.439  83.982   7.312  1.00  0.00    -0.040 C 
HETATM    5  C8  UNL     1     -27.840  84.446   7.536  1.00  0.00     0.009 C 
HETATM    6  C9  UNL     1     -28.807  84.118   6.469  1.00  0.00     0.001 C 
HETATM    7  C10 UNL     1     -29.960  83.254   6.837  1.00  0.00     0.000 C 
HETATM    8  C11 UNL     1     -30.672  83.598   8.084  1.00  0.00     0.000 C 
HETATM    9  C12 UNL     1     -31.062  82.382   8.923  1.00  0.00     0.000 C 
HETATM   10  C13 UNL     1     -30.292  82.338  10.227  1.00  0.00     0.000 C 
HETATM   11  C14 UNL     1     -29.077  81.457   9.965  1.00  0.00     0.000 C 
HETATM   12  C15 UNL     1     -27.939  81.730  10.893  1.00  0.00     0.000 C 
HETATM   13  C16 UNL     1     -26.662  81.449  10.125  1.00  0.00     0.000 C 
HETATM   14  C17 UNL     1     -26.134  82.681   9.435  1.00  0.00     0.001 C 
HETATM   15  C18 UNL     1     -26.158  82.618   7.947  1.00  0.00     0.009 C 
HETATM   16  C19 UNL     1     -25.533  84.947   8.096  1.00  0.00     0.012 C 
HETATM   17  C20 UNL     1     -25.048  86.050   7.182  1.00  0.00     0.040 C 
ENDROOT
BRANCH   1  18
HETATM   18  C3  UNL     1     -22.699  85.476   6.708  1.00  0.00     0.149 C 
BRANCH  18  19
HETATM   19  C2  UNL     1     -21.857  86.538   6.136  1.00  0.00     0.260 C 
HETATM   20  O2  UNL     1     -21.861  87.709   6.588  1.00  0.00    -0.265 OA
BRANCH  19  21
HETATM   21  O1  UNL     1     -21.032  86.244   5.066  1.00  0.00    -0.326 OA
HETATM   22  C1  UNL     1     -20.608  84.907   4.800  1.00  0.00     0.213 C 
ENDBRANCH  19  21
ENDBRANCH  18  19
ENDBRANCH   1  18
BRANCH   1  23
HETATM   23  N1  UNL     1     -24.116  86.432   5.031  1.00  0.00    -0.070 N 
ATOM     24  H13 UNL     1     -23.812  87.366   5.304  1.00  0.00     0.275 HD
ATOM     25  H12 UNL     1     -23.386  86.251   4.342  1.00  0.00     0.275 HD
ATOM     26  H11 UNL     1     -25.054  86.421   4.629  1.00  0.00     0.275 HD
ENDBRANCH   1  23
TORSDOF 4
ENDMDL
MODEL 4
REMARK VINA RESULT: -6.842145639      1.683      3.364
REMARK  4 active torsions:
REMARK  status: ('A' for Active; 'I' for Inactive)
REMARK    1  A    between atoms: O1_2  and  C2_3 
REMARK    2  A    between atoms: C2_3  and  C3_5 
REMARK    3  A    between atoms: C3_5  and  C4_6 
REMARK    4  A    between atoms: C4_6  and  N1_7 
ROOT
HETATM    1  C4  UNL     1     -25.670  79.943  11.967  1.00  0.00     0.132 C 
HETATM    2  C5  UNL     1     -26.412  79.338  10.806  1.00  0.00     0.040 C 
HETATM    3  C6  UNL     1     -25.975  80.039   9.542  1.00  0.00     0.012 C 
HETATM    4  C7  UNL     1     -26.424  81.472   9.479  1.00  0.00    -0.040 C 
HETATM    5  C8  UNL     1     -25.570  82.336   8.610  1.00  0.00     0.009 C 
HETATM    6  C9  UNL     1     -24.982  81.678   7.426  1.00  0.00     0.001 C 
HETATM    7  C10 UNL     1     -25.361  82.212   6.091  1.00  0.00     0.000 C 
HETATM    8  C11 UNL     1     -25.324  83.679   5.931  1.00  0.00     0.000 C 
HETATM    9  C12 UNL     1     -26.502  84.240   5.135  1.00  0.00     0.000 C 
HETATM   10  C13 UNL     1     -27.411  85.081   6.007  1.00  0.00     0.000 C 
HETATM   11  C14 UNL     1     -28.507  84.143   6.495  1.00  0.00     0.000 C 
HETATM   12  C15 UNL     1     -29.152  84.598   7.765  1.00  0.00     0.000 C 
HETATM   13  C16 UNL     1     -29.574  83.352   8.519  1.00  0.00     0.000 C 
HETATM   14  C17 UNL     1     -28.503  82.875   9.468  1.00  0.00     0.001 C 
HETATM   15  C18 UNL     1     -27.909  81.555   9.119  1.00  0.00     0.009 C 
HETATM   16  C19 UNL     1     -26.353  82.077  10.891  1.00  0.00     0.012 C 
HETATM   17  C20 UNL     1     -25.273  81.385  11.692  1.00  0.00     0.040 C 
ENDROOT
BRANCH   1  18
HETATM   18  C3  UNL     1     -26.498  79.907  13.238  1.00  0.00     0.149 C 
BRANCH  18  19
HETATM   19  C2  UNL     1     -25.668  80.012  14.447  1.00  0.00     0.260 C 
HETATM   20  O2  UNL     1     -25.106  79.013  14.960  1.00  0.00    -0.265 OA
BRANCH  19  21
HETATM   21  O1  UNL     1     -25.496  81.246  15.045  1.00  0.00    -0.326 OA
HETATM   22  C1  UNL     1     -24.198  81.821  15.203  1.00  0.00     0.213 C 
ENDBRANCH  19  21
ENDBRANCH  18  19
ENDBRANCH   1  18
BRANCH   1  23
HETATM   23  N1  UNL     1     -24.429  79.232  12.237  1.00  0.00    -0.070 N 
ATOM     24  H13 UNL     1     -24.395  78.833  13.174  1.00  0.00     0.275 HD
ATOM     25  H12 UNL     1     -24.351  78.357  11.718  1.00  0.00     0.275 HD
ATOM     26  H11 UNL     1     -23.661  79.876  12.049  1.00  0.00     0.275 HD
ENDBRANCH   1  23
TORSDOF 4
ENDMDL
MODEL 5
REMARK VINA RESULT: -6.826462386      3.970      5.544
REMARK  4 active torsions:
REMARK  status: ('A' for Active; 'I' for Inactive)
REMARK    1  A    between atoms: O1_2  and  C2_3 
REMARK    2  A    between atoms: C2_3  and  C3_5 
REMARK    3  A    between atoms: C3_5  and  C4_6 
REMARK    4  A    between atoms: C4_6  and  N1_7 
ROOT
HETATM    1  C4  UNL     1     -22.281  83.696   8.155  1.00  0.00     0.132 C 
HETATM    2  C5  UNL     1     -22.967  82.617   7.361  1.00  0.00     0.040 C 
HETATM    3  C6  UNL     1     -24.391  83.046   7.103  1.00  0.00     0.012 C 
HETATM    4  C7  UNL     1     -25.229  83.087   8.350  1.00  0.00    -0.040 C 
HETATM    5  C8  UNL     1     -26.391  84.022   8.268  1.00  0.00     0.009 C 
HETATM    6  C9  UNL     1     -27.014  84.160   6.937  1.00  0.00     0.001 C 
HETATM    7  C10 UNL     1     -28.441  83.764   6.809  1.00  0.00     0.000 C 
HETATM    8  C11 UNL     1     -29.360  84.252   7.857  1.00  0.00     0.000 C 
HETATM    9  C12 UNL     1     -30.378  83.209   8.315  1.00  0.00     0.000 C 
HETATM   10  C13 UNL     1     -30.128  82.782   9.747  1.00  0.00     0.000 C 
HETATM   11  C14 UNL     1     -29.258  81.534   9.664  1.00  0.00     0.000 C 
HETATM   12  C15 UNL     1     -28.456  81.291  10.901  1.00  0.00     0.000 C 
HETATM   13  C16 UNL     1     -27.169  80.614  10.470  1.00  0.00     0.000 C 
HETATM   14  C17 UNL     1     -26.071  81.609  10.194  1.00  0.00     0.001 C 
HETATM   15  C18 UNL     1     -25.636  81.673   8.771  1.00  0.00     0.009 C 
HETATM   16  C19 UNL     1     -24.358  83.582   9.517  1.00  0.00     0.012 C 
HETATM   17  C20 UNL     1     -23.268  84.492   8.994  1.00  0.00     0.040 C 
ENDROOT
BRANCH   1  18
HETATM   18  C3  UNL     1     -21.222  83.121   9.077  1.00  0.00     0.149 C 
BRANCH  18  19
HETATM   19  C2  UNL     1     -19.934  83.821   8.952  1.00  0.00     0.260 C 
HETATM   20  O2  UNL     1     -19.673  84.860   9.606  1.00  0.00    -0.265 OA
BRANCH  19  21
HETATM   21  O1  UNL     1     -18.976  83.325   8.087  1.00  0.00    -0.326 OA
HETATM   22  C1  UNL     1     -18.933  81.940   7.741  1.00  0.00     0.213 C 
ENDBRANCH  19  21
ENDBRANCH  18  19
ENDBRANCH   1  18
BRANCH   1  23
HETATM   23  N1  UNL     1     -21.624  84.661   7.287  1.00  0.00    -0.070 N 
ATOM     24  H13 UNL     1     -21.181  84.231   6.476  1.00  0.00     0.275 HD
ATOM     25  H12 UNL     1     -22.281  85.255   6.781  1.00  0.00     0.275 HD
ATOM     26  H11 UNL     1     -20.970  85.192   7.863  1.00  0.00     0.275 HD
ENDBRANCH   1  23
TORSDOF 4
ENDMDL
