MODEL 1
REMARK VINA RESULT: -4.800506084      0.000      0.000
REMARK  7 active torsions:
REMARK  status: ('A' for Active; 'I' for Inactive)
REMARK    1  A    between atoms: C3_4  and  N2_5 
REMARK    2  A    between atoms: C8_13  and  S1_14 
REMARK    3  A    between atoms: S1_14  and  C9_15 
REMARK    4  A    between atoms: C9_15  and  C10_16 
REMARK    5  A    between atoms: C10_16  and  N5_18 
REMARK    6  A    between atoms: N5_18  and  N6_20 
REMARK    7  A    between atoms: C11_25  and  N8_26 
ROOT
HETATM    1  N1  UNL     1       7.402  11.926  11.332  1.00  0.00    -0.191 NA
HETATM    2  C1  UNL     1       8.024  11.366  10.539  1.00  0.00     0.107 C 
HETATM    3  C2  UNL     1       8.762  10.654   9.516  1.00  0.00     0.132 A 
HETATM    4  C3  UNL     1      10.003  10.158   9.784  1.00  0.00     0.130 A 
HETATM    5  N3  UNL     1      10.591   9.476   8.740  1.00  0.00    -0.322 N 
ATOM      6  H3  UNL     1      11.521   9.079   8.878  1.00  0.00     0.169 HD
HETATM    7  C8  UNL     1       9.996   9.315   7.561  1.00  0.00     0.147 A 
HETATM    8  N7  UNL     1       8.777   9.809   7.311  1.00  0.00    -0.322 N 
ATOM      9  H7  UNL     1       8.342   9.672   6.398  1.00  0.00     0.169 HD
HETATM   10  C11 UNL     1       8.140  10.478   8.264  1.00  0.00     0.125 A 
ENDROOT
BRANCH   4  11
HETATM   11  N2  UNL     1      10.701  10.317  10.986  1.00  0.00    -0.362 N 
HETATM   12  C4  UNL     1      11.669  11.441  11.012  1.00  0.00     0.150 C 
HETATM   13  C5  UNL     1      12.829  10.928  11.863  1.00  0.00     0.187 C 
HETATM   14  O1  UNL     1      12.434  10.889  13.184  1.00  0.00    -0.388 OA
HETATM   15  C6  UNL     1      11.128  10.512  13.373  1.00  0.00     0.187 C 
HETATM   16  C7  UNL     1      10.625   9.602  12.222  1.00  0.00     0.150 C 
ENDBRANCH   4  11
BRANCH  10  17
HETATM   17  N8  UNL     1       6.964  10.976   8.082  1.00  0.00    -0.384 N 
ATOM     18  H82 UNL     1       6.172  10.402   7.791  1.00  0.00     0.157 HD
ATOM     19  H81 UNL     1       6.828  11.975   8.233  1.00  0.00     0.157 HD
ENDBRANCH  10  17
BRANCH   7  20
HETATM   20  S1  UNL     1      10.847   8.432   6.288  1.00  0.00    -0.087 SA
BRANCH  20  21
HETATM   21  C9  UNL     1      10.022   6.877   5.908  1.00  0.00     0.156 C 
BRANCH  21  22
HETATM   22  C10 UNL     1       9.447   6.308   7.134  1.00  0.00     0.116 C 
HETATM   23  N4  UNL     1       8.097   6.506   7.445  1.00  0.00    -0.085 NA
BRANCH  22  24
HETATM   24  N5  UNL     1      10.197   5.627   7.916  1.00  0.00    -0.297 N 
ATOM     25  H5  UNL     1      10.920   5.049   7.487  1.00  0.00     0.187 HD
BRANCH  24  26
HETATM   26  N6  UNL     1      10.107   5.612   9.291  1.00  0.00    -0.344 N 
ATOM     27  H62 UNL     1      10.537   6.397   9.780  1.00  0.00     0.176 HD
ATOM     28  H61 UNL     1       9.650   4.886   9.843  1.00  0.00     0.176 HD
ENDBRANCH  24  26
ENDBRANCH  22  24
ENDBRANCH  21  22
ENDBRANCH  20  21
ENDBRANCH   7  20
TORSDOF 7
ENDMDL
MODEL 2
REMARK VINA RESULT: -4.678850760      4.183      6.161
REMARK  7 active torsions:
REMARK  status: ('A' for Active; 'I' for Inactive)
REMARK    1  A    between atoms: C3_4  and  N2_5 
REMARK    2  A    between atoms: C8_13  and  S1_14 
REMARK    3  A    between atoms: S1_14  and  C9_15 
REMARK    4  A    between atoms: C9_15  and  C10_16 
REMARK    5  A    between atoms: C10_16  and  N5_18 
REMARK    6  A    between atoms: N5_18  and  N6_20 
REMARK    7  A    between atoms: C11_25  and  N8_26 
ROOT
HETATM    1  N1  UNL     1       8.946   7.332   3.608  1.00  0.00    -0.191 NA
HETATM    2  C1  UNL     1       9.896   7.723   4.132  1.00  0.00     0.107 C 
HETATM    3  C2  UNL     1      11.114   8.209   4.747  1.00  0.00     0.132 A 
HETATM    4  C3  UNL     1      11.233   8.240   6.104  1.00  0.00     0.130 A 
HETATM    5  N3  UNL     1      12.449   8.695   6.568  1.00  0.00    -0.322 N 
ATOM      6  H3  UNL     1      12.601   8.742   7.576  1.00  0.00     0.169 HD
HETATM    7  C8  UNL     1      13.432   9.076   5.755  1.00  0.00     0.147 A 
HETATM    8  N7  UNL     1      13.301   9.040   4.423  1.00  0.00    -0.322 N 
ATOM      9  H7  UNL     1      14.069   9.338   3.821  1.00  0.00     0.169 HD
HETATM   10  C11 UNL     1      12.161   8.614   3.894  1.00  0.00     0.125 A 
ENDROOT
BRANCH   4  11
HETATM   11  N2  UNL     1      10.234   7.888   7.017  1.00  0.00    -0.362 N 
HETATM   12  C4  UNL     1      10.125   6.436   7.308  1.00  0.00     0.150 C 
HETATM   13  C5  UNL     1       8.628   6.194   7.494  1.00  0.00     0.187 C 
HETATM   14  O1  UNL     1       8.232   6.735   8.700  1.00  0.00    -0.388 OA
HETATM   15  C6  UNL     1       8.857   7.914   9.023  1.00  0.00     0.187 C 
HETATM   16  C7  UNL     1       9.306   8.688   7.756  1.00  0.00     0.150 C 
ENDBRANCH   4  11
BRANCH  10  17
HETATM   17  N8  UNL     1      11.977   8.557   2.619  1.00  0.00    -0.384 N 
ATOM     18  H82 UNL     1      11.581   9.338   2.094  1.00  0.00     0.157 HD
ATOM     19  H81 UNL     1      12.235   7.704   2.125  1.00  0.00     0.157 HD
ENDBRANCH  10  17
BRANCH   7  20
HETATM   20  S1  UNL     1      14.947   9.653   6.459  1.00  0.00    -0.087 SA
BRANCH  20  21
HETATM   21  C9  UNL     1      15.927   8.288   7.107  1.00  0.00     0.156 C 
BRANCH  21  22
HETATM   22  C10 UNL     1      15.327   7.794   8.352  1.00  0.00     0.116 C 
HETATM   23  N4  UNL     1      14.449   8.598   9.087  1.00  0.00    -0.085 NA
BRANCH  22  24
HETATM   24  N5  UNL     1      15.617   6.615   8.759  1.00  0.00    -0.297 N 
ATOM     25  H5  UNL     1      14.841   6.001   9.007  1.00  0.00     0.187 HD
BRANCH  24  26
HETATM   26  N6  UNL     1      16.892   6.109   8.889  1.00  0.00    -0.344 N 
ATOM     27  H62 UNL     1      17.510   6.602   9.534  1.00  0.00     0.176 HD
ATOM     28  H61 UNL     1      17.254   5.293   8.397  1.00  0.00     0.176 HD
ENDBRANCH  24  26
ENDBRANCH  22  24
ENDBRANCH  21  22
ENDBRANCH  20  21
ENDBRANCH   7  20
TORSDOF 7
ENDMDL
MODEL 3
REMARK VINA RESULT: -4.657843981      3.095      4.803
REMARK  7 active torsions:
REMARK  status: ('A' for Active; 'I' for Inactive)
REMARK    1  A    between atoms: C3_4  and  N2_5 
REMARK    2  A    between atoms: C8_13  and  S1_14 
REMARK    3  A    between atoms: S1_14  and  C9_15 
REMARK    4  A    between atoms: C9_15  and  C10_16 
REMARK    5  A    between atoms: C10_16  and  N5_18 
REMARK    6  A    between atoms: N5_18  and  N6_20 
REMARK    7  A    between atoms: C11_25  and  N8_26 
ROOT
HETATM    1  N1  UNL     1       9.501  12.389  14.923  1.00  0.00    -0.191 NA
HETATM    2  C1  UNL     1       9.342  11.701  14.012  1.00  0.00     0.107 C 
HETATM    3  C2  UNL     1       9.192  10.834  12.861  1.00  0.00     0.132 A 
HETATM    4  C3  UNL     1       8.004  10.774  12.197  1.00  0.00     0.130 A 
HETATM    5  N3  UNL     1       7.995   9.935  11.103  1.00  0.00    -0.322 N 
ATOM      6  H3  UNL     1       7.135   9.847  10.561  1.00  0.00     0.169 HD
HETATM    7  C8  UNL     1       9.063   9.236  10.724  1.00  0.00     0.147 A 
HETATM    8  N7  UNL     1      10.224   9.303  11.387  1.00  0.00    -0.322 N 
ATOM      9  H7  UNL     1      11.027   8.757  11.077  1.00  0.00     0.169 HD
HETATM   10  C11 UNL     1      10.317  10.089  12.453  1.00  0.00     0.125 A 
ENDROOT
BRANCH   4  11
HETATM   11  N2  UNL     1       6.836  11.453  12.555  1.00  0.00    -0.362 N 
HETATM   12  C4  UNL     1       5.843  10.650  13.312  1.00  0.00     0.150 C 
HETATM   13  C5  UNL     1       4.487  11.154  12.821  1.00  0.00     0.187 C 
HETATM   14  O1  UNL     1       4.261  12.412  13.341  1.00  0.00    -0.388 OA
HETATM   15  C6  UNL     1       5.382  13.201  13.422  1.00  0.00     0.187 C 
HETATM   16  C7  UNL     1       6.432  12.810  12.351  1.00  0.00     0.150 C 
ENDBRANCH   4  11
BRANCH  10  17
HETATM   17  N8  UNL     1      11.409  10.196  13.131  1.00  0.00    -0.384 N 
ATOM     18  H82 UNL     1      11.424  10.117  14.148  1.00  0.00     0.157 HD
ATOM     19  H81 UNL     1      12.281  10.364  12.631  1.00  0.00     0.157 HD
ENDBRANCH  10  17
BRANCH   7  20
HETATM   20  S1  UNL     1       8.936   8.181   9.311  1.00  0.00    -0.087 SA
BRANCH  20  21
HETATM   21  C9  UNL     1      10.504   8.076   8.433  1.00  0.00     0.156 C 
BRANCH  21  22
HETATM   22  C10 UNL     1      11.179   6.817   8.772  1.00  0.00     0.116 C 
HETATM   23  N4  UNL     1      12.412   6.826   9.434  1.00  0.00    -0.085 NA
BRANCH  22  24
HETATM   24  N5  UNL     1      10.625   5.707   8.454  1.00  0.00    -0.297 N 
ATOM     25  H5  UNL     1      10.616   4.969   9.159  1.00  0.00     0.187 HD
BRANCH  24  26
HETATM   26  N6  UNL     1      10.040   5.429   7.239  1.00  0.00    -0.344 N 
ATOM     27  H62 UNL     1      10.676   5.232   6.466  1.00  0.00     0.176 HD
ATOM     28  H61 UNL     1       9.036   5.405   7.060  1.00  0.00     0.176 HD
ENDBRANCH  24  26
ENDBRANCH  22  24
ENDBRANCH  21  22
ENDBRANCH  20  21
ENDBRANCH   7  20
TORSDOF 7
ENDMDL
MODEL 4
REMARK VINA RESULT: -4.656098936      4.120      6.137
REMARK  7 active torsions:
REMARK  status: ('A' for Active; 'I' for Inactive)
REMARK    1  A    between atoms: C3_4  and  N2_5 
REMARK    2  A    between atoms: C8_13  and  S1_14 
REMARK    3  A    between atoms: S1_14  and  C9_15 
REMARK    4  A    between atoms: C9_15  and  C10_16 
REMARK    5  A    between atoms: C10_16  and  N5_18 
REMARK    6  A    between atoms: N5_18  and  N6_20 
REMARK    7  A    between atoms: C11_25  and  N8_26 
ROOT
HETATM    1  N1  UNL     1       8.967   7.304   3.410  1.00  0.00    -0.191 NA
HETATM    2  C1  UNL     1       9.888   7.702   3.978  1.00  0.00     0.107 C 
HETATM    3  C2  UNL     1      11.071   8.202   4.648  1.00  0.00     0.132 A 
HETATM    4  C3  UNL     1      11.186   8.105   6.002  1.00  0.00     0.130 A 
HETATM    5  N3  UNL     1      12.369   8.590   6.519  1.00  0.00    -0.322 N 
ATOM      6  H3  UNL     1      12.517   8.546   7.527  1.00  0.00     0.169 HD
HETATM    7  C8  UNL     1      13.326   9.113   5.755  1.00  0.00     0.147 A 
HETATM    8  N7  UNL     1      13.199   9.203   4.425  1.00  0.00    -0.322 N 
ATOM      9  H7  UNL     1      13.947   9.609   3.863  1.00  0.00     0.169 HD
HETATM   10  C11 UNL     1      12.090   8.758   3.848  1.00  0.00     0.125 A 
ENDROOT
BRANCH   4  11
HETATM   11  N2  UNL     1      10.211   7.599   6.867  1.00  0.00    -0.362 N 
HETATM   12  C4  UNL     1       9.382   8.620   7.555  1.00  0.00     0.150 C 
HETATM   13  C5  UNL     1       9.122   8.033   8.941  1.00  0.00     0.187 C 
HETATM   14  O1  UNL     1       8.220   6.995   8.826  1.00  0.00    -0.388 OA
HETATM   15  C6  UNL     1       8.376   6.233   7.695  1.00  0.00     0.187 C 
HETATM   16  C7  UNL     1       9.841   6.255   7.189  1.00  0.00     0.150 C 
ENDBRANCH   4  11
BRANCH  10  17
HETATM   17  N8  UNL     1      11.912   8.817   2.572  1.00  0.00    -0.384 N 
ATOM     18  H82 UNL     1      11.413   8.089   2.060  1.00  0.00     0.157 HD
ATOM     19  H81 UNL     1      12.283   9.619   2.063  1.00  0.00     0.157 HD
ENDBRANCH  10  17
BRANCH   7  20
HETATM   20  S1  UNL     1      14.799   9.715   6.525  1.00  0.00    -0.087 SA
BRANCH  20  21
HETATM   21  C9  UNL     1      15.807   8.361   7.153  1.00  0.00     0.156 C 
BRANCH  21  22
HETATM   22  C10 UNL     1      15.205   7.822   8.379  1.00  0.00     0.116 C 
HETATM   23  N4  UNL     1      14.289   8.582   9.116  1.00  0.00    -0.085 NA
BRANCH  22  24
HETATM   24  N5  UNL     1      15.530   6.646   8.768  1.00  0.00    -0.297 N 
ATOM     25  H5  UNL     1      14.774   6.020   9.046  1.00  0.00     0.187 HD
BRANCH  24  26
HETATM   26  N6  UNL     1      16.816   6.158   8.841  1.00  0.00    -0.344 N 
ATOM     27  H62 UNL     1      17.330   6.368   9.697  1.00  0.00     0.176 HD
ATOM     28  H61 UNL     1      17.281   5.613   8.115  1.00  0.00     0.176 HD
ENDBRANCH  24  26
ENDBRANCH  22  24
ENDBRANCH  21  22
ENDBRANCH  20  21
ENDBRANCH   7  20
TORSDOF 7
ENDMDL
MODEL 5
REMARK VINA RESULT: -4.585998477      4.547      6.688
REMARK  7 active torsions:
REMARK  status: ('A' for Active; 'I' for Inactive)
REMARK    1  A    between atoms: C3_4  and  N2_5 
REMARK    2  A    between atoms: C8_13  and  S1_14 
REMARK    3  A    between atoms: S1_14  and  C9_15 
REMARK    4  A    between atoms: C9_15  and  C10_16 
REMARK    5  A    between atoms: C10_16  and  N5_18 
REMARK    6  A    between atoms: N5_18  and  N6_20 
REMARK    7  A    between atoms: C11_25  and  N8_26 
ROOT
HETATM    1  N1  UNL     1       7.628   6.040   7.122  1.00  0.00    -0.191 NA
HETATM    2  C1  UNL     1       8.698   6.446   7.267  1.00  0.00     0.107 C 
HETATM    3  C2  UNL     1      10.038   6.945   7.498  1.00  0.00     0.132 A 
HETATM    4  C3  UNL     1      10.631   7.767   6.587  1.00  0.00     0.130 A 
HETATM    5  N3  UNL     1      11.894   8.198   6.933  1.00  0.00    -0.322 N 
ATOM      6  H3  UNL     1      12.392   8.817   6.294  1.00  0.00     0.169 HD
HETATM    7  C8  UNL     1      12.491   7.839   8.068  1.00  0.00     0.147 A 
HETATM    8  N7  UNL     1      11.896   7.029   8.953  1.00  0.00    -0.322 N 
ATOM      9  H7  UNL     1      12.375   6.768   9.816  1.00  0.00     0.169 HD
HETATM   10  C11 UNL     1      10.678   6.570   8.697  1.00  0.00     0.125 A 
ENDROOT
BRANCH   4  11
HETATM   11  N2  UNL     1      10.079   8.159   5.363  1.00  0.00    -0.362 N 
HETATM   12  C4  UNL     1      10.432   9.531   4.920  1.00  0.00     0.150 C 
HETATM   13  C5  UNL     1       9.174  10.043   4.220  1.00  0.00     0.187 C 
HETATM   14  O1  UNL     1       9.042   9.399   3.007  1.00  0.00    -0.388 OA
HETATM   15  C6  UNL     1       9.419   8.079   3.023  1.00  0.00     0.187 C 
HETATM   16  C7  UNL     1       9.251   7.455   4.433  1.00  0.00     0.150 C 
ENDBRANCH   4  11
BRANCH  10  17
HETATM   17  N8  UNL     1      10.055   5.788   9.511  1.00  0.00    -0.384 N 
ATOM     18  H82 UNL     1       9.447   6.146  10.248  1.00  0.00     0.157 HD
ATOM     19  H81 UNL     1      10.179   4.780   9.412  1.00  0.00     0.157 HD
ENDBRANCH  10  17
BRANCH   7  20
HETATM   20  S1  UNL     1      14.118   8.442   8.406  1.00  0.00    -0.087 SA
BRANCH  20  21
HETATM   21  C9  UNL     1      15.229   8.132   7.024  1.00  0.00     0.156 C 
BRANCH  21  22
HETATM   22  C10 UNL     1      16.299   7.218   7.443  1.00  0.00     0.116 C 
HETATM   23  N4  UNL     1      17.456   7.074   6.669  1.00  0.00    -0.085 NA
BRANCH  22  24
HETATM   24  N5  UNL     1      16.162   6.553   8.529  1.00  0.00    -0.297 N 
ATOM     25  H5  UNL     1      15.242   6.561   8.970  1.00  0.00     0.187 HD
BRANCH  24  26
HETATM   26  N6  UNL     1      17.155   5.827   9.149  1.00  0.00    -0.344 N 
ATOM     27  H62 UNL     1      17.865   5.420   8.539  1.00  0.00     0.176 HD
ATOM     28  H61 UNL     1      17.231   5.671  10.154  1.00  0.00     0.176 HD
ENDBRANCH  24  26
ENDBRANCH  22  24
ENDBRANCH  21  22
ENDBRANCH  20  21
ENDBRANCH   7  20
TORSDOF 7
ENDMDL
