MODEL 1
REMARK VINA RESULT: -7.719748432      0.000      0.000
REMARK  5 active torsions:
REMARK  status: ('A' for Active; 'I' for Inactive)
REMARK    1  A    between atoms: N1_8  and  C8_9 
REMARK    2  A    between atoms: N2_10  and  C9_12 
REMARK    3  A    between atoms: C13_18  and  O3_19 
REMARK    4  A    between atoms: C17_27  and  C18_28 
REMARK    5  A    between atoms: C18_28  and  C19_29 
ROOT
HETATM    1  C9  UNL     1       0.506  -7.367  21.859  1.00  0.00     0.270 A 
HETATM    2  O1  UNL     1       1.542  -8.098  22.516  1.00  0.00    -0.287 OA
HETATM    3  C10 UNL     1       1.958  -9.159  21.737  1.00  0.00     0.296 A 
HETATM    4  O2  UNL     1       2.900  -9.974  21.999  1.00  0.00    -0.259 OA
HETATM    5  C11 UNL     1       1.135  -9.212  20.524  1.00  0.00     0.060 A 
HETATM    6  C12 UNL     1       0.245  -8.151  20.632  1.00  0.00     0.042 A 
HETATM    7  C13 UNL     1      -0.684  -7.964  19.619  1.00  0.00     0.096 A 
HETATM    8  C14 UNL     1      -0.739  -8.803  18.512  1.00  0.00     0.060 A 
HETATM    9  S1  UNL     1      -1.749  -8.817  17.139  1.00  0.00    -0.036 SA
HETATM   10  C15 UNL     1      -1.319 -10.100  16.137  1.00  0.00     0.256 A 
HETATM   11  O4  UNL     1      -1.889 -10.362  15.048  1.00  0.00    -0.272 OA
HETATM   12  S2  UNL     1      -0.048 -10.780  17.006  1.00  0.00    -0.039 SA
HETATM   13  C16 UNL     1       0.155  -9.844  18.431  1.00  0.00     0.036 A 
HETATM   14  C17 UNL     1       1.099 -10.062  19.431  1.00  0.00    -0.022 A 
ENDROOT
BRANCH   1  15
HETATM   15  N2  UNL     1       1.076  -6.051  21.576  1.00  0.00    -0.355 N 
HETATM   16  C8  UNL     1       2.032  -5.638  22.296  1.00  0.00     0.180 C 
ATOM     17  H2  UNL     1       0.712  -5.478  20.815  1.00  0.00     0.163 HD
BRANCH  16  18
HETATM   18  N1  UNL     1       2.633  -4.360  22.067  1.00  0.00    -0.348 N 
HETATM   19  C2  UNL     1       3.375  -3.769  23.097  1.00  0.00     0.003 C 
HETATM   20  C1  UNL     1       2.885  -3.994  24.311  1.00  0.00     0.038 C 
HETATM   21  C3  UNL     1       4.593  -2.955  23.105  1.00  0.00     0.056 C 
HETATM   22  C4  UNL     1       5.136  -2.537  21.796  1.00  0.00     0.006 C 
HETATM   23  C5  UNL     1       4.755  -3.421  20.633  1.00  0.00     0.002 C 
HETATM   24  C6  UNL     1       3.380  -2.922  20.193  1.00  0.00     0.020 C 
HETATM   25  C7  UNL     1       2.369  -3.861  20.742  1.00  0.00     0.130 C 
ENDBRANCH  16  18
ENDBRANCH   1  15
BRANCH   7  26
HETATM   26  O3  UNL     1      -1.613  -6.931  19.652  1.00  0.00    -0.359 OA
ATOM     27  H3  UNL     1      -2.176  -6.736  18.913  1.00  0.00     0.217 HD
ENDBRANCH   7  26
BRANCH  14  28
HETATM   28  C18 UNL     1       2.038 -11.202  19.366  1.00  0.00     0.041 C 
BRANCH  28  29
HETATM   29  C19 UNL     1       1.630 -12.403  20.150  1.00  0.00     0.000 C 
HETATM   30  C20 UNL     1       2.920 -13.159  20.496  1.00  0.00     0.005 C 
ENDBRANCH  28  29
ENDBRANCH  14  28
TORSDOF 5
ENDMDL
MODEL 2
REMARK VINA RESULT: -7.706641192      3.898      8.535
REMARK  5 active torsions:
REMARK  status: ('A' for Active; 'I' for Inactive)
REMARK    1  A    between atoms: N1_8  and  C8_9 
REMARK    2  A    between atoms: N2_10  and  C9_12 
REMARK    3  A    between atoms: C13_18  and  O3_19 
REMARK    4  A    between atoms: C17_27  and  C18_28 
REMARK    5  A    between atoms: C18_28  and  C19_29 
ROOT
HETATM    1  C9  UNL     1       1.100  -5.017  20.943  1.00  0.00     0.270 A 
HETATM    2  O1  UNL     1       1.605  -4.402  19.758  1.00  0.00    -0.287 OA
HETATM    3  C10 UNL     1       2.817  -3.791  20.004  1.00  0.00     0.296 A 
HETATM    4  O2  UNL     1       3.561  -3.202  19.156  1.00  0.00    -0.259 OA
HETATM    5  C11 UNL     1       3.137  -3.923  21.429  1.00  0.00     0.060 A 
HETATM    6  C12 UNL     1       2.077  -4.630  21.984  1.00  0.00     0.042 A 
HETATM    7  C13 UNL     1       2.100  -4.890  23.346  1.00  0.00     0.096 A 
HETATM    8  C14 UNL     1       3.149  -4.467  24.155  1.00  0.00     0.060 A 
HETATM    9  S1  UNL     1       3.442  -4.640  25.826  1.00  0.00    -0.036 SA
HETATM   10  C15 UNL     1       4.904  -3.902  26.219  1.00  0.00     0.256 A 
HETATM   11  O4  UNL     1       5.384  -3.868  27.380  1.00  0.00    -0.272 OA
HETATM   12  S2  UNL     1       5.392  -3.324  24.714  1.00  0.00    -0.039 SA
HETATM   13  C16 UNL     1       4.184  -3.772  23.579  1.00  0.00     0.036 A 
HETATM   14  C17 UNL     1       4.192  -3.490  22.215  1.00  0.00    -0.022 A 
ENDROOT
BRANCH   1  15
HETATM   15  N2  UNL     1       1.106  -6.453  20.670  1.00  0.00    -0.355 N 
HETATM   16  C8  UNL     1       0.249  -6.920  19.865  1.00  0.00     0.180 C 
ATOM     17  H2  UNL     1       1.786  -7.066  21.121  1.00  0.00     0.163 HD
BRANCH  16  18
HETATM   18  N1  UNL     1       0.206  -8.316  19.556  1.00  0.00    -0.348 N 
HETATM   19  C2  UNL     1      -0.757  -8.777  18.649  1.00  0.00     0.003 C 
HETATM   20  C1  UNL     1      -1.921  -8.143  18.731  1.00  0.00     0.038 C 
HETATM   21  C3  UNL     1      -0.735  -9.818  17.619  1.00  0.00     0.056 C 
HETATM   22  C4  UNL     1       0.470 -10.669  17.542  1.00  0.00     0.006 C 
HETATM   23  C5  UNL     1       1.728 -10.049  18.100  1.00  0.00     0.002 C 
HETATM   24  C6  UNL     1       1.666 -10.317  19.603  1.00  0.00     0.020 C 
HETATM   25  C7  UNL     1       1.215  -9.064  20.260  1.00  0.00     0.130 C 
ENDBRANCH  16  18
ENDBRANCH   1  15
BRANCH   7  26
HETATM   26  O3  UNL     1       1.078  -5.586  23.981  1.00  0.00    -0.359 OA
ATOM     27  H3  UNL     1       1.127  -6.521  24.138  1.00  0.00     0.217 HD
ENDBRANCH   7  26
BRANCH  14  28
HETATM   28  C18 UNL     1       5.285  -2.711  21.599  1.00  0.00     0.041 C 
BRANCH  28  29
HETATM   29  C19 UNL     1       5.148  -1.230  21.712  1.00  0.00     0.000 C 
HETATM   30  C20 UNL     1       5.236  -0.671  20.285  1.00  0.00     0.005 C 
ENDBRANCH  28  29
ENDBRANCH  14  28
TORSDOF 5
ENDMDL
MODEL 3
REMARK VINA RESULT: -7.646437194      3.327      7.723
REMARK  5 active torsions:
REMARK  status: ('A' for Active; 'I' for Inactive)
REMARK    1  A    between atoms: N1_8  and  C8_9 
REMARK    2  A    between atoms: N2_10  and  C9_12 
REMARK    3  A    between atoms: C13_18  and  O3_19 
REMARK    4  A    between atoms: C17_27  and  C18_28 
REMARK    5  A    between atoms: C18_28  and  C19_29 
ROOT
HETATM    1  C9  UNL     1       1.941 -11.455  20.475  1.00  0.00     0.270 A 
HETATM    2  O1  UNL     1       2.464 -10.739  21.594  1.00  0.00    -0.287 OA
HETATM    3  C10 UNL     1       1.866  -9.501  21.703  1.00  0.00     0.296 A 
HETATM    4  O2  UNL     1       2.059  -8.638  22.618  1.00  0.00    -0.259 OA
HETATM    5  C11 UNL     1       0.942  -9.316  20.579  1.00  0.00     0.060 A 
HETATM    6  C12 UNL     1       1.028 -10.485  19.832  1.00  0.00     0.042 A 
HETATM    7  C13 UNL     1       0.265 -10.587  18.678  1.00  0.00     0.096 A 
HETATM    8  C14 UNL     1      -0.575  -9.560  18.262  1.00  0.00     0.060 A 
HETATM    9  S1  UNL     1      -1.612  -9.408  16.917  1.00  0.00    -0.036 SA
HETATM   10  C15 UNL     1      -2.374  -7.907  16.962  1.00  0.00     0.256 A 
HETATM   11  O4  UNL     1      -3.197  -7.511  16.099  1.00  0.00    -0.272 OA
HETATM   12  S2  UNL     1      -1.721  -7.252  18.370  1.00  0.00    -0.039 SA
HETATM   13  C16 UNL     1      -0.641  -8.417  19.021  1.00  0.00     0.036 A 
HETATM   14  C17 UNL     1       0.113  -8.279  20.184  1.00  0.00    -0.022 A 
ENDROOT
BRANCH   1  15
HETATM   15  N2  UNL     1       1.235 -12.603  21.041  1.00  0.00    -0.355 N 
HETATM   16  C8  UNL     1       1.871 -13.388  21.803  1.00  0.00     0.180 C 
ATOM     17  H2  UNL     1       0.251 -12.768  20.826  1.00  0.00     0.163 HD
BRANCH  16  18
HETATM   18  N1  UNL     1       1.235 -14.528  22.389  1.00  0.00    -0.348 N 
HETATM   19  C2  UNL     1       1.828 -15.787  22.232  1.00  0.00     0.003 C 
HETATM   20  C1  UNL     1       2.412 -15.964  21.053  1.00  0.00     0.038 C 
HETATM   21  C3  UNL     1       1.942 -16.949  23.116  1.00  0.00     0.056 C 
HETATM   22  C4  UNL     1       1.210 -16.900  24.398  1.00  0.00     0.006 C 
HETATM   23  C5  UNL     1       0.914 -15.511  24.913  1.00  0.00     0.002 C 
HETATM   24  C6  UNL     1      -0.367 -15.089  24.194  1.00  0.00     0.020 C 
HETATM   25  C7  UNL     1       0.023 -14.180  23.087  1.00  0.00     0.130 C 
ENDBRANCH  16  18
ENDBRANCH   1  15
BRANCH   7  26
HETATM   26  O3  UNL     1       0.296 -11.718  17.871  1.00  0.00    -0.359 OA
ATOM     27  H3  UNL     1      -0.079 -11.725  16.999  1.00  0.00     0.217 HD
ENDBRANCH   7  26
BRANCH  14  28
HETATM   28  C18 UNL     1       0.073  -7.037  20.983  1.00  0.00     0.041 C 
BRANCH  28  29
HETATM   29  C19 UNL     1       1.055  -5.991  20.577  1.00  0.00     0.000 C 
HETATM   30  C20 UNL     1       1.450  -5.240  21.856  1.00  0.00     0.005 C 
ENDBRANCH  28  29
ENDBRANCH  14  28
TORSDOF 5
ENDMDL
MODEL 4
REMARK VINA RESULT: -7.525725645      3.431      7.121
REMARK  5 active torsions:
REMARK  status: ('A' for Active; 'I' for Inactive)
REMARK    1  A    between atoms: N1_8  and  C8_9 
REMARK    2  A    between atoms: N2_10  and  C9_12 
REMARK    3  A    between atoms: C13_18  and  O3_19 
REMARK    4  A    between atoms: C17_27  and  C18_28 
REMARK    5  A    between atoms: C18_28  and  C19_29 
ROOT
HETATM    1  C9  UNL     1       2.394 -11.092  20.906  1.00  0.00     0.270 A 
HETATM    2  O1  UNL     1       2.911 -10.199  21.892  1.00  0.00    -0.287 OA
HETATM    3  C10 UNL     1       2.216  -9.007  21.881  1.00  0.00     0.296 A 
HETATM    4  O2  UNL     1       2.383  -8.019  22.666  1.00  0.00    -0.259 OA
HETATM    5  C11 UNL     1       1.223  -9.043  20.802  1.00  0.00     0.060 A 
HETATM    6  C12 UNL     1       1.369 -10.288  20.204  1.00  0.00     0.042 A 
HETATM    7  C13 UNL     1       0.559 -10.599  19.122  1.00  0.00     0.096 A 
HETATM    8  C14 UNL     1      -0.385  -9.704  18.633  1.00  0.00     0.060 A 
HETATM    9  S1  UNL     1      -1.499  -9.809  17.346  1.00  0.00    -0.036 SA
HETATM   10  C15 UNL     1      -2.382  -8.379  17.250  1.00  0.00     0.256 A 
HETATM   11  O4  UNL     1      -3.279  -8.164  16.396  1.00  0.00    -0.272 OA
HETATM   12  S2  UNL     1      -1.715  -7.497  18.520  1.00  0.00    -0.039 SA
HETATM   13  C16 UNL     1      -0.509  -8.480  19.245  1.00  0.00     0.036 A 
HETATM   14  C17 UNL     1       0.290  -8.134  20.332  1.00  0.00    -0.022 A 
ENDROOT
BRANCH   1  15
HETATM   15  N2  UNL     1       1.818 -12.209  21.655  1.00  0.00    -0.355 N 
HETATM   16  C8  UNL     1       2.369 -12.558  22.739  1.00  0.00     0.180 C 
ATOM     17  H2  UNL     1       0.990 -12.695  21.311  1.00  0.00     0.163 HD
BRANCH  16  18
HETATM   18  N1  UNL     1       1.851 -13.641  23.517  1.00  0.00    -0.348 N 
HETATM   19  C2  UNL     1       1.816 -13.514  24.912  1.00  0.00     0.003 C 
HETATM   20  C1  UNL     1       2.848 -12.849  25.418  1.00  0.00     0.038 C 
HETATM   21  C3  UNL     1       0.860 -13.961  25.927  1.00  0.00     0.056 C 
HETATM   22  C4  UNL     1      -0.251 -14.825  25.478  1.00  0.00     0.006 C 
HETATM   23  C5  UNL     1      -0.617 -14.689  24.019  1.00  0.00     0.002 C 
HETATM   24  C6  UNL     1       0.359 -15.605  23.282  1.00  0.00     0.020 C 
HETATM   25  C7  UNL     1       1.422 -14.747  22.700  1.00  0.00     0.130 C 
ENDBRANCH  16  18
ENDBRANCH   1  15
BRANCH   7  26
HETATM   26  O3  UNL     1       0.645 -11.820  18.464  1.00  0.00    -0.359 OA
ATOM     27  H3  UNL     1       0.398 -11.919  17.552  1.00  0.00     0.217 HD
ENDBRANCH   7  26
BRANCH  14  28
HETATM   28  C18 UNL     1       0.186  -6.804  20.969  1.00  0.00     0.041 C 
BRANCH  28  29
HETATM   29  C19 UNL     1       1.078  -5.756  20.396  1.00  0.00     0.000 C 
HETATM   30  C20 UNL     1       1.470  -4.831  21.556  1.00  0.00     0.005 C 
ENDBRANCH  28  29
ENDBRANCH  14  28
TORSDOF 5
ENDMDL
MODEL 5
REMARK VINA RESULT: -7.318289325      1.820      2.180
REMARK  5 active torsions:
REMARK  status: ('A' for Active; 'I' for Inactive)
REMARK    1  A    between atoms: N1_8  and  C8_9 
REMARK    2  A    between atoms: N2_10  and  C9_12 
REMARK    3  A    between atoms: C13_18  and  O3_19 
REMARK    4  A    between atoms: C17_27  and  C18_28 
REMARK    5  A    between atoms: C18_28  and  C19_29 
ROOT
HETATM    1  C9  UNL     1       1.403  -6.474  22.917  1.00  0.00     0.270 A 
HETATM    2  O1  UNL     1       2.154  -7.016  24.002  1.00  0.00    -0.287 OA
HETATM    3  C10 UNL     1       2.563  -8.302  23.717  1.00  0.00     0.296 A 
HETATM    4  O2  UNL     1       3.295  -9.049  24.443  1.00  0.00    -0.259 OA
HETATM    5  C11 UNL     1       2.019  -8.699  22.414  1.00  0.00     0.060 A 
HETATM    6  C12 UNL     1       1.295  -7.601  21.965  1.00  0.00     0.042 A 
HETATM    7  C13 UNL     1       0.642  -7.697  20.745  1.00  0.00     0.096 A 
HETATM    8  C14 UNL     1       0.699  -8.851  19.972  1.00  0.00     0.060 A 
HETATM    9  S1  UNL     1       0.014  -9.248  18.462  1.00  0.00    -0.036 SA
HETATM   10  C15 UNL     1       0.451 -10.820  18.043  1.00  0.00     0.256 A 
HETATM   11  O4  UNL     1       0.093 -11.389  16.982  1.00  0.00    -0.272 OA
HETATM   12  S2  UNL     1       1.392 -11.261  19.368  1.00  0.00    -0.039 SA
HETATM   13  C16 UNL     1       1.424  -9.920  20.440  1.00  0.00     0.036 A 
HETATM   14  C17 UNL     1       2.090  -9.859  21.662  1.00  0.00    -0.022 A 
ENDROOT
BRANCH   1  15
HETATM   15  N2  UNL     1       2.211  -5.372  22.395  1.00  0.00    -0.355 N 
HETATM   16  C8  UNL     1       1.656  -4.249  22.211  1.00  0.00     0.180 C 
ATOM     17  H2  UNL     1       3.200  -5.505  22.185  1.00  0.00     0.163 HD
BRANCH  16  18
HETATM   18  N1  UNL     1       2.394  -3.133  21.706  1.00  0.00    -0.348 N 
HETATM   19  C2  UNL     1       2.709  -2.082  22.577  1.00  0.00     0.003 C 
HETATM   20  C1  UNL     1       1.763  -1.822  23.472  1.00  0.00     0.038 C 
HETATM   21  C3  UNL     1       3.882  -1.215  22.705  1.00  0.00     0.056 C 
HETATM   22  C4  UNL     1       4.930  -1.335  21.671  1.00  0.00     0.006 C 
HETATM   23  C5  UNL     1       4.976  -2.667  20.958  1.00  0.00     0.002 C 
HETATM   24  C6  UNL     1       3.930  -2.556  19.850  1.00  0.00     0.020 C 
HETATM   25  C7  UNL     1       2.716  -3.276  20.309  1.00  0.00     0.130 C 
ENDBRANCH  16  18
ENDBRANCH   1  15
BRANCH   7  26
HETATM   26  O3  UNL     1      -0.108  -6.648  20.226  1.00  0.00    -0.359 OA
ATOM     27  H3  UNL     1      -0.837  -6.266  20.701  1.00  0.00     0.217 HD
ENDBRANCH   7  26
BRANCH  14  28
HETATM   28  C18 UNL     1       2.840 -11.020  22.186  1.00  0.00     0.041 C 
BRANCH  28  29
HETATM   29  C19 UNL     1       4.298 -11.023  21.875  1.00  0.00     0.000 C 
HETATM   30  C20 UNL     1       4.980 -11.844  22.978  1.00  0.00     0.005 C 
ENDBRANCH  28  29
ENDBRANCH  14  28
TORSDOF 5
ENDMDL
