MODEL 1
REMARK VINA RESULT: -9.770189427      0.000      0.000
REMARK  5 active torsions:
REMARK  status: ('A' for Active; 'I' for Inactive)
REMARK    1  A    between atoms: C5_5  and  C6_6 
REMARK       I    between atoms: C6_6  and  N1_8 
REMARK    2  A    between atoms: N1_8  and  C7_10 
REMARK    3  A    between atoms: C14_19  and  N3_20 
REMARK    4  A    between atoms: C21_28  and  N4_29 
REMARK    5  A    between atoms: N4_29  and  O4_31 
ROOT
HETATM    1  C7  UNL     1       1.278  -5.456  21.181  1.00  0.00     0.087 A 
HETATM    2  C8  UNL     1       1.768  -5.604  22.457  1.00  0.00     0.074 A 
HETATM    3  C9  UNL     1       1.247  -6.676  23.243  1.00  0.00     0.102 C 
HETATM    4  N2  UNL     1       0.839  -7.536  23.894  1.00  0.00    -0.191 NA
HETATM    5  C10 UNL     1       2.727  -4.733  22.933  1.00  0.00     0.043 A 
HETATM    6  C11 UNL     1       3.188  -3.707  22.103  1.00  0.00     0.052 A 
HETATM    7  C12 UNL     1       4.138  -2.849  22.580  1.00  0.00     0.189 A 
HETATM    8  O2  UNL     1       4.567  -3.008  23.749  1.00  0.00    -0.287 OA
HETATM    9  C13 UNL     1       4.578  -1.845  21.744  1.00  0.00     0.112 A 
HETATM   10  C14 UNL     1       4.052  -1.733  20.455  1.00  0.00     0.150 A 
HETATM   11  O3  UNL     1       3.141  -2.576  20.030  1.00  0.00    -0.290 OA
HETATM   12  C20 UNL     1       2.715  -3.535  20.819  1.00  0.00     0.122 A 
HETATM   13  C21 UNL     1       1.747  -4.433  20.371  1.00  0.00     0.117 A 
ENDROOT
BRANCH   1  14
HETATM   14  N1  UNL     1       0.303  -6.344  20.704  1.00  0.00    -0.323 N 
HETATM   15  C6  UNL     1       0.451  -7.371  19.785  1.00  0.00     0.226 C 
HETATM   16  O1  UNL     1       1.583  -7.574  19.283  1.00  0.00    -0.273 OA
ATOM     17  H1  UNL     1      -0.636  -6.219  21.083  1.00  0.00     0.169 HD
BRANCH  15  18
HETATM   18  C5  UNL     1      -0.657  -8.243  19.361  1.00  0.00     0.078 C 
HETATM   19  C4  UNL     1      -0.362  -8.979  18.072  1.00  0.00     0.014 C 
HETATM   20  C3  UNL     1      -1.621  -9.802  17.767  1.00  0.00     0.005 C 
HETATM   21  C2  UNL     1      -2.584  -8.807  17.109  1.00  0.00    -0.019 C 
HETATM   22  C1  UNL     1      -2.212  -8.766  15.638  1.00  0.00     0.010 C 
HETATM   23  C23 UNL     1      -2.349  -7.429  17.689  1.00  0.00     0.005 C 
HETATM   24  C22 UNL     1      -1.944  -7.482  19.140  1.00  0.00     0.014 C 
ENDBRANCH  15  18
ENDBRANCH   1  14
BRANCH  13  25
HETATM   25  N4  UNL     1       1.239  -4.277  19.044  1.00  0.00    -0.264 N 
ATOM     26  H4  UNL     1       1.222  -5.055  18.384  1.00  0.00     0.194 HD
BRANCH  25  27
HETATM   27  O4  UNL     1       0.814  -3.138  18.728  1.00  0.00    -0.289 OA
ATOM     28  H4  UNL     1       0.425  -3.048  17.865  1.00  0.00     0.244 HD
ENDBRANCH  25  27
ENDBRANCH  13  25
BRANCH  10  29
HETATM   29  N3  UNL     1       4.555  -0.677  19.659  1.00  0.00    -0.356 N 
HETATM   30  C15 UNL     1       4.576  -0.697  18.202  1.00  0.00     0.130 C 
HETATM   31  C16 UNL     1       5.232   0.634  17.978  1.00  0.00     0.007 C 
HETATM   32  C17 UNL     1       4.486   1.515  18.980  1.00  0.00     0.031 C 
HETATM   33  C19 UNL     1       6.337   0.609  19.041  1.00  0.00     0.031 C 
HETATM   34  C18 UNL     1       5.128   0.581  19.991  1.00  0.00     0.087 C 
ENDBRANCH  10  29
TORSDOF 5
ENDMDL
MODEL 2
REMARK VINA RESULT: -8.613768858      1.943      2.567
REMARK  5 active torsions:
REMARK  status: ('A' for Active; 'I' for Inactive)
REMARK    1  A    between atoms: C5_5  and  C6_6 
REMARK       I    between atoms: C6_6  and  N1_8 
REMARK    2  A    between atoms: N1_8  and  C7_10 
REMARK    3  A    between atoms: C14_19  and  N3_20 
REMARK    4  A    between atoms: C21_28  and  N4_29 
REMARK    5  A    between atoms: N4_29  and  O4_31 
ROOT
HETATM    1  C7  UNL     1       0.658  -7.389  21.517  1.00  0.00     0.087 A 
HETATM    2  C8  UNL     1       1.014  -7.967  22.713  1.00  0.00     0.074 A 
HETATM    3  C9  UNL     1       0.553  -9.294  22.968  1.00  0.00     0.102 C 
HETATM    4  N2  UNL     1       0.189 -10.365  23.192  1.00  0.00    -0.191 NA
HETATM    5  C10 UNL     1       1.790  -7.266  23.614  1.00  0.00     0.043 A 
HETATM    6  C11 UNL     1       2.204  -5.969  23.293  1.00  0.00     0.052 A 
HETATM    7  C12 UNL     1       2.972  -5.282  24.189  1.00  0.00     0.189 A 
HETATM    8  O2  UNL     1       3.282  -5.834  25.272  1.00  0.00    -0.287 OA
HETATM    9  C13 UNL     1       3.369  -4.005  23.851  1.00  0.00     0.112 A 
HETATM   10  C14 UNL     1       2.983  -3.458  22.625  1.00  0.00     0.150 A 
HETATM   11  O3  UNL     1       2.245  -4.149  21.789  1.00  0.00    -0.290 OA
HETATM   12  C20 UNL     1       1.862  -5.365  22.101  1.00  0.00     0.122 A 
HETATM   13  C21 UNL     1       1.078  -6.103  21.216  1.00  0.00     0.117 A 
ENDROOT
BRANCH   1  14
HETATM   14  N1  UNL     1      -0.131  -8.107  20.607  1.00  0.00    -0.323 N 
HETATM   15  C6  UNL     1       0.237  -8.633  19.379  1.00  0.00     0.226 C 
HETATM   16  O1  UNL     1       1.416  -8.475  18.983  1.00  0.00    -0.273 OA
ATOM     17  H1  UNL     1      -1.100  -8.262  20.885  1.00  0.00     0.169 HD
BRANCH  15  18
HETATM   18  C5  UNL     1      -0.690  -9.374  18.507  1.00  0.00     0.078 C 
HETATM   19  C4  UNL     1      -0.325  -9.269  17.042  1.00  0.00     0.014 C 
HETATM   20  C3  UNL     1      -1.401 -10.061  16.288  1.00  0.00     0.005 C 
HETATM   21  C2  UNL     1      -2.587  -9.095  16.177  1.00  0.00    -0.019 C 
HETATM   22  C1  UNL     1      -2.318  -8.232  14.958  1.00  0.00     0.010 C 
HETATM   23  C23 UNL     1      -2.609  -8.193  17.393  1.00  0.00     0.005 C 
HETATM   24  C22 UNL     1      -2.118  -8.895  18.633  1.00  0.00     0.014 C 
ENDBRANCH  15  18
ENDBRANCH   1  14
BRANCH  13  25
HETATM   25  N4  UNL     1       0.708  -5.500  19.974  1.00  0.00    -0.264 N 
ATOM     26  H4  UNL     1      -0.247  -5.186  19.796  1.00  0.00     0.194 HD
BRANCH  25  27
HETATM   27  O4  UNL     1       1.612  -5.373  19.110  1.00  0.00    -0.289 OA
ATOM     28  H4  UNL     1       2.302  -6.027  19.111  1.00  0.00     0.244 HD
ENDBRANCH  25  27
ENDBRANCH  13  25
BRANCH  10  29
HETATM   29  N3  UNL     1       3.431  -2.144  22.354  1.00  0.00    -0.356 N 
HETATM   30  C15 UNL     1       3.748  -1.655  21.018  1.00  0.00     0.130 C 
HETATM   31  C16 UNL     1       4.177  -0.266  21.394  1.00  0.00     0.007 C 
HETATM   32  C17 UNL     1       3.093   0.126  22.399  1.00  0.00     0.031 C 
HETATM   33  C19 UNL     1       5.029  -0.540  22.639  1.00  0.00     0.031 C 
HETATM   34  C18 UNL     1       3.680  -1.026  23.195  1.00  0.00     0.087 C 
ENDBRANCH  10  29
TORSDOF 5
ENDMDL
MODEL 3
REMARK VINA RESULT: -8.520910041      1.798      8.207
REMARK  5 active torsions:
REMARK  status: ('A' for Active; 'I' for Inactive)
REMARK    1  A    between atoms: C5_5  and  C6_6 
REMARK       I    between atoms: C6_6  and  N1_8 
REMARK    2  A    between atoms: N1_8  and  C7_10 
REMARK    3  A    between atoms: C14_19  and  N3_20 
REMARK    4  A    between atoms: C21_28  and  N4_29 
REMARK    5  A    between atoms: N4_29  and  O4_31 
ROOT
HETATM    1  C7  UNL     1       2.946  -3.986  21.454  1.00  0.00     0.087 A 
HETATM    2  C8  UNL     1       2.957  -4.600  22.684  1.00  0.00     0.074 A 
HETATM    3  C9  UNL     1       3.781  -4.028  23.699  1.00  0.00     0.102 C 
HETATM    4  N2  UNL     1       4.441  -3.581  24.532  1.00  0.00    -0.191 NA
HETATM    5  C10 UNL     1       2.188  -5.727  22.900  1.00  0.00     0.043 A 
HETATM    6  C11 UNL     1       1.405  -6.228  21.856  1.00  0.00     0.052 A 
HETATM    7  C12 UNL     1       0.647  -7.342  22.077  1.00  0.00     0.189 A 
HETATM    8  O2  UNL     1       0.677  -7.882  23.210  1.00  0.00    -0.287 OA
HETATM    9  C13 UNL     1      -0.117  -7.819  21.033  1.00  0.00     0.112 A 
HETATM   10  C14 UNL     1      -0.097  -7.164  19.800  1.00  0.00     0.150 A 
HETATM   11  O3  UNL     1       0.644  -6.095  19.625  1.00  0.00    -0.290 OA
HETATM   12  C20 UNL     1       1.375  -5.633  20.612  1.00  0.00     0.122 A 
HETATM   13  C21 UNL     1       2.163  -4.498  20.430  1.00  0.00     0.117 A 
ENDROOT
BRANCH   1  14
HETATM   14  N1  UNL     1       3.729  -2.843  21.242  1.00  0.00    -0.323 N 
HETATM   15  C6  UNL     1       3.459  -1.535  21.610  1.00  0.00     0.226 C 
HETATM   16  O1  UNL     1       2.388  -1.287  22.214  1.00  0.00    -0.273 OA
ATOM     17  H1  UNL     1       4.612  -2.994  20.753  1.00  0.00     0.169 HD
BRANCH  15  18
HETATM   18  C5  UNL     1       4.367  -0.411  21.329  1.00  0.00     0.078 C 
HETATM   19  C4  UNL     1       3.630   0.873  21.018  1.00  0.00     0.014 C 
HETATM   20  C3  UNL     1       4.718   1.915  20.720  1.00  0.00     0.005 C 
HETATM   21  C2  UNL     1       5.113   1.657  19.262  1.00  0.00    -0.019 C 
HETATM   22  C1  UNL     1       4.108   2.412  18.410  1.00  0.00     0.010 C 
HETATM   23  C23 UNL     1       4.965   0.181  18.959  1.00  0.00     0.005 C 
HETATM   24  C22 UNL     1       5.281  -0.681  20.155  1.00  0.00     0.014 C 
ENDBRANCH  15  18
ENDBRANCH   1  14
BRANCH  13  25
HETATM   25  N4  UNL     1       2.151  -3.862  19.150  1.00  0.00    -0.264 N 
ATOM     26  H4  UNL     1       2.994  -3.793  18.580  1.00  0.00     0.194 HD
BRANCH  25  27
HETATM   27  O4  UNL     1       1.053  -3.392  18.758  1.00  0.00    -0.289 OA
ATOM     28  H4  UNL     1       0.845  -3.496  17.837  1.00  0.00     0.244 HD
ENDBRANCH  25  27
ENDBRANCH  13  25
BRANCH  10  29
HETATM   29  N3  UNL     1      -0.908  -7.715  18.781  1.00  0.00    -0.356 N 
HETATM   30  C15 UNL     1      -1.837  -6.935  17.972  1.00  0.00     0.130 C 
HETATM   31  C16 UNL     1      -2.389  -8.056  17.139  1.00  0.00     0.007 C 
HETATM   32  C17 UNL     1      -1.118  -8.827  16.783  1.00  0.00     0.031 C 
HETATM   33  C19 UNL     1      -2.584  -9.150  18.196  1.00  0.00     0.031 C 
HETATM   34  C18 UNL     1      -1.053  -9.040  18.286  1.00  0.00     0.087 C 
ENDBRANCH  10  29
TORSDOF 5
ENDMDL
MODEL 4
REMARK VINA RESULT: -8.493459792      2.868      8.323
REMARK  5 active torsions:
REMARK  status: ('A' for Active; 'I' for Inactive)
REMARK    1  A    between atoms: C5_5  and  C6_6 
REMARK       I    between atoms: C6_6  and  N1_8 
REMARK    2  A    between atoms: N1_8  and  C7_10 
REMARK    3  A    between atoms: C14_19  and  N3_20 
REMARK    4  A    between atoms: C21_28  and  N4_29 
REMARK    5  A    between atoms: N4_29  and  O4_31 
ROOT
HETATM    1  C7  UNL     1       1.539  -7.260  21.774  1.00  0.00     0.087 A 
HETATM    2  C8  UNL     1       1.761  -8.562  22.158  1.00  0.00     0.074 A 
HETATM    3  C9  UNL     1       2.559  -8.778  23.321  1.00  0.00     0.102 C 
HETATM    4  N2  UNL     1       3.202  -8.974  24.258  1.00  0.00    -0.191 NA
HETATM    5  C10 UNL     1       1.220  -9.600  21.426  1.00  0.00     0.043 A 
HETATM    6  C11 UNL     1       0.448  -9.308  20.297  1.00  0.00     0.052 A 
HETATM    7  C12 UNL     1      -0.086 -10.339  19.579  1.00  0.00     0.189 A 
HETATM    8  O2  UNL     1       0.134 -11.517  19.952  1.00  0.00    -0.287 OA
HETATM    9  C13 UNL     1      -0.843 -10.028  18.470  1.00  0.00     0.112 A 
HETATM   10  C14 UNL     1      -1.042  -8.691  18.116  1.00  0.00     0.150 A 
HETATM   11  O3  UNL     1      -0.515  -7.726  18.831  1.00  0.00    -0.290 OA
HETATM   12  C20 UNL     1       0.208  -8.012  19.889  1.00  0.00     0.122 A 
HETATM   13  C21 UNL     1       0.771  -6.990  20.652  1.00  0.00     0.117 A 
ENDROOT
BRANCH   1  14
HETATM   14  N1  UNL     1       2.092  -6.212  22.522  1.00  0.00    -0.323 N 
HETATM   15  C6  UNL     1       1.612  -5.641  23.690  1.00  0.00     0.226 C 
HETATM   16  O1  UNL     1       0.547  -6.083  24.183  1.00  0.00    -0.273 OA
ATOM     17  H1  UNL     1       2.961  -5.818  22.159  1.00  0.00     0.169 HD
BRANCH  15  18
HETATM   18  C5  UNL     1       2.288  -4.535  24.388  1.00  0.00     0.078 C 
HETATM   19  C4  UNL     1       1.890  -3.177  23.854  1.00  0.00     0.014 C 
HETATM   20  C3  UNL     1       2.706  -2.158  24.662  1.00  0.00     0.005 C 
HETATM   21  C2  UNL     1       4.084  -2.143  23.990  1.00  0.00    -0.019 C 
HETATM   22  C1  UNL     1       3.975  -1.181  22.821  1.00  0.00     0.010 C 
HETATM   23  C23 UNL     1       4.382  -3.520  23.436  1.00  0.00     0.005 C 
HETATM   24  C22 UNL     1       3.794  -4.617  24.286  1.00  0.00     0.014 C 
ENDBRANCH  15  18
ENDBRANCH   1  14
BRANCH  13  25
HETATM   25  N4  UNL     1       0.538  -5.638  20.250  1.00  0.00    -0.264 N 
ATOM     26  H4  UNL     1      -0.015  -4.999  20.821  1.00  0.00     0.194 HD
BRANCH  25  27
HETATM   27  O4  UNL     1       1.047  -5.272  19.161  1.00  0.00    -0.289 OA
ATOM     28  H4  UNL     1       1.283  -5.956  18.545  1.00  0.00     0.244 HD
ENDBRANCH  25  27
ENDBRANCH  13  25
BRANCH  10  29
HETATM   29  N3  UNL     1      -1.831  -8.455  16.966  1.00  0.00    -0.356 N 
HETATM   30  C15 UNL     1      -1.946  -9.391  15.854  1.00  0.00     0.130 C 
HETATM   31  C16 UNL     1      -2.855  -8.577  14.981  1.00  0.00     0.007 C 
HETATM   32  C17 UNL     1      -3.875  -8.064  15.997  1.00  0.00     0.031 C 
HETATM   33  C19 UNL     1      -2.234  -7.181  15.115  1.00  0.00     0.031 C 
HETATM   34  C18 UNL     1      -2.659  -7.366  16.582  1.00  0.00     0.087 C 
ENDBRANCH  10  29
TORSDOF 5
ENDMDL
MODEL 5
REMARK VINA RESULT: -8.479896854      3.550      8.454
REMARK  5 active torsions:
REMARK  status: ('A' for Active; 'I' for Inactive)
REMARK    1  A    between atoms: C5_5  and  C6_6 
REMARK       I    between atoms: C6_6  and  N1_8 
REMARK    2  A    between atoms: N1_8  and  C7_10 
REMARK    3  A    between atoms: C14_19  and  N3_20 
REMARK    4  A    between atoms: C21_28  and  N4_29 
REMARK    5  A    between atoms: N4_29  and  O4_31 
ROOT
HETATM    1  C7  UNL     1       1.568  -7.387  21.797  1.00  0.00     0.087 A 
HETATM    2  C8  UNL     1       1.793  -8.699  22.143  1.00  0.00     0.074 A 
HETATM    3  C9  UNL     1       2.598  -8.948  23.295  1.00  0.00     0.102 C 
HETATM    4  N2  UNL     1       3.247  -9.169  24.222  1.00  0.00    -0.191 NA
HETATM    5  C10 UNL     1       1.247  -9.716  21.386  1.00  0.00     0.043 A 
HETATM    6  C11 UNL     1       0.468  -9.393  20.271  1.00  0.00     0.052 A 
HETATM    7  C12 UNL     1      -0.070 -10.404  19.527  1.00  0.00     0.189 A 
HETATM    8  O2  UNL     1       0.153 -11.592  19.866  1.00  0.00    -0.287 OA
HETATM    9  C13 UNL     1      -0.834 -10.063  18.432  1.00  0.00     0.112 A 
HETATM   10  C14 UNL     1      -1.036  -8.717  18.117  1.00  0.00     0.150 A 
HETATM   11  O3  UNL     1      -0.504  -7.772  18.856  1.00  0.00    -0.290 OA
HETATM   12  C20 UNL     1       0.225  -8.087  19.900  1.00  0.00     0.122 A 
HETATM   13  C21 UNL     1       0.792  -7.086  20.688  1.00  0.00     0.117 A 
ENDROOT
BRANCH   1  14
HETATM   14  N1  UNL     1       2.126  -6.360  22.570  1.00  0.00    -0.323 N 
HETATM   15  C6  UNL     1       1.638  -5.803  23.742  1.00  0.00     0.226 C 
HETATM   16  O1  UNL     1       0.560  -6.239  24.214  1.00  0.00    -0.273 OA
ATOM     17  H1  UNL     1       3.004  -5.971  22.226  1.00  0.00     0.169 HD
BRANCH  15  18
HETATM   18  C5  UNL     1       2.320  -4.719  24.468  1.00  0.00     0.078 C 
HETATM   19  C4  UNL     1       3.255  -3.922  23.585  1.00  0.00     0.014 C 
HETATM   20  C3  UNL     1       3.897  -2.871  24.501  1.00  0.00     0.005 C 
HETATM   21  C2  UNL     1       5.029  -3.620  25.216  1.00  0.00    -0.019 C 
HETATM   22  C1  UNL     1       6.221  -3.580  24.277  1.00  0.00     0.010 C 
HETATM   23  C23 UNL     1       4.628  -5.068  25.402  1.00  0.00     0.005 C 
HETATM   24  C22 UNL     1       3.146  -5.225  25.628  1.00  0.00     0.014 C 
ENDBRANCH  15  18
ENDBRANCH   1  14
BRANCH  13  25
HETATM   25  N4  UNL     1       0.558  -5.723  20.325  1.00  0.00    -0.264 N 
ATOM     26  H4  UNL     1       0.067  -5.082  20.949  1.00  0.00     0.194 HD
BRANCH  25  27
HETATM   27  O4  UNL     1       0.982  -5.351  19.202  1.00  0.00    -0.289 OA
ATOM     28  H4  UNL     1       0.508  -4.648  18.774  1.00  0.00     0.244 HD
ENDBRANCH  25  27
ENDBRANCH  13  25
BRANCH  10  29
HETATM   29  N3  UNL     1      -1.832  -8.449  16.979  1.00  0.00    -0.356 N 
HETATM   30  C15 UNL     1      -1.971  -9.363  15.852  1.00  0.00     0.130 C 
HETATM   31  C16 UNL     1      -2.877  -8.521  15.002  1.00  0.00     0.007 C 
HETATM   32  C17 UNL     1      -3.880  -8.011  16.037  1.00  0.00     0.031 C 
HETATM   33  C19 UNL     1      -2.234  -7.137  15.155  1.00  0.00     0.031 C 
HETATM   34  C18 UNL     1      -2.648  -7.341  16.622  1.00  0.00     0.087 C 
ENDBRANCH  10  29
TORSDOF 5
ENDMDL
