MODEL 1
REMARK VINA RESULT: -7.428595892      0.000      0.000
REMARK  8 active torsions:
REMARK  status: ('A' for Active; 'I' for Inactive)
REMARK    1  A    between atoms: C2_2  and  C3_3 
REMARK    2  A    between atoms: C3_3  and  C4_4 
REMARK    3  A    between atoms: C5_5  and  C6_6 
REMARK    4  A    between atoms: C6_6  and  C7_7 
REMARK       I    between atoms: C7_7  and  N1_9 
REMARK    5  A    between atoms: C11_14  and  O2_15 
REMARK    6  A    between atoms: C11_14  and  C12_17 
REMARK    7  A    between atoms: C12_17  and  N2_18 
REMARK       I    between atoms: N2_18  and  C13_20 
REMARK       I    between atoms: C13_20  and  N3_22 
REMARK    8  A    between atoms: N3_22  and  C14_24 
ROOT
HETATM    1  C6  UNL     1      19.128  10.731   3.619  1.00  0.00     0.105 C 
HETATM    2  C9  UNL     1      20.008  10.188   2.518  1.00  0.00     0.035 C 
HETATM    3  C10 UNL     1      20.164  11.160   1.369  1.00  0.00     0.043 C 
HETATM    4  C11 UNL     1      18.812  11.311   0.705  1.00  0.00     0.090 C 
HETATM    5  C16 UNL     1      17.701  11.368   1.726  1.00  0.00     0.120 C 
HETATM    6 CL1  UNL     1      16.472  12.541   1.229  1.00  0.00    -0.122 Cl
HETATM    7  C17 UNL     1      18.270  11.853   3.064  1.00  0.00     0.055 C 
ENDROOT
BRANCH   4   8
HETATM    8  O2  UNL     1      18.566  10.251  -0.166  1.00  0.00    -0.387 OA
ATOM      9  H2  UNL     1      17.842  10.452  -0.747  1.00  0.00     0.210 HD
ENDBRANCH   4   8
BRANCH   4  10
HETATM   10  C12 UNL     1      18.860  12.611  -0.089  1.00  0.00     0.163 C 
BRANCH  10  11
HETATM   11  N2  UNL     1      19.743  13.541   0.628  1.00  0.00    -0.340 N 
HETATM   12  C13 UNL     1      20.402  14.590  -0.057  1.00  0.00     0.316 C 
HETATM   13  O3  UNL     1      20.206  14.701  -1.298  1.00  0.00    -0.247 OA
HETATM   14  N3  UNL     1      21.248  15.480   0.639  1.00  0.00    -0.344 N 
ATOM     15  H3  UNL     1      21.394  15.376   1.643  1.00  0.00     0.164 HD
ATOM     16  H2  UNL     1      19.883  13.430   1.632  1.00  0.00     0.164 HD
BRANCH  14  17
HETATM   17  C14 UNL     1      21.907  16.543  -0.096  1.00  0.00     0.120 C 
HETATM   18  C15 UNL     1      20.990  17.746  -0.187  1.00  0.00     0.026 C 
ENDBRANCH  14  17
ENDBRANCH  10  11
ENDBRANCH   4  10
BRANCH   1  19
HETATM   19  C5  UNL     1      18.177   9.658   4.007  1.00  0.00    -0.087 C 
HETATM   20  C4  UNL     1      17.399   8.799   4.338  1.00  0.00    -0.105 C 
BRANCH  20  21
HETATM   21  C3  UNL     1      16.445   7.772   4.758  1.00  0.00     0.093 C 
BRANCH  21  22
HETATM   22  C2  UNL     1      15.226   8.406   5.428  1.00  0.00     0.007 C 
HETATM   23  C1  UNL     1      14.054   8.505   4.491  1.00  0.00     0.006 C 
ENDBRANCH  21  22
ENDBRANCH  20  21
ENDBRANCH   1  19
BRANCH   1  24
HETATM   24  C7  UNL     1      19.902  11.189   4.784  1.00  0.00     0.238 C 
HETATM   25  O1  UNL     1      20.240  10.394   5.685  1.00  0.00    -0.272 OA
HETATM   26  N1  UNL     1      20.270  12.541   4.890  1.00  0.00    -0.364 N 
HETATM   27  C8  UNL     1      21.030  13.102   5.989  1.00  0.00     0.149 C 
ATOM     28  H1  UNL     1      19.981  13.171   4.141  1.00  0.00     0.161 HD
ENDBRANCH   1  24
TORSDOF 8
ENDMDL
MODEL 2
REMARK VINA RESULT: -7.157276305      1.503      1.658
REMARK  8 active torsions:
REMARK  status: ('A' for Active; 'I' for Inactive)
REMARK    1  A    between atoms: C2_2  and  C3_3 
REMARK    2  A    between atoms: C3_3  and  C4_4 
REMARK    3  A    between atoms: C5_5  and  C6_6 
REMARK    4  A    between atoms: C6_6  and  C7_7 
REMARK       I    between atoms: C7_7  and  N1_9 
REMARK    5  A    between atoms: C11_14  and  O2_15 
REMARK    6  A    between atoms: C11_14  and  C12_17 
REMARK    7  A    between atoms: C12_17  and  N2_18 
REMARK       I    between atoms: N2_18  and  C13_20 
REMARK       I    between atoms: C13_20  and  N3_22 
REMARK    8  A    between atoms: N3_22  and  C14_24 
ROOT
HETATM    1  C6  UNL     1      19.124  10.668   3.699  1.00  0.00     0.105 C 
HETATM    2  C9  UNL     1      20.000  10.107   2.602  1.00  0.00     0.035 C 
HETATM    3  C10 UNL     1      20.206  11.087   1.468  1.00  0.00     0.043 C 
HETATM    4  C11 UNL     1      18.869  11.295   0.788  1.00  0.00     0.090 C 
HETATM    5  C16 UNL     1      17.747  11.379   1.796  1.00  0.00     0.120 C 
HETATM    6 CL1  UNL     1      16.568  12.602   1.299  1.00  0.00    -0.122 Cl
HETATM    7  C17 UNL     1      18.315  11.827   3.147  1.00  0.00     0.055 C 
ENDROOT
BRANCH   4   8
HETATM    8  O2  UNL     1      18.597  10.256  -0.099  1.00  0.00    -0.387 OA
ATOM      9  H2  UNL     1      17.961   9.654   0.270  1.00  0.00     0.210 HD
ENDBRANCH   4   8
BRANCH   4  10
HETATM   10  C12 UNL     1      18.974  12.602   0.013  1.00  0.00     0.163 C 
BRANCH  10  11
HETATM   11  N2  UNL     1      20.390  12.818  -0.312  1.00  0.00    -0.340 N 
HETATM   12  C13 UNL     1      20.768  13.515  -1.485  1.00  0.00     0.316 C 
HETATM   13  O3  UNL     1      19.852  13.946  -2.238  1.00  0.00    -0.247 OA
HETATM   14  N3  UNL     1      22.131  13.719  -1.789  1.00  0.00    -0.344 N 
ATOM     15  H3  UNL     1      22.859  13.365  -1.168  1.00  0.00     0.164 HD
ATOM     16  H2  UNL     1      21.111  12.460   0.315  1.00  0.00     0.164 HD
BRANCH  14  17
HETATM   17  C14 UNL     1      22.481  14.438  -2.999  1.00  0.00     0.120 C 
HETATM   18  C15 UNL     1      23.529  13.661  -3.771  1.00  0.00     0.026 C 
ENDBRANCH  14  17
ENDBRANCH  10  11
ENDBRANCH   4  10
BRANCH   1  19
HETATM   19  C5  UNL     1      18.131   9.625   4.061  1.00  0.00    -0.087 C 
HETATM   20  C4  UNL     1      17.319   8.789   4.372  1.00  0.00    -0.105 C 
BRANCH  20  21
HETATM   21  C3  UNL     1      16.327   7.790   4.769  1.00  0.00     0.093 C 
BRANCH  21  22
HETATM   22  C2  UNL     1      15.102   8.459   5.391  1.00  0.00     0.007 C 
HETATM   23  C1  UNL     1      13.958   8.554   4.421  1.00  0.00     0.006 C 
ENDBRANCH  21  22
ENDBRANCH  20  21
ENDBRANCH   1  19
BRANCH   1  24
HETATM   24  C7  UNL     1      19.899  11.083   4.880  1.00  0.00     0.238 C 
HETATM   25  O1  UNL     1      20.238  10.256   5.750  1.00  0.00    -0.272 OA
HETATM   26  N1  UNL     1      20.265  12.430   5.036  1.00  0.00    -0.364 N 
HETATM   27  C8  UNL     1      21.026  12.951   6.155  1.00  0.00     0.149 C 
ATOM     28  H1  UNL     1      19.975  13.087   4.311  1.00  0.00     0.161 HD
ENDBRANCH   1  24
TORSDOF 8
ENDMDL
MODEL 3
REMARK VINA RESULT: -7.045473667      2.541      3.196
REMARK  8 active torsions:
REMARK  status: ('A' for Active; 'I' for Inactive)
REMARK    1  A    between atoms: C2_2  and  C3_3 
REMARK    2  A    between atoms: C3_3  and  C4_4 
REMARK    3  A    between atoms: C5_5  and  C6_6 
REMARK    4  A    between atoms: C6_6  and  C7_7 
REMARK       I    between atoms: C7_7  and  N1_9 
REMARK    5  A    between atoms: C11_14  and  O2_15 
REMARK    6  A    between atoms: C11_14  and  C12_17 
REMARK    7  A    between atoms: C12_17  and  N2_18 
REMARK       I    between atoms: N2_18  and  C13_20 
REMARK       I    between atoms: C13_20  and  N3_22 
REMARK    8  A    between atoms: N3_22  and  C14_24 
ROOT
HETATM    1  C6  UNL     1      18.790   9.402   4.367  1.00  0.00     0.105 C 
HETATM    2  C9  UNL     1      19.448   8.666   3.223  1.00  0.00     0.035 C 
HETATM    3  C10 UNL     1      20.135   9.600   2.253  1.00  0.00     0.043 C 
HETATM    4  C11 UNL     1      19.066  10.432   1.576  1.00  0.00     0.090 C 
HETATM    5  C16 UNL     1      17.996  10.853   2.554  1.00  0.00     0.120 C 
HETATM    6 CL1  UNL     1      17.472  12.509   2.213  1.00  0.00    -0.122 Cl
HETATM    7  C17 UNL     1      18.580  10.851   3.972  1.00  0.00     0.055 C 
ENDROOT
BRANCH   4   8
HETATM    8  O2  UNL     1      18.467   9.720   0.538  1.00  0.00    -0.387 OA
ATOM      9  H2  UNL     1      17.668  10.147   0.253  1.00  0.00     0.210 HD
ENDBRANCH   4   8
BRANCH   4  10
HETATM   10  C12 UNL     1      19.765  11.659   1.005  1.00  0.00     0.163 C 
BRANCH  10  11
HETATM   11  N2  UNL     1      21.044  11.219   0.432  1.00  0.00    -0.340 N 
HETATM   12  C13 UNL     1      21.161  10.936  -0.950  1.00  0.00     0.316 C 
HETATM   13  O3  UNL     1      20.136  11.074  -1.671  1.00  0.00    -0.247 OA
HETATM   14  N3  UNL     1      22.395  10.514  -1.493  1.00  0.00    -0.344 N 
ATOM     15  H3  UNL     1      23.214  10.409  -0.895  1.00  0.00     0.164 HD
ATOM     16  H2  UNL     1      21.859  11.117   1.038  1.00  0.00     0.164 HD
BRANCH  14  17
HETATM   17  C14 UNL     1      22.478  10.232  -2.914  1.00  0.00     0.120 C 
HETATM   18  C15 UNL     1      23.931  10.129  -3.330  1.00  0.00     0.026 C 
ENDBRANCH  14  17
ENDBRANCH  10  11
ENDBRANCH   4  10
BRANCH   1  19
HETATM   19  C5  UNL     1      17.429   8.836   4.545  1.00  0.00    -0.087 C 
HETATM   20  C4  UNL     1      16.329   8.360   4.680  1.00  0.00    -0.105 C 
BRANCH  20  21
HETATM   21  C3  UNL     1      15.004   7.759   4.834  1.00  0.00     0.093 C 
BRANCH  21  22
HETATM   22  C2  UNL     1      13.908   8.801   4.622  1.00  0.00     0.007 C 
HETATM   23  C1  UNL     1      13.811   9.235   3.186  1.00  0.00     0.006 C 
ENDBRANCH  21  22
ENDBRANCH  20  21
ENDBRANCH   1  19
BRANCH   1  24
HETATM   24  C7  UNL     1      19.563   9.305   5.617  1.00  0.00     0.238 C 
HETATM   25  O1  UNL     1      20.025   8.213   6.005  1.00  0.00    -0.272 OA
HETATM   26  N1  UNL     1      19.787  10.457   6.389  1.00  0.00    -0.364 N 
HETATM   27  C8  UNL     1      20.532  10.481   7.633  1.00  0.00     0.149 C 
ATOM     28  H1  UNL     1      19.399  11.338   6.051  1.00  0.00     0.161 HD
ENDBRANCH   1  24
TORSDOF 8
ENDMDL
MODEL 4
REMARK VINA RESULT: -6.988341560      1.987      2.573
REMARK  8 active torsions:
REMARK  status: ('A' for Active; 'I' for Inactive)
REMARK    1  A    between atoms: C2_2  and  C3_3 
REMARK    2  A    between atoms: C3_3  and  C4_4 
REMARK    3  A    between atoms: C5_5  and  C6_6 
REMARK    4  A    between atoms: C6_6  and  C7_7 
REMARK       I    between atoms: C7_7  and  N1_9 
REMARK    5  A    between atoms: C11_14  and  O2_15 
REMARK    6  A    between atoms: C11_14  and  C12_17 
REMARK    7  A    between atoms: C12_17  and  N2_18 
REMARK       I    between atoms: N2_18  and  C13_20 
REMARK       I    between atoms: C13_20  and  N3_22 
REMARK    8  A    between atoms: N3_22  and  C14_24 
ROOT
HETATM    1  C6  UNL     1      19.112  10.512   3.877  1.00  0.00     0.105 C 
HETATM    2  C9  UNL     1      20.005   9.894   2.827  1.00  0.00     0.035 C 
HETATM    3  C10 UNL     1      20.280  10.834   1.675  1.00  0.00     0.043 C 
HETATM    4  C11 UNL     1      18.974  11.065   0.944  1.00  0.00     0.090 C 
HETATM    5  C16 UNL     1      17.823  11.212   1.910  1.00  0.00     0.120 C 
HETATM    6 CL1  UNL     1      16.700  12.456   1.340  1.00  0.00    -0.122 Cl
HETATM    7  C17 UNL     1      18.359  11.679   3.268  1.00  0.00     0.055 C 
ENDROOT
BRANCH   4   8
HETATM    8  O2  UNL     1      18.698  10.010   0.077  1.00  0.00    -0.387 OA
ATOM      9  H2  UNL     1      19.076  10.168  -0.780  1.00  0.00     0.210 HD
ENDBRANCH   4   8
BRANCH   4  10
HETATM   10  C12 UNL     1      19.146  12.345   0.137  1.00  0.00     0.163 C 
BRANCH  10  11
HETATM   11  N2  UNL     1      20.523  12.370  -0.375  1.00  0.00    -0.340 N 
HETATM   12  C13 UNL     1      20.818  11.924  -1.685  1.00  0.00     0.316 C 
HETATM   13  O3  UNL     1      19.863  11.507  -2.397  1.00  0.00    -0.247 OA
HETATM   14  N3  UNL     1      22.143  11.951  -2.170  1.00  0.00    -0.344 N 
ATOM     15  H3  UNL     1      22.903  12.293  -1.581  1.00  0.00     0.164 HD
ATOM     16  H2  UNL     1      21.276  12.713   0.221  1.00  0.00     0.164 HD
BRANCH  14  17
HETATM   17  C14 UNL     1      22.408  11.486  -3.519  1.00  0.00     0.120 C 
HETATM   18  C15 UNL     1      22.998  10.091  -3.471  1.00  0.00     0.026 C 
ENDBRANCH  14  17
ENDBRANCH  10  11
ENDBRANCH   4  10
BRANCH   1  19
HETATM   19  C5  UNL     1      18.074   9.511   4.234  1.00  0.00    -0.087 C 
HETATM   20  C4  UNL     1      17.225   8.711   4.538  1.00  0.00    -0.105 C 
BRANCH  20  21
HETATM   21  C3  UNL     1      16.185   7.758   4.924  1.00  0.00     0.093 C 
BRANCH  21  22
HETATM   22  C2  UNL     1      14.934   8.487   5.411  1.00  0.00     0.007 C 
HETATM   23  C1  UNL     1      13.911   8.644   4.321  1.00  0.00     0.006 C 
ENDBRANCH  21  22
ENDBRANCH  20  21
ENDBRANCH   1  19
BRANCH   1  24
HETATM   24  C7  UNL     1      19.860  10.936   5.073  1.00  0.00     0.238 C 
HETATM   25  O1  UNL     1      20.185  10.114   5.953  1.00  0.00    -0.272 OA
HETATM   26  N1  UNL     1      20.216  12.286   5.231  1.00  0.00    -0.364 N 
HETATM   27  C8  UNL     1      20.950  12.816   6.363  1.00  0.00     0.149 C 
ATOM     28  H1  UNL     1      19.938  12.938   4.497  1.00  0.00     0.161 HD
ENDBRANCH   1  24
TORSDOF 8
ENDMDL
MODEL 5
REMARK VINA RESULT: -6.727819071      1.961      2.272
REMARK  8 active torsions:
REMARK  status: ('A' for Active; 'I' for Inactive)
REMARK    1  A    between atoms: C2_2  and  C3_3 
REMARK    2  A    between atoms: C3_3  and  C4_4 
REMARK    3  A    between atoms: C5_5  and  C6_6 
REMARK    4  A    between atoms: C6_6  and  C7_7 
REMARK       I    between atoms: C7_7  and  N1_9 
REMARK    5  A    between atoms: C11_14  and  O2_15 
REMARK    6  A    between atoms: C11_14  and  C12_17 
REMARK    7  A    between atoms: C12_17  and  N2_18 
REMARK       I    between atoms: N2_18  and  C13_20 
REMARK       I    between atoms: C13_20  and  N3_22 
REMARK    8  A    between atoms: N3_22  and  C14_24 
ROOT
HETATM    1  C6  UNL     1      19.280  11.167   3.314  1.00  0.00     0.105 C 
HETATM    2  C9  UNL     1      20.202  10.593   2.264  1.00  0.00     0.035 C 
HETATM    3  C10 UNL     1      20.337  11.494   1.056  1.00  0.00     0.043 C 
HETATM    4  C11 UNL     1      18.991  11.542   0.364  1.00  0.00     0.090 C 
HETATM    5  C16 UNL     1      17.861  11.617   1.362  1.00  0.00     0.120 C 
HETATM    6 CL1  UNL     1      16.592  12.700   0.772  1.00  0.00    -0.122 Cl
HETATM    7  C17 UNL     1      18.385  12.212   2.674  1.00  0.00     0.055 C 
ENDROOT
BRANCH   4   8
HETATM    8  O2  UNL     1      18.805  10.419  -0.439  1.00  0.00    -0.387 OA
ATOM      9  H2  UNL     1      19.510  10.334  -1.071  1.00  0.00     0.210 HD
ENDBRANCH   4   8
BRANCH   4  10
HETATM   10  C12 UNL     1      18.997  12.789  -0.512  1.00  0.00     0.163 C 
BRANCH  10  11
HETATM   11  N2  UNL     1      20.389  13.238  -0.642  1.00  0.00    -0.340 N 
HETATM   12  C13 UNL     1      20.964  13.459  -1.917  1.00  0.00     0.316 C 
HETATM   13  O3  UNL     1      20.245  13.260  -2.934  1.00  0.00    -0.247 OA
HETATM   14  N3  UNL     1      22.303  13.891  -2.034  1.00  0.00    -0.344 N 
ATOM     15  H3  UNL     1      22.871  14.049  -1.201  1.00  0.00     0.164 HD
ATOM     16  H2  UNL     1      20.949  13.393   0.196  1.00  0.00     0.164 HD
BRANCH  14  17
HETATM   17  C14 UNL     1      22.859  14.107  -3.356  1.00  0.00     0.120 C 
HETATM   18  C15 UNL     1      23.885  13.035  -3.661  1.00  0.00     0.026 C 
ENDBRANCH  14  17
ENDBRANCH  10  11
ENDBRANCH   4  10
BRANCH   1  19
HETATM   19  C5  UNL     1      18.370  10.081   3.758  1.00  0.00    -0.087 C 
HETATM   20  C4  UNL     1      17.626   9.210   4.136  1.00  0.00    -0.105 C 
BRANCH  20  21
HETATM   21  C3  UNL     1      16.718   8.168   4.614  1.00  0.00     0.093 C 
BRANCH  21  22
HETATM   22  C2  UNL     1      16.765   8.065   6.138  1.00  0.00     0.007 C 
HETATM   23  C1  UNL     1      17.957   7.284   6.615  1.00  0.00     0.006 C 
ENDBRANCH  21  22
ENDBRANCH  20  21
ENDBRANCH   1  19
BRANCH   1  24
HETATM   24  C7  UNL     1      20.014  11.733   4.458  1.00  0.00     0.238 C 
HETATM   25  O1  UNL     1      20.804  12.686   4.308  1.00  0.00    -0.272 OA
HETATM   26  N1  UNL     1      19.824  11.197   5.743  1.00  0.00    -0.364 N 
HETATM   27  C8  UNL     1      20.490  11.674   6.939  1.00  0.00     0.149 C 
ATOM     28  H1  UNL     1      19.172  10.418   5.840  1.00  0.00     0.161 HD
ENDBRANCH   1  24
TORSDOF 8
ENDMDL
