MODEL 1
REMARK VINA RESULT: -8.929395367      0.000      0.000
REMARK  5 active torsions:
REMARK  status: ('A' for Active; 'I' for Inactive)
REMARK    1  A    between atoms: C4_4  and  N1_5 
REMARK       I    between atoms: N1_5  and  C5_7 
REMARK    2  A    between atoms: C7_11  and  N3_12 
REMARK       I    between atoms: N3_12  and  C8_14 
REMARK    3  A    between atoms: C8_14  and  C9_16 
REMARK       I    between atoms: C9_16  and  N4_18 
REMARK    4  A    between atoms: N4_18  and  C10_20 
REMARK    5  A    between atoms: C10_20  and  C11_21 
ROOT
HETATM    1  N3  UNL     1      19.970  11.489   3.800  1.00  0.00    -0.348 N 
ATOM      2  H3  UNL     1      19.906  10.498   3.565  1.00  0.00     0.163 HD
HETATM    3  C8  UNL     1      20.085  11.862   5.149  1.00  0.00     0.309 C 
HETATM    4  O2  UNL     1      20.164  13.063   5.463  1.00  0.00    -0.262 OA
ENDROOT
BRANCH   1   5
HETATM    5  C7  UNL     1      19.938  12.466   2.730  1.00  0.00     0.087 C 
HETATM    6  C6  UNL     1      19.706  11.773   1.435  1.00  0.00     0.050 C 
HETATM    7  C4  UNL     1      20.136  12.498   0.209  1.00  0.00     0.088 C 
HETATM    8  C3  UNL     1      20.436  13.943   0.377  1.00  0.00     0.029 C 
HETATM    9  C2  UNL     1      21.010  14.363   1.676  1.00  0.00    -0.015 C 
HETATM   10  C1  UNL     1      22.324  15.119   1.538  1.00  0.00     0.010 C 
HETATM   11  C18 UNL     1      21.242  13.236   2.654  1.00  0.00     0.029 C 
BRANCH   7  12
HETATM   12  N1  UNL     1      21.238  11.833  -0.461  1.00  0.00    -0.341 N 
HETATM   13  C5  UNL     1      21.047  10.924  -1.537  1.00  0.00     0.329 C 
HETATM   14  N2  UNL     1      22.114  10.288  -2.177  1.00  0.00    -0.040 NA
HETATM   15  O1  UNL     1      19.864  10.704  -1.904  1.00  0.00    -0.251 OA
ATOM     16  H1  UNL     1      22.189  12.026  -0.148  1.00  0.00     0.164 HD
ENDBRANCH   7  12
ENDBRANCH   1   5
BRANCH   3  17
HETATM   17  C9  UNL     1      20.117  10.855   6.239  1.00  0.00     0.309 C 
HETATM   18  O3  UNL     1      20.402  11.310   7.361  1.00  0.00    -0.262 OA
HETATM   19  N4  UNL     1      19.844   9.511   5.995  1.00  0.00    -0.353 N 
ATOM     20  H4  UNL     1      19.640   9.315   5.014  1.00  0.00     0.162 HD
BRANCH  19  21
HETATM   21  C10 UNL     1      19.790   8.358   6.815  1.00  0.00     0.128 C 
BRANCH  21  22
HETATM   22  C11 UNL     1      18.466   7.818   7.089  1.00  0.00     0.008 C 
HETATM   23  C12 UNL     1      17.355   7.909   6.101  1.00  0.00     0.011 C 
HETATM   24  C13 UNL     1      16.098   7.967   6.978  1.00  0.00    -0.014 C 
HETATM   25  C14 UNL     1      16.015   9.430   7.407  1.00  0.00     0.005 C 
HETATM   26  C17 UNL     1      16.575   7.374   8.281  1.00  0.00     0.010 C 
HETATM   27  C15 UNL     1      17.242   9.618   8.285  1.00  0.00     0.005 C 
HETATM   28  C16 UNL     1      17.831   8.274   8.414  1.00  0.00    -0.009 C 
ENDBRANCH  21  22
ENDBRANCH  19  21
ENDBRANCH   3  17
TORSDOF 5
ENDMDL
MODEL 2
REMARK VINA RESULT: -8.915747374      2.242      2.879
REMARK  5 active torsions:
REMARK  status: ('A' for Active; 'I' for Inactive)
REMARK    1  A    between atoms: C4_4  and  N1_5 
REMARK       I    between atoms: N1_5  and  C5_7 
REMARK    2  A    between atoms: C7_11  and  N3_12 
REMARK       I    between atoms: N3_12  and  C8_14 
REMARK    3  A    between atoms: C8_14  and  C9_16 
REMARK       I    between atoms: C9_16  and  N4_18 
REMARK    4  A    between atoms: N4_18  and  C10_20 
REMARK    5  A    between atoms: C10_20  and  C11_21 
ROOT
HETATM    1  N3  UNL     1      19.765  11.656   4.162  1.00  0.00    -0.348 N 
ATOM      2  H3  UNL     1      19.155  10.866   4.372  1.00  0.00     0.163 HD
HETATM    3  C8  UNL     1      20.495  12.248   5.206  1.00  0.00     0.309 C 
HETATM    4  O2  UNL     1      21.246  13.213   4.978  1.00  0.00    -0.262 OA
ENDROOT
BRANCH   1   5
HETATM    5  C7  UNL     1      19.851  12.132   2.795  1.00  0.00     0.087 C 
HETATM    6  C6  UNL     1      18.497  12.521   2.322  1.00  0.00     0.050 C 
HETATM    7  C4  UNL     1      18.291  12.545   0.849  1.00  0.00     0.088 C 
HETATM    8  C3  UNL     1      19.522  12.506   0.018  1.00  0.00     0.029 C 
HETATM    9  C2  UNL     1      20.669  11.736   0.552  1.00  0.00    -0.015 C 
HETATM   10  C1  UNL     1      21.177  10.668  -0.406  1.00  0.00     0.010 C 
HETATM   11  C18 UNL     1      20.409  11.062   1.878  1.00  0.00     0.029 C 
BRANCH   7  12
HETATM   12  N1  UNL     1      17.359  11.523   0.410  1.00  0.00    -0.341 N 
HETATM   13  C5  UNL     1      15.968  11.769   0.255  1.00  0.00     0.329 C 
HETATM   14  N2  UNL     1      15.076  10.778  -0.168  1.00  0.00    -0.040 NA
HETATM   15  O1  UNL     1      15.553  12.927   0.514  1.00  0.00    -0.251 OA
ATOM     16  H1  UNL     1      17.717  10.590   0.205  1.00  0.00     0.164 HD
ENDBRANCH   7  12
ENDBRANCH   1   5
BRANCH   3  17
HETATM   17  C9  UNL     1      20.402  11.755   6.603  1.00  0.00     0.309 C 
HETATM   18  O3  UNL     1      20.514  12.635   7.475  1.00  0.00    -0.262 OA
HETATM   19  N4  UNL     1      20.204  10.405   6.885  1.00  0.00    -0.353 N 
ATOM     20  H4  UNL     1      20.145   9.825   6.048  1.00  0.00     0.162 HD
BRANCH  19  21
HETATM   21  C10 UNL     1      20.067   9.665   8.085  1.00  0.00     0.128 C 
BRANCH  21  22
HETATM   22  C11 UNL     1      19.140   8.543   8.054  1.00  0.00     0.008 C 
HETATM   23  C12 UNL     1      19.242   7.461   7.035  1.00  0.00     0.011 C 
HETATM   24  C13 UNL     1      17.791   6.996   6.860  1.00  0.00    -0.014 C 
HETATM   25  C14 UNL     1      17.187   8.023   5.905  1.00  0.00     0.005 C 
HETATM   26  C17 UNL     1      17.137   7.460   8.138  1.00  0.00     0.010 C 
HETATM   27  C15 UNL     1      17.200   9.313   6.708  1.00  0.00     0.005 C 
HETATM   28  C16 UNL     1      17.649   8.922   8.056  1.00  0.00    -0.009 C 
ENDBRANCH  21  22
ENDBRANCH  19  21
ENDBRANCH   3  17
TORSDOF 5
ENDMDL
MODEL 3
REMARK VINA RESULT: -8.901387674      2.407      3.257
REMARK  5 active torsions:
REMARK  status: ('A' for Active; 'I' for Inactive)
REMARK    1  A    between atoms: C4_4  and  N1_5 
REMARK       I    between atoms: N1_5  and  C5_7 
REMARK    2  A    between atoms: C7_11  and  N3_12 
REMARK       I    between atoms: N3_12  and  C8_14 
REMARK    3  A    between atoms: C8_14  and  C9_16 
REMARK       I    between atoms: C9_16  and  N4_18 
REMARK    4  A    between atoms: N4_18  and  C10_20 
REMARK    5  A    between atoms: C10_20  and  C11_21 
ROOT
HETATM    1  N3  UNL     1      20.560  12.957   3.592  1.00  0.00    -0.348 N 
ATOM      2  H3  UNL     1      20.645  13.814   4.138  1.00  0.00     0.163 HD
HETATM    3  C8  UNL     1      20.280  11.752   4.258  1.00  0.00     0.309 C 
HETATM    4  O2  UNL     1      20.171  10.692   3.617  1.00  0.00    -0.262 OA
ENDROOT
BRANCH   1   5
HETATM    5  C7  UNL     1      20.731  13.021   2.154  1.00  0.00     0.087 C 
HETATM    6  C6  UNL     1      21.498  14.245   1.803  1.00  0.00     0.050 C 
HETATM    7  C4  UNL     1      21.342  14.747   0.411  1.00  0.00     0.088 C 
HETATM    8  C3  UNL     1      20.718  13.808  -0.556  1.00  0.00     0.029 C 
HETATM    9  C2  UNL     1      19.688  12.885  -0.025  1.00  0.00    -0.015 C 
HETATM   10  C1  UNL     1      18.362  12.972  -0.767  1.00  0.00     0.010 C 
HETATM   11  C18 UNL     1      19.391  13.053   1.446  1.00  0.00     0.029 C 
BRANCH   7  12
HETATM   12  N1  UNL     1      20.670  16.032   0.365  1.00  0.00    -0.341 N 
HETATM   13  C5  UNL     1      20.925  16.996  -0.647  1.00  0.00     0.329 C 
HETATM   14  N2  UNL     1      20.272  18.232  -0.683  1.00  0.00    -0.040 NA
HETATM   15  O1  UNL     1      21.772  16.700  -1.528  1.00  0.00    -0.251 OA
ATOM     16  H1  UNL     1      19.986  16.252   1.089  1.00  0.00     0.164 HD
ENDBRANCH   7  12
ENDBRANCH   1   5
BRANCH   3  17
HETATM   17  C9  UNL     1      20.106  11.694   5.731  1.00  0.00     0.309 C 
HETATM   18  O3  UNL     1      19.961  12.799   6.282  1.00  0.00    -0.262 OA
HETATM   19  N4  UNL     1      20.109  10.481   6.416  1.00  0.00    -0.353 N 
ATOM     20  H4  UNL     1      20.251   9.676   5.806  1.00  0.00     0.162 HD
BRANCH  19  21
HETATM   21  C10 UNL     1      19.959  10.125   7.779  1.00  0.00     0.128 C 
BRANCH  21  22
HETATM   22  C11 UNL     1      19.113   8.974   8.060  1.00  0.00     0.008 C 
HETATM   23  C12 UNL     1      19.291   7.672   7.358  1.00  0.00     0.011 C 
HETATM   24  C13 UNL     1      17.877   7.079   7.337  1.00  0.00    -0.014 C 
HETATM   25  C14 UNL     1      17.202   7.775   6.158  1.00  0.00     0.005 C 
HETATM   26  C17 UNL     1      17.192   7.817   8.461  1.00  0.00     0.010 C 
HETATM   27  C15 UNL     1      17.125   9.230   6.595  1.00  0.00     0.005 C 
HETATM   28  C16 UNL     1      17.599   9.237   7.990  1.00  0.00    -0.009 C 
ENDBRANCH  21  22
ENDBRANCH  19  21
ENDBRANCH   3  17
TORSDOF 5
ENDMDL
MODEL 4
REMARK VINA RESULT: -8.848658815      1.143      1.605
REMARK  5 active torsions:
REMARK  status: ('A' for Active; 'I' for Inactive)
REMARK    1  A    between atoms: C4_4  and  N1_5 
REMARK       I    between atoms: N1_5  and  C5_7 
REMARK    2  A    between atoms: C7_11  and  N3_12 
REMARK       I    between atoms: N3_12  and  C8_14 
REMARK    3  A    between atoms: C8_14  and  C9_16 
REMARK       I    between atoms: C9_16  and  N4_18 
REMARK    4  A    between atoms: N4_18  and  C10_20 
REMARK    5  A    between atoms: C10_20  and  C11_21 
ROOT
HETATM    1  N3  UNL     1      20.666  13.220   3.427  1.00  0.00    -0.348 N 
ATOM      2  H3  UNL     1      21.473  13.696   3.829  1.00  0.00     0.163 HD
HETATM    3  C8  UNL     1      19.970  12.282   4.209  1.00  0.00     0.309 C 
HETATM    4  O2  UNL     1      18.982  11.686   3.743  1.00  0.00    -0.262 OA
ENDROOT
BRANCH   1   5
HETATM    5  C7  UNL     1      20.273  13.532   2.067  1.00  0.00     0.087 C 
HETATM    6  C6  UNL     1      20.132  12.271   1.293  1.00  0.00     0.050 C 
HETATM    7  C4  UNL     1      20.238  12.386  -0.187  1.00  0.00     0.088 C 
HETATM    8  C3  UNL     1      20.138  13.761  -0.742  1.00  0.00     0.029 C 
HETATM    9  C2  UNL     1      20.683  14.861   0.087  1.00  0.00    -0.015 C 
HETATM   10  C1  UNL     1      21.719  15.707  -0.640  1.00  0.00     0.010 C 
HETATM   11  C18 UNL     1      21.301  14.418   1.391  1.00  0.00     0.029 C 
BRANCH   7  12
HETATM   12  N1  UNL     1      21.418  11.722  -0.705  1.00  0.00    -0.341 N 
HETATM   13  C5  UNL     1      21.365  10.779  -1.766  1.00  0.00     0.329 C 
HETATM   14  N2  UNL     1      22.509  10.143  -2.259  1.00  0.00    -0.040 NA
HETATM   15  O1  UNL     1      20.236  10.527  -2.260  1.00  0.00    -0.251 OA
ATOM     16  H1  UNL     1      22.324  11.941  -0.290  1.00  0.00     0.164 HD
ENDBRANCH   7  12
ENDBRANCH   1   5
BRANCH   3  17
HETATM   17  C9  UNL     1      20.378  11.967   5.601  1.00  0.00     0.309 C 
HETATM   18  O3  UNL     1      21.017  12.867   6.172  1.00  0.00    -0.262 OA
HETATM   19  N4  UNL     1      20.055  10.749   6.195  1.00  0.00    -0.353 N 
ATOM     20  H4  UNL     1      19.536  10.126   5.575  1.00  0.00     0.162 HD
BRANCH  19  21
HETATM   21  C10 UNL     1      20.293  10.189   7.474  1.00  0.00     0.128 C 
BRANCH  21  22
HETATM   22  C11 UNL     1      19.526   9.000   7.815  1.00  0.00     0.008 C 
HETATM   23  C12 UNL     1      19.638   7.736   7.035  1.00  0.00     0.011 C 
HETATM   24  C13 UNL     1      18.251   7.098   7.183  1.00  0.00    -0.014 C 
HETATM   25  C14 UNL     1      17.399   7.822   6.144  1.00  0.00     0.005 C 
HETATM   26  C17 UNL     1      17.711   7.764   8.425  1.00  0.00     0.010 C 
HETATM   27  C15 UNL     1      17.345   9.252   6.655  1.00  0.00     0.005 C 
HETATM   28  C16 UNL     1      18.011   9.216   7.969  1.00  0.00    -0.009 C 
ENDBRANCH  21  22
ENDBRANCH  19  21
ENDBRANCH   3  17
TORSDOF 5
ENDMDL
MODEL 5
REMARK VINA RESULT: -8.716545698      2.963      3.996
REMARK  5 active torsions:
REMARK  status: ('A' for Active; 'I' for Inactive)
REMARK    1  A    between atoms: C4_4  and  N1_5 
REMARK       I    between atoms: N1_5  and  C5_7 
REMARK    2  A    between atoms: C7_11  and  N3_12 
REMARK       I    between atoms: N3_12  and  C8_14 
REMARK    3  A    between atoms: C8_14  and  C9_16 
REMARK       I    between atoms: C9_16  and  N4_18 
REMARK    4  A    between atoms: N4_18  and  C10_20 
REMARK    5  A    between atoms: C10_20  and  C11_21 
ROOT
HETATM    1  N3  UNL     1      20.340  12.856   2.174  1.00  0.00    -0.348 N 
ATOM      2  H3  UNL     1      19.952  13.526   2.838  1.00  0.00     0.163 HD
HETATM    3  C8  UNL     1      20.172  11.482   2.415  1.00  0.00     0.309 C 
HETATM    4  O2  UNL     1      20.636  10.645   1.622  1.00  0.00    -0.262 OA
ENDROOT
BRANCH   1   5
HETATM    5  C7  UNL     1      21.046  13.353   1.009  1.00  0.00     0.087 C 
HETATM    6  C6  UNL     1      21.343  14.798   1.192  1.00  0.00     0.050 C 
HETATM    7  C4  UNL     1      21.590  15.586  -0.046  1.00  0.00     0.088 C 
HETATM    8  C3  UNL     1      21.841  14.798  -1.280  1.00  0.00     0.029 C 
HETATM    9  C2  UNL     1      21.136  13.501  -1.404  1.00  0.00    -0.015 C 
HETATM   10  C1  UNL     1      20.316  13.382  -2.681  1.00  0.00     0.010 C 
HETATM   11  C18 UNL     1      20.222  13.170  -0.249  1.00  0.00     0.029 C 
BRANCH   7  12
HETATM   12  N1  UNL     1      20.552  16.571  -0.284  1.00  0.00    -0.341 N 
HETATM   13  C5  UNL     1      20.838  17.916  -0.644  1.00  0.00     0.329 C 
HETATM   14  N2  UNL     1      19.831  18.859  -0.871  1.00  0.00    -0.040 NA
HETATM   15  O1  UNL     1      22.048  18.239  -0.755  1.00  0.00    -0.251 OA
ATOM     16  H1  UNL     1      19.577  16.287  -0.188  1.00  0.00     0.164 HD
ENDBRANCH   7  12
ENDBRANCH   1   5
BRANCH   3  17
HETATM   17  C9  UNL     1      19.447  10.981   3.610  1.00  0.00     0.309 C 
HETATM   18  O3  UNL     1      18.243  10.735   3.423  1.00  0.00    -0.262 OA
HETATM   19  N4  UNL     1      20.093  10.810   4.833  1.00  0.00    -0.353 N 
ATOM     20  H4  UNL     1      21.078  11.072   4.806  1.00  0.00     0.162 HD
BRANCH  19  21
HETATM   21  C10 UNL     1      19.673  10.352   6.105  1.00  0.00     0.128 C 
BRANCH  21  22
HETATM   22  C11 UNL     1      19.555   8.910   6.269  1.00  0.00     0.008 C 
HETATM   23  C12 UNL     1      18.327   8.167   5.870  1.00  0.00     0.011 C 
HETATM   24  C13 UNL     1      18.294   6.981   6.842  1.00  0.00    -0.014 C 
HETATM   25  C14 UNL     1      17.688   7.565   8.116  1.00  0.00     0.005 C 
HETATM   26  C17 UNL     1      19.729   6.883   7.296  1.00  0.00     0.010 C 
HETATM   27  C15 UNL     1      18.733   8.563   8.587  1.00  0.00     0.005 C 
HETATM   28  C16 UNL     1      19.877   8.379   7.677  1.00  0.00    -0.009 C 
ENDBRANCH  21  22
ENDBRANCH  19  21
ENDBRANCH   3  17
TORSDOF 5
ENDMDL
