MODEL 1
REMARK VINA RESULT: -10.277012111      0.000      0.000
REMARK  7 active torsions:
REMARK  status: ('A' for Active; 'I' for Inactive)
REMARK    1  A    between atoms: C2_2  and  N1_3 
REMARK    2  A    between atoms: N1_3  and  C4_5 
REMARK    3  A    between atoms: C4_5  and  C5_6 
REMARK    4  A    between atoms: C7_10  and  N3_11 
REMARK    5  A    between atoms: N3_11  and  C8_13 
REMARK    6  A    between atoms: C9_16  and  C10_17 
REMARK    7  A    between atoms: C12_19  and  C13_20 
REMARK       I    between atoms: C13_20  and  N5_22 
ROOT
HETATM    1  C8  UNL     1      -7.307  27.308  50.983  1.00  0.00     0.164 A 
HETATM    2  N4  UNL     1      -6.889  27.983  52.034  1.00  0.00    -0.335 N 
ATOM      3  H4  UNL     1      -6.213  28.737  51.918  1.00  0.00     0.168 HD
HETATM    4  C9  UNL     1      -7.337  27.690  53.218  1.00  0.00     0.054 A 
HETATM    5  C20 UNL     1      -8.248  26.666  53.314  1.00  0.00     0.083 A 
HETATM    6  S1  UNL     1      -8.393  26.191  51.669  1.00  0.00    -0.063 SA
ENDROOT
BRANCH   1   7
HETATM    7  N3  UNL     1      -6.978  27.415  49.602  1.00  0.00    -0.170 N 
ATOM      8  H3  UNL     1      -5.992  27.360  49.349  1.00  0.00     0.186 HD
BRANCH   7   9
HETATM    9  C7  UNL     1      -7.815  27.573  48.662  1.00  0.00     0.683 A 
HETATM   10  N2  UNL     1      -7.489  28.428  47.672  1.00  0.00    -0.201 N 
HETATM   11  C6  UNL     1      -8.296  28.665  46.624  1.00  0.00     0.116 A 
ATOM     12  H2  UNL     1      -6.594  28.915  47.721  1.00  0.00     0.183 HD
HETATM   13  C5  UNL     1      -9.515  28.021  46.530  1.00  0.00     0.002 A 
HETATM   14  C21 UNL     1      -9.855  27.150  47.528  1.00  0.00     0.116 A 
HETATM   15  N6  UNL     1      -8.999  26.950  48.567  1.00  0.00    -0.201 N 
ATOM     16  H6  UNL     1      -9.268  26.299  49.303  1.00  0.00     0.183 HD
BRANCH  13  17
HETATM   17  C4  UNL     1     -10.389  28.318  45.342  1.00  0.00     0.313 C 
BRANCH  17  18
HETATM   18  N1  UNL     1     -10.306  27.178  44.484  1.00  0.00     0.088 N 
HETATM   19  C3  UNL     1     -11.529  26.421  44.406  1.00  0.00     0.310 C 
BRANCH  18  20
HETATM   20  C2  UNL     1      -9.693  27.410  43.209  1.00  0.00     0.268 C 
HETATM   21  C1  UNL     1     -10.703  27.068  42.131  1.00  0.00     0.037 C 
ENDBRANCH  18  20
ENDBRANCH  17  18
ENDBRANCH  13  17
ENDBRANCH   7   9
ENDBRANCH   1   7
BRANCH   4  22
HETATM   22  C10 UNL     1      -6.888  28.430  54.430  1.00  0.00     0.031 A 
HETATM   23  C11 UNL     1      -7.281  29.710  54.662  1.00  0.00     0.034 A 
HETATM   24  C12 UNL     1      -6.879  30.459  55.802  1.00  0.00     0.039 A 
HETATM   25  C15 UNL     1      -6.054  29.852  56.705  1.00  0.00    -0.037 A 
HETATM   26  C16 UNL     1      -5.506  30.506  57.913  1.00  0.00     0.050 C 
HETATM   27  C17 UNL     1      -5.656  28.542  56.463  1.00  0.00    -0.015 A 
HETATM   28  C18 UNL     1      -4.761  27.881  57.437  1.00  0.00     0.052 C 
HETATM   29  C19 UNL     1      -6.054  27.843  55.363  1.00  0.00     0.135 A 
HETATM   30  F1  UNL     1      -5.667  26.562  55.127  1.00  0.00    -0.205 F 
BRANCH  24  31
HETATM   31  C13 UNL     1      -7.411  31.788  55.962  1.00  0.00     0.251 C 
HETATM   32  O1  UNL     1      -6.740  32.726  55.383  1.00  0.00    -0.268 OA
HETATM   33  N5  UNL     1      -8.544  32.161  56.651  1.00  0.00    -0.361 N 
HETATM   34  C14 UNL     1      -8.949  33.578  56.731  1.00  0.00     0.149 C 
ATOM     35  H5  UNL     1      -9.109  31.449  57.112  1.00  0.00     0.162 HD
ENDBRANCH  24  31
ENDBRANCH   4  22
TORSDOF 7
ENDMDL
MODEL 2
REMARK VINA RESULT: -10.258686226      2.295      3.598
REMARK  7 active torsions:
REMARK  status: ('A' for Active; 'I' for Inactive)
REMARK    1  A    between atoms: C2_2  and  N1_3 
REMARK    2  A    between atoms: N1_3  and  C4_5 
REMARK    3  A    between atoms: C4_5  and  C5_6 
REMARK    4  A    between atoms: C7_10  and  N3_11 
REMARK    5  A    between atoms: N3_11  and  C8_13 
REMARK    6  A    between atoms: C9_16  and  C10_17 
REMARK    7  A    between atoms: C12_19  and  C13_20 
REMARK       I    between atoms: C13_20  and  N5_22 
ROOT
HETATM    1  C8  UNL     1      -7.305  27.423  50.379  1.00  0.00     0.164 A 
HETATM    2  N4  UNL     1      -6.607  27.742  51.449  1.00  0.00    -0.335 N 
ATOM      3  H4  UNL     1      -5.758  28.300  51.355  1.00  0.00     0.168 HD
HETATM    4  C9  UNL     1      -6.998  27.349  52.624  1.00  0.00     0.054 A 
HETATM    5  C20 UNL     1      -8.149  26.602  52.691  1.00  0.00     0.083 A 
HETATM    6  S1  UNL     1      -8.590  26.517  51.033  1.00  0.00    -0.063 SA
ENDROOT
BRANCH   1   7
HETATM    7  N3  UNL     1      -7.102  27.711  49.000  1.00  0.00    -0.170 N 
ATOM      8  H3  UNL     1      -6.160  27.974  48.710  1.00  0.00     0.186 HD
BRANCH   7   9
HETATM    9  C7  UNL     1      -7.998  27.665  48.103  1.00  0.00     0.683 A 
HETATM   10  N2  UNL     1      -7.783  28.361  46.969  1.00  0.00    -0.201 N 
HETATM   11  C6  UNL     1      -8.662  28.376  45.952  1.00  0.00     0.116 A 
ATOM     12  H2  UNL     1      -6.920  28.896  46.878  1.00  0.00     0.183 HD
HETATM   13  C5  UNL     1      -9.841  27.662  46.044  1.00  0.00     0.002 A 
HETATM   14  C21 UNL     1     -10.068  26.952  47.191  1.00  0.00     0.116 A 
HETATM   15  N6  UNL     1      -9.144  26.973  48.189  1.00  0.00    -0.201 N 
ATOM     16  H6  UNL     1      -9.329  26.439  49.038  1.00  0.00     0.183 HD
BRANCH  13  17
HETATM   17  C4  UNL     1     -10.798  27.710  44.884  1.00  0.00     0.313 C 
BRANCH  17  18
HETATM   18  N1  UNL     1     -10.030  27.421  43.714  1.00  0.00     0.088 N 
HETATM   19  C3  UNL     1      -9.765  26.019  43.526  1.00  0.00     0.310 C 
BRANCH  18  20
HETATM   20  C2  UNL     1     -10.453  28.091  42.520  1.00  0.00     0.268 C 
HETATM   21  C1  UNL     1     -11.148  27.078  41.632  1.00  0.00     0.037 C 
ENDBRANCH  18  20
ENDBRANCH  17  18
ENDBRANCH  13  17
ENDBRANCH   7   9
ENDBRANCH   1   7
BRANCH   4  22
HETATM   22  C10 UNL     1      -6.235  27.690  53.858  1.00  0.00     0.031 A 
HETATM   23  C11 UNL     1      -5.095  27.028  54.186  1.00  0.00     0.034 A 
HETATM   24  C12 UNL     1      -4.331  27.315  55.352  1.00  0.00     0.039 A 
HETATM   25  C15 UNL     1      -4.776  28.306  56.177  1.00  0.00    -0.037 A 
HETATM   26  C16 UNL     1      -4.128  28.692  57.450  1.00  0.00     0.050 C 
HETATM   27  C17 UNL     1      -5.943  28.980  55.835  1.00  0.00    -0.015 A 
HETATM   28  C18 UNL     1      -6.430  30.055  56.728  1.00  0.00     0.052 C 
HETATM   29  C19 UNL     1      -6.658  28.690  54.712  1.00  0.00     0.135 A 
HETATM   30  F1  UNL     1      -7.798  29.350  54.376  1.00  0.00    -0.205 F 
BRANCH  24  31
HETATM   31  C13 UNL     1      -3.109  26.580  55.559  1.00  0.00     0.251 C 
HETATM   32  O1  UNL     1      -2.042  27.298  55.668  1.00  0.00    -0.268 OA
HETATM   33  N5  UNL     1      -2.959  25.214  55.656  1.00  0.00    -0.361 N 
HETATM   34  C14 UNL     1      -1.626  24.612  55.858  1.00  0.00     0.149 C 
ATOM     35  H5  UNL     1      -3.779  24.612  55.588  1.00  0.00     0.162 HD
ENDBRANCH  24  31
ENDBRANCH   4  22
TORSDOF 7
ENDMDL
MODEL 3
REMARK VINA RESULT: -10.256401741      0.772      1.027
REMARK  7 active torsions:
REMARK  status: ('A' for Active; 'I' for Inactive)
REMARK    1  A    between atoms: C2_2  and  N1_3 
REMARK    2  A    between atoms: N1_3  and  C4_5 
REMARK    3  A    between atoms: C4_5  and  C5_6 
REMARK    4  A    between atoms: C7_10  and  N3_11 
REMARK    5  A    between atoms: N3_11  and  C8_13 
REMARK    6  A    between atoms: C9_16  and  C10_17 
REMARK    7  A    between atoms: C12_19  and  C13_20 
REMARK       I    between atoms: C13_20  and  N5_22 
ROOT
HETATM    1  C8  UNL     1      -7.354  27.280  50.890  1.00  0.00     0.164 A 
HETATM    2  N4  UNL     1      -6.923  27.933  51.949  1.00  0.00    -0.335 N 
ATOM      3  H4  UNL     1      -6.216  28.661  51.845  1.00  0.00     0.168 HD
HETATM    4  C9  UNL     1      -7.396  27.652  53.126  1.00  0.00     0.054 A 
HETATM    5  C20 UNL     1      -8.346  26.663  53.207  1.00  0.00     0.083 A 
HETATM    6  S1  UNL     1      -8.491  26.203  51.558  1.00  0.00    -0.063 SA
ENDROOT
BRANCH   1   7
HETATM    7  N3  UNL     1      -7.006  27.380  49.513  1.00  0.00    -0.170 N 
ATOM      8  H3  UNL     1      -6.023  27.266  49.269  1.00  0.00     0.186 HD
BRANCH   7   9
HETATM    9  C7  UNL     1      -7.822  27.601  48.567  1.00  0.00     0.683 A 
HETATM   10  N2  UNL     1      -7.510  28.572  47.686  1.00  0.00    -0.201 N 
HETATM   11  C6  UNL     1      -8.297  28.883  46.642  1.00  0.00     0.116 A 
ATOM     12  H2  UNL     1      -6.642  29.092  47.817  1.00  0.00     0.183 HD
HETATM   13  C5  UNL     1      -9.479  28.197  46.438  1.00  0.00     0.002 A 
HETATM   14  C21 UNL     1      -9.804  27.209  47.326  1.00  0.00     0.116 A 
HETATM   15  N6  UNL     1      -8.970  26.937  48.365  1.00  0.00    -0.201 N 
ATOM     16  H6  UNL     1      -9.228  26.198  49.019  1.00  0.00     0.183 HD
BRANCH  13  17
HETATM   17  C4  UNL     1     -10.332  28.580  45.259  1.00  0.00     0.313 C 
BRANCH  17  18
HETATM   18  N1  UNL     1      -9.493  28.488  44.106  1.00  0.00     0.088 N 
HETATM   19  C3  UNL     1      -9.368  27.151  43.585  1.00  0.00     0.310 C 
BRANCH  18  20
HETATM   20  C2  UNL     1      -9.725  29.478  43.096  1.00  0.00     0.268 C 
HETATM   21  C1  UNL     1      -9.371  30.834  43.674  1.00  0.00     0.037 C 
ENDBRANCH  18  20
ENDBRANCH  17  18
ENDBRANCH  13  17
ENDBRANCH   7   9
ENDBRANCH   1   7
BRANCH   4  22
HETATM   22  C10 UNL     1      -6.931  28.368  54.347  1.00  0.00     0.031 A 
HETATM   23  C11 UNL     1      -7.329  29.639  54.614  1.00  0.00     0.034 A 
HETATM   24  C12 UNL     1      -6.914  30.366  55.764  1.00  0.00     0.039 A 
HETATM   25  C15 UNL     1      -6.071  29.744  56.639  1.00  0.00    -0.037 A 
HETATM   26  C16 UNL     1      -5.508  30.376  57.853  1.00  0.00     0.050 C 
HETATM   27  C17 UNL     1      -5.668  28.443  56.362  1.00  0.00    -0.015 A 
HETATM   28  C18 UNL     1      -4.753  27.767  57.307  1.00  0.00     0.052 C 
HETATM   29  C19 UNL     1      -6.079  27.766  55.253  1.00  0.00     0.135 A 
HETATM   30  F1  UNL     1      -5.688  26.493  54.983  1.00  0.00    -0.205 F 
BRANCH  24  31
HETATM   31  C13 UNL     1      -7.452  31.688  55.962  1.00  0.00     0.251 C 
HETATM   32  O1  UNL     1      -6.788  32.644  55.406  1.00  0.00    -0.268 OA
HETATM   33  N5  UNL     1      -8.584  32.036  56.664  1.00  0.00    -0.361 N 
HETATM   34  C14 UNL     1      -8.997  33.448  56.784  1.00  0.00     0.149 C 
ATOM     35  H5  UNL     1      -9.145  31.308  57.107  1.00  0.00     0.162 HD
ENDBRANCH  24  31
ENDBRANCH   4  22
TORSDOF 7
ENDMDL
MODEL 4
REMARK VINA RESULT: -9.896889712      2.024      2.697
REMARK  7 active torsions:
REMARK  status: ('A' for Active; 'I' for Inactive)
REMARK    1  A    between atoms: C2_2  and  N1_3 
REMARK    2  A    between atoms: N1_3  and  C4_5 
REMARK    3  A    between atoms: C4_5  and  C5_6 
REMARK    4  A    between atoms: C7_10  and  N3_11 
REMARK    5  A    between atoms: N3_11  and  C8_13 
REMARK    6  A    between atoms: C9_16  and  C10_17 
REMARK    7  A    between atoms: C12_19  and  C13_20 
REMARK       I    between atoms: C13_20  and  N5_22 
ROOT
HETATM    1  C8  UNL     1      -7.754  27.456  49.072  1.00  0.00     0.164 A 
HETATM    2  N4  UNL     1      -7.335  27.709  50.295  1.00  0.00    -0.335 N 
ATOM      3  H4  UNL     1      -6.619  28.418  50.451  1.00  0.00     0.168 HD
HETATM    4  C9  UNL     1      -7.833  27.057  51.303  1.00  0.00     0.054 A 
HETATM    5  C20 UNL     1      -8.795  26.115  51.034  1.00  0.00     0.083 A 
HETATM    6  S1  UNL     1      -8.915  26.236  49.324  1.00  0.00    -0.063 SA
ENDROOT
BRANCH   1   7
HETATM    7  N3  UNL     1      -7.379  28.007  47.814  1.00  0.00    -0.170 N 
ATOM      8  H3  UNL     1      -6.382  28.093  47.618  1.00  0.00     0.186 HD
BRANCH   7   9
HETATM    9  C7  UNL     1      -8.187  28.399  46.918  1.00  0.00     0.683 A 
HETATM   10  N2  UNL     1      -7.837  29.479  46.190  1.00  0.00    -0.201 N 
HETATM   11  C6  UNL     1      -8.613  29.974  45.211  1.00  0.00     0.116 A 
ATOM     12  H2  UNL     1      -6.948  29.938  46.391  1.00  0.00     0.183 HD
HETATM   13  C5  UNL     1      -9.822  29.374  44.915  1.00  0.00     0.002 A 
HETATM   14  C21 UNL     1     -10.186  28.277  45.647  1.00  0.00     0.116 A 
HETATM   15  N6  UNL     1      -9.361  27.820  46.628  1.00  0.00    -0.201 N 
ATOM     16  H6  UNL     1      -9.648  27.002  47.165  1.00  0.00     0.183 HD
BRANCH  13  17
HETATM   17  C4  UNL     1     -10.661  29.963  43.814  1.00  0.00     0.313 C 
BRANCH  17  18
HETATM   18  N1  UNL     1      -9.945  29.742  42.597  1.00  0.00     0.088 N 
HETATM   19  C3  UNL     1     -10.269  28.495  41.953  1.00  0.00     0.310 C 
BRANCH  18  20
HETATM   20  C2  UNL     1      -9.897  30.857  41.699  1.00  0.00     0.268 C 
HETATM   21  C1  UNL     1     -10.110  32.122  42.506  1.00  0.00     0.037 C 
ENDBRANCH  18  20
ENDBRANCH  17  18
ENDBRANCH  13  17
ENDBRANCH   7   9
ENDBRANCH   1   7
BRANCH   4  22
HETATM   22  C10 UNL     1      -7.383  27.314  52.700  1.00  0.00     0.031 A 
HETATM   23  C11 UNL     1      -7.170  28.578  53.151  1.00  0.00     0.034 A 
HETATM   24  C12 UNL     1      -6.741  28.875  54.474  1.00  0.00     0.039 A 
HETATM   25  C15 UNL     1      -6.533  27.830  55.327  1.00  0.00    -0.037 A 
HETATM   26  C16 UNL     1      -6.040  27.964  56.715  1.00  0.00     0.050 C 
HETATM   27  C17 UNL     1      -6.754  26.539  54.860  1.00  0.00    -0.015 A 
HETATM   28  C18 UNL     1      -6.530  25.403  55.780  1.00  0.00     0.052 C 
HETATM   29  C19 UNL     1      -7.167  26.278  53.588  1.00  0.00     0.135 A 
HETATM   30  F1  UNL     1      -7.385  25.016  53.131  1.00  0.00    -0.205 F 
BRANCH  24  31
HETATM   31  C13 UNL     1      -6.605  30.260  54.847  1.00  0.00     0.251 C 
HETATM   32  O1  UNL     1      -7.673  30.974  54.728  1.00  0.00    -0.268 OA
HETATM   33  N5  UNL     1      -5.475  30.895  55.315  1.00  0.00    -0.361 N 
HETATM   34  C14 UNL     1      -5.497  32.334  55.644  1.00  0.00     0.149 C 
ATOM     35  H5  UNL     1      -4.613  30.364  55.436  1.00  0.00     0.162 HD
ENDBRANCH  24  31
ENDBRANCH   4  22
TORSDOF 7
ENDMDL
MODEL 5
REMARK VINA RESULT: -9.772900934      0.951      1.139
REMARK  7 active torsions:
REMARK  status: ('A' for Active; 'I' for Inactive)
REMARK    1  A    between atoms: C2_2  and  N1_3 
REMARK    2  A    between atoms: N1_3  and  C4_5 
REMARK    3  A    between atoms: C4_5  and  C5_6 
REMARK    4  A    between atoms: C7_10  and  N3_11 
REMARK    5  A    between atoms: N3_11  and  C8_13 
REMARK    6  A    between atoms: C9_16  and  C10_17 
REMARK    7  A    between atoms: C12_19  and  C13_20 
REMARK       I    between atoms: C13_20  and  N5_22 
ROOT
HETATM    1  C8  UNL     1      -7.147  27.386  51.498  1.00  0.00     0.164 A 
HETATM    2  N4  UNL     1      -6.699  28.094  52.513  1.00  0.00    -0.335 N 
ATOM      3  H4  UNL     1      -6.144  28.933  52.343  1.00  0.00     0.168 HD
HETATM    4  C9  UNL     1      -6.962  27.728  53.732  1.00  0.00     0.054 A 
HETATM    5  C20 UNL     1      -7.714  26.591  53.902  1.00  0.00     0.083 A 
HETATM    6  S1  UNL     1      -7.991  26.125  52.271  1.00  0.00    -0.063 SA
ENDROOT
BRANCH   1   7
HETATM    7  N3  UNL     1      -7.001  27.555  50.093  1.00  0.00    -0.170 N 
ATOM      8  H3  UNL     1      -6.098  27.880  49.751  1.00  0.00     0.186 HD
BRANCH   7   9
HETATM    9  C7  UNL     1      -7.906  27.333  49.231  1.00  0.00     0.683 A 
HETATM   10  N2  UNL     1      -7.777  27.918  48.024  1.00  0.00    -0.201 N 
HETATM   11  C6  UNL     1      -8.672  27.745  47.036  1.00  0.00     0.116 A 
ATOM     12  H2  UNL     1      -6.968  28.515  47.853  1.00  0.00     0.183 HD
HETATM   13  C5  UNL     1      -9.778  26.941  47.237  1.00  0.00     0.002 A 
HETATM   14  C21 UNL     1      -9.918  26.342  48.458  1.00  0.00     0.116 A 
HETATM   15  N6  UNL     1      -8.981  26.554  49.422  1.00  0.00    -0.201 N 
ATOM     16  H6  UNL     1      -9.101  26.101  50.328  1.00  0.00     0.183 HD
BRANCH  13  17
HETATM   17  C4  UNL     1     -10.756  26.778  46.105  1.00  0.00     0.313 C 
BRANCH  17  18
HETATM   18  N1  UNL     1     -10.136  27.343  44.949  1.00  0.00     0.088 N 
HETATM   19  C3  UNL     1      -9.855  26.382  43.913  1.00  0.00     0.310 C 
BRANCH  18  20
HETATM   20  C2  UNL     1     -10.728  28.554  44.462  1.00  0.00     0.268 C 
HETATM   21  C1  UNL     1      -9.631  29.402  43.848  1.00  0.00     0.037 C 
ENDBRANCH  18  20
ENDBRANCH  17  18
ENDBRANCH  13  17
ENDBRANCH   7   9
ENDBRANCH   1   7
BRANCH   4  22
HETATM   22  C10 UNL     1      -6.471  28.503  54.906  1.00  0.00     0.031 A 
HETATM   23  C11 UNL     1      -7.084  29.648  55.301  1.00  0.00     0.034 A 
HETATM   24  C12 UNL     1      -6.655  30.424  56.414  1.00  0.00     0.039 A 
HETATM   25  C15 UNL     1      -5.567  29.986  57.113  1.00  0.00    -0.037 A 
HETATM   26  C16 UNL     1      -4.964  30.701  58.259  1.00  0.00     0.050 C 
HETATM   27  C17 UNL     1      -4.944  28.813  56.704  1.00  0.00    -0.015 A 
HETATM   28  C18 UNL     1      -3.764  28.336  57.458  1.00  0.00     0.052 C 
HETATM   29  C19 UNL     1      -5.374  28.085  55.635  1.00  0.00     0.135 A 
HETATM   30  F1  UNL     1      -4.767  26.936  55.237  1.00  0.00    -0.205 F 
BRANCH  24  31
HETATM   31  C13 UNL     1      -7.425  31.590  56.765  1.00  0.00     0.251 C 
HETATM   32  O1  UNL     1      -7.220  32.631  56.032  1.00  0.00    -0.268 OA
HETATM   33  N5  UNL     1      -8.347  31.710  57.781  1.00  0.00    -0.361 N 
HETATM   34  C14 UNL     1      -9.047  32.987  58.021  1.00  0.00     0.149 C 
ATOM     35  H5  UNL     1      -8.548  30.906  58.376  1.00  0.00     0.162 HD
ENDBRANCH  24  31
ENDBRANCH   4  22
TORSDOF 7
ENDMDL
