MODEL 1
REMARK VINA RESULT: -4.860536666      0.000      0.000
REMARK  4 active torsions:
REMARK  status: ('A' for Active; 'I' for Inactive)
REMARK    1  A    between atoms: C2_2  and  C3_3 
REMARK    2  A    between atoms: C3_3  and  C4_4 
REMARK    3  A    between atoms: C4_4  and  N1_5 
REMARK    4  A    between atoms: C5_7  and  C6_8 
REMARK       I    between atoms: N3_14  and  C9_15 
REMARK       I    between atoms: C9_15  and  N4_16 
REMARK       I    between atoms: C9_15  and  N5_20 
ROOT
HETATM    1  C6  UNL     1     125.459  53.526  30.735  1.00  0.00     0.462 C 
HETATM    2  N2  UNL     1     125.764  53.634  29.336  1.00  0.00    -0.037 N 
ATOM      3  H21 UNL     1     125.631  52.770  28.811  1.00  0.00     0.280 HD
ATOM      4  H22 UNL     1     126.758  53.735  29.132  1.00  0.00     0.280 HD
HETATM    5  C7  UNL     1     124.960  54.724  28.884  1.00  0.00     0.265 C 
HETATM    6  C8  UNL     1     123.949  55.014  29.976  1.00  0.00     0.308 C 
HETATM    7  N3  UNL     1     124.110  53.951  30.931  1.00  0.00     0.184 N 
HETATM    8  C9  UNL     1     123.126  52.930  30.681  1.00  0.00     0.615 C 
HETATM    9  N4  UNL     1     123.180  52.439  29.326  1.00  0.00    -0.023 N 
ATOM     10  H41 UNL     1     122.483  51.716  29.148  1.00  0.00     0.279 HD
ATOM     11  H42 UNL     1     124.118  52.114  29.090  1.00  0.00     0.279 HD
ATOM     12  H43 UNL     1     123.099  53.202  28.655  1.00  0.00     0.279 HD
HETATM   13  N5  UNL     1     123.145  51.862  31.635  1.00  0.00    -0.023 N 
ATOM     14  H51 UNL     1     122.448  51.138  31.457  1.00  0.00     0.279 HD
ATOM     15  H52 UNL     1     123.051  52.225  32.584  1.00  0.00     0.279 HD
ATOM     16  H53 UNL     1     124.077  51.454  31.700  1.00  0.00     0.279 HD
ENDROOT
BRANCH   1  17
HETATM   17  C5  UNL     1     126.365  54.473  31.458  1.00  0.00     0.120 C 
HETATM   18  N1  UNL     1     127.532  54.175  31.849  1.00  0.00    -0.399 N 
ATOM     19  H1  UNL     1     128.060  54.901  32.332  1.00  0.00     0.158 HD
BRANCH  18  20
HETATM   20  C4  UNL     1     128.174  52.917  31.675  1.00  0.00     0.119 C 
BRANCH  20  21
HETATM   21  C3  UNL     1     128.515  52.249  32.982  1.00  0.00     0.019 C 
BRANCH  21  22
HETATM   22  C2  UNL     1     127.289  51.863  33.767  1.00  0.00    -0.003 C 
HETATM   23  C1  UNL     1     126.408  50.890  33.053  1.00  0.00     0.005 C 
ENDBRANCH  21  22
ENDBRANCH  20  21
ENDBRANCH  18  20
ENDBRANCH   1  17
TORSDOF 4
ENDMDL
MODEL 2
REMARK VINA RESULT: -4.784763068      1.363      2.092
REMARK  4 active torsions:
REMARK  status: ('A' for Active; 'I' for Inactive)
REMARK    1  A    between atoms: C2_2  and  C3_3 
REMARK    2  A    between atoms: C3_3  and  C4_4 
REMARK    3  A    between atoms: C4_4  and  N1_5 
REMARK    4  A    between atoms: C5_7  and  C6_8 
REMARK       I    between atoms: N3_14  and  C9_15 
REMARK       I    between atoms: C9_15  and  N4_16 
REMARK       I    between atoms: C9_15  and  N5_20 
ROOT
HETATM    1  C6  UNL     1     124.871  53.097  31.013  1.00  0.00     0.462 C 
HETATM    2  N2  UNL     1     123.910  53.551  30.048  1.00  0.00    -0.037 N 
ATOM      3  H21 UNL     1     123.517  52.809  29.469  1.00  0.00     0.280 HD
ATOM      4  H22 UNL     1     124.311  54.090  29.280  1.00  0.00     0.280 HD
HETATM    5  C7  UNL     1     122.945  54.265  30.821  1.00  0.00     0.265 C 
HETATM    6  C8  UNL     1     123.200  53.923  32.276  1.00  0.00     0.308 C 
HETATM    7  N3  UNL     1     124.193  52.884  32.252  1.00  0.00     0.184 N 
HETATM    8  C9  UNL     1     123.545  51.602  32.356  1.00  0.00     0.615 C 
HETATM    9  N4  UNL     1     122.548  51.408  31.334  1.00  0.00    -0.023 N 
ATOM     10  H41 UNL     1     122.089  50.500  31.408  1.00  0.00     0.279 HD
ATOM     11  H42 UNL     1     122.942  51.547  30.403  1.00  0.00     0.279 HD
ATOM     12  H43 UNL     1     121.866  52.166  31.336  1.00  0.00     0.279 HD
HETATM   13  N5  UNL     1     124.456  50.498  32.428  1.00  0.00    -0.023 N 
ATOM     14  H51 UNL     1     123.997  49.590  32.502  1.00  0.00     0.279 HD
ATOM     15  H52 UNL     1     125.120  50.628  33.191  1.00  0.00     0.279 HD
ATOM     16  H53 UNL     1     125.100  50.511  31.637  1.00  0.00     0.279 HD
ENDROOT
BRANCH   1  17
HETATM   17  C5  UNL     1     125.864  54.204  31.200  1.00  0.00     0.120 C 
HETATM   18  N1  UNL     1     127.078  54.019  31.508  1.00  0.00    -0.399 N 
ATOM     19  H1  UNL     1     127.662  54.848  31.609  1.00  0.00     0.158 HD
BRANCH  18  20
HETATM   20  C4  UNL     1     127.700  52.758  31.725  1.00  0.00     0.119 C 
BRANCH  20  21
HETATM   21  C3  UNL     1     127.859  52.429  33.188  1.00  0.00     0.019 C 
BRANCH  21  22
HETATM   22  C2  UNL     1     129.227  51.889  33.510  1.00  0.00    -0.003 C 
HETATM   23  C1  UNL     1     130.339  52.765  33.033  1.00  0.00     0.005 C 
ENDBRANCH  21  22
ENDBRANCH  20  21
ENDBRANCH  18  20
ENDBRANCH   1  17
TORSDOF 4
ENDMDL
MODEL 3
REMARK VINA RESULT: -4.739970076      1.799      4.609
REMARK  4 active torsions:
REMARK  status: ('A' for Active; 'I' for Inactive)
REMARK    1  A    between atoms: C2_2  and  C3_3 
REMARK    2  A    between atoms: C3_3  and  C4_4 
REMARK    3  A    between atoms: C4_4  and  N1_5 
REMARK    4  A    between atoms: C5_7  and  C6_8 
REMARK       I    between atoms: N3_14  and  C9_15 
REMARK       I    between atoms: C9_15  and  N4_16 
REMARK       I    between atoms: C9_15  and  N5_20 
ROOT
HETATM    1  C6  UNL     1     126.574  53.190  31.675  1.00  0.00     0.462 C 
HETATM    2  N2  UNL     1     127.081  54.349  32.355  1.00  0.00    -0.037 N 
ATOM      3  H21 UNL     1     126.778  54.429  33.326  1.00  0.00     0.280 HD
ATOM      4  H22 UNL     1     126.676  55.230  32.040  1.00  0.00     0.280 HD
HETATM    5  C7  UNL     1     128.496  54.263  32.189  1.00  0.00     0.265 C 
HETATM    6  C8  UNL     1     128.802  52.864  31.690  1.00  0.00     0.308 C 
HETATM    7  N3  UNL     1     127.553  52.155  31.766  1.00  0.00     0.184 N 
HETATM    8  C9  UNL     1     127.505  51.403  32.993  1.00  0.00     0.615 C 
HETATM    9  N4  UNL     1     127.715  52.233  34.152  1.00  0.00    -0.023 N 
ATOM     10  H41 UNL     1     127.682  51.701  35.021  1.00  0.00     0.279 HD
ATOM     11  H42 UNL     1     127.058  53.013  34.171  1.00  0.00     0.279 HD
ATOM     12  H43 UNL     1     128.587  52.758  34.076  1.00  0.00     0.279 HD
HETATM   13  N5  UNL     1     126.333  50.589  33.127  1.00  0.00    -0.023 N 
ATOM     14  H51 UNL     1     126.299  50.056  33.996  1.00  0.00     0.279 HD
ATOM     15  H52 UNL     1     126.231  49.971  32.322  1.00  0.00     0.279 HD
ATOM     16  H53 UNL     1     125.490  51.152  33.017  1.00  0.00     0.279 HD
ENDROOT
BRANCH   1  17
HETATM   17  C5  UNL     1     126.410  53.563  30.233  1.00  0.00     0.120 C 
HETATM   18  N1  UNL     1     125.313  53.495  29.607  1.00  0.00    -0.399 N 
ATOM     19  H1  UNL     1     125.320  53.776  28.626  1.00  0.00     0.158 HD
BRANCH  18  20
HETATM   20  C4  UNL     1     124.069  53.063  30.147  1.00  0.00     0.119 C 
BRANCH  20  21
HETATM   21  C3  UNL     1     123.021  54.146  30.142  1.00  0.00     0.019 C 
BRANCH  21  22
HETATM   22  C2  UNL     1     122.970  54.902  31.443  1.00  0.00    -0.003 C 
HETATM   23  C1  UNL     1     123.016  54.018  32.647  1.00  0.00     0.005 C 
ENDBRANCH  21  22
ENDBRANCH  20  21
ENDBRANCH  18  20
ENDBRANCH   1  17
TORSDOF 4
ENDMDL
MODEL 4
REMARK VINA RESULT: -4.735931898      1.496      2.696
REMARK  4 active torsions:
REMARK  status: ('A' for Active; 'I' for Inactive)
REMARK    1  A    between atoms: C2_2  and  C3_3 
REMARK    2  A    between atoms: C3_3  and  C4_4 
REMARK    3  A    between atoms: C4_4  and  N1_5 
REMARK    4  A    between atoms: C5_7  and  C6_8 
REMARK       I    between atoms: N3_14  and  C9_15 
REMARK       I    between atoms: C9_15  and  N4_16 
REMARK       I    between atoms: C9_15  and  N5_20 
ROOT
HETATM    1  C6  UNL     1     125.051  53.809  31.156  1.00  0.00     0.462 C 
HETATM    2  N2  UNL     1     123.995  54.463  31.876  1.00  0.00    -0.037 N 
ATOM      3  H21 UNL     1     123.907  55.459  31.676  1.00  0.00     0.280 HD
ATOM      4  H22 UNL     1     124.171  54.565  32.875  1.00  0.00     0.280 HD
HETATM    5  C7  UNL     1     122.830  53.698  31.562  1.00  0.00     0.265 C 
HETATM    6  C8  UNL     1     123.187  52.803  30.392  1.00  0.00     0.308 C 
HETATM    7  N3  UNL     1     124.495  53.230  29.975  1.00  0.00     0.184 N 
HETATM    8  C9  UNL     1     124.368  54.148  28.871  1.00  0.00     0.615 C 
HETATM    9  N4  UNL     1     123.519  55.269  29.187  1.00  0.00    -0.023 N 
ATOM     10  H41 UNL     1     123.429  55.918  28.406  1.00  0.00     0.279 HD
ATOM     11  H42 UNL     1     123.838  55.747  30.030  1.00  0.00     0.279 HD
ATOM     12  H43 UNL     1     122.604  54.957  29.513  1.00  0.00     0.279 HD
HETATM   13  N5  UNL     1     125.624  54.569  28.323  1.00  0.00    -0.023 N 
ATOM     14  H51 UNL     1     125.534  55.218  27.541  1.00  0.00     0.279 HD
ATOM     15  H52 UNL     1     126.188  53.762  28.056  1.00  0.00     0.279 HD
ATOM     16  H53 UNL     1     126.220  54.962  29.050  1.00  0.00     0.279 HD
ENDROOT
BRANCH   1  17
HETATM   17  C5  UNL     1     125.561  52.704  32.030  1.00  0.00     0.120 C 
HETATM   18  N1  UNL     1     126.781  52.375  32.112  1.00  0.00    -0.399 N 
ATOM     19  H1  UNL     1     127.012  51.607  32.741  1.00  0.00     0.158 HD
BRANCH  18  20
HETATM   20  C4  UNL     1     127.857  52.980  31.406  1.00  0.00     0.119 C 
BRANCH  20  21
HETATM   21  C3  UNL     1     129.068  53.213  32.274  1.00  0.00     0.019 C 
BRANCH  21  22
HETATM   22  C2  UNL     1     129.145  52.245  33.425  1.00  0.00    -0.003 C 
HETATM   23  C1  UNL     1     130.543  51.873  33.796  1.00  0.00     0.005 C 
ENDBRANCH  21  22
ENDBRANCH  20  21
ENDBRANCH  18  20
ENDBRANCH   1  17
TORSDOF 4
ENDMDL
MODEL 5
REMARK VINA RESULT: -4.710757977      1.057      1.715
REMARK  4 active torsions:
REMARK  status: ('A' for Active; 'I' for Inactive)
REMARK    1  A    between atoms: C2_2  and  C3_3 
REMARK    2  A    between atoms: C3_3  and  C4_4 
REMARK    3  A    between atoms: C4_4  and  N1_5 
REMARK    4  A    between atoms: C5_7  and  C6_8 
REMARK       I    between atoms: N3_14  and  C9_15 
REMARK       I    between atoms: C9_15  and  N4_16 
REMARK       I    between atoms: C9_15  and  N5_20 
ROOT
HETATM    1  C6  UNL     1     125.260  53.314  30.624  1.00  0.00     0.462 C 
HETATM    2  N2  UNL     1     124.998  53.705  29.268  1.00  0.00    -0.037 N 
ATOM      3  H21 UNL     1     124.656  52.950  28.674  1.00  0.00     0.280 HD
ATOM      4  H22 UNL     1     125.835  53.906  28.721  1.00  0.00     0.280 HD
HETATM    5  C7  UNL     1     124.099  54.808  29.388  1.00  0.00     0.265 C 
HETATM    6  C8  UNL     1     123.599  54.821  30.819  1.00  0.00     0.308 C 
HETATM    7  N3  UNL     1     124.102  53.609  31.406  1.00  0.00     0.184 N 
HETATM    8  C9  UNL     1     123.081  52.594  31.355  1.00  0.00     0.615 C 
HETATM    9  N4  UNL     1     122.595  52.374  30.016  1.00  0.00    -0.023 N 
ATOM     10  H41 UNL     1     121.871  51.656  29.980  1.00  0.00     0.279 HD
ATOM     11  H42 UNL     1     123.360  52.159  29.377  1.00  0.00     0.279 HD
ATOM     12  H43 UNL     1     122.270  53.244  29.595  1.00  0.00     0.279 HD
HETATM   13  N5  UNL     1     123.453  51.367  31.995  1.00  0.00    -0.023 N 
ATOM     14  H51 UNL     1     122.730  50.648  31.959  1.00  0.00     0.279 HD
ATOM     15  H52 UNL     1     123.743  51.537  32.958  1.00  0.00     0.279 HD
ATOM     16  H53 UNL     1     124.330  51.013  31.612  1.00  0.00     0.279 HD
ENDROOT
BRANCH   1  17
HETATM   17  C5  UNL     1     126.393  54.161  31.116  1.00  0.00     0.120 C 
HETATM   18  N1  UNL     1     127.313  53.739  31.875  1.00  0.00    -0.399 N 
ATOM     19  H1  UNL     1     128.034  54.407  32.147  1.00  0.00     0.158 HD
BRANCH  18  20
HETATM   20  C4  UNL     1     127.432  52.416  32.385  1.00  0.00     0.119 C 
BRANCH  20  21
HETATM   21  C3  UNL     1     128.677  52.217  33.211  1.00  0.00     0.019 C 
BRANCH  21  22
HETATM   22  C2  UNL     1     129.854  52.988  32.672  1.00  0.00    -0.003 C 
HETATM   23  C1  UNL     1     131.151  52.615  33.312  1.00  0.00     0.005 C 
ENDBRANCH  21  22
ENDBRANCH  20  21
ENDBRANCH  18  20
ENDBRANCH   1  17
TORSDOF 4
ENDMDL
