MODEL 1
REMARK VINA RESULT: -5.310903655      0.000      0.000
REMARK  8 active torsions:
REMARK  status: ('A' for Active; 'I' for Inactive)
REMARK    1  A    between atoms: N1_1  and  C1_5 
REMARK    2  A    between atoms: C1_5  and  C2_6 
REMARK    3  A    between atoms: C2_6  and  C3_7 
REMARK    4  A    between atoms: C3_7  and  C4_8 
REMARK    5  A    between atoms: C5_9  and  N2_10 
REMARK    6  A    between atoms: N3_16  and  C8_17 
REMARK    7  A    between atoms: C8_17  and  C9_18 
REMARK    8  A    between atoms: C9_18  and  N4_19 
ROOT
HETATM    1  C4  UNL     1     125.457  53.375  30.834  1.00  0.00     0.253 C 
HETATM    2  C5  UNL     1     125.204  54.538  29.834  1.00  0.00     0.218 C 
HETATM    3  C6  UNL     1     123.702  54.627  29.689  1.00  0.00     0.065 C 
HETATM    4  C7  UNL     1     123.264  53.354  30.393  1.00  0.00     0.275 C 
HETATM    5  N3  UNL     1     124.228  53.369  31.506  1.00  0.00     0.096 N 
ENDROOT
BRANCH   1   6
HETATM    6  C3  UNL     1     126.701  53.664  31.612  1.00  0.00     0.040 C 
BRANCH   6   7
HETATM    7  C2  UNL     1     127.369  52.382  32.099  1.00  0.00     0.029 C 
BRANCH   7   8
HETATM    8  C1  UNL     1     128.765  52.772  32.601  1.00  0.00     0.229 C 
BRANCH   8   9
HETATM    9  N1  UNL     1     129.105  54.103  32.163  1.00  0.00    -0.079 N 
ATOM     10  H13 UNL     1     130.104  54.197  31.977  1.00  0.00     0.274 HD
ATOM     11  H12 UNL     1     128.757  54.294  31.223  1.00  0.00     0.274 HD
ATOM     12  H11 UNL     1     128.777  54.796  32.836  1.00  0.00     0.274 HD
ENDBRANCH   8   9
ENDBRANCH   7   8
ENDBRANCH   6   7
ENDBRANCH   1   6
BRANCH   2  13
HETATM   13  N2  UNL     1     125.729  54.199  28.517  1.00  0.00    -0.073 N 
ATOM     14  H23 UNL     1     125.859  53.194  28.407  1.00  0.00     0.274 HD
ATOM     15  H22 UNL     1     125.036  54.344  27.783  1.00  0.00     0.274 HD
ATOM     16  H21 UNL     1     126.590  54.715  28.334  1.00  0.00     0.274 HD
ENDBRANCH   2  13
BRANCH   5  17
HETATM   17  C8  UNL     1     123.849  52.504  32.510  1.00  0.00     0.300 C 
BRANCH  17  18
HETATM   18  C9  UNL     1     123.453  51.111  32.198  1.00  0.00     0.259 C 
BRANCH  18  19
HETATM   19  N4  UNL     1     124.535  50.159  32.400  1.00  0.00    -0.078 N 
ATOM     20  H43 UNL     1     125.161  50.140  31.594  1.00  0.00     0.274 HD
ATOM     21  H42 UNL     1     125.189  50.493  33.108  1.00  0.00     0.274 HD
ATOM     22  H41 UNL     1     124.201  49.222  32.624  1.00  0.00     0.274 HD
ENDBRANCH  18  19
ENDBRANCH  17  18
ENDBRANCH   5  17
TORSDOF 8
ENDMDL
MODEL 2
REMARK VINA RESULT: -5.076934588      0.869      1.048
REMARK  8 active torsions:
REMARK  status: ('A' for Active; 'I' for Inactive)
REMARK    1  A    between atoms: N1_1  and  C1_5 
REMARK    2  A    between atoms: C1_5  and  C2_6 
REMARK    3  A    between atoms: C2_6  and  C3_7 
REMARK    4  A    between atoms: C3_7  and  C4_8 
REMARK    5  A    between atoms: C5_9  and  N2_10 
REMARK    6  A    between atoms: N3_16  and  C8_17 
REMARK    7  A    between atoms: C8_17  and  C9_18 
REMARK    8  A    between atoms: C9_18  and  N4_19 
ROOT
HETATM    1  C4  UNL     1     124.703  53.497  30.095  1.00  0.00     0.253 C 
HETATM    2  C5  UNL     1     124.613  54.826  29.295  1.00  0.00     0.218 C 
HETATM    3  C6  UNL     1     123.363  55.514  29.793  1.00  0.00     0.065 C 
HETATM    4  C7  UNL     1     122.726  54.405  30.613  1.00  0.00     0.275 C 
HETATM    5  N3  UNL     1     123.945  53.845  31.220  1.00  0.00     0.096 N 
ENDROOT
BRANCH   1   6
HETATM    6  C3  UNL     1     126.143  53.138  30.281  1.00  0.00     0.040 C 
BRANCH   6   7
HETATM    7  C2  UNL     1     126.736  53.813  31.514  1.00  0.00     0.029 C 
BRANCH   7   8
HETATM    8  C1  UNL     1     128.028  53.061  31.854  1.00  0.00     0.229 C 
BRANCH   8   9
HETATM    9  N1  UNL     1     129.069  53.987  32.225  1.00  0.00    -0.079 N 
ATOM     10  H13 UNL     1     128.848  54.941  31.938  1.00  0.00     0.274 HD
ATOM     11  H12 UNL     1     129.102  54.137  33.234  1.00  0.00     0.274 HD
ATOM     12  H11 UNL     1     129.969  53.679  31.858  1.00  0.00     0.274 HD
ENDBRANCH   8   9
ENDBRANCH   7   8
ENDBRANCH   6   7
ENDBRANCH   1   6
BRANCH   2  13
HETATM   13  N2  UNL     1     124.402  54.554  27.879  1.00  0.00    -0.073 N 
ATOM     14  H23 UNL     1     125.264  54.269  27.414  1.00  0.00     0.274 HD
ATOM     15  H22 UNL     1     123.863  53.701  27.732  1.00  0.00     0.274 HD
ATOM     16  H21 UNL     1     123.973  55.358  27.421  1.00  0.00     0.274 HD
ENDBRANCH   2  13
BRANCH   5  17
HETATM   17  C8  UNL     1     123.644  53.029  32.289  1.00  0.00     0.300 C 
BRANCH  17  18
HETATM   18  C9  UNL     1     123.223  51.626  32.073  1.00  0.00     0.259 C 
BRANCH  18  19
HETATM   19  N4  UNL     1     124.282  50.668  32.358  1.00  0.00    -0.078 N 
ATOM     20  H43 UNL     1     125.172  51.142  32.511  1.00  0.00     0.274 HD
ATOM     21  H42 UNL     1     124.157  50.249  33.280  1.00  0.00     0.274 HD
ATOM     22  H41 UNL     1     124.370  49.951  31.639  1.00  0.00     0.274 HD
ENDBRANCH  18  19
ENDBRANCH  17  18
ENDBRANCH   5  17
TORSDOF 8
ENDMDL
MODEL 3
REMARK VINA RESULT: -5.026285289      1.324      3.543
REMARK  8 active torsions:
REMARK  status: ('A' for Active; 'I' for Inactive)
REMARK    1  A    between atoms: N1_1  and  C1_5 
REMARK    2  A    between atoms: C1_5  and  C2_6 
REMARK    3  A    between atoms: C2_6  and  C3_7 
REMARK    4  A    between atoms: C3_7  and  C4_8 
REMARK    5  A    between atoms: C5_9  and  N2_10 
REMARK    6  A    between atoms: N3_16  and  C8_17 
REMARK    7  A    between atoms: C8_17  and  C9_18 
REMARK    8  A    between atoms: C9_18  and  N4_19 
ROOT
HETATM    1  C4  UNL     1     125.252  53.879  31.171  1.00  0.00     0.253 C 
HETATM    2  C5  UNL     1     124.538  52.591  31.667  1.00  0.00     0.218 C 
HETATM    3  C6  UNL     1     123.433  52.333  30.669  1.00  0.00     0.065 C 
HETATM    4  C7  UNL     1     123.449  53.626  29.872  1.00  0.00     0.275 C 
HETATM    5  N3  UNL     1     124.905  53.837  29.814  1.00  0.00     0.096 N 
ENDROOT
BRANCH   1   6
HETATM    6  C3  UNL     1     126.699  53.809  31.546  1.00  0.00     0.040 C 
BRANCH   6   7
HETATM    7  C2  UNL     1     127.059  52.453  32.143  1.00  0.00     0.029 C 
BRANCH   7   8
HETATM    8  C1  UNL     1     128.440  52.606  32.792  1.00  0.00     0.229 C 
BRANCH   8   9
HETATM    9  N1  UNL     1     129.086  53.808  32.326  1.00  0.00    -0.079 N 
ATOM     10  H13 UNL     1     128.615  54.647  32.666  1.00  0.00     0.274 HD
ATOM     11  H12 UNL     1     129.991  53.950  32.773  1.00  0.00     0.274 HD
ATOM     12  H11 UNL     1     129.163  53.801  31.309  1.00  0.00     0.274 HD
ENDBRANCH   8   9
ENDBRANCH   7   8
ENDBRANCH   6   7
ENDBRANCH   1   6
BRANCH   2  13
HETATM   13  N2  UNL     1     123.892  52.830  32.951  1.00  0.00    -0.073 N 
ATOM     14  H23 UNL     1     124.299  53.629  33.438  1.00  0.00     0.274 HD
ATOM     15  H22 UNL     1     122.944  53.188  32.838  1.00  0.00     0.274 HD
ATOM     16  H21 UNL     1     123.914  51.986  33.523  1.00  0.00     0.274 HD
ENDBRANCH   2  13
BRANCH   5  17
HETATM   17  C8  UNL     1     125.241  54.766  28.854  1.00  0.00     0.300 C 
BRANCH  17  18
HETATM   18  C9  UNL     1     124.198  55.381  28.001  1.00  0.00     0.259 C 
BRANCH  18  19
HETATM   19  N4  UNL     1     124.141  56.830  28.135  1.00  0.00    -0.078 N 
ATOM     20  H43 UNL     1     124.037  57.278  27.225  1.00  0.00     0.274 HD
ATOM     21  H42 UNL     1     123.264  57.123  28.566  1.00  0.00     0.274 HD
ATOM     22  H41 UNL     1     124.941  57.211  28.640  1.00  0.00     0.274 HD
ENDBRANCH  18  19
ENDBRANCH  17  18
ENDBRANCH   5  17
TORSDOF 8
ENDMDL
MODEL 4
REMARK VINA RESULT: -4.960611027      1.690      4.162
REMARK  8 active torsions:
REMARK  status: ('A' for Active; 'I' for Inactive)
REMARK    1  A    between atoms: N1_1  and  C1_5 
REMARK    2  A    between atoms: C1_5  and  C2_6 
REMARK    3  A    between atoms: C2_6  and  C3_7 
REMARK    4  A    between atoms: C3_7  and  C4_8 
REMARK    5  A    between atoms: C5_9  and  N2_10 
REMARK    6  A    between atoms: N3_16  and  C8_17 
REMARK    7  A    between atoms: C8_17  and  C9_18 
REMARK    8  A    between atoms: C9_18  and  N4_19 
ROOT
HETATM    1  C4  UNL     1     124.981  53.267  30.673  1.00  0.00     0.253 C 
HETATM    2  C5  UNL     1     123.498  53.142  31.120  1.00  0.00     0.218 C 
HETATM    3  C6  UNL     1     123.504  52.160  32.269  1.00  0.00     0.065 C 
HETATM    4  C7  UNL     1     124.922  51.621  32.186  1.00  0.00     0.275 C 
HETATM    5  N3  UNL     1     125.621  52.874  31.855  1.00  0.00     0.096 N 
ENDROOT
BRANCH   1   6
HETATM    6  C3  UNL     1     125.218  54.649  30.151  1.00  0.00     0.040 C 
BRANCH   6   7
HETATM    7  C2  UNL     1     125.130  54.697  28.629  1.00  0.00     0.029 C 
BRANCH   7   8
HETATM    8  C1  UNL     1     124.294  55.932  28.272  1.00  0.00     0.229 C 
BRANCH   8   9
HETATM    9  N1  UNL     1     122.910  55.721  28.616  1.00  0.00    -0.079 N 
ATOM     10  H13 UNL     1     122.436  55.126  27.935  1.00  0.00     0.274 HD
ATOM     11  H12 UNL     1     122.810  55.122  29.435  1.00  0.00     0.274 HD
ATOM     12  H11 UNL     1     122.432  56.613  28.739  1.00  0.00     0.274 HD
ENDBRANCH   8   9
ENDBRANCH   7   8
ENDBRANCH   6   7
ENDBRANCH   1   6
BRANCH   2  13
HETATM   13  N2  UNL     1     122.696  52.541  30.062  1.00  0.00    -0.073 N 
ATOM     14  H23 UNL     1     122.617  53.154  29.252  1.00  0.00     0.274 HD
ATOM     15  H22 UNL     1     123.180  51.762  29.616  1.00  0.00     0.274 HD
ATOM     16  H21 UNL     1     121.783  52.266  30.421  1.00  0.00     0.274 HD
ENDBRANCH   2  13
BRANCH   5  17
HETATM   17  C8  UNL     1     126.980  52.759  32.052  1.00  0.00     0.300 C 
BRANCH  17  18
HETATM   18  C9  UNL     1     127.532  51.671  32.892  1.00  0.00     0.259 C 
BRANCH  18  19
HETATM   19  N4  UNL     1     128.663  52.101  33.700  1.00  0.00    -0.078 N 
ATOM     20  H43 UNL     1     128.364  52.359  34.641  1.00  0.00     0.274 HD
ATOM     21  H42 UNL     1     129.269  51.313  33.930  1.00  0.00     0.274 HD
ATOM     22  H41 UNL     1     129.194  52.856  33.267  1.00  0.00     0.274 HD
ENDBRANCH  18  19
ENDBRANCH  17  18
ENDBRANCH   5  17
TORSDOF 8
ENDMDL
MODEL 5
REMARK VINA RESULT: -4.759398825      1.212      3.938
REMARK  8 active torsions:
REMARK  status: ('A' for Active; 'I' for Inactive)
REMARK    1  A    between atoms: N1_1  and  C1_5 
REMARK    2  A    between atoms: C1_5  and  C2_6 
REMARK    3  A    between atoms: C2_6  and  C3_7 
REMARK    4  A    between atoms: C3_7  and  C4_8 
REMARK    5  A    between atoms: C5_9  and  N2_10 
REMARK    6  A    between atoms: N3_16  and  C8_17 
REMARK    7  A    between atoms: C8_17  and  C9_18 
REMARK    8  A    between atoms: C9_18  and  N4_19 
ROOT
HETATM    1  C4  UNL     1     126.645  53.306  31.659  1.00  0.00     0.253 C 
HETATM    2  C5  UNL     1     128.140  52.894  31.752  1.00  0.00     0.218 C 
HETATM    3  C6  UNL     1     128.229  51.961  32.938  1.00  0.00     0.065 C 
HETATM    4  C7  UNL     1     126.855  52.148  33.560  1.00  0.00     0.275 C 
HETATM    5  N3  UNL     1     126.057  52.223  32.325  1.00  0.00     0.096 N 
ENDROOT
BRANCH   1   6
HETATM    6  C3  UNL     1     126.294  53.544  30.224  1.00  0.00     0.040 C 
BRANCH   6   7
HETATM    7  C2  UNL     1     124.990  54.325  30.087  1.00  0.00     0.029 C 
BRANCH   7   8
HETATM    8  C1  UNL     1     125.097  55.145  28.795  1.00  0.00     0.229 C 
BRANCH   8   9
HETATM    9  N1  UNL     1     124.309  54.542  27.749  1.00  0.00    -0.079 N 
ATOM     10  H13 UNL     1     124.096  53.565  27.949  1.00  0.00     0.274 HD
ATOM     11  H12 UNL     1     123.356  54.905  27.735  1.00  0.00     0.274 HD
ATOM     12  H11 UNL     1     124.770  54.654  26.846  1.00  0.00     0.274 HD
ENDBRANCH   8   9
ENDBRANCH   7   8
ENDBRANCH   6   7
ENDBRANCH   1   6
BRANCH   2  13
HETATM   13  N2  UNL     1     128.968  54.050  32.068  1.00  0.00    -0.073 N 
ATOM     14  H23 UNL     1     129.960  53.854  31.939  1.00  0.00     0.274 HD
ATOM     15  H22 UNL     1     128.868  54.790  31.373  1.00  0.00     0.274 HD
ATOM     16  H21 UNL     1     128.767  54.385  33.010  1.00  0.00     0.274 HD
ENDBRANCH   2  13
BRANCH   5  17
HETATM   17  C8  UNL     1     124.714  52.052  32.583  1.00  0.00     0.300 C 
BRANCH  17  18
HETATM   18  C9  UNL     1     123.995  50.860  32.079  1.00  0.00     0.259 C 
BRANCH  18  19
HETATM   19  N4  UNL     1     124.589  49.610  32.532  1.00  0.00    -0.078 N 
ATOM     20  H43 UNL     1     124.167  48.812  32.057  1.00  0.00     0.274 HD
ATOM     21  H42 UNL     1     125.547  49.517  32.193  1.00  0.00     0.274 HD
ATOM     22  H41 UNL     1     124.547  49.497  33.544  1.00  0.00     0.274 HD
ENDBRANCH  18  19
ENDBRANCH  17  18
ENDBRANCH   5  17
TORSDOF 8
ENDMDL
