MODEL 1
REMARK VINA RESULT: -8.153310042      0.000      0.000
REMARK  11 active torsions:
REMARK  status: ('A' for Active; 'I' for Inactive)
REMARK    1  A    between atoms: C2_2  and  C4_4 
REMARK    2  A    between atoms: C4_4  and  C5_5 
REMARK    3  A    between atoms: C5_5  and  C6_6 
REMARK    4  A    between atoms: C6_6  and  C7_7 
REMARK    5  A    between atoms: C7_7  and  C8_8 
REMARK    6  A    between atoms: C7_7  and  C13_15 
REMARK    7  A    between atoms: C8_8  and  C9_9 
REMARK    8  A    between atoms: C9_9  and  C10_10 
REMARK    9  A    between atoms: C10_10  and  C11_11 
REMARK   10  A    between atoms: C11_11  and  C12_12 
REMARK   11  A    between atoms: C22_24  and  O3_25 
ROOT
HETATM    1  C13 UNL     1     -14.950  18.342 -11.800  1.00  0.00     0.126 C 
HETATM    2  C14 UNL     1     -15.752  19.480 -12.365  1.00  0.00     0.033 C 
HETATM    3  C15 UNL     1     -16.198  20.508 -11.382  1.00  0.00     0.010 C 
HETATM    4  C16 UNL     1     -16.103  20.018 -10.007  1.00  0.00     0.019 C 
HETATM    5  C17 UNL     1     -16.333  18.556  -9.947  1.00  0.00     0.126 C 
HETATM    6  C18 UNL     1     -17.727  18.124 -10.247  1.00  0.00     0.033 C 
HETATM    7  C19 UNL     1     -18.775  19.158  -9.969  1.00  0.00     0.014 C 
HETATM    8  C20 UNL     1     -18.394  20.182  -8.951  1.00  0.00    -0.014 C 
HETATM    9  C21 UNL     1     -18.737  19.612  -7.562  1.00  0.00     0.018 C 
HETATM   10  C22 UNL     1     -19.305  21.378  -9.118  1.00  0.00     0.126 C 
HETATM   11  C23 UNL     1     -18.486  22.576  -8.783  1.00  0.00     0.033 C 
HETATM   12  C24 UNL     1     -17.063  22.172  -9.108  1.00  0.00     0.008 C 
HETATM   13  C25 UNL     1     -16.997  20.690  -9.001  1.00  0.00     0.003 C 
HETATM   14  O4  UNL     1     -15.483  17.785 -10.690  1.00  0.00    -0.380 OA
ENDROOT
BRANCH   1  15
HETATM   15  C7  UNL     1     -14.691  17.250 -12.809  1.00  0.00     0.015 C 
BRANCH  15  16
HETATM   16  C6  UNL     1     -13.265  17.031 -13.181  1.00  0.00     0.007 C 
BRANCH  16  17
HETATM   17  C5  UNL     1     -12.838  15.648 -13.508  1.00  0.00     0.001 C 
BRANCH  17  18
HETATM   18  C4  UNL     1     -12.358  15.581 -14.938  1.00  0.00     0.004 C 
BRANCH  18  19
HETATM   19  C2  UNL     1     -11.221  14.577 -14.987  1.00  0.00    -0.023 C 
HETATM   20  C1  UNL     1     -10.158  14.984 -14.000  1.00  0.00     0.009 C 
HETATM   21  C3  UNL     1     -10.654  14.582 -16.387  1.00  0.00     0.009 C 
ENDBRANCH  18  19
ENDBRANCH  17  18
ENDBRANCH  16  17
ENDBRANCH  15  16
BRANCH  15  22
HETATM   22  C8  UNL     1     -15.409  17.552 -14.125  1.00  0.00     0.007 C 
BRANCH  22  23
HETATM   23  C9  UNL     1     -16.414  16.529 -14.524  1.00  0.00     0.001 C 
BRANCH  23  24
HETATM   24  C10 UNL     1     -17.496  17.223 -15.336  1.00  0.00     0.010 C 
BRANCH  24  25
HETATM   25  C11 UNL     1     -18.855  16.803 -14.774  1.00  0.00     0.113 C 
BRANCH  25  26
HETATM   26  C12 UNL     1     -19.875  17.208 -15.767  1.00  0.00     0.172 C 
HETATM   27  O1  UNL     1     -21.092  17.180 -15.519  1.00  0.00    -0.648 OA
HETATM   28  O2  UNL     1     -19.481  17.637 -17.024  1.00  0.00    -0.648 OA
ENDBRANCH  25  26
ENDBRANCH  24  25
ENDBRANCH  23  24
ENDBRANCH  22  23
ENDBRANCH  15  22
ENDBRANCH   1  15
BRANCH  10  29
HETATM   29  O3  UNL     1     -19.759  21.504 -10.430  1.00  0.00    -0.395 OA
ATOM     30  H3  UNL     1     -20.681  21.292 -10.507  1.00  0.00     0.210 HD
ENDBRANCH  10  29
TORSDOF 11
ENDMDL
MODEL 2
REMARK VINA RESULT: -7.965717662      4.710      7.808
REMARK  11 active torsions:
REMARK  status: ('A' for Active; 'I' for Inactive)
REMARK    1  A    between atoms: C2_2  and  C4_4 
REMARK    2  A    between atoms: C4_4  and  C5_5 
REMARK    3  A    between atoms: C5_5  and  C6_6 
REMARK    4  A    between atoms: C6_6  and  C7_7 
REMARK    5  A    between atoms: C7_7  and  C8_8 
REMARK    6  A    between atoms: C7_7  and  C13_15 
REMARK    7  A    between atoms: C8_8  and  C9_9 
REMARK    8  A    between atoms: C9_9  and  C10_10 
REMARK    9  A    between atoms: C10_10  and  C11_11 
REMARK   10  A    between atoms: C11_11  and  C12_12 
REMARK   11  A    between atoms: C22_24  and  O3_25 
ROOT
HETATM    1  C13 UNL     1     -15.194  22.302  -9.022  1.00  0.00     0.126 C 
HETATM    2  C14 UNL     1     -14.887  23.656  -9.597  1.00  0.00     0.033 C 
HETATM    3  C15 UNL     1     -15.001  24.801  -8.649  1.00  0.00     0.010 C 
HETATM    4  C16 UNL     1     -15.759  24.439  -7.452  1.00  0.00     0.019 C 
HETATM    5  C17 UNL     1     -16.791  23.424  -7.764  1.00  0.00     0.126 C 
HETATM    6  C18 UNL     1     -17.918  23.908  -8.610  1.00  0.00     0.033 C 
HETATM    7  C19 UNL     1     -18.180  25.380  -8.517  1.00  0.00     0.014 C 
HETATM    8  C20 UNL     1     -17.719  26.023  -7.250  1.00  0.00    -0.014 C 
HETATM    9  C21 UNL     1     -18.842  25.864  -6.208  1.00  0.00     0.018 C 
HETATM   10  C22 UNL     1     -17.613  27.514  -7.486  1.00  0.00     0.126 C 
HETATM   11  C23 UNL     1     -16.469  27.987  -6.659  1.00  0.00     0.033 C 
HETATM   12  C24 UNL     1     -15.557  26.783  -6.540  1.00  0.00     0.008 C 
HETATM   13  C25 UNL     1     -16.407  25.576  -6.709  1.00  0.00     0.003 C 
HETATM   14  O4  UNL     1     -16.335  22.251  -8.300  1.00  0.00    -0.380 OA
ENDROOT
BRANCH   1  15
HETATM   15  C7  UNL     1     -15.241  21.218 -10.071  1.00  0.00     0.015 C 
BRANCH  15  16
HETATM   16  C6  UNL     1     -16.598  20.715 -10.429  1.00  0.00     0.007 C 
BRANCH  16  17
HETATM   17  C5  UNL     1     -16.757  19.261 -10.676  1.00  0.00     0.001 C 
BRANCH  17  18
HETATM   18  C4  UNL     1     -17.853  18.705  -9.800  1.00  0.00     0.004 C 
BRANCH  18  19
HETATM   19  C2  UNL     1     -18.735  19.869  -9.385  1.00  0.00    -0.023 C 
HETATM   20  C1  UNL     1     -19.018  19.771  -7.908  1.00  0.00     0.009 C 
HETATM   21  C3  UNL     1     -20.025  19.779 -10.164  1.00  0.00     0.009 C 
ENDBRANCH  18  19
ENDBRANCH  17  18
ENDBRANCH  16  17
ENDBRANCH  15  16
BRANCH  15  22
HETATM   22  C8  UNL     1     -14.465  19.984  -9.605  1.00  0.00     0.007 C 
BRANCH  22  23
HETATM   23  C9  UNL     1     -12.987  20.162  -9.586  1.00  0.00     0.001 C 
BRANCH  23  24
HETATM   24  C10 UNL     1     -12.346  18.786  -9.655  1.00  0.00     0.010 C 
BRANCH  24  25
HETATM   25  C11 UNL     1     -11.084  18.804  -8.790  1.00  0.00     0.113 C 
BRANCH  25  26
HETATM   26  C12 UNL     1      -9.930  18.878  -9.714  1.00  0.00     0.172 C 
HETATM   27  O1  UNL     1      -9.591  17.921 -10.430  1.00  0.00    -0.648 OA
HETATM   28  O2  UNL     1      -9.188  20.045  -9.800  1.00  0.00    -0.648 OA
ENDBRANCH  25  26
ENDBRANCH  24  25
ENDBRANCH  23  24
ENDBRANCH  22  23
ENDBRANCH  15  22
ENDBRANCH   1  15
BRANCH  10  29
HETATM   29  O3  UNL     1     -17.347  27.809  -8.822  1.00  0.00    -0.395 OA
ATOM     30  H3  UNL     1     -17.991  27.424  -9.404  1.00  0.00     0.210 HD
ENDBRANCH  10  29
TORSDOF 11
ENDMDL
MODEL 3
REMARK VINA RESULT: -7.914809597      1.907      5.237
REMARK  11 active torsions:
REMARK  status: ('A' for Active; 'I' for Inactive)
REMARK    1  A    between atoms: C2_2  and  C4_4 
REMARK    2  A    between atoms: C4_4  and  C5_5 
REMARK    3  A    between atoms: C5_5  and  C6_6 
REMARK    4  A    between atoms: C6_6  and  C7_7 
REMARK    5  A    between atoms: C7_7  and  C8_8 
REMARK    6  A    between atoms: C7_7  and  C13_15 
REMARK    7  A    between atoms: C8_8  and  C9_9 
REMARK    8  A    between atoms: C9_9  and  C10_10 
REMARK    9  A    between atoms: C10_10  and  C11_11 
REMARK   10  A    between atoms: C11_11  and  C12_12 
REMARK   11  A    between atoms: C22_24  and  O3_25 
ROOT
HETATM    1  C13 UNL     1     -15.250  18.451 -12.357  1.00  0.00     0.126 C 
HETATM    2  C14 UNL     1     -15.764  19.845 -12.582  1.00  0.00     0.033 C 
HETATM    3  C15 UNL     1     -16.033  20.643 -11.352  1.00  0.00     0.010 C 
HETATM    4  C16 UNL     1     -16.114  19.793 -10.164  1.00  0.00     0.019 C 
HETATM    5  C17 UNL     1     -16.649  18.455 -10.503  1.00  0.00     0.126 C 
HETATM    6  C18 UNL     1     -18.086  18.432 -10.898  1.00  0.00     0.033 C 
HETATM    7  C19 UNL     1     -18.905  19.555 -10.339  1.00  0.00     0.014 C 
HETATM    8  C20 UNL     1     -18.369  20.160  -9.083  1.00  0.00    -0.014 C 
HETATM    9  C21 UNL     1     -18.894  19.326  -7.899  1.00  0.00     0.018 C 
HETATM   10  C22 UNL     1     -18.998  21.525  -8.909  1.00  0.00     0.126 C 
HETATM   11  C23 UNL     1     -17.963  22.383  -8.268  1.00  0.00     0.033 C 
HETATM   12  C24 UNL     1     -16.642  21.782  -8.703  1.00  0.00     0.008 C 
HETATM   13  C25 UNL     1     -16.895  20.348  -9.004  1.00  0.00     0.003 C 
HETATM   14  O4  UNL     1     -15.944  17.746 -11.436  1.00  0.00    -0.380 OA
ENDROOT
BRANCH   1  15
HETATM   15  C7  UNL     1     -15.177  17.641 -13.627  1.00  0.00     0.015 C 
BRANCH  15  16
HETATM   16  C6  UNL     1     -16.350  16.767 -13.912  1.00  0.00     0.007 C 
BRANCH  16  17
HETATM   17  C5  UNL     1     -17.292  17.196 -14.975  1.00  0.00     0.001 C 
BRANCH  17  18
HETATM   18  C4  UNL     1     -18.703  16.814 -14.599  1.00  0.00     0.004 C 
BRANCH  18  19
HETATM   19  C2  UNL     1     -19.559  16.960 -15.844  1.00  0.00    -0.023 C 
HETATM   20  C1  UNL     1     -18.883  17.908 -16.801  1.00  0.00     0.009 C 
HETATM   21  C3  UNL     1     -20.899  17.517 -15.428  1.00  0.00     0.009 C 
ENDBRANCH  18  19
ENDBRANCH  17  18
ENDBRANCH  16  17
ENDBRANCH  15  16
BRANCH  15  22
HETATM   22  C8  UNL     1     -13.972  16.699 -13.596  1.00  0.00     0.007 C 
BRANCH  22  23
HETATM   23  C9  UNL     1     -13.054  16.839 -14.760  1.00  0.00     0.001 C 
BRANCH  23  24
HETATM   24  C10 UNL     1     -12.395  15.491 -15.005  1.00  0.00     0.010 C 
BRANCH  24  25
HETATM   25  C11 UNL     1     -11.874  14.967 -13.665  1.00  0.00     0.113 C 
BRANCH  25  26
HETATM   26  C12 UNL     1     -10.547  15.586 -13.448  1.00  0.00     0.172 C 
HETATM   27  O1  UNL     1     -10.317  16.344 -12.492  1.00  0.00    -0.648 OA
HETATM   28  O2  UNL     1      -9.511  15.324 -14.330  1.00  0.00    -0.648 OA
ENDBRANCH  25  26
ENDBRANCH  24  25
ENDBRANCH  23  24
ENDBRANCH  22  23
ENDBRANCH  15  22
ENDBRANCH   1  15
BRANCH  10  29
HETATM   29  O3  UNL     1     -19.348  22.093 -10.133  1.00  0.00    -0.395 OA
ATOM     30  H3  UNL     1     -19.204  21.493 -10.855  1.00  0.00     0.210 HD
ENDBRANCH  10  29
TORSDOF 11
ENDMDL
MODEL 4
REMARK VINA RESULT: -7.899839860      3.930      7.351
REMARK  11 active torsions:
REMARK  status: ('A' for Active; 'I' for Inactive)
REMARK    1  A    between atoms: C2_2  and  C4_4 
REMARK    2  A    between atoms: C4_4  and  C5_5 
REMARK    3  A    between atoms: C5_5  and  C6_6 
REMARK    4  A    between atoms: C6_6  and  C7_7 
REMARK    5  A    between atoms: C7_7  and  C8_8 
REMARK    6  A    between atoms: C7_7  and  C13_15 
REMARK    7  A    between atoms: C8_8  and  C9_9 
REMARK    8  A    between atoms: C9_9  and  C10_10 
REMARK    9  A    between atoms: C10_10  and  C11_11 
REMARK   10  A    between atoms: C11_11  and  C12_12 
REMARK   11  A    between atoms: C22_24  and  O3_25 
ROOT
HETATM    1  C13 UNL     1     -16.818  22.364  -9.676  1.00  0.00     0.126 C 
HETATM    2  C14 UNL     1     -17.648  22.320  -8.424  1.00  0.00     0.033 C 
HETATM    3  C15 UNL     1     -18.165  23.633  -7.944  1.00  0.00     0.010 C 
HETATM    4  C16 UNL     1     -17.452  24.752  -8.559  1.00  0.00     0.019 C 
HETATM    5  C17 UNL     1     -16.045  24.391  -8.849  1.00  0.00     0.126 C 
HETATM    6  C18 UNL     1     -15.182  24.203  -7.649  1.00  0.00     0.033 C 
HETATM    7  C19 UNL     1     -15.630  24.956  -6.434  1.00  0.00     0.014 C 
HETATM    8  C20 UNL     1     -16.460  26.167  -6.714  1.00  0.00    -0.014 C 
HETATM    9  C21 UNL     1     -15.501  27.345  -6.963  1.00  0.00     0.018 C 
HETATM   10  C22 UNL     1     -17.207  26.531  -5.449  1.00  0.00     0.126 C 
HETATM   11  C23 UNL     1     -18.520  27.083  -5.886  1.00  0.00     0.033 C 
HETATM   12  C24 UNL     1     -18.791  26.421  -7.221  1.00  0.00     0.008 C 
HETATM   13  C25 UNL     1     -17.472  26.050  -7.798  1.00  0.00     0.003 C 
HETATM   14  O4  UNL     1     -15.860  23.317  -9.674  1.00  0.00    -0.380 OA
ENDROOT
BRANCH   1  15
HETATM   15  C7  UNL     1     -16.176  21.037 -10.000  1.00  0.00     0.015 C 
BRANCH  15  16
HETATM   16  C6  UNL     1     -16.899  19.827  -9.516  1.00  0.00     0.007 C 
BRANCH  16  17
HETATM   17  C5  UNL     1     -17.721  19.072 -10.493  1.00  0.00     0.001 C 
BRANCH  17  18
HETATM   18  C4  UNL     1     -16.957  17.870 -10.991  1.00  0.00     0.004 C 
BRANCH  18  19
HETATM   19  C2  UNL     1     -16.544  18.157 -12.423  1.00  0.00    -0.023 C 
HETATM   20  C1  UNL     1     -17.320  17.259 -13.350  1.00  0.00     0.009 C 
HETATM   21  C3  UNL     1     -15.066  17.874 -12.549  1.00  0.00     0.009 C 
ENDBRANCH  18  19
ENDBRANCH  17  18
ENDBRANCH  16  17
ENDBRANCH  15  16
BRANCH  15  22
HETATM   22  C8  UNL     1     -14.781  20.949  -9.379  1.00  0.00     0.007 C 
BRANCH  22  23
HETATM   23  C9  UNL     1     -14.042  19.699  -9.708  1.00  0.00     0.001 C 
BRANCH  23  24
HETATM   24  C10 UNL     1     -12.568  19.935  -9.426  1.00  0.00     0.010 C 
BRANCH  24  25
HETATM   25  C11 UNL     1     -11.813  18.638  -9.725  1.00  0.00     0.113 C 
BRANCH  25  26
HETATM   26  C12 UNL     1     -10.550  18.688  -8.953  1.00  0.00     0.172 C 
HETATM   27  O1  UNL     1      -9.463  18.983  -9.477  1.00  0.00    -0.648 OA
HETATM   28  O2  UNL     1     -10.558  18.399  -7.598  1.00  0.00    -0.648 OA
ENDBRANCH  25  26
ENDBRANCH  24  25
ENDBRANCH  23  24
ENDBRANCH  22  23
ENDBRANCH  15  22
ENDBRANCH   1  15
BRANCH  10  29
HETATM   29  O3  UNL     1     -17.441  25.416  -4.647  1.00  0.00    -0.395 OA
ATOM     30  H3  UNL     1     -18.329  25.093  -4.740  1.00  0.00     0.210 HD
ENDBRANCH  10  29
TORSDOF 11
ENDMDL
MODEL 5
REMARK VINA RESULT: -7.878519828      2.063      7.927
REMARK  11 active torsions:
REMARK  status: ('A' for Active; 'I' for Inactive)
REMARK    1  A    between atoms: C2_2  and  C4_4 
REMARK    2  A    between atoms: C4_4  and  C5_5 
REMARK    3  A    between atoms: C5_5  and  C6_6 
REMARK    4  A    between atoms: C6_6  and  C7_7 
REMARK    5  A    between atoms: C7_7  and  C8_8 
REMARK    6  A    between atoms: C7_7  and  C13_15 
REMARK    7  A    between atoms: C8_8  and  C9_9 
REMARK    8  A    between atoms: C9_9  and  C10_10 
REMARK    9  A    between atoms: C10_10  and  C11_11 
REMARK   10  A    between atoms: C11_11  and  C12_12 
REMARK   11  A    between atoms: C22_24  and  O3_25 
ROOT
HETATM    1  C13 UNL     1     -14.259  17.004 -13.864  1.00  0.00     0.126 C 
HETATM    2  C14 UNL     1     -13.308  17.580 -14.876  1.00  0.00     0.033 C 
HETATM    3  C15 UNL     1     -12.424  16.597 -15.565  1.00  0.00     0.010 C 
HETATM    4  C16 UNL     1     -12.379  15.319 -14.855  1.00  0.00     0.019 C 
HETATM    5  C17 UNL     1     -12.538  15.516 -13.396  1.00  0.00     0.126 C 
HETATM    6  C18 UNL     1     -11.394  16.192 -12.722  1.00  0.00     0.033 C 
HETATM    7  C19 UNL     1     -10.076  16.028 -13.416  1.00  0.00     0.014 C 
HETATM    8  C20 UNL     1      -9.968  14.817 -14.285  1.00  0.00    -0.014 C 
HETATM    9  C21 UNL     1      -9.528  13.640 -13.395  1.00  0.00     0.018 C 
HETATM   10  C22 UNL     1      -8.822  15.028 -15.250  1.00  0.00     0.126 C 
HETATM   11  C23 UNL     1      -9.214  14.349 -16.516  1.00  0.00     0.033 C 
HETATM   12  C24 UNL     1     -10.729  14.383 -16.518  1.00  0.00     0.008 C 
HETATM   13  C25 UNL     1     -11.163  14.468 -15.099  1.00  0.00     0.003 C 
HETATM   14  O4  UNL     1     -13.689  16.138 -12.997  1.00  0.00    -0.380 OA
ENDROOT
BRANCH   1  15
HETATM   15  C7  UNL     1     -14.987  18.064 -13.075  1.00  0.00     0.015 C 
BRANCH  15  16
HETATM   16  C6  UNL     1     -15.167  17.787 -11.621  1.00  0.00     0.007 C 
BRANCH  16  17
HETATM   17  C5  UNL     1     -14.329  18.546 -10.661  1.00  0.00     0.001 C 
BRANCH  17  18
HETATM   18  C4  UNL     1     -15.207  19.302  -9.695  1.00  0.00     0.004 C 
BRANCH  18  19
HETATM   19  C2  UNL     1     -15.956  20.355 -10.492  1.00  0.00    -0.023 C 
HETATM   20  C1  UNL     1     -15.400  21.715 -10.160  1.00  0.00     0.009 C 
HETATM   21  C3  UNL     1     -17.414  20.286 -10.103  1.00  0.00     0.009 C 
ENDBRANCH  18  19
ENDBRANCH  17  18
ENDBRANCH  16  17
ENDBRANCH  15  16
BRANCH  15  22
HETATM   22  C8  UNL     1     -16.400  18.268 -13.624  1.00  0.00     0.007 C 
BRANCH  22  23
HETATM   23  C9  UNL     1     -17.397  17.279 -13.131  1.00  0.00     0.001 C 
BRANCH  23  24
HETATM   24  C10 UNL     1     -18.250  16.842 -14.311  1.00  0.00     0.010 C 
BRANCH  24  25
HETATM   25  C11 UNL     1     -17.570  17.325 -15.594  1.00  0.00     0.113 C 
BRANCH  25  26
HETATM   26  C12 UNL     1     -18.635  17.497 -16.607  1.00  0.00     0.172 C 
HETATM   27  O1  UNL     1     -19.838  17.336 -16.340  1.00  0.00    -0.648 OA
HETATM   28  O2  UNL     1     -18.302  17.851 -17.905  1.00  0.00    -0.648 OA
ENDBRANCH  25  26
ENDBRANCH  24  25
ENDBRANCH  23  24
ENDBRANCH  22  23
ENDBRANCH  15  22
ENDBRANCH   1  15
BRANCH  10  29
HETATM   29  O3  UNL     1      -8.613  16.379 -15.518  1.00  0.00    -0.395 OA
ATOM     30  H3  UNL     1      -8.504  16.542 -16.448  1.00  0.00     0.210 HD
ENDBRANCH  10  29
TORSDOF 11
ENDMDL
