MODEL 1
REMARK VINA RESULT: -3.954650904      0.000      0.000
REMARK  2 active torsions:
REMARK  status: ('A' for Active; 'I' for Inactive)
REMARK    1  A    between atoms: C3_3  and  C4_4 
REMARK    2  A    between atoms: C8_8  and  N1_10 
ROOT
HETATM    1  C4  UNL     1       0.963 -12.566  14.494  1.00  0.00     0.048 C 
HETATM    2  C5  UNL     1       0.896 -12.943  15.948  1.00  0.00     0.002 A 
HETATM    3  C6  UNL     1       1.845 -13.621  16.784  1.00  0.00     0.013 A 
HETATM    4  C7  UNL     1       2.036 -13.903  15.412  1.00  0.00     0.027 A 
HETATM    5  C8  UNL     1       1.046 -14.092  14.303  1.00  0.00     0.131 C 
HETATM    6  C9  UNL     1      -0.160 -14.893  14.503  1.00  0.00     0.047 C 
ENDROOT
BRANCH   5   7
HETATM    7  N1  UNL     1       1.650 -14.342  13.004  1.00  0.00    -0.070 N 
ATOM      8  H13 UNL     1       2.131 -13.526  12.626  1.00  0.00     0.275 HD
ATOM      9  H12 UNL     1       2.458 -14.963  13.056  1.00  0.00     0.275 HD
ATOM     10  H11 UNL     1       0.919 -14.694  12.385  1.00  0.00     0.275 HD
ENDBRANCH   5   7
BRANCH   1  11
HETATM   11  C3  UNL     1      -0.258 -11.954  13.975  1.00  0.00    -0.024 C 
HETATM   12  C2  UNL     1      -0.950 -11.058  14.657  1.00  0.00    -0.034 C 
HETATM   13  C1  UNL     1      -2.192 -10.444  14.111  1.00  0.00     0.036 C 
ENDBRANCH   1  11
TORSDOF 2
ENDMDL
MODEL 2
REMARK VINA RESULT: -3.939518568      1.550      3.896
REMARK  2 active torsions:
REMARK  status: ('A' for Active; 'I' for Inactive)
REMARK    1  A    between atoms: C3_3  and  C4_4 
REMARK    2  A    between atoms: C8_8  and  N1_10 
ROOT
HETATM    1  C4  UNL     1       0.035 -12.064  15.580  1.00  0.00     0.048 C 
HETATM    2  C5  UNL     1       0.023 -10.570  15.409  1.00  0.00     0.002 A 
HETATM    3  C6  UNL     1      -0.920  -9.711  14.752  1.00  0.00     0.013 A 
HETATM    4  C7  UNL     1      -0.975 -11.039  14.272  1.00  0.00     0.027 A 
HETATM    5  C8  UNL     1       0.111 -12.044  14.042  1.00  0.00     0.131 C 
HETATM    6  C9  UNL     1       1.369 -11.656  13.405  1.00  0.00     0.047 C 
ENDROOT
BRANCH   5   7
HETATM    7  N1  UNL     1      -0.362 -13.332  13.560  1.00  0.00    -0.070 N 
ATOM      8  H13 UNL     1       0.363 -13.866  13.080  1.00  0.00     0.275 HD
ATOM      9  H12 UNL     1      -0.543 -13.996  14.313  1.00  0.00     0.275 HD
ATOM     10  H11 UNL     1      -1.181 -13.162  12.976  1.00  0.00     0.275 HD
ENDBRANCH   5   7
BRANCH   1  11
HETATM   11  C3  UNL     1       1.229 -12.583  16.242  1.00  0.00    -0.024 C 
HETATM   12  C2  UNL     1       1.361 -13.855  16.576  1.00  0.00    -0.034 C 
HETATM   13  C1  UNL     1       2.586 -14.368  17.249  1.00  0.00     0.036 C 
ENDBRANCH   1  11
TORSDOF 2
ENDMDL
MODEL 3
REMARK VINA RESULT: -3.828423713      2.078      4.193
REMARK  2 active torsions:
REMARK  status: ('A' for Active; 'I' for Inactive)
REMARK    1  A    between atoms: C3_3  and  C4_4 
REMARK    2  A    between atoms: C8_8  and  N1_10 
ROOT
HETATM    1  C4  UNL     1       0.888 -11.713  14.381  1.00  0.00     0.048 C 
HETATM    2  C5  UNL     1      -0.547 -11.566  13.955  1.00  0.00     0.002 A 
HETATM    3  C6  UNL     1      -1.206 -10.518  13.229  1.00  0.00     0.013 A 
HETATM    4  C7  UNL     1      -0.024 -10.074  13.864  1.00  0.00     0.027 A 
HETATM    5  C8  UNL     1       0.575 -10.440  15.188  1.00  0.00     0.131 C 
HETATM    6  C9  UNL     1      -0.261 -10.552  16.383  1.00  0.00     0.047 C 
ENDROOT
BRANCH   5   7
HETATM    7  N1  UNL     1       1.836  -9.776  15.474  1.00  0.00    -0.070 N 
ATOM      8  H13 UNL     1       1.722  -8.789  15.706  1.00  0.00     0.275 HD
ATOM      9  H12 UNL     1       2.250 -10.074  16.358  1.00  0.00     0.275 HD
ATOM     10  H11 UNL     1       2.454  -9.927  14.676  1.00  0.00     0.275 HD
ENDBRANCH   5   7
BRANCH   1  11
HETATM   11  C3  UNL     1       1.155 -12.897  15.193  1.00  0.00    -0.024 C 
HETATM   12  C2  UNL     1       0.514 -14.040  15.018  1.00  0.00    -0.034 C 
HETATM   13  C1  UNL     1       0.801 -15.238  15.855  1.00  0.00     0.036 C 
ENDBRANCH   1  11
TORSDOF 2
ENDMDL
MODEL 4
REMARK VINA RESULT: -3.821866937      1.536      4.085
REMARK  2 active torsions:
REMARK  status: ('A' for Active; 'I' for Inactive)
REMARK    1  A    between atoms: C3_3  and  C4_4 
REMARK    2  A    between atoms: C8_8  and  N1_10 
ROOT
HETATM    1  C4  UNL     1      -0.255 -12.212  13.919  1.00  0.00     0.048 C 
HETATM    2  C5  UNL     1      -0.906 -11.180  14.799  1.00  0.00     0.002 A 
HETATM    3  C6  UNL     1      -1.867 -10.160  14.491  1.00  0.00     0.013 A 
HETATM    4  C7  UNL     1      -1.136 -10.572  13.354  1.00  0.00     0.027 A 
HETATM    5  C8  UNL     1       0.301 -10.967  13.203  1.00  0.00     0.131 C 
HETATM    6  C9  UNL     1       1.362 -10.197  13.851  1.00  0.00     0.047 C 
ENDROOT
BRANCH   5   7
HETATM    7  N1  UNL     1       0.670 -11.361  11.853  1.00  0.00    -0.070 N 
ATOM      8  H13 UNL     1       0.330 -12.290  11.604  1.00  0.00     0.275 HD
ATOM      9  H12 UNL     1       0.168 -10.838  11.135  1.00  0.00     0.275 HD
ATOM     10  H11 UNL     1       1.684 -11.275  11.771  1.00  0.00     0.275 HD
ENDBRANCH   5   7
BRANCH   1  11
HETATM   11  C3  UNL     1       0.753 -13.026  14.593  1.00  0.00    -0.024 C 
HETATM   12  C2  UNL     1       0.531 -14.278  14.954  1.00  0.00    -0.034 C 
HETATM   13  C1  UNL     1       1.571 -15.094  15.639  1.00  0.00     0.036 C 
ENDBRANCH   1  11
TORSDOF 2
ENDMDL
MODEL 5
REMARK VINA RESULT: -3.803754982      2.157      4.105
REMARK  2 active torsions:
REMARK  status: ('A' for Active; 'I' for Inactive)
REMARK    1  A    between atoms: C3_3  and  C4_4 
REMARK    2  A    between atoms: C8_8  and  N1_10 
ROOT
HETATM    1  C4  UNL     1       1.279 -12.163  14.405  1.00  0.00     0.048 C 
HETATM    2  C5  UNL     1       0.628 -11.636  13.157  1.00  0.00     0.002 A 
HETATM    3  C6  UNL     1       0.880 -10.441  12.403  1.00  0.00     0.013 A 
HETATM    4  C7  UNL     1       1.315 -10.335  13.743  1.00  0.00     0.027 A 
HETATM    5  C8  UNL     1       0.720 -10.863  15.013  1.00  0.00     0.131 C 
HETATM    6  C9  UNL     1      -0.717 -10.766  15.264  1.00  0.00     0.047 C 
ENDROOT
BRANCH   5   7
HETATM    7  N1  UNL     1       1.497 -10.562  16.204  1.00  0.00    -0.070 N 
ATOM      8  H13 UNL     1       0.923 -10.219  16.975  1.00  0.00     0.275 HD
ATOM      9  H12 UNL     1       1.856 -11.398  16.665  1.00  0.00     0.275 HD
ATOM     10  H11 UNL     1       2.233  -9.908  15.937  1.00  0.00     0.275 HD
ENDBRANCH   5   7
BRANCH   1  11
HETATM   11  C3  UNL     1       0.676 -13.387  14.927  1.00  0.00    -0.024 C 
HETATM   12  C2  UNL     1       1.361 -14.276  15.626  1.00  0.00    -0.034 C 
HETATM   13  C1  UNL     1       0.728 -15.518  16.151  1.00  0.00     0.036 C 
ENDBRANCH   1  11
TORSDOF 2
ENDMDL
