MODEL 1
REMARK VINA RESULT: -5.104096565      0.000      0.000
REMARK  1 active torsions:
REMARK  status: ('A' for Active; 'I' for Inactive)
REMARK    1  A    between atoms: C1_2  and  C2_4 
ROOT
HETATM    1  C2  UNL     1       1.672 -13.160  15.626  1.00  0.00     0.053 C 
HETATM    2  C3  UNL     1       1.533 -13.510  14.165  1.00  0.00     0.025 C 
HETATM    3  C4  UNL     1       1.095 -12.152  13.613  1.00  0.00    -0.013 C 
HETATM    4  C5  UNL     1       2.130 -11.095  13.885  1.00  0.00     0.009 C 
HETATM    5  C6  UNL     1       2.545 -11.024  15.313  1.00  0.00    -0.013 C 
HETATM    6  C7  UNL     1       1.322 -10.858  16.224  1.00  0.00     0.010 C 
HETATM    7  C8  UNL     1       0.593 -12.165  15.892  1.00  0.00     0.005 C 
HETATM    8  C9  UNL     1      -0.096 -11.894  14.544  1.00  0.00     0.010 C 
HETATM    9  C10 UNL     1       3.006 -12.410  15.752  1.00  0.00     0.025 C 
ENDROOT
BRANCH   1  10
HETATM   10  C1  UNL     1       1.696 -14.301  16.520  1.00  0.00     0.182 C 
HETATM   11  O1  UNL     1       1.681 -14.097  17.759  1.00  0.00    -0.647 OA
HETATM   12  O2  UNL     1       1.734 -15.593  16.066  1.00  0.00    -0.647 OA
ENDBRANCH   1  10
TORSDOF 1
ENDMDL
MODEL 2
REMARK VINA RESULT: -4.862258817      1.176      2.656
REMARK  1 active torsions:
REMARK  status: ('A' for Active; 'I' for Inactive)
REMARK    1  A    between atoms: C1_2  and  C2_4 
ROOT
HETATM    1  C2  UNL     1       1.418 -13.354  15.252  1.00  0.00     0.053 C 
HETATM    2  C3  UNL     1       1.628 -13.225  16.741  1.00  0.00     0.025 C 
HETATM    3  C4  UNL     1       2.012 -11.747  16.823  1.00  0.00    -0.013 C 
HETATM    4  C5  UNL     1       0.913 -10.869  16.290  1.00  0.00     0.009 C 
HETATM    5  C6  UNL     1       0.444 -11.263  14.933  1.00  0.00    -0.013 C 
HETATM    6  C7  UNL     1       1.623 -11.340  13.955  1.00  0.00     0.010 C 
HETATM    7  C8  UNL     1       2.433 -12.449  14.638  1.00  0.00     0.005 C 
HETATM    8  C9  UNL     1       3.153 -11.744  15.799  1.00  0.00     0.010 C 
HETATM    9  C10 UNL     1       0.043 -12.734  14.968  1.00  0.00     0.025 C 
ENDROOT
BRANCH   1  10
HETATM   10  C1  UNL     1       1.425 -14.717  14.758  1.00  0.00     0.182 C 
HETATM   11  O1  UNL     1       1.079 -14.928  13.570  1.00  0.00    -0.647 OA
HETATM   12  O2  UNL     1       1.793 -15.782  15.536  1.00  0.00    -0.647 OA
ENDBRANCH   1  10
TORSDOF 1
ENDMDL
MODEL 3
REMARK VINA RESULT: -4.737962671      1.224      1.669
REMARK  1 active torsions:
REMARK  status: ('A' for Active; 'I' for Inactive)
REMARK    1  A    between atoms: C1_2  and  C2_4 
ROOT
HETATM    1  C2  UNL     1       1.171 -12.978  14.779  1.00  0.00     0.053 C 
HETATM    2  C3  UNL     1       1.619 -12.551  13.403  1.00  0.00     0.025 C 
HETATM    3  C4  UNL     1       1.741 -11.043  13.626  1.00  0.00    -0.013 C 
HETATM    4  C5  UNL     1       2.738 -10.732  14.709  1.00  0.00     0.009 C 
HETATM    5  C6  UNL     1       2.492 -11.479  15.974  1.00  0.00    -0.013 C 
HETATM    6  C7  UNL     1       1.053 -11.262  16.458  1.00  0.00     0.010 C 
HETATM    7  C8  UNL     1       0.301 -11.867  15.266  1.00  0.00     0.005 C 
HETATM    8  C9  UNL     1       0.340 -10.774  14.186  1.00  0.00     0.010 C 
HETATM    9  C10 UNL     1       2.433 -12.968  15.652  1.00  0.00     0.025 C 
ENDROOT
BRANCH   1  10
HETATM   10  C1  UNL     1       0.576 -14.299  14.836  1.00  0.00     0.182 C 
HETATM   11  O1  UNL     1      -0.015 -14.739  13.820  1.00  0.00    -0.647 OA
HETATM   12  O2  UNL     1       0.634 -15.086  15.957  1.00  0.00    -0.647 OA
ENDBRANCH   1  10
TORSDOF 1
ENDMDL
MODEL 4
REMARK VINA RESULT: -4.727584409      0.561      1.072
REMARK  1 active torsions:
REMARK  status: ('A' for Active; 'I' for Inactive)
REMARK    1  A    between atoms: C1_2  and  C2_4 
ROOT
HETATM    1  C2  UNL     1       1.614 -12.704  15.334  1.00  0.00     0.053 C 
HETATM    2  C3  UNL     1       1.464 -12.931  13.850  1.00  0.00     0.025 C 
HETATM    3  C4  UNL     1       1.037 -11.529  13.415  1.00  0.00    -0.013 C 
HETATM    4  C5  UNL     1       2.083 -10.507  13.767  1.00  0.00     0.009 C 
HETATM    5  C6  UNL     1       2.507 -10.559  15.194  1.00  0.00    -0.013 C 
HETATM    6  C7  UNL     1       1.290 -10.457  16.122  1.00  0.00     0.010 C 
HETATM    7  C8  UNL     1       0.546 -11.725  15.688  1.00  0.00     0.005 C 
HETATM    8  C9  UNL     1      -0.147 -11.337  14.371  1.00  0.00     0.010 C 
HETATM    9  C10 UNL     1       2.956 -11.980  15.513  1.00  0.00     0.025 C 
ENDROOT
BRANCH   1  10
HETATM   10  C1  UNL     1       1.630 -13.916  16.131  1.00  0.00     0.182 C 
HETATM   11  O1  UNL     1       1.628 -15.024  15.542  1.00  0.00    -0.647 OA
HETATM   12  O2  UNL     1       1.646 -13.898  17.501  1.00  0.00    -0.647 OA
ENDBRANCH   1  10
TORSDOF 1
ENDMDL
MODEL 5
REMARK VINA RESULT: -4.631942479      1.471      2.315
REMARK  1 active torsions:
REMARK  status: ('A' for Active; 'I' for Inactive)
REMARK    1  A    between atoms: C1_2  and  C2_4 
ROOT
HETATM    1  C2  UNL     1       0.660 -12.478  14.614  1.00  0.00     0.053 C 
HETATM    2  C3  UNL     1       1.933 -12.052  13.925  1.00  0.00     0.025 C 
HETATM    3  C4  UNL     1       1.530 -10.645  13.481  1.00  0.00    -0.013 C 
HETATM    4  C5  UNL     1       1.163  -9.786  14.660  1.00  0.00     0.009 C 
HETATM    5  C6  UNL     1       0.156 -10.412  15.561  1.00  0.00    -0.013 C 
HETATM    6  C7  UNL     1      -1.088 -10.835  14.769  1.00  0.00     0.010 C 
HETATM    7  C8  UNL     1      -0.439 -11.852  13.822  1.00  0.00     0.005 C 
HETATM    8  C9  UNL     1       0.236 -10.997  12.737  1.00  0.00     0.010 C 
HETATM    9  C10 UNL     1       0.671 -11.783  15.983  1.00  0.00     0.025 C 
ENDROOT
BRANCH   1  10
HETATM   10  C1  UNL     1       0.536 -13.908  14.820  1.00  0.00     0.182 C 
HETATM   11  O1  UNL     1       0.116 -14.619  13.875  1.00  0.00    -0.647 OA
HETATM   12  O2  UNL     1       0.858 -14.513  16.007  1.00  0.00    -0.647 OA
ENDBRANCH   1  10
TORSDOF 1
ENDMDL
