MODEL 1
REMARK VINA RESULT: -4.544923144      0.000      0.000
REMARK  1 active torsions:
REMARK  status: ('A' for Active; 'I' for Inactive)
REMARK    1  A    between atoms: C8_8  and  C9_9 
ROOT
HETATM    1  C1  UNL     1      -0.753 -11.872  14.011  1.00  0.00     0.016 C 
HETATM    2  C2  UNL     1       0.498 -11.568  14.806  1.00  0.00    -0.028 C 
HETATM    3  C3  UNL     1       0.206 -11.016  16.164  1.00  0.00     0.016 C 
HETATM    4  C4  UNL     1       1.444 -10.744  13.960  1.00  0.00    -0.004 C 
HETATM    5  C5  UNL     1       2.587 -10.188  14.756  1.00  0.00     0.005 C 
HETATM    6  C6  UNL     1       3.401 -11.254  15.442  1.00  0.00     0.002 C 
HETATM    7  C7  UNL     1       2.656 -12.540  15.637  1.00  0.00     0.020 C 
HETATM    8  C8  UNL     1       1.480 -12.682  14.713  1.00  0.00     0.046 C 
HETATM    9  C10 UNL     1       1.899 -12.084  13.367  1.00  0.00     0.025 C 
ENDROOT
BRANCH   8  10
HETATM   10  C9  UNL     1       0.971 -14.038  14.556  1.00  0.00     0.240 C 
HETATM   11  N1  UNL     1       0.321 -14.787  15.570  1.00  0.00    -0.061 NA
HETATM   12  O1  UNL     1       1.102 -14.630  13.431  1.00  0.00    -0.276 OA
ENDBRANCH   8  10
TORSDOF 1
ENDMDL
MODEL 2
REMARK VINA RESULT: -4.462350430      2.229      2.942
REMARK  1 active torsions:
REMARK  status: ('A' for Active; 'I' for Inactive)
REMARK    1  A    between atoms: C8_8  and  C9_9 
ROOT
HETATM    1  C1  UNL     1       1.200  -9.426  14.358  1.00  0.00     0.016 C 
HETATM    2  C2  UNL     1       1.086 -10.816  14.945  1.00  0.00    -0.028 C 
HETATM    3  C3  UNL     1       0.494 -10.822  16.316  1.00  0.00     0.016 C 
HETATM    4  C4  UNL     1       2.413 -11.530  14.806  1.00  0.00    -0.004 C 
HETATM    5  C5  UNL     1       2.458 -12.810  15.587  1.00  0.00     0.005 C 
HETATM    6  C6  UNL     1       1.375 -13.779  15.192  1.00  0.00     0.002 C 
HETATM    7  C7  UNL     1       0.203 -13.126  14.524  1.00  0.00     0.020 C 
HETATM    8  C8  UNL     1       0.533 -11.777  13.951  1.00  0.00     0.046 C 
HETATM    9  C10 UNL     1       1.951 -11.870  13.382  1.00  0.00     0.025 C 
ENDROOT
BRANCH   8  10
HETATM   10  C9  UNL     1      -0.406 -11.275  12.957  1.00  0.00     0.240 C 
HETATM   11  N1  UNL     1      -0.092 -11.011  11.599  1.00  0.00    -0.061 NA
HETATM   12  O1  UNL     1      -1.616 -11.044  13.298  1.00  0.00    -0.276 OA
ENDBRANCH   8  10
TORSDOF 1
ENDMDL
MODEL 3
REMARK VINA RESULT: -4.438813099      2.084      2.629
REMARK  1 active torsions:
REMARK  status: ('A' for Active; 'I' for Inactive)
REMARK    1  A    between atoms: C8_8  and  C9_9 
ROOT
HETATM    1  C1  UNL     1       0.911  -9.198  14.424  1.00  0.00     0.016 C 
HETATM    2  C2  UNL     1       0.846 -10.429  15.302  1.00  0.00    -0.028 C 
HETATM    3  C3  UNL     1      -0.299 -10.399  16.262  1.00  0.00     0.016 C 
HETATM    4  C4  UNL     1       2.205 -10.680  15.918  1.00  0.00    -0.004 C 
HETATM    5  C5  UNL     1       2.161 -11.723  16.995  1.00  0.00     0.005 C 
HETATM    6  C6  UNL     1       1.629 -13.046  16.511  1.00  0.00     0.002 C 
HETATM    7  C7  UNL     1       0.790 -12.936  15.274  1.00  0.00     0.020 C 
HETATM    8  C8  UNL     1       1.043 -11.671  14.505  1.00  0.00     0.046 C 
HETATM    9  C10 UNL     1       2.545 -11.387  14.599  1.00  0.00     0.025 C 
ENDROOT
BRANCH   8  10
HETATM   10  C9  UNL     1       0.590 -11.680  13.120  1.00  0.00     0.240 C 
HETATM   11  N1  UNL     1       1.434 -11.571  11.986  1.00  0.00    -0.061 NA
HETATM   12  O1  UNL     1      -0.658 -11.795  12.871  1.00  0.00    -0.276 OA
ENDBRANCH   8  10
TORSDOF 1
ENDMDL
MODEL 4
REMARK VINA RESULT: -4.396180587      1.021      2.758
REMARK  1 active torsions:
REMARK  status: ('A' for Active; 'I' for Inactive)
REMARK    1  A    between atoms: C8_8  and  C9_9 
ROOT
HETATM    1  C1  UNL     1       3.042 -11.465  15.211  1.00  0.00     0.016 C 
HETATM    2  C2  UNL     1       1.760 -10.991  14.564  1.00  0.00    -0.028 C 
HETATM    3  C3  UNL     1       1.983 -10.336  13.239  1.00  0.00     0.016 C 
HETATM    4  C4  UNL     1       0.961 -10.181  15.562  1.00  0.00    -0.004 C 
HETATM    5  C5  UNL     1      -0.193  -9.465  14.926  1.00  0.00     0.005 C 
HETATM    6  C6  UNL     1      -1.149 -10.395  14.225  1.00  0.00     0.002 C 
HETATM    7  C7  UNL     1      -0.535 -11.710  13.850  1.00  0.00     0.020 C 
HETATM    8  C8  UNL     1       0.697 -12.030  14.647  1.00  0.00     0.046 C 
HETATM    9  C10 UNL     1       0.445 -11.533  16.073  1.00  0.00     0.025 C 
ENDROOT
BRANCH   8  10
HETATM   10  C9  UNL     1       1.101 -13.430  14.636  1.00  0.00     0.240 C 
HETATM   11  N1  UNL     1       1.164 -14.269  15.778  1.00  0.00    -0.061 NA
HETATM   12  O1  UNL     1       1.430 -13.978  13.530  1.00  0.00    -0.276 OA
ENDBRANCH   8  10
TORSDOF 1
ENDMDL
MODEL 5
REMARK VINA RESULT: -4.344753003      2.412      3.271
REMARK  1 active torsions:
REMARK  status: ('A' for Active; 'I' for Inactive)
REMARK    1  A    between atoms: C8_8  and  C9_9 
ROOT
HETATM    1  C1  UNL     1       1.223 -11.017  12.372  1.00  0.00     0.016 C 
HETATM    2  C2  UNL     1       1.543 -11.207  13.838  1.00  0.00    -0.028 C 
HETATM    3  C3  UNL     1       2.682 -10.357  14.300  1.00  0.00     0.016 C 
HETATM    4  C4  UNL     1       1.671 -12.685  14.138  1.00  0.00    -0.004 C 
HETATM    5  C5  UNL     1       2.236 -12.945  15.503  1.00  0.00     0.005 C 
HETATM    6  C6  UNL     1       1.419 -12.325  16.606  1.00  0.00     0.002 C 
HETATM    7  C7  UNL     1       0.558 -11.188  16.145  1.00  0.00     0.020 C 
HETATM    8  C8  UNL     1       0.305 -11.207  14.665  1.00  0.00     0.046 C 
HETATM    9  C10 UNL     1       0.141 -12.675  14.262  1.00  0.00     0.025 C 
ENDROOT
BRANCH   8  10
HETATM   10  C9  UNL     1      -0.824 -10.404  14.214  1.00  0.00     0.240 C 
HETATM   11  N1  UNL     1      -1.937 -10.898  13.487  1.00  0.00    -0.061 NA
HETATM   12  O1  UNL     1      -0.847  -9.154  14.478  1.00  0.00    -0.276 OA
ENDBRANCH   8  10
TORSDOF 1
ENDMDL
