MODEL 1
REMARK VINA RESULT: -4.912535230      0.000      0.000
REMARK  1 active torsions:
REMARK  status: ('A' for Active; 'I' for Inactive)
REMARK    1  A    between atoms: N1_2  and  C2_5 
ROOT
HETATM    1  C2  UNL     1       1.170 -13.847  15.822  1.00  0.00     0.195 C 
HETATM    2  C3  UNL     1       1.733 -13.306  14.531  1.00  0.00     0.025 C 
HETATM    3  C4  UNL     1       0.853 -12.272  13.897  1.00  0.00    -0.007 C 
HETATM    4  C5  UNL     1      -0.080 -11.744  14.962  1.00  0.00     0.010 C 
HETATM    5  C6  UNL     1       0.685 -11.507  16.234  1.00  0.00    -0.007 C 
HETATM    6  C7  UNL     1       1.651 -10.356  15.938  1.00  0.00     0.010 C 
HETATM    7  C8  UNL     1       2.563 -11.047  14.919  1.00  0.00    -0.009 C 
HETATM    8  C9  UNL     1       1.863 -11.158  13.597  1.00  0.00     0.010 C 
HETATM    9  C10 UNL     1       2.656 -12.461  15.385  1.00  0.00     0.002 C 
HETATM   10  C11 UNL     1       1.663 -12.627  16.512  1.00  0.00     0.025 C 
ENDROOT
BRANCH   1  11
HETATM   11  N1  UNL     1       1.689 -15.122  16.216  1.00  0.00    -0.074 N 
HETATM   12  C1  UNL     1       1.611 -15.199  17.665  1.00  0.00     0.267 C 
ATOM     13  H12 UNL     1       2.629 -15.296  15.858  1.00  0.00     0.277 HD
ATOM     14  H11 UNL     1       1.223 -15.901  15.751  1.00  0.00     0.277 HD
ENDBRANCH   1  11
TORSDOF 1
ENDMDL
MODEL 2
REMARK VINA RESULT: -4.842283298      0.768      1.420
REMARK  1 active torsions:
REMARK  status: ('A' for Active; 'I' for Inactive)
REMARK    1  A    between atoms: N1_2  and  C2_5 
ROOT
HETATM    1  C2  UNL     1       1.206 -13.626  15.861  1.00  0.00     0.195 C 
HETATM    2  C3  UNL     1       0.331 -13.264  14.686  1.00  0.00     0.025 C 
HETATM    3  C4  UNL     1      -0.294 -11.909  14.818  1.00  0.00    -0.007 C 
HETATM    4  C5  UNL     1       0.503 -11.130  15.839  1.00  0.00     0.010 C 
HETATM    5  C6  UNL     1       1.972 -11.339  15.602  1.00  0.00    -0.007 C 
HETATM    6  C7  UNL     1       2.283 -10.676  14.258  1.00  0.00     0.010 C 
HETATM    7  C8  UNL     1       1.484 -11.598  13.331  1.00  0.00    -0.009 C 
HETATM    8  C9  UNL     1       0.019 -11.297  13.447  1.00  0.00     0.010 C 
HETATM    9  C10 UNL     1       1.610 -12.955  13.936  1.00  0.00     0.002 C 
HETATM   10  C11 UNL     1       2.284 -12.784  15.279  1.00  0.00     0.025 C 
ENDROOT
BRANCH   1  11
HETATM   11  N1  UNL     1       1.438 -15.029  16.028  1.00  0.00    -0.074 N 
HETATM   12  C1  UNL     1       1.581 -15.284  17.452  1.00  0.00     0.267 C 
ATOM     13  H12 UNL     1       2.231 -15.368  15.482  1.00  0.00     0.277 HD
ATOM     14  H11 UNL     1       0.718 -15.605  15.591  1.00  0.00     0.277 HD
ENDBRANCH   1  11
TORSDOF 1
ENDMDL
MODEL 3
REMARK VINA RESULT: -4.699104356      1.141      2.432
REMARK  1 active torsions:
REMARK  status: ('A' for Active; 'I' for Inactive)
REMARK    1  A    between atoms: N1_2  and  C2_5 
ROOT
HETATM    1  C2  UNL     1       1.751 -13.385  14.681  1.00  0.00     0.195 C 
HETATM    2  C3  UNL     1       0.746 -12.779  15.631  1.00  0.00     0.025 C 
HETATM    3  C4  UNL     1       1.251 -11.541  16.305  1.00  0.00    -0.007 C 
HETATM    4  C5  UNL     1       2.407 -11.010  15.489  1.00  0.00     0.010 C 
HETATM    5  C6  UNL     1       2.066 -11.071  14.026  1.00  0.00    -0.007 C 
HETATM    6  C7  UNL     1       0.930 -10.067  13.815  1.00  0.00     0.010 C 
HETATM    7  C8  UNL     1      -0.173 -10.760  14.622  1.00  0.00    -0.009 C 
HETATM    8  C9  UNL     1       0.076 -10.579  16.090  1.00  0.00     0.010 C 
HETATM    9  C10 UNL     1       0.053 -12.218  14.407  1.00  0.00     0.002 C 
HETATM   10  C11 UNL     1       1.366 -12.364  13.672  1.00  0.00     0.025 C 
ENDROOT
BRANCH   1  11
HETATM   11  N1  UNL     1       1.537 -14.768  14.382  1.00  0.00    -0.074 N 
HETATM   12  C1  UNL     1       1.495 -15.489  15.644  1.00  0.00     0.267 C 
ATOM     13  H12 UNL     1       2.227 -15.146  13.732  1.00  0.00     0.277 HD
ATOM     14  H11 UNL     1       0.710 -14.927  13.806  1.00  0.00     0.277 HD
ENDBRANCH   1  11
TORSDOF 1
ENDMDL
MODEL 4
REMARK VINA RESULT: -4.608378635      0.974      1.905
REMARK  1 active torsions:
REMARK  status: ('A' for Active; 'I' for Inactive)
REMARK    1  A    between atoms: N1_2  and  C2_5 
ROOT
HETATM    1  C2  UNL     1       1.960 -13.337  15.380  1.00  0.00     0.195 C 
HETATM    2  C3  UNL     1       2.401 -11.906  15.569  1.00  0.00     0.025 C 
HETATM    3  C4  UNL     1       2.329 -11.101  14.308  1.00  0.00    -0.007 C 
HETATM    4  C5  UNL     1       1.401 -11.818  13.355  1.00  0.00     0.010 C 
HETATM    5  C6  UNL     1       0.185 -12.298  14.095  1.00  0.00    -0.007 C 
HETATM    6  C7  UNL     1      -0.574 -11.039  14.525  1.00  0.00     0.010 C 
HETATM    7  C8  UNL     1       0.435 -10.465  15.525  1.00  0.00    -0.009 C 
HETATM    8  C9  UNL     1       1.589  -9.848  14.792  1.00  0.00     0.010 C 
HETATM    9  C10 UNL     1       1.040 -11.657  16.187  1.00  0.00     0.002 C 
HETATM   10  C11 UNL     1       0.548 -12.879  15.444  1.00  0.00     0.025 C 
ENDROOT
BRANCH   1  11
HETATM   11  N1  UNL     1       2.437 -14.249  16.375  1.00  0.00    -0.074 N 
HETATM   12  C1  UNL     1       1.474 -15.333  16.475  1.00  0.00     0.267 C 
ATOM     13  H12 UNL     1       2.622 -13.798  17.271  1.00  0.00     0.277 HD
ATOM     14  H11 UNL     1       3.386 -14.576  16.192  1.00  0.00     0.277 HD
ENDBRANCH   1  11
TORSDOF 1
ENDMDL
MODEL 5
REMARK VINA RESULT: -4.591230415      1.499      2.129
REMARK  1 active torsions:
REMARK  status: ('A' for Active; 'I' for Inactive)
REMARK    1  A    between atoms: N1_2  and  C2_5 
ROOT
HETATM    1  C2  UNL     1       0.429 -12.922  14.740  1.00  0.00     0.195 C 
HETATM    2  C3  UNL     1      -0.079 -11.816  13.847  1.00  0.00     0.025 C 
HETATM    3  C4  UNL     1      -0.156 -10.492  14.543  1.00  0.00    -0.007 C 
HETATM    4  C5  UNL     1       0.734 -10.559  15.763  1.00  0.00     0.010 C 
HETATM    5  C6  UNL     1       2.032 -11.229  15.408  1.00  0.00    -0.007 C 
HETATM    6  C7  UNL     1       2.746 -10.281  14.440  1.00  0.00     0.010 C 
HETATM    7  C8  UNL     1       1.788 -10.369  13.248  1.00  0.00    -0.009 C 
HETATM    8  C9  UNL     1       0.545  -9.578  13.530  1.00  0.00     0.010 C 
HETATM    9  C10 UNL     1       1.309 -11.781  13.242  1.00  0.00     0.002 C 
HETATM   10  C11 UNL     1       1.812 -12.428  14.512  1.00  0.00     0.025 C 
ENDROOT
BRANCH   1  11
HETATM   11  N1  UNL     1       0.087 -14.245  14.311  1.00  0.00    -0.074 N 
HETATM   12  C1  UNL     1       0.501 -15.166  15.358  1.00  0.00     0.267 C 
ATOM     13  H12 UNL     1       0.478 -14.480  13.398  1.00  0.00     0.277 HD
ATOM     14  H11 UNL     1      -0.898 -14.340  14.064  1.00  0.00     0.277 HD
ENDBRANCH   1  11
TORSDOF 1
ENDMDL
