MODEL 1
REMARK VINA RESULT: -5.658042993      0.000      0.000
REMARK  5 active torsions:
REMARK  status: ('A' for Active; 'I' for Inactive)
REMARK    1  A    between atoms: C2_2  and  C3_3 
REMARK    2  A    between atoms: C3_3  and  C4_4 
REMARK    3  A    between atoms: C4_4  and  N1_5 
REMARK    4  A    between atoms: C4_4  and  C5_9 
REMARK    5  A    between atoms: N1_5  and  N2_6 
REMARK       I    between atoms: C5_9  and  N3_11 
REMARK       I    between atoms: C6_13  and  N5_15 
ROOT
HETATM    1  C5  UNL     1     -23.044   2.319  14.547  1.00  0.00     0.286 C 
HETATM    2  O1  UNL     1     -22.725   1.445  13.705  1.00  0.00    -0.265 OA
HETATM    3  N3  UNL     1     -22.545   2.374  15.855  1.00  0.00    -0.295 N 
ATOM      4  H3  UNL     1     -23.190   2.647  16.595  1.00  0.00     0.171 HD
HETATM    5  C6  UNL     1     -21.330   2.105  16.193  1.00  0.00     0.197 C 
HETATM    6  N4  UNL     1     -20.329   1.714  15.282  1.00  0.00    -0.063 NA
HETATM    7  N5  UNL     1     -21.021   2.220  17.581  1.00  0.00    -0.307 N 
ATOM      8  H5  UNL     1     -21.558   2.864  18.163  1.00  0.00     0.170 HD
HETATM    9  C7  UNL     1     -20.066   1.517  18.118  1.00  0.00     0.203 C 
HETATM   10  N6  UNL     1     -19.786   1.658  19.503  1.00  0.00    -0.066 NA
HETATM   11  N7  UNL     1     -19.277   0.601  17.369  1.00  0.00    -0.066 NA
ENDROOT
BRANCH   1  12
HETATM   12  C4  UNL     1     -23.996   3.344  14.136  1.00  0.00     0.175 C 
BRANCH  12  13
HETATM   13  C3  UNL     1     -24.670   4.138  15.189  1.00  0.00     0.080 C 
BRANCH  13  14
HETATM   14  C2  UNL     1     -24.362   5.614  15.015  1.00  0.00     0.003 C 
HETATM   15  C1  UNL     1     -23.207   5.985  15.920  1.00  0.00     0.005 C 
ENDBRANCH  13  14
ENDBRANCH  12  13
BRANCH  12  16
HETATM   16  N1  UNL     1     -24.249   3.562  12.945  1.00  0.00    -0.332 NA
BRANCH  16  17
HETATM   17  N2  UNL     1     -24.351   3.593  11.722  1.00  0.00    -0.280 N 
ATOM     18  H22 UNL     1     -24.925   2.751  11.749  1.00  0.00     0.191 HD
ATOM     19  H21 UNL     1     -24.320   3.784  10.720  1.00  0.00     0.191 HD
ENDBRANCH  16  17
ENDBRANCH  12  16
ENDBRANCH   1  12
TORSDOF 5
ENDMDL
MODEL 2
REMARK VINA RESULT: -5.541526936      1.922      5.671
REMARK  5 active torsions:
REMARK  status: ('A' for Active; 'I' for Inactive)
REMARK    1  A    between atoms: C2_2  and  C3_3 
REMARK    2  A    between atoms: C3_3  and  C4_4 
REMARK    3  A    between atoms: C4_4  and  N1_5 
REMARK    4  A    between atoms: C4_4  and  C5_9 
REMARK    5  A    between atoms: N1_5  and  N2_6 
REMARK       I    between atoms: C5_9  and  N3_11 
REMARK       I    between atoms: C6_13  and  N5_15 
ROOT
HETATM    1  C5  UNL     1     -21.793   1.795  14.687  1.00  0.00     0.286 C 
HETATM    2  O1  UNL     1     -21.805   1.189  13.588  1.00  0.00    -0.265 OA
HETATM    3  N3  UNL     1     -22.502   2.975  14.943  1.00  0.00    -0.295 N 
ATOM      4  H3  UNL     1     -22.048   3.682  15.521  1.00  0.00     0.171 HD
HETATM    5  C6  UNL     1     -23.687   3.236  14.504  1.00  0.00     0.197 C 
HETATM    6  N4  UNL     1     -24.435   2.357  13.697  1.00  0.00    -0.063 NA
HETATM    7  N5  UNL     1     -24.235   4.498  14.879  1.00  0.00    -0.307 N 
ATOM      8  H5  UNL     1     -23.928   4.941  15.746  1.00  0.00     0.170 HD
HETATM    9  C7  UNL     1     -25.121   5.094  14.134  1.00  0.00     0.203 C 
HETATM   10  N6  UNL     1     -25.646   6.350  14.539  1.00  0.00    -0.066 NA
HETATM   11  N7  UNL     1     -25.595   4.536  12.915  1.00  0.00    -0.066 NA
ENDROOT
BRANCH   1  12
HETATM   12  C4  UNL     1     -20.990   1.233  15.765  1.00  0.00     0.175 C 
BRANCH  12  13
HETATM   13  C3  UNL     1     -20.751   2.062  16.969  1.00  0.00     0.080 C 
BRANCH  13  14
HETATM   14  C2  UNL     1     -19.621   1.477  17.796  1.00  0.00     0.003 C 
HETATM   15  C1  UNL     1     -20.070   1.374  19.238  1.00  0.00     0.005 C 
ENDBRANCH  13  14
ENDBRANCH  12  13
BRANCH  12  16
HETATM   16  N1  UNL     1     -20.511   0.094  15.699  1.00  0.00    -0.332 NA
BRANCH  16  17
HETATM   17  N2  UNL     1     -20.260  -1.103  15.580  1.00  0.00    -0.280 N 
ATOM     18  H22 UNL     1     -20.668  -1.278  16.498  1.00  0.00     0.191 HD
ATOM     19  H21 UNL     1     -19.977  -2.042  15.304  1.00  0.00     0.191 HD
ENDBRANCH  16  17
ENDBRANCH  12  16
ENDBRANCH   1  12
TORSDOF 5
ENDMDL
MODEL 3
REMARK VINA RESULT: -5.510455131      2.612      6.288
REMARK  5 active torsions:
REMARK  status: ('A' for Active; 'I' for Inactive)
REMARK    1  A    between atoms: C2_2  and  C3_3 
REMARK    2  A    between atoms: C3_3  and  C4_4 
REMARK    3  A    between atoms: C4_4  and  N1_5 
REMARK    4  A    between atoms: C4_4  and  C5_9 
REMARK    5  A    between atoms: N1_5  and  N2_6 
REMARK       I    between atoms: C5_9  and  N3_11 
REMARK       I    between atoms: C6_13  and  N5_15 
ROOT
HETATM    1  C5  UNL     1     -24.166   2.536  15.075  1.00  0.00     0.286 C 
HETATM    2  O1  UNL     1     -25.294   2.250  15.544  1.00  0.00    -0.265 OA
HETATM    3  N3  UNL     1     -23.918   2.796  13.721  1.00  0.00    -0.295 N 
ATOM      4  H3  UNL     1     -23.046   2.445  13.325  1.00  0.00     0.171 HD
HETATM    5  C6  UNL     1     -24.708   3.447  12.937  1.00  0.00     0.197 C 
HETATM    6  N4  UNL     1     -25.943   3.990  13.342  1.00  0.00    -0.063 NA
HETATM    7  N5  UNL     1     -24.270   3.603  11.589  1.00  0.00    -0.307 N 
ATOM      8  H5  UNL     1     -23.271   3.602  11.381  1.00  0.00     0.170 HD
HETATM    9  C7  UNL     1     -25.125   3.748  10.617  1.00  0.00     0.203 C 
HETATM   10  N6  UNL     1     -24.654   3.902   9.286  1.00  0.00    -0.066 NA
HETATM   11  N7  UNL     1     -26.531   3.760  10.831  1.00  0.00    -0.066 NA
ENDROOT
BRANCH   1  12
HETATM   12  C4  UNL     1     -23.042   2.603  16.000  1.00  0.00     0.175 C 
BRANCH  12  13
HETATM   13  C3  UNL     1     -21.814   1.843  15.670  1.00  0.00     0.080 C 
BRANCH  13  14
HETATM   14  C2  UNL     1     -20.626   2.405  16.429  1.00  0.00     0.003 C 
HETATM   15  C1  UNL     1     -20.112   1.353  17.387  1.00  0.00     0.005 C 
ENDBRANCH  13  14
ENDBRANCH  12  13
BRANCH  12  16
HETATM   16  N1  UNL     1     -23.089   3.270  17.041  1.00  0.00    -0.332 NA
BRANCH  16  17
HETATM   17  N2  UNL     1     -23.267   4.086  17.942  1.00  0.00    -0.280 N 
ATOM     18  H22 UNL     1     -22.685   4.760  17.444  1.00  0.00     0.191 HD
ATOM     19  H21 UNL     1     -23.525   4.619  18.773  1.00  0.00     0.191 HD
ENDBRANCH  16  17
ENDBRANCH  12  16
ENDBRANCH   1  12
TORSDOF 5
ENDMDL
MODEL 4
REMARK VINA RESULT: -5.351422155      1.966      2.829
REMARK  5 active torsions:
REMARK  status: ('A' for Active; 'I' for Inactive)
REMARK    1  A    between atoms: C2_2  and  C3_3 
REMARK    2  A    between atoms: C3_3  and  C4_4 
REMARK    3  A    between atoms: C4_4  and  N1_5 
REMARK    4  A    between atoms: C4_4  and  C5_9 
REMARK    5  A    between atoms: N1_5  and  N2_6 
REMARK       I    between atoms: C5_9  and  N3_11 
REMARK       I    between atoms: C6_13  and  N5_15 
ROOT
HETATM    1  C5  UNL     1     -23.499   3.707  14.116  1.00  0.00     0.286 C 
HETATM    2  O1  UNL     1     -23.103   4.685  14.796  1.00  0.00    -0.265 OA
HETATM    3  N3  UNL     1     -22.861   2.460  14.081  1.00  0.00    -0.295 N 
ATOM      4  H3  UNL     1     -22.822   1.975  13.185  1.00  0.00     0.171 HD
HETATM    5  C6  UNL     1     -22.320   1.880  15.098  1.00  0.00     0.197 C 
HETATM    6  N4  UNL     1     -22.297   2.428  16.395  1.00  0.00    -0.063 NA
HETATM    7  N5  UNL     1     -21.719   0.609  14.851  1.00  0.00    -0.307 N 
ATOM      8  H5  UNL     1     -22.065   0.030  14.086  1.00  0.00     0.170 HD
HETATM    9  C7  UNL     1     -20.736   0.177  15.588  1.00  0.00     0.203 C 
HETATM   10  N6  UNL     1     -20.162  -1.093  15.315  1.00  0.00    -0.066 NA
HETATM   11  N7  UNL     1     -20.203   0.929  16.671  1.00  0.00    -0.066 NA
ENDROOT
BRANCH   1  12
HETATM   12  C4  UNL     1     -24.701   3.881  13.310  1.00  0.00     0.175 C 
BRANCH  12  13
HETATM   13  C3  UNL     1     -25.982   4.146  14.006  1.00  0.00     0.080 C 
BRANCH  13  14
HETATM   14  C2  UNL     1     -26.268   3.053  15.018  1.00  0.00     0.003 C 
HETATM   15  C1  UNL     1     -26.660   1.791  14.280  1.00  0.00     0.005 C 
ENDBRANCH  13  14
ENDBRANCH  12  13
BRANCH  12  16
HETATM   16  N1  UNL     1     -24.676   3.814  12.075  1.00  0.00    -0.332 NA
BRANCH  16  17
HETATM   17  N2  UNL     1     -24.820   3.575  10.879  1.00  0.00    -0.280 N 
ATOM     18  H22 UNL     1     -23.861   3.229  10.834  1.00  0.00     0.191 HD
ATOM     19  H21 UNL     1     -25.124   3.449   9.913  1.00  0.00     0.191 HD
ENDBRANCH  16  17
ENDBRANCH  12  16
ENDBRANCH   1  12
TORSDOF 5
ENDMDL
MODEL 5
REMARK VINA RESULT: -5.312319835      2.185      6.018
REMARK  5 active torsions:
REMARK  status: ('A' for Active; 'I' for Inactive)
REMARK    1  A    between atoms: C2_2  and  C3_3 
REMARK    2  A    between atoms: C3_3  and  C4_4 
REMARK    3  A    between atoms: C4_4  and  N1_5 
REMARK    4  A    between atoms: C4_4  and  C5_9 
REMARK    5  A    between atoms: N1_5  and  N2_6 
REMARK       I    between atoms: C5_9  and  N3_11 
REMARK       I    between atoms: C6_13  and  N5_15 
ROOT
HETATM    1  C5  UNL     1     -22.640   2.204  15.626  1.00  0.00     0.286 C 
HETATM    2  O1  UNL     1     -23.470   2.492  16.521  1.00  0.00    -0.265 OA
HETATM    3  N3  UNL     1     -22.872   2.365  14.253  1.00  0.00    -0.295 N 
ATOM      4  H3  UNL     1     -22.512   1.646  13.626  1.00  0.00     0.171 HD
HETATM    5  C6  UNL     1     -23.508   3.354  13.724  1.00  0.00     0.197 C 
HETATM    6  N4  UNL     1     -24.060   4.419  14.462  1.00  0.00    -0.063 NA
HETATM    7  N5  UNL     1     -23.637   3.332  12.303  1.00  0.00    -0.307 N 
ATOM      8  H5  UNL     1     -22.937   2.846  11.742  1.00  0.00     0.170 HD
HETATM    9  C7  UNL     1     -24.635   3.921  11.710  1.00  0.00     0.203 C 
HETATM   10  N6  UNL     1     -24.733   3.880  10.294  1.00  0.00    -0.066 NA
HETATM   11  N7  UNL     1     -25.648   4.618  12.427  1.00  0.00    -0.066 NA
ENDROOT
BRANCH   1  12
HETATM   12  C4  UNL     1     -21.350   1.666  16.041  1.00  0.00     0.175 C 
BRANCH  12  13
HETATM   13  C3  UNL     1     -20.576   2.408  17.063  1.00  0.00     0.080 C 
BRANCH  13  14
HETATM   14  C2  UNL     1     -19.643   1.468  17.802  1.00  0.00     0.003 C 
HETATM   15  C1  UNL     1     -20.038   1.431  19.263  1.00  0.00     0.005 C 
ENDBRANCH  13  14
ENDBRANCH  12  13
BRANCH  12  16
HETATM   16  N1  UNL     1     -20.894   0.619  15.565  1.00  0.00    -0.332 NA
BRANCH  16  17
HETATM   17  N2  UNL     1     -20.588  -0.528  15.251  1.00  0.00    -0.280 N 
ATOM     18  H22 UNL     1     -21.021  -0.392  14.338  1.00  0.00     0.191 HD
ATOM     19  H21 UNL     1     -20.254  -1.489  15.174  1.00  0.00     0.191 HD
ENDBRANCH  16  17
ENDBRANCH  12  16
ENDBRANCH   1  12
TORSDOF 5
ENDMDL
