MODEL 1
REMARK VINA RESULT: -4.422652085      0.000      0.000
REMARK  2 active torsions:
REMARK  status: ('A' for Active; 'I' for Inactive)
REMARK       I    between atoms: N1_2  and  C2_4 
REMARK    1  A    between atoms: C2_4  and  C3_6 
REMARK    2  A    between atoms: C4_7  and  C5_8 
ROOT
HETATM    1  C3  UNL     1       2.479 -12.013  14.663  1.00  0.00     0.091 A 
HETATM    2  C4  UNL     1       1.885 -11.025  13.752  1.00  0.00     0.011 A 
HETATM    3  C8  UNL     1       1.597 -10.831  15.167  1.00  0.00    -0.030 A 
HETATM    4  C9  UNL     1       0.343 -11.262  15.854  1.00  0.00     0.016 C 
HETATM    5  C10 UNL     1       2.342  -9.717  15.908  1.00  0.00     0.016 C 
ENDROOT
BRANCH   1   6
HETATM    6  C2  UNL     1       1.933 -13.365  14.849  1.00  0.00     0.222 C 
HETATM    7  N1  UNL     1       2.155 -14.048  16.077  1.00  0.00    -0.365 N 
HETATM    8  C1  UNL     1       1.642 -15.382  16.322  1.00  0.00     0.149 C 
ATOM      9  H1  UNL     1       2.691 -13.584  16.809  1.00  0.00     0.161 HD
HETATM   10  O1  UNL     1       1.264 -13.977  13.974  1.00  0.00    -0.273 OA
ENDBRANCH   1   6
BRANCH   2  11
HETATM   11  C5  UNL     1       0.845 -11.436  12.729  1.00  0.00    -0.017 C 
HETATM   12  C6  UNL     1       1.577 -11.692  11.435  1.00  0.00     0.010 C 
HETATM   13  C7  UNL     1      -0.161 -10.327  12.499  1.00  0.00     0.010 C 
ENDBRANCH   2  11
TORSDOF 2
ENDMDL
MODEL 2
REMARK VINA RESULT: -4.149445258      1.588      3.177
REMARK  2 active torsions:
REMARK  status: ('A' for Active; 'I' for Inactive)
REMARK       I    between atoms: N1_2  and  C2_4 
REMARK    1  A    between atoms: C2_4  and  C3_6 
REMARK    2  A    between atoms: C4_7  and  C5_8 
ROOT
HETATM    1  C3  UNL     1      -0.143 -12.036  14.198  1.00  0.00     0.091 A 
HETATM    2  C4  UNL     1      -0.151 -10.590  14.457  1.00  0.00     0.011 A 
HETATM    3  C8  UNL     1       0.754 -11.037  13.406  1.00  0.00    -0.030 A 
HETATM    4  C9  UNL     1       2.219 -11.271  13.580  1.00  0.00     0.016 C 
HETATM    5  C10 UNL     1       0.347 -10.791  11.951  1.00  0.00     0.016 C 
ENDROOT
BRANCH   1   6
HETATM    6  C2  UNL     1       0.554 -13.003  15.059  1.00  0.00     0.222 C 
HETATM    7  N1  UNL     1       0.782 -14.325  14.588  1.00  0.00    -0.365 N 
HETATM    8  C1  UNL     1       1.463 -15.324  15.389  1.00  0.00     0.149 C 
ATOM      9  H1  UNL     1       0.456 -14.580  13.656  1.00  0.00     0.161 HD
HETATM   10  O1  UNL     1       0.976 -12.734  16.216  1.00  0.00    -0.273 OA
ENDBRANCH   1   6
BRANCH   2  11
HETATM   11  C5  UNL     1       0.311 -10.034  15.789  1.00  0.00    -0.017 C 
HETATM   12  C6  UNL     1      -0.925  -9.804  16.623  1.00  0.00     0.010 C 
HETATM   13  C7  UNL     1       1.022  -8.709  15.609  1.00  0.00     0.010 C 
ENDBRANCH   2  11
TORSDOF 2
ENDMDL
MODEL 3
REMARK VINA RESULT: -4.091593340      1.554      2.284
REMARK  2 active torsions:
REMARK  status: ('A' for Active; 'I' for Inactive)
REMARK       I    between atoms: N1_2  and  C2_4 
REMARK    1  A    between atoms: C2_4  and  C3_6 
REMARK    2  A    between atoms: C4_7  and  C5_8 
ROOT
HETATM    1  C3  UNL     1       1.409 -11.780  16.226  1.00  0.00     0.091 A 
HETATM    2  C4  UNL     1       1.727 -10.504  15.572  1.00  0.00     0.011 A 
HETATM    3  C8  UNL     1       0.341 -10.942  15.461  1.00  0.00    -0.030 A 
HETATM    4  C9  UNL     1      -0.244 -11.642  14.279  1.00  0.00     0.016 C 
HETATM    5  C10 UNL     1      -0.706 -10.246  16.334  1.00  0.00     0.016 C 
ENDROOT
BRANCH   1   6
HETATM    6  C2  UNL     1       1.754 -13.088  15.649  1.00  0.00     0.222 C 
HETATM    7  N1  UNL     1       1.217 -14.273  16.225  1.00  0.00    -0.365 N 
HETATM    8  C1  UNL     1       1.519 -15.591  15.701  1.00  0.00     0.149 C 
ATOM      9  H1  UNL     1       0.600 -14.192  17.032  1.00  0.00     0.161 HD
HETATM   10  O1  UNL     1       2.511 -13.236  14.652  1.00  0.00    -0.273 OA
ENDBRANCH   1   6
BRANCH   2  11
HETATM   11  C5  UNL     1       2.690 -10.447  14.403  1.00  0.00    -0.017 C 
HETATM   12  C6  UNL     1       4.055 -10.149  14.971  1.00  0.00     0.010 C 
HETATM   13  C7  UNL     1       2.316  -9.336  13.443  1.00  0.00     0.010 C 
ENDBRANCH   2  11
TORSDOF 2
ENDMDL
MODEL 4
REMARK VINA RESULT: -4.069932066      1.494      1.925
REMARK  2 active torsions:
REMARK  status: ('A' for Active; 'I' for Inactive)
REMARK       I    between atoms: N1_2  and  C2_4 
REMARK    1  A    between atoms: C2_4  and  C3_6 
REMARK    2  A    between atoms: C4_7  and  C5_8 
ROOT
HETATM    1  C3  UNL     1       1.910 -12.736  14.383  1.00  0.00     0.091 A 
HETATM    2  C4  UNL     1       1.287 -11.412  14.510  1.00  0.00     0.011 A 
HETATM    3  C8  UNL     1       2.379 -11.687  15.435  1.00  0.00    -0.030 A 
HETATM    4  C9  UNL     1       2.211 -12.132  16.851  1.00  0.00     0.016 C 
HETATM    5  C10 UNL     1       3.737 -11.035  15.162  1.00  0.00     0.016 C 
ENDROOT
BRANCH   1   6
HETATM    6  C2  UNL     1       1.299 -13.966  14.910  1.00  0.00     0.222 C 
HETATM    7  N1  UNL     1       1.981 -14.717  15.907  1.00  0.00    -0.365 N 
HETATM    8  C1  UNL     1       1.431 -15.936  16.467  1.00  0.00     0.149 C 
ATOM      9  H1  UNL     1       2.886 -14.386  16.240  1.00  0.00     0.161 HD
HETATM   10  O1  UNL     1       0.183 -14.412  14.530  1.00  0.00    -0.273 OA
ENDBRANCH   1   6
BRANCH   2  11
HETATM   11  C5  UNL     1      -0.161 -11.269  14.932  1.00  0.00    -0.017 C 
HETATM   12  C6  UNL     1      -0.982 -11.189  13.670  1.00  0.00     0.010 C 
HETATM   13  C7  UNL     1      -0.374  -9.997  15.726  1.00  0.00     0.010 C 
ENDBRANCH   2  11
TORSDOF 2
ENDMDL
MODEL 5
REMARK VINA RESULT: -4.068285254      2.201      4.122
REMARK  2 active torsions:
REMARK  status: ('A' for Active; 'I' for Inactive)
REMARK       I    between atoms: N1_2  and  C2_4 
REMARK    1  A    between atoms: C2_4  and  C3_6 
REMARK    2  A    between atoms: C4_7  and  C5_8 
ROOT
HETATM    1  C3  UNL     1       1.886 -11.316  14.667  1.00  0.00     0.091 A 
HETATM    2  C4  UNL     1       1.831 -12.770  14.461  1.00  0.00     0.011 A 
HETATM    3  C8  UNL     1       1.074 -11.967  13.508  1.00  0.00    -0.030 A 
HETATM    4  C9  UNL     1      -0.395 -11.711  13.579  1.00  0.00     0.016 C 
HETATM    5  C10 UNL     1       1.655 -11.778  12.104  1.00  0.00     0.016 C 
ENDROOT
BRANCH   1   6
HETATM    6  C2  UNL     1       1.109 -10.621  15.703  1.00  0.00     0.222 C 
HETATM    7  N1  UNL     1       1.096  -9.199  15.736  1.00  0.00    -0.365 N 
HETATM    8  C1  UNL     1       0.348  -8.455  16.731  1.00  0.00     0.149 C 
ATOM      9  H1  UNL     1       1.631  -8.685  15.035  1.00  0.00     0.161 HD
HETATM   10  O1  UNL     1       0.433 -11.212  16.587  1.00  0.00    -0.273 OA
ENDBRANCH   1   6
BRANCH   2  11
HETATM   11  C5  UNL     1       1.192 -13.678  15.492  1.00  0.00    -0.017 C 
HETATM   12  C6  UNL     1       2.284 -14.101  16.443  1.00  0.00     0.010 C 
HETATM   13  C7  UNL     1       0.616 -14.919  14.841  1.00  0.00     0.010 C 
ENDBRANCH   2  11
TORSDOF 2
ENDMDL
