MODEL 1
REMARK VINA RESULT: -7.085388977      0.000      0.000
REMARK  8 active torsions:
REMARK  status: ('A' for Active; 'I' for Inactive)
REMARK    1  A    between atoms: N1_1  and  C1_4 
REMARK       I    between atoms: N4_10  and  C3_12 
REMARK    2  A    between atoms: C3_12  and  C4_14 
REMARK    3  A    between atoms: C4_14  and  C5_16 
REMARK    4  A    between atoms: C5_16  and  N5_17 
REMARK    5  A    between atoms: C5_16  and  C6_21 
REMARK    6  A    between atoms: C7_24  and  N7_25 
REMARK    7  A    between atoms: N7_25  and  C8_27 
REMARK    8  A    between atoms: C8_27  and  C9_28 
ROOT
HETATM    1  C1  UNL     1     -47.734  71.344 -12.635  1.00  0.00     0.692 A 
HETATM    2  N2  UNL     1     -48.915  71.982 -12.558  1.00  0.00    -0.131 N 
ATOM      3  H2  UNL     1     -49.546  71.794 -11.779  1.00  0.00     0.205 HD
HETATM    4  N3  UNL     1     -49.261  72.849 -13.488  1.00  0.00    -0.268 N 
ATOM      5  H3  UNL     1     -50.158  73.330 -13.425  1.00  0.00     0.189 HD
HETATM    6  C2  UNL     1     -48.424  73.110 -14.536  1.00  0.00     0.168 A 
HETATM    7  N4  UNL     1     -48.747  73.948 -15.443  1.00  0.00    -0.302 N 
ATOM      8  H4  UNL     1     -48.129  74.147 -16.230  1.00  0.00     0.171 HD
HETATM    9  C3  UNL     1     -50.033  74.603 -15.305  1.00  0.00     0.295 C 
HETATM   10  O1  UNL     1     -51.037  73.959 -15.723  1.00  0.00    -0.264 OA
HETATM   11  C7  UNL     1     -47.206  72.468 -14.638  1.00  0.00     0.163 A 
HETATM   12  N8  UNL     1     -46.883  71.590 -13.676  1.00  0.00    -0.172 N 
ATOM     13  H8  UNL     1     -45.990  71.100 -13.723  1.00  0.00     0.186 HD
ENDROOT
BRANCH  11  14
HETATM   14  N7  UNL     1     -46.445  72.734 -15.634  1.00  0.00    -0.363 N 
ATOM     15  H7  UNL     1     -46.757  73.461 -16.280  1.00  0.00     0.161 HD
BRANCH  14  16
HETATM   16  C8  UNL     1     -45.197  72.102 -15.918  1.00  0.00     0.234 C 
BRANCH  16  17
HETATM   17  C9  UNL     1     -44.110  73.087 -15.616  1.00  0.00     0.191 C 
HETATM   18  O4  UNL     1     -44.348  74.309 -15.427  1.00  0.00    -0.647 OA
HETATM   19  O5  UNL     1     -42.821  72.577 -15.558  1.00  0.00    -0.647 OA
ENDBRANCH  16  17
ENDBRANCH  14  16
ENDBRANCH  11  14
BRANCH   9  20
HETATM   20  C4  UNL     1     -50.066  75.900 -14.721  1.00  0.00     0.256 C 
HETATM   21  O2  UNL     1     -49.439  76.846 -15.327  1.00  0.00    -0.284 OA
BRANCH  20  22
HETATM   22  C5  UNL     1     -50.744  76.294 -13.479  1.00  0.00     0.350 C 
BRANCH  22  23
HETATM   23  N5  UNL     1     -51.998  75.622 -13.344  1.00  0.00    -0.059 N 
ATOM     24  H53 UNL     1     -52.782  76.255 -13.501  1.00  0.00     0.275 HD
ATOM     25  H52 UNL     1     -52.162  74.976 -14.115  1.00  0.00     0.275 HD
ATOM     26  H51 UNL     1     -52.067  75.155 -12.439  1.00  0.00     0.275 HD
ENDBRANCH  22  23
BRANCH  22  27
HETATM   27  C6  UNL     1     -49.872  76.076 -12.281  1.00  0.00     0.269 C 
HETATM   28  N6  UNL     1     -49.972  74.888 -11.531  1.00  0.00    -0.060 NA
HETATM   29  O3  UNL     1     -49.066  76.984 -11.983  1.00  0.00    -0.274 OA
ENDBRANCH  22  27
ENDBRANCH  20  22
ENDBRANCH   9  20
BRANCH   1  30
HETATM   30  N1  UNL     1     -47.373  70.491 -11.738  1.00  0.00    -0.233 N 
ATOM     31  H12 UNL     1     -47.527  70.725 -10.758  1.00  0.00     0.174 HD
ATOM     32  H11 UNL     1     -46.943  69.602 -11.995  1.00  0.00     0.174 HD
ENDBRANCH   1  30
TORSDOF 8
ENDMDL
MODEL 2
REMARK VINA RESULT: -6.825730185      2.806      6.893
REMARK  8 active torsions:
REMARK  status: ('A' for Active; 'I' for Inactive)
REMARK    1  A    between atoms: N1_1  and  C1_4 
REMARK       I    between atoms: N4_10  and  C3_12 
REMARK    2  A    between atoms: C3_12  and  C4_14 
REMARK    3  A    between atoms: C4_14  and  C5_16 
REMARK    4  A    between atoms: C5_16  and  N5_17 
REMARK    5  A    between atoms: C5_16  and  C6_21 
REMARK    6  A    between atoms: C7_24  and  N7_25 
REMARK    7  A    between atoms: N7_25  and  C8_27 
REMARK    8  A    between atoms: C8_27  and  C9_28 
ROOT
HETATM    1  C1  UNL     1     -50.291  77.254 -11.509  1.00  0.00     0.692 A 
HETATM    2  N2  UNL     1     -49.187  76.501 -11.658  1.00  0.00    -0.131 N 
ATOM      3  H2  UNL     1     -48.353  76.705 -11.106  1.00  0.00     0.205 HD
HETATM    4  N3  UNL     1     -49.180  75.499 -12.514  1.00  0.00    -0.268 N 
ATOM      5  H3  UNL     1     -48.339  74.932 -12.623  1.00  0.00     0.189 HD
HETATM    6  C2  UNL     1     -50.291  75.216 -13.257  1.00  0.00     0.168 A 
HETATM    7  N4  UNL     1     -50.296  74.249 -14.090  1.00  0.00    -0.302 N 
ATOM      8  H4  UNL     1     -51.121  74.032 -14.650  1.00  0.00     0.171 HD
HETATM    9  C3  UNL     1     -49.076  73.474 -14.205  1.00  0.00     0.295 C 
HETATM   10  O1  UNL     1     -48.180  73.949 -14.959  1.00  0.00    -0.264 OA
HETATM   11  C7  UNL     1     -51.437  75.976 -13.123  1.00  0.00     0.163 A 
HETATM   12  N8  UNL     1     -51.413  76.988 -12.244  1.00  0.00    -0.172 N 
ATOM     13  H8  UNL     1     -52.244  77.567 -12.122  1.00  0.00     0.186 HD
ENDROOT
BRANCH  11  14
HETATM   14  N7  UNL     1     -52.461  75.684 -13.836  1.00  0.00    -0.363 N 
ATOM     15  H7  UNL     1     -52.347  74.958 -14.543  1.00  0.00     0.161 HD
BRANCH  14  16
HETATM   16  C8  UNL     1     -53.749  76.289 -13.724  1.00  0.00     0.234 C 
BRANCH  16  17
HETATM   17  C9  UNL     1     -54.664  75.589 -14.681  1.00  0.00     0.191 C 
HETATM   18  O4  UNL     1     -54.374  75.439 -15.897  1.00  0.00    -0.647 OA
HETATM   19  O5  UNL     1     -55.855  75.113 -14.150  1.00  0.00    -0.647 OA
ENDBRANCH  16  17
ENDBRANCH  14  16
ENDBRANCH  11  14
BRANCH   9  20
HETATM   20  C4  UNL     1     -48.984  72.257 -13.474  1.00  0.00     0.256 C 
HETATM   21  O2  UNL     1     -49.696  72.142 -12.408  1.00  0.00    -0.284 OA
BRANCH  20  22
HETATM   22  C5  UNL     1     -48.151  71.091 -13.798  1.00  0.00     0.350 C 
BRANCH  22  23
HETATM   23  N5  UNL     1     -46.807  71.483 -14.078  1.00  0.00    -0.059 N 
ATOM     24  H53 UNL     1     -46.595  72.402 -13.690  1.00  0.00     0.275 HD
ATOM     25  H52 UNL     1     -46.135  70.931 -13.544  1.00  0.00     0.275 HD
ATOM     26  H51 UNL     1     -46.615  71.444 -15.079  1.00  0.00     0.275 HD
ENDBRANCH  22  23
BRANCH  22  27
HETATM   27  C6  UNL     1     -48.208  70.055 -12.717  1.00  0.00     0.269 C 
HETATM   28  N6  UNL     1     -49.152  69.012 -12.775  1.00  0.00    -0.060 NA
HETATM   29  O3  UNL     1     -47.392  70.162 -11.775  1.00  0.00    -0.274 OA
ENDBRANCH  22  27
ENDBRANCH  20  22
ENDBRANCH   9  20
BRANCH   1  30
HETATM   30  N1  UNL     1     -50.324  78.240 -10.678  1.00  0.00    -0.233 N 
ATOM     31  H12 UNL     1     -49.682  79.019 -10.827  1.00  0.00     0.174 HD
ATOM     32  H11 UNL     1     -50.970  78.248  -9.889  1.00  0.00     0.174 HD
ENDBRANCH   1  30
TORSDOF 8
ENDMDL
MODEL 3
REMARK VINA RESULT: -6.657790420      1.667      2.172
REMARK  8 active torsions:
REMARK  status: ('A' for Active; 'I' for Inactive)
REMARK    1  A    between atoms: N1_1  and  C1_4 
REMARK       I    between atoms: N4_10  and  C3_12 
REMARK    2  A    between atoms: C3_12  and  C4_14 
REMARK    3  A    between atoms: C4_14  and  C5_16 
REMARK    4  A    between atoms: C5_16  and  N5_17 
REMARK    5  A    between atoms: C5_16  and  C6_21 
REMARK    6  A    between atoms: C7_24  and  N7_25 
REMARK    7  A    between atoms: N7_25  and  C8_27 
REMARK    8  A    between atoms: C8_27  and  C9_28 
ROOT
HETATM    1  C1  UNL     1     -48.220  69.893 -13.539  1.00  0.00     0.692 A 
HETATM    2  N2  UNL     1     -49.392  70.479 -13.235  1.00  0.00    -0.131 N 
ATOM      3  H2  UNL     1     -50.183  69.909 -12.934  1.00  0.00     0.205 HD
HETATM    4  N3  UNL     1     -49.522  71.787 -13.326  1.00  0.00    -0.268 N 
ATOM      5  H3  UNL     1     -50.413  72.225 -13.094  1.00  0.00     0.189 HD
HETATM    6  C2  UNL     1     -48.469  72.560 -13.727  1.00  0.00     0.168 A 
HETATM    7  N4  UNL     1     -48.582  73.828 -13.819  1.00  0.00    -0.302 N 
ATOM      8  H4  UNL     1     -47.802  74.413 -14.119  1.00  0.00     0.171 HD
HETATM    9  C3  UNL     1     -49.870  74.400 -13.477  1.00  0.00     0.295 C 
HETATM   10  O1  UNL     1     -50.748  74.385 -14.387  1.00  0.00    -0.264 OA
HETATM   11  C7  UNL     1     -47.256  71.983 -14.046  1.00  0.00     0.163 A 
HETATM   12  N8  UNL     1     -47.155  70.650 -13.944  1.00  0.00    -0.172 N 
ATOM     13  H8  UNL     1     -46.272  70.193 -14.172  1.00  0.00     0.186 HD
ENDROOT
BRANCH  11  14
HETATM   14  N7  UNL     1     -46.289  72.737 -14.420  1.00  0.00    -0.363 N 
ATOM     15  H7  UNL     1     -46.225  73.661 -13.992  1.00  0.00     0.161 HD
BRANCH  14  16
HETATM   16  C8  UNL     1     -45.294  72.394 -15.384  1.00  0.00     0.234 C 
BRANCH  16  17
HETATM   17  C9  UNL     1     -44.031  73.105 -15.006  1.00  0.00     0.191 C 
HETATM   18  O4  UNL     1     -42.909  72.766 -15.467  1.00  0.00    -0.647 OA
HETATM   19  O5  UNL     1     -44.167  74.162 -14.117  1.00  0.00    -0.647 OA
ENDBRANCH  16  17
ENDBRANCH  14  16
ENDBRANCH  11  14
BRANCH   9  20
HETATM   20  C4  UNL     1     -50.044  74.927 -12.167  1.00  0.00     0.256 C 
HETATM   21  O2  UNL     1     -49.857  74.132 -11.172  1.00  0.00    -0.284 OA
BRANCH  20  22
HETATM   22  C5  UNL     1     -50.421  76.301 -11.808  1.00  0.00     0.350 C 
BRANCH  22  23
HETATM   23  N5  UNL     1     -50.379  76.491 -10.394  1.00  0.00    -0.059 N 
ATOM     24  H53 UNL     1     -51.081  77.163 -10.084  1.00  0.00     0.275 HD
ATOM     25  H52 UNL     1     -50.719  75.670  -9.893  1.00  0.00     0.275 HD
ATOM     26  H51 UNL     1     -49.443  76.758 -10.088  1.00  0.00     0.275 HD
ENDBRANCH  22  23
BRANCH  22  27
HETATM   27  C6  UNL     1     -49.576  77.309 -12.524  1.00  0.00     0.269 C 
HETATM   28  N6  UNL     1     -49.151  78.481 -11.869  1.00  0.00    -0.060 NA
HETATM   29  O3  UNL     1     -49.273  77.065 -13.713  1.00  0.00    -0.274 OA
ENDBRANCH  22  27
ENDBRANCH  20  22
ENDBRANCH   9  20
BRANCH   1  30
HETATM   30  N1  UNL     1     -48.068  68.615 -13.460  1.00  0.00    -0.233 N 
ATOM     31  H12 UNL     1     -48.159  68.173 -12.545  1.00  0.00     0.174 HD
ATOM     32  H11 UNL     1     -47.860  68.053 -14.285  1.00  0.00     0.174 HD
ENDBRANCH   1  30
TORSDOF 8
ENDMDL
MODEL 4
REMARK VINA RESULT: -6.603506348      2.500      5.170
REMARK  8 active torsions:
REMARK  status: ('A' for Active; 'I' for Inactive)
REMARK    1  A    between atoms: N1_1  and  C1_4 
REMARK       I    between atoms: N4_10  and  C3_12 
REMARK    2  A    between atoms: C3_12  and  C4_14 
REMARK    3  A    between atoms: C4_14  and  C5_16 
REMARK    4  A    between atoms: C5_16  and  N5_17 
REMARK    5  A    between atoms: C5_16  and  C6_21 
REMARK    6  A    between atoms: C7_24  and  N7_25 
REMARK    7  A    between atoms: N7_25  and  C8_27 
REMARK    8  A    between atoms: C8_27  and  C9_28 
ROOT
HETATM    1  C1  UNL     1     -49.293  69.424 -13.339  1.00  0.00     0.692 A 
HETATM    2  N2  UNL     1     -48.753  69.588 -14.560  1.00  0.00    -0.131 N 
ATOM      3  H2  UNL     1     -48.707  68.801 -15.207  1.00  0.00     0.205 HD
HETATM    4  N3  UNL     1     -48.283  70.764 -14.923  1.00  0.00    -0.268 N 
ATOM      5  H3  UNL     1     -47.874  70.883 -15.849  1.00  0.00     0.189 HD
HETATM    6  C2  UNL     1     -48.340  71.827 -14.064  1.00  0.00     0.168 A 
HETATM    7  N4  UNL     1     -47.887  72.971 -14.404  1.00  0.00    -0.302 N 
ATOM      8  H4  UNL     1     -47.924  73.769 -13.769  1.00  0.00     0.171 HD
HETATM    9  C3  UNL     1     -47.318  73.085 -15.733  1.00  0.00     0.295 C 
HETATM   10  O1  UNL     1     -46.116  72.716 -15.860  1.00  0.00    -0.264 OA
HETATM   11  C7  UNL     1     -48.888  71.683 -12.805  1.00  0.00     0.163 A 
HETATM   12  N8  UNL     1     -49.358  70.473 -12.466  1.00  0.00    -0.172 N 
ATOM     13  H8  UNL     1     -49.770  70.335 -11.543  1.00  0.00     0.186 HD
ENDROOT
BRANCH  11  14
HETATM   14  N7  UNL     1     -48.925  72.699 -12.025  1.00  0.00    -0.363 N 
ATOM     15  H7  UNL     1     -48.042  73.010 -11.620  1.00  0.00     0.161 HD
BRANCH  14  16
HETATM   16  C8  UNL     1     -50.097  73.434 -11.675  1.00  0.00     0.234 C 
BRANCH  16  17
HETATM   17  C9  UNL     1     -49.811  74.885 -11.910  1.00  0.00     0.191 C 
HETATM   18  O4  UNL     1     -49.700  75.707 -10.963  1.00  0.00    -0.647 OA
HETATM   19  O5  UNL     1     -49.674  75.275 -13.235  1.00  0.00    -0.647 OA
ENDBRANCH  16  17
ENDBRANCH  14  16
ENDBRANCH  11  14
BRANCH   9  20
HETATM   20  C4  UNL     1     -48.142  73.598 -16.773  1.00  0.00     0.256 C 
HETATM   21  O2  UNL     1     -48.559  74.810 -16.665  1.00  0.00    -0.284 OA
BRANCH  20  22
HETATM   22  C5  UNL     1     -48.584  72.890 -17.982  1.00  0.00     0.350 C 
BRANCH  22  23
HETATM   23  N5  UNL     1     -47.552  72.039 -18.484  1.00  0.00    -0.059 N 
ATOM     24  H53 UNL     1     -47.160  71.451 -17.749  1.00  0.00     0.275 HD
ATOM     25  H52 UNL     1     -47.928  71.306 -19.086  1.00  0.00     0.275 HD
ATOM     26  H51 UNL     1     -46.829  72.582 -18.958  1.00  0.00     0.275 HD
ENDBRANCH  22  23
BRANCH  22  27
HETATM   27  C6  UNL     1     -49.853  72.131 -17.743  1.00  0.00     0.269 C 
HETATM   28  N6  UNL     1     -51.103  72.734 -17.985  1.00  0.00    -0.060 NA
HETATM   29  O3  UNL     1     -49.751  70.958 -17.323  1.00  0.00    -0.274 OA
ENDBRANCH  22  27
ENDBRANCH  20  22
ENDBRANCH   9  20
BRANCH   1  30
HETATM   30  N1  UNL     1     -49.759  68.283 -12.960  1.00  0.00    -0.233 N 
ATOM     31  H12 UNL     1     -49.567  67.465 -13.539  1.00  0.00     0.174 HD
ATOM     32  H11 UNL     1     -50.308  68.191 -12.105  1.00  0.00     0.174 HD
ENDBRANCH   1  30
TORSDOF 8
ENDMDL
MODEL 5
REMARK VINA RESULT: -6.543836506      1.666      1.753
REMARK  8 active torsions:
REMARK  status: ('A' for Active; 'I' for Inactive)
REMARK    1  A    between atoms: N1_1  and  C1_4 
REMARK       I    between atoms: N4_10  and  C3_12 
REMARK    2  A    between atoms: C3_12  and  C4_14 
REMARK    3  A    between atoms: C4_14  and  C5_16 
REMARK    4  A    between atoms: C5_16  and  N5_17 
REMARK    5  A    between atoms: C5_16  and  C6_21 
REMARK    6  A    between atoms: C7_24  and  N7_25 
REMARK    7  A    between atoms: N7_25  and  C8_27 
REMARK    8  A    between atoms: C8_27  and  C9_28 
ROOT
HETATM    1  C1  UNL     1     -47.710  71.351 -12.626  1.00  0.00     0.692 A 
HETATM    2  N2  UNL     1     -48.854  72.044 -12.483  1.00  0.00    -0.131 N 
ATOM      3  H2  UNL     1     -49.421  71.922 -11.643  1.00  0.00     0.205 HD
HETATM    4  N3  UNL     1     -49.244  72.880 -13.423  1.00  0.00    -0.268 N 
ATOM      5  H3  UNL     1     -50.113  73.402 -13.309  1.00  0.00     0.189 HD
HETATM    6  C2  UNL     1     -48.492  73.052 -14.552  1.00  0.00     0.168 A 
HETATM    7  N4  UNL     1     -48.860  73.858 -15.470  1.00  0.00    -0.302 N 
ATOM      8  H4  UNL     1     -48.305  73.991 -16.316  1.00  0.00     0.171 HD
HETATM    9  C3  UNL     1     -50.102  74.576 -15.257  1.00  0.00     0.295 C 
HETATM   10  O1  UNL     1     -51.163  73.957 -15.553  1.00  0.00    -0.264 OA
HETATM   11  C7  UNL     1     -47.315  72.351 -14.723  1.00  0.00     0.163 A 
HETATM   12  N8  UNL     1     -46.945  71.508 -13.748  1.00  0.00    -0.172 N 
ATOM     13  H8  UNL     1     -46.079  70.977 -13.845  1.00  0.00     0.186 HD
ENDROOT
BRANCH  11  14
HETATM   14  N7  UNL     1     -46.633  72.535 -15.793  1.00  0.00    -0.363 N 
ATOM     15  H7  UNL     1     -46.264  73.472 -15.957  1.00  0.00     0.161 HD
BRANCH  14  16
HETATM   16  C8  UNL     1     -46.348  71.541 -16.776  1.00  0.00     0.234 C 
BRANCH  16  17
HETATM   17  C9  UNL     1     -46.946  71.997 -18.071  1.00  0.00     0.191 C 
HETATM   18  O4  UNL     1     -48.046  72.606 -18.122  1.00  0.00    -0.647 OA
HETATM   19  O5  UNL     1     -46.216  71.709 -19.216  1.00  0.00    -0.647 OA
ENDBRANCH  16  17
ENDBRANCH  14  16
ENDBRANCH  11  14
BRANCH   9  20
HETATM   20  C4  UNL     1     -50.031  75.900 -14.740  1.00  0.00     0.256 C 
HETATM   21  O2  UNL     1     -49.314  76.755 -15.381  1.00  0.00    -0.284 OA
BRANCH  20  22
HETATM   22  C5  UNL     1     -50.692  76.416 -13.534  1.00  0.00     0.350 C 
BRANCH  22  23
HETATM   23  N5  UNL     1     -51.981  75.825 -13.364  1.00  0.00    -0.059 N 
ATOM     24  H53 UNL     1     -52.235  75.242 -14.161  1.00  0.00     0.275 HD
ATOM     25  H52 UNL     1     -51.973  75.105 -12.642  1.00  0.00     0.275 HD
ATOM     26  H51 UNL     1     -52.688  76.537 -13.177  1.00  0.00     0.275 HD
ENDBRANCH  22  23
BRANCH  22  27
HETATM   27  C6  UNL     1     -49.839  76.232 -12.317  1.00  0.00     0.269 C 
HETATM   28  N6  UNL     1     -49.906  75.041 -11.569  1.00  0.00    -0.060 NA
HETATM   29  O3  UNL     1     -49.078  77.173 -12.001  1.00  0.00    -0.274 OA
ENDBRANCH  22  27
ENDBRANCH  20  22
ENDBRANCH   9  20
BRANCH   1  30
HETATM   30  N1  UNL     1     -47.307  70.527 -11.721  1.00  0.00    -0.233 N 
ATOM     31  H12 UNL     1     -47.797  69.637 -11.623  1.00  0.00     0.174 HD
ATOM     32  H11 UNL     1     -46.520  70.750 -11.112  1.00  0.00     0.174 HD
ENDBRANCH   1  30
TORSDOF 8
ENDMDL
