MODEL 1
REMARK VINA RESULT: -6.866950968      0.000      0.000
REMARK  7 active torsions:
REMARK  status: ('A' for Active; 'I' for Inactive)
REMARK    1  A    between atoms: N1_1  and  S1_4 
REMARK    2  A    between atoms: S1_4  and  N2_6 
REMARK    3  A    between atoms: S1_4  and  N8_21 
REMARK       I    between atoms: N2_6  and  C1_8 
REMARK       I    between atoms: C1_8  and  N3_10 
REMARK    4  A    between atoms: N3_10  and  C2_12 
REMARK       I    between atoms: N8_21  and  C3_23 
REMARK    5  A    between atoms: C3_23  and  C4_25 
REMARK    6  A    between atoms: C4_25  and  O4_26 
REMARK    7  A    between atoms: C4_25  and  C5_28 
ROOT
HETATM    1  S1  UNL     1     -48.592  72.851 -17.289  1.00  0.00     0.202 S 
HETATM    2  O1  UNL     1     -48.912  71.735 -18.256  1.00  0.00    -0.206 OA
ENDROOT
BRANCH   1   3
HETATM    3  N1  UNL     1     -49.407  74.110 -17.658  1.00  0.00    -0.328 N 
ATOM      4  H12 UNL     1     -50.364  74.093 -18.009  1.00  0.00     0.168 HD
ATOM      5  H11 UNL     1     -48.843  74.944 -17.497  1.00  0.00     0.168 HD
ENDBRANCH   1   3
BRANCH   1   6
HETATM    6  N2  UNL     1     -48.987  72.280 -15.710  1.00  0.00    -0.236 N 
HETATM    7  C1  UNL     1     -48.857  73.151 -14.605  1.00  0.00     0.348 C 
HETATM    8  O2  UNL     1     -48.451  74.338 -14.810  1.00  0.00    -0.245 OA
HETATM    9  N3  UNL     1     -49.156  72.772 -13.272  1.00  0.00    -0.138 N 
ATOM     10  H3  UNL     1     -49.726  73.369 -12.672  1.00  0.00     0.189 HD
ATOM     11  H2  UNL     1     -49.311  71.323 -15.576  1.00  0.00     0.183 HD
BRANCH   9  12
HETATM   12  C2  UNL     1     -48.687  71.649 -12.837  1.00  0.00     0.717 A 
HETATM   13  N4  UNL     1     -49.340  70.485 -12.702  1.00  0.00    -0.115 N 
HETATM   14  N5  UNL     1     -48.484  69.616 -12.229  1.00  0.00    -0.213 N 
ATOM     15  H4  UNL     1     -50.320  70.311 -12.925  1.00  0.00     0.207 HD
HETATM   16  N6  UNL     1     -47.315  70.171 -12.057  1.00  0.00    -0.213 N 
ATOM     17  H5  UNL     1     -48.699  68.640 -12.025  1.00  0.00     0.210 HD
HETATM   18  N7  UNL     1     -47.424  71.435 -12.429  1.00  0.00    -0.115 N 
ATOM     19  H6  UNL     1     -46.476  69.715 -11.701  1.00  0.00     0.210 HD
ATOM     20  H7  UNL     1     -46.676  72.128 -12.410  1.00  0.00     0.207 HD
ENDBRANCH   9  12
ENDBRANCH   1   6
BRANCH   1  21
HETATM   21  N8  UNL     1     -46.879  73.175 -17.355  1.00  0.00    -0.252 N 
HETATM   22  C3  UNL     1     -45.926  72.239 -16.913  1.00  0.00     0.268 C 
HETATM   23  O3  UNL     1     -46.300  71.141 -16.457  1.00  0.00    -0.269 OA
ATOM     24  H8  UNL     1     -46.558  74.069 -17.726  1.00  0.00     0.181 HD
BRANCH  22  25
HETATM   25  C4  UNL     1     -44.486  72.544 -16.981  1.00  0.00     0.299 C 
BRANCH  25  26
HETATM   26  O4  UNL     1     -43.806  71.397 -17.391  1.00  0.00    -0.377 OA
ATOM     27  H4  UNL     1     -43.938  70.716 -16.741  1.00  0.00     0.211 HD
ENDBRANCH  25  26
BRANCH  25  28
HETATM   28  C5  UNL     1     -43.953  73.031 -15.690  1.00  0.00     0.269 C 
HETATM   29  N9  UNL     1     -44.779  73.760 -14.797  1.00  0.00    -0.059 NA
HETATM   30  O5  UNL     1     -42.761  72.790 -15.401  1.00  0.00    -0.273 OA
ENDBRANCH  25  28
ENDBRANCH  22  25
ENDBRANCH   1  21
TORSDOF 7
ENDMDL
MODEL 2
REMARK VINA RESULT: -6.841914556      2.301      3.394
REMARK  7 active torsions:
REMARK  status: ('A' for Active; 'I' for Inactive)
REMARK    1  A    between atoms: N1_1  and  S1_4 
REMARK    2  A    between atoms: S1_4  and  N2_6 
REMARK    3  A    between atoms: S1_4  and  N8_21 
REMARK       I    between atoms: N2_6  and  C1_8 
REMARK       I    between atoms: C1_8  and  N3_10 
REMARK    4  A    between atoms: N3_10  and  C2_12 
REMARK       I    between atoms: N8_21  and  C3_23 
REMARK    5  A    between atoms: C3_23  and  C4_25 
REMARK    6  A    between atoms: C4_25  and  O4_26 
REMARK    7  A    between atoms: C4_25  and  C5_28 
ROOT
HETATM    1  S1  UNL     1     -47.520  70.756 -13.882  1.00  0.00     0.202 S 
HETATM    2  O1  UNL     1     -47.030  69.924 -12.719  1.00  0.00    -0.206 OA
ENDROOT
BRANCH   1   3
HETATM    3  N1  UNL     1     -48.206  69.844 -14.921  1.00  0.00    -0.328 N 
ATOM      4  H12 UNL     1     -47.735  69.438 -15.730  1.00  0.00     0.168 HD
ATOM      5  H11 UNL     1     -49.187  69.715 -14.672  1.00  0.00     0.168 HD
ENDBRANCH   1   3
BRANCH   1   6
HETATM    6  N2  UNL     1     -48.614  71.924 -13.242  1.00  0.00    -0.236 N 
HETATM    7  C1  UNL     1     -49.212  72.864 -14.111  1.00  0.00     0.348 C 
HETATM    8  O2  UNL     1     -48.923  72.818 -15.348  1.00  0.00    -0.245 OA
HETATM    9  N3  UNL     1     -50.122  73.862 -13.677  1.00  0.00    -0.138 N 
ATOM     10  H3  UNL     1     -50.998  74.024 -14.174  1.00  0.00     0.189 HD
ATOM     11  H2  UNL     1     -48.828  71.937 -12.244  1.00  0.00     0.183 HD
BRANCH   9  12
HETATM   12  C2  UNL     1     -49.810  74.559 -12.635  1.00  0.00     0.717 A 
HETATM   13  N4  UNL     1     -49.820  74.165 -11.353  1.00  0.00    -0.115 N 
HETATM   14  N5  UNL     1     -49.435  75.188 -10.633  1.00  0.00    -0.213 N 
ATOM     15  H4  UNL     1     -50.080  73.243 -11.004  1.00  0.00     0.207 HD
HETATM   16  N6  UNL     1     -49.180  76.216 -11.397  1.00  0.00    -0.213 N 
ATOM     17  H5  UNL     1     -49.346  75.183  -9.617  1.00  0.00     0.210 HD
HETATM   18  N7  UNL     1     -49.409  75.842 -12.644  1.00  0.00    -0.115 N 
ATOM     19  H6  UNL     1     -48.865  77.135 -11.089  1.00  0.00     0.210 HD
ATOM     20  H7  UNL     1     -49.298  76.428 -13.472  1.00  0.00     0.207 HD
ENDBRANCH   9  12
ENDBRANCH   1   6
BRANCH   1  21
HETATM   21  N8  UNL     1     -46.158  71.590 -14.586  1.00  0.00    -0.252 N 
HETATM   22  C3  UNL     1     -45.922  71.592 -15.973  1.00  0.00     0.268 C 
HETATM   23  O3  UNL     1     -46.699  70.984 -16.735  1.00  0.00    -0.269 OA
ATOM     24  H8  UNL     1     -45.515  72.091 -13.974  1.00  0.00     0.181 HD
BRANCH  22  25
HETATM   25  C4  UNL     1     -44.762  72.305 -16.536  1.00  0.00     0.299 C 
BRANCH  25  26
HETATM   26  O4  UNL     1     -44.036  71.418 -17.331  1.00  0.00    -0.377 OA
ATOM     27  H4  UNL     1     -43.179  71.290 -16.940  1.00  0.00     0.211 HD
ENDBRANCH  25  26
BRANCH  25  28
HETATM   28  C5  UNL     1     -43.899  72.891 -15.488  1.00  0.00     0.269 C 
HETATM   29  N9  UNL     1     -44.398  73.896 -14.621  1.00  0.00    -0.059 NA
HETATM   30  O5  UNL     1     -42.722  72.485 -15.379  1.00  0.00    -0.273 OA
ENDBRANCH  25  28
ENDBRANCH  22  25
ENDBRANCH   1  21
TORSDOF 7
ENDMDL
MODEL 3
REMARK VINA RESULT: -6.841785890      2.616      3.739
REMARK  7 active torsions:
REMARK  status: ('A' for Active; 'I' for Inactive)
REMARK    1  A    between atoms: N1_1  and  S1_4 
REMARK    2  A    between atoms: S1_4  and  N2_6 
REMARK    3  A    between atoms: S1_4  and  N8_21 
REMARK       I    between atoms: N2_6  and  C1_8 
REMARK       I    between atoms: C1_8  and  N3_10 
REMARK    4  A    between atoms: N3_10  and  C2_12 
REMARK       I    between atoms: N8_21  and  C3_23 
REMARK    5  A    between atoms: C3_23  and  C4_25 
REMARK    6  A    between atoms: C4_25  and  O4_26 
REMARK    7  A    between atoms: C4_25  and  C5_28 
ROOT
HETATM    1  S1  UNL     1     -47.374  71.064 -13.978  1.00  0.00     0.202 S 
HETATM    2  O1  UNL     1     -46.953  69.907 -13.102  1.00  0.00    -0.206 OA
ENDROOT
BRANCH   1   3
HETATM    3  N1  UNL     1     -48.433  70.589 -14.996  1.00  0.00    -0.328 N 
ATOM      4  H12 UNL     1     -48.626  71.054 -15.883  1.00  0.00     0.168 HD
ATOM      5  H11 UNL     1     -48.897  69.752 -14.644  1.00  0.00     0.168 HD
ENDBRANCH   1   3
BRANCH   1   6
HETATM    6  N2  UNL     1     -48.000  72.286 -12.935  1.00  0.00    -0.236 N 
HETATM    7  C1  UNL     1     -49.283  72.122 -12.365  1.00  0.00     0.348 C 
HETATM    8  O2  UNL     1     -49.941  71.070 -12.641  1.00  0.00    -0.245 OA
HETATM    9  N3  UNL     1     -49.881  73.071 -11.499  1.00  0.00    -0.138 N 
ATOM     10  H3  UNL     1     -50.320  72.780 -10.625  1.00  0.00     0.189 HD
ATOM     11  H2  UNL     1     -47.449  73.120 -12.731  1.00  0.00     0.183 HD
BRANCH   9  12
HETATM   12  C2  UNL     1     -49.855  74.315 -11.846  1.00  0.00     0.717 A 
HETATM   13  N4  UNL     1     -50.333  74.861 -12.974  1.00  0.00    -0.115 N 
HETATM   14  N5  UNL     1     -50.094  76.146 -12.912  1.00  0.00    -0.213 N 
ATOM     15  H4  UNL     1     -50.796  74.368 -13.737  1.00  0.00     0.207 HD
HETATM   16  N6  UNL     1     -49.485  76.445 -11.796  1.00  0.00    -0.213 N 
ATOM     17  H5  UNL     1     -50.349  76.821 -13.633  1.00  0.00     0.210 HD
HETATM   18  N7  UNL     1     -49.328  75.319 -11.122  1.00  0.00    -0.115 N 
ATOM     19  H6  UNL     1     -49.186  77.374 -11.500  1.00  0.00     0.210 HD
ATOM     20  H7  UNL     1     -48.883  75.227 -10.209  1.00  0.00     0.207 HD
ENDBRANCH   9  12
ENDBRANCH   1   6
BRANCH   1  21
HETATM   21  N8  UNL     1     -45.963  71.691 -14.791  1.00  0.00    -0.252 N 
HETATM   22  C3  UNL     1     -46.013  72.858 -15.576  1.00  0.00     0.268 C 
HETATM   23  O3  UNL     1     -47.089  73.474 -15.705  1.00  0.00    -0.269 OA
ATOM     24  H8  UNL     1     -45.076  71.198 -14.694  1.00  0.00     0.181 HD
BRANCH  22  25
HETATM   25  C4  UNL     1     -44.804  73.361 -16.252  1.00  0.00     0.299 C 
BRANCH  25  26
HETATM   26  O4  UNL     1     -44.716  72.767 -17.511  1.00  0.00    -0.377 OA
ATOM     27  H4  UNL     1     -43.912  72.262 -17.553  1.00  0.00     0.211 HD
ENDBRANCH  25  26
BRANCH  25  28
HETATM   28  C5  UNL     1     -43.575  73.106 -15.469  1.00  0.00     0.269 C 
HETATM   29  N9  UNL     1     -42.564  72.249 -15.973  1.00  0.00    -0.059 NA
HETATM   30  O5  UNL     1     -43.443  73.660 -14.356  1.00  0.00    -0.273 OA
ENDBRANCH  25  28
ENDBRANCH  22  25
ENDBRANCH   1  21
TORSDOF 7
ENDMDL
MODEL 4
REMARK VINA RESULT: -6.763515392      3.769      6.103
REMARK  7 active torsions:
REMARK  status: ('A' for Active; 'I' for Inactive)
REMARK    1  A    between atoms: N1_1  and  S1_4 
REMARK    2  A    between atoms: S1_4  and  N2_6 
REMARK    3  A    between atoms: S1_4  and  N8_21 
REMARK       I    between atoms: N2_6  and  C1_8 
REMARK       I    between atoms: C1_8  and  N3_10 
REMARK    4  A    between atoms: N3_10  and  C2_12 
REMARK       I    between atoms: N8_21  and  C3_23 
REMARK    5  A    between atoms: C3_23  and  C4_25 
REMARK    6  A    between atoms: C4_25  and  O4_26 
REMARK    7  A    between atoms: C4_25  and  C5_28 
ROOT
HETATM    1  S1  UNL     1     -49.807  75.318 -14.489  1.00  0.00     0.202 S 
HETATM    2  O1  UNL     1     -49.377  76.007 -15.764  1.00  0.00    -0.206 OA
ENDROOT
BRANCH   1   3
HETATM    3  N1  UNL     1     -51.294  74.913 -14.592  1.00  0.00    -0.328 N 
ATOM      4  H12 UNL     1     -51.945  75.287 -15.282  1.00  0.00     0.168 HD
ATOM      5  H11 UNL     1     -51.513  74.223 -13.873  1.00  0.00     0.168 HD
ENDBRANCH   1   3
BRANCH   1   6
HETATM    6  N2  UNL     1     -48.787  73.943 -14.289  1.00  0.00    -0.236 N 
HETATM    7  C1  UNL     1     -48.953  72.826 -15.139  1.00  0.00     0.348 C 
HETATM    8  O2  UNL     1     -49.856  72.870 -16.032  1.00  0.00    -0.245 OA
HETATM    9  N3  UNL     1     -48.164  71.651 -15.050  1.00  0.00    -0.138 N 
ATOM     10  H3  UNL     1     -47.752  71.231 -15.884  1.00  0.00     0.189 HD
ATOM     11  H2  UNL     1     -48.070  73.935 -13.564  1.00  0.00     0.183 HD
BRANCH   9  12
HETATM   12  C2  UNL     1     -47.981  71.127 -13.883  1.00  0.00     0.717 A 
HETATM   13  N4  UNL     1     -47.232  71.606 -12.878  1.00  0.00    -0.115 N 
HETATM   14  N5  UNL     1     -47.332  70.759 -11.886  1.00  0.00    -0.213 N 
ATOM     15  H4  UNL     1     -46.688  72.468 -12.886  1.00  0.00     0.207 HD
HETATM   16  N6  UNL     1     -48.108  69.761 -12.212  1.00  0.00    -0.213 N 
ATOM     17  H5  UNL     1     -46.867  70.862 -10.984  1.00  0.00     0.210 HD
HETATM   18  N7  UNL     1     -48.520  69.974 -13.450  1.00  0.00    -0.115 N 
ATOM     19  H6  UNL     1     -48.351  68.966 -11.622  1.00  0.00     0.210 HD
ATOM     20  H7  UNL     1     -49.141  69.367 -13.985  1.00  0.00     0.207 HD
ENDBRANCH   9  12
ENDBRANCH   1   6
BRANCH   1  21
HETATM   21  N8  UNL     1     -49.549  76.406 -13.151  1.00  0.00    -0.252 N 
HETATM   22  C3  UNL     1     -50.413  77.486 -12.890  1.00  0.00     0.268 C 
HETATM   23  O3  UNL     1     -51.398  77.683 -13.628  1.00  0.00    -0.269 OA
ATOM     24  H8  UNL     1     -48.747  76.256 -12.538  1.00  0.00     0.181 HD
BRANCH  22  25
HETATM   25  C4  UNL     1     -50.166  78.388 -11.752  1.00  0.00     0.299 C 
BRANCH  25  26
HETATM   26  O4  UNL     1     -48.859  78.866 -11.837  1.00  0.00    -0.377 OA
ATOM     27  H4  UNL     1     -48.756  79.328 -12.661  1.00  0.00     0.211 HD
ENDBRANCH  25  26
BRANCH  25  28
HETATM   28  C5  UNL     1     -50.394  77.726 -10.449  1.00  0.00     0.269 C 
HETATM   29  N9  UNL     1     -50.353  76.312 -10.342  1.00  0.00    -0.059 NA
HETATM   30  O5  UNL     1     -50.624  78.433  -9.444  1.00  0.00    -0.273 OA
ENDBRANCH  25  28
ENDBRANCH  22  25
ENDBRANCH   1  21
TORSDOF 7
ENDMDL
MODEL 5
REMARK VINA RESULT: -6.644679484      2.321      3.415
REMARK  7 active torsions:
REMARK  status: ('A' for Active; 'I' for Inactive)
REMARK    1  A    between atoms: N1_1  and  S1_4 
REMARK    2  A    between atoms: S1_4  and  N2_6 
REMARK    3  A    between atoms: S1_4  and  N8_21 
REMARK       I    between atoms: N2_6  and  C1_8 
REMARK       I    between atoms: C1_8  and  N3_10 
REMARK    4  A    between atoms: N3_10  and  C2_12 
REMARK       I    between atoms: N8_21  and  C3_23 
REMARK    5  A    between atoms: C3_23  and  C4_25 
REMARK    6  A    between atoms: C4_25  and  O4_26 
REMARK    7  A    between atoms: C4_25  and  C5_28 
ROOT
HETATM    1  S1  UNL     1     -47.169  71.073 -14.195  1.00  0.00     0.202 S 
HETATM    2  O1  UNL     1     -46.762  70.080 -13.131  1.00  0.00    -0.206 OA
ENDROOT
BRANCH   1   3
HETATM    3  N1  UNL     1     -47.735  70.322 -15.420  1.00  0.00    -0.328 N 
ATOM      4  H12 UNL     1     -48.306  69.478 -15.364  1.00  0.00     0.168 HD
ATOM      5  H11 UNL     1     -47.452  70.798 -16.276  1.00  0.00     0.168 HD
ENDBRANCH   1   3
BRANCH   1   6
HETATM    6  N2  UNL     1     -48.348  72.115 -13.489  1.00  0.00    -0.236 N 
HETATM    7  C1  UNL     1     -49.020  73.054 -14.303  1.00  0.00     0.348 C 
HETATM    8  O2  UNL     1     -48.733  73.102 -15.541  1.00  0.00    -0.245 OA
HETATM    9  N3  UNL     1     -50.002  73.952 -13.813  1.00  0.00    -0.138 N 
ATOM     10  H3  UNL     1     -50.890  74.075 -14.300  1.00  0.00     0.189 HD
ATOM     11  H2  UNL     1     -48.558  72.053 -12.493  1.00  0.00     0.183 HD
BRANCH   9  12
HETATM   12  C2  UNL     1     -49.742  74.610 -12.733  1.00  0.00     0.717 A 
HETATM   13  N4  UNL     1     -49.792  74.163 -11.468  1.00  0.00    -0.115 N 
HETATM   14  N5  UNL     1     -49.451  75.161 -10.693  1.00  0.00    -0.213 N 
ATOM     15  H4  UNL     1     -50.048  73.223 -11.168  1.00  0.00     0.207 HD
HETATM   16  N6  UNL     1     -49.187  76.224 -11.404  1.00  0.00    -0.213 N 
ATOM     17  H5  UNL     1     -49.400  75.115  -9.676  1.00  0.00     0.210 HD
HETATM   18  N7  UNL     1     -49.362  75.899 -12.674  1.00  0.00    -0.115 N 
ATOM     19  H6  UNL     1     -48.899  77.134 -11.047  1.00  0.00     0.210 HD
ATOM     20  H7  UNL     1     -49.232  76.520 -13.471  1.00  0.00     0.207 HD
ENDBRANCH   9  12
ENDBRANCH   1   6
BRANCH   1  21
HETATM   21  N8  UNL     1     -45.774  72.023 -14.636  1.00  0.00    -0.252 N 
HETATM   22  C3  UNL     1     -45.183  71.932 -15.909  1.00  0.00     0.268 C 
HETATM   23  O3  UNL     1     -45.657  71.154 -16.760  1.00  0.00    -0.269 OA
ATOM     24  H8  UNL     1     -45.376  72.665 -13.950  1.00  0.00     0.181 HD
BRANCH  22  25
HETATM   25  C4  UNL     1     -44.004  72.747 -16.250  1.00  0.00     0.299 C 
BRANCH  25  26
HETATM   26  O4  UNL     1     -42.866  72.123 -15.739  1.00  0.00    -0.377 OA
ATOM     27  H4  UNL     1     -43.038  71.863 -14.841  1.00  0.00     0.211 HD
ENDBRANCH  25  26
BRANCH  25  28
HETATM   28  C5  UNL     1     -44.111  74.132 -15.740  1.00  0.00     0.269 C 
HETATM   29  N9  UNL     1     -44.195  75.227 -16.637  1.00  0.00    -0.059 NA
HETATM   30  O5  UNL     1     -44.125  74.319 -14.504  1.00  0.00    -0.273 OA
ENDBRANCH  25  28
ENDBRANCH  22  25
ENDBRANCH   1  21
TORSDOF 7
ENDMDL
