MODEL 1
REMARK VINA RESULT: -6.894850984      0.000      0.000
REMARK  7 active torsions:
REMARK  status: ('A' for Active; 'I' for Inactive)
REMARK    1  A    between atoms: C2_2  and  O1_3 
REMARK    2  A    between atoms: O1_3  and  C3_4 
REMARK    3  A    between atoms: C3_4  and  C4_6 
REMARK    4  A    between atoms: C4_6  and  N1_8 
REMARK    5  A    between atoms: C4_6  and  C6_12 
REMARK       I    between atoms: C6_12  and  N2_14 
REMARK    6  A    between atoms: N2_14  and  C7_16 
REMARK    7  A    between atoms: C10_24  and  C11_25 
ROOT
HETATM    1  C7  UNL     1     -49.161  74.058 -14.228  1.00  0.00     0.403 C 
HETATM    2  N3  UNL     1     -49.343  74.824 -12.985  1.00  0.00    -0.034 N 
ATOM      3  H31 UNL     1     -48.628  74.587 -12.298  1.00  0.00     0.281 HD
ATOM      4  H32 UNL     1     -50.169  74.510 -12.476  1.00  0.00     0.281 HD
HETATM    5  C8  UNL     1     -49.386  76.235 -13.220  1.00  0.00     0.254 C 
HETATM    6  C9  UNL     1     -50.640  76.813 -12.581  1.00  0.00     0.158 C 
HETATM    7  N4  UNL     1     -51.741  76.500 -13.457  1.00  0.00    -0.145 NA
HETATM    8  N5  UNL     1     -51.839  75.158 -13.767  1.00  0.00    -0.116 NA
HETATM    9  C10 UNL     1     -51.871  75.011 -15.194  1.00  0.00     0.296 C 
HETATM   10  N7  UNL     1     -51.096  73.828 -15.575  1.00  0.00    -0.110 NA
HETATM   11  N8  UNL     1     -50.390  73.381 -14.484  1.00  0.00    -0.291 N 
ATOM     12  H8  UNL     1     -50.724  72.618 -13.896  1.00  0.00     0.179 HD
ENDROOT
BRANCH   1  13
HETATM   13  N2  UNL     1     -48.045  73.167 -14.015  1.00  0.00    -0.314 N 
HETATM   14  C6  UNL     1     -47.469  72.380 -15.039  1.00  0.00     0.266 C 
HETATM   15  O3  UNL     1     -47.921  72.430 -16.201  1.00  0.00    -0.270 OA
ATOM     16  H2  UNL     1     -47.651  73.101 -13.076  1.00  0.00     0.166 HD
BRANCH  14  17
HETATM   17  C4  UNL     1     -46.327  71.488 -14.752  1.00  0.00     0.285 C 
HETATM   18  C5  UNL     1     -45.698  71.067 -16.064  1.00  0.00     0.068 C 
BRANCH  17  19
HETATM   19  C3  UNL     1     -46.786  70.299 -13.978  1.00  0.00     0.304 C 
HETATM   20  O2  UNL     1     -46.014  69.592 -13.286  1.00  0.00    -0.262 OA
BRANCH  19  21
HETATM   21  O1  UNL     1     -48.122  69.971 -14.033  1.00  0.00    -0.320 OA
BRANCH  21  22
HETATM   22  C2  UNL     1     -48.941  69.804 -12.903  1.00  0.00     0.174 C 
HETATM   23  C1  UNL     1     -49.378  68.336 -12.898  1.00  0.00     0.034 C 
ENDBRANCH  21  22
ENDBRANCH  19  21
ENDBRANCH  17  19
BRANCH  17  24
HETATM   24  N1  UNL     1     -45.301  72.210 -14.006  1.00  0.00    -0.052 N 
ATOM     25  H13 UNL     1     -45.628  72.490 -13.081  1.00  0.00     0.276 HD
ATOM     26  H12 UNL     1     -44.539  71.597 -13.716  1.00  0.00     0.276 HD
ATOM     27  H11 UNL     1     -44.966  73.005 -14.548  1.00  0.00     0.276 HD
ENDBRANCH  17  24
ENDBRANCH  14  17
ENDBRANCH   1  13
BRANCH   9  28
HETATM   28  C11 UNL     1     -53.260  74.801 -15.654  1.00  0.00     0.269 C 
HETATM   29  N6  UNL     1     -53.650  75.321 -16.912  1.00  0.00    -0.059 NA
HETATM   30  O4  UNL     1     -54.060  74.173 -14.931  1.00  0.00    -0.273 OA
ENDBRANCH   9  28
TORSDOF 7
ENDMDL
MODEL 2
REMARK VINA RESULT: -6.881402411      2.144      3.422
REMARK  7 active torsions:
REMARK  status: ('A' for Active; 'I' for Inactive)
REMARK    1  A    between atoms: C2_2  and  O1_3 
REMARK    2  A    between atoms: O1_3  and  C3_4 
REMARK    3  A    between atoms: C3_4  and  C4_6 
REMARK    4  A    between atoms: C4_6  and  N1_8 
REMARK    5  A    between atoms: C4_6  and  C6_12 
REMARK       I    between atoms: C6_12  and  N2_14 
REMARK    6  A    between atoms: N2_14  and  C7_16 
REMARK    7  A    between atoms: C10_24  and  C11_25 
ROOT
HETATM    1  C7  UNL     1     -49.724  74.300 -13.103  1.00  0.00     0.403 C 
HETATM    2  N3  UNL     1     -50.562  74.595 -14.275  1.00  0.00    -0.034 N 
ATOM      3  H31 UNL     1     -50.453  73.880 -14.995  1.00  0.00     0.281 HD
ATOM      4  H32 UNL     1     -50.206  75.400 -14.790  1.00  0.00     0.281 HD
HETATM    5  C8  UNL     1     -51.938  74.772 -13.927  1.00  0.00     0.254 C 
HETATM    6  C9  UNL     1     -52.434  76.095 -14.490  1.00  0.00     0.158 C 
HETATM    7  N4  UNL     1     -51.943  77.133 -13.618  1.00  0.00    -0.145 NA
HETATM    8  N5  UNL     1     -50.578  77.087 -13.415  1.00  0.00    -0.116 NA
HETATM    9  C10 UNL     1     -50.317  77.062 -12.004  1.00  0.00     0.296 C 
HETATM   10  N7  UNL     1     -49.194  76.162 -11.736  1.00  0.00    -0.110 NA
HETATM   11  N8  UNL     1     -48.908  75.448 -12.875  1.00  0.00    -0.291 N 
ATOM     12  H8  UNL     1     -48.162  75.721 -13.516  1.00  0.00     0.179 HD
ENDROOT
BRANCH   1  13
HETATM   13  N2  UNL     1     -48.971  73.108 -13.411  1.00  0.00    -0.314 N 
HETATM   14  C6  UNL     1     -48.075  73.011 -14.501  1.00  0.00     0.266 C 
HETATM   15  O3  UNL     1     -47.899  73.987 -15.259  1.00  0.00    -0.270 OA
ATOM     16  H2  UNL     1     -49.092  72.291 -12.812  1.00  0.00     0.166 HD
BRANCH  14  17
HETATM   17  C4  UNL     1     -47.335  71.760 -14.760  1.00  0.00     0.285 C 
HETATM   18  C5  UNL     1     -46.613  71.887 -16.085  1.00  0.00     0.068 C 
BRANCH  17  19
HETATM   19  C3  UNL     1     -48.274  70.601 -14.776  1.00  0.00     0.304 C 
HETATM   20  O2  UNL     1     -48.625  70.018 -15.830  1.00  0.00    -0.262 OA
BRANCH  19  21
HETATM   21  O1  UNL     1     -48.772  70.159 -13.571  1.00  0.00    -0.320 OA
BRANCH  21  22
HETATM   22  C2  UNL     1     -48.332  69.000 -12.912  1.00  0.00     0.174 C 
HETATM   23  C1  UNL     1     -49.551  68.081 -12.788  1.00  0.00     0.034 C 
ENDBRANCH  21  22
ENDBRANCH  19  21
ENDBRANCH  17  19
BRANCH  17  24
HETATM   24  N1  UNL     1     -46.310  71.562 -13.739  1.00  0.00    -0.052 N 
ATOM     25  H13 UNL     1     -46.689  71.130 -12.896  1.00  0.00     0.276 HD
ATOM     26  H12 UNL     1     -45.649  70.830 -14.000  1.00  0.00     0.276 HD
ATOM     27  H11 UNL     1     -45.840  72.444 -13.537  1.00  0.00     0.276 HD
ENDBRANCH  17  24
ENDBRANCH  14  17
ENDBRANCH   1  13
BRANCH   9  28
HETATM   28  C11 UNL     1     -49.932  78.409 -11.533  1.00  0.00     0.269 C 
HETATM   29  N6  UNL     1     -49.651  78.597 -10.157  1.00  0.00    -0.059 NA
HETATM   30  O4  UNL     1     -49.860  79.350 -12.348  1.00  0.00    -0.273 OA
ENDBRANCH   9  28
TORSDOF 7
ENDMDL
MODEL 3
REMARK VINA RESULT: -6.840118315      2.524      3.284
REMARK  7 active torsions:
REMARK  status: ('A' for Active; 'I' for Inactive)
REMARK    1  A    between atoms: C2_2  and  O1_3 
REMARK    2  A    between atoms: O1_3  and  C3_4 
REMARK    3  A    between atoms: C3_4  and  C4_6 
REMARK    4  A    between atoms: C4_6  and  N1_8 
REMARK    5  A    between atoms: C4_6  and  C6_12 
REMARK       I    between atoms: C6_12  and  N2_14 
REMARK    6  A    between atoms: N2_14  and  C7_16 
REMARK    7  A    between atoms: C10_24  and  C11_25 
ROOT
HETATM    1  C7  UNL     1     -49.574  73.812 -14.509  1.00  0.00     0.403 C 
HETATM    2  N3  UNL     1     -48.932  74.907 -15.252  1.00  0.00    -0.034 N 
ATOM      3  H31 UNL     1     -48.470  74.560 -16.093  1.00  0.00     0.281 HD
ATOM      4  H32 UNL     1     -48.116  75.263 -14.753  1.00  0.00     0.281 HD
HETATM    5  C8  UNL     1     -49.847  75.961 -15.564  1.00  0.00     0.254 C 
HETATM    6  C9  UNL     1     -49.271  77.286 -15.086  1.00  0.00     0.158 C 
HETATM    7  N4  UNL     1     -49.480  77.346 -13.661  1.00  0.00    -0.145 NA
HETATM    8  N5  UNL     1     -48.993  76.247 -12.982  1.00  0.00    -0.116 NA
HETATM    9  C10 UNL     1     -50.045  75.692 -12.179  1.00  0.00     0.296 C 
HETATM   10  N7  UNL     1     -49.957  74.231 -12.209  1.00  0.00    -0.110 NA
HETATM   11  N8  UNL     1     -49.060  73.854 -13.179  1.00  0.00    -0.291 N 
ATOM     12  H8  UNL     1     -48.090  73.620 -12.963  1.00  0.00     0.179 HD
ENDROOT
BRANCH   1  13
HETATM   13  N2  UNL     1     -49.266  72.588 -15.209  1.00  0.00    -0.314 N 
HETATM   14  C6  UNL     1     -47.947  72.149 -15.469  1.00  0.00     0.266 C 
HETATM   15  O3  UNL     1     -46.971  72.829 -15.090  1.00  0.00    -0.270 OA
ATOM     16  H2  UNL     1     -50.040  72.009 -15.534  1.00  0.00     0.166 HD
BRANCH  14  17
HETATM   17  C4  UNL     1     -47.702  70.885 -16.192  1.00  0.00     0.285 C 
HETATM   18  C5  UNL     1     -48.753  70.730 -17.271  1.00  0.00     0.068 C 
BRANCH  17  19
HETATM   19  C3  UNL     1     -47.742  69.735 -15.243  1.00  0.00     0.304 C 
HETATM   20  O2  UNL     1     -46.788  68.933 -15.096  1.00  0.00    -0.262 OA
BRANCH  19  21
HETATM   21  O1  UNL     1     -48.886  69.554 -14.499  1.00  0.00    -0.320 OA
BRANCH  21  22
HETATM   22  C2  UNL     1     -48.911  69.471 -13.096  1.00  0.00     0.174 C 
HETATM   23  C1  UNL     1     -49.541  68.117 -12.753  1.00  0.00     0.034 C 
ENDBRANCH  21  22
ENDBRANCH  19  21
ENDBRANCH  17  19
BRANCH  17  24
HETATM   24  N1  UNL     1     -46.409  70.935 -16.867  1.00  0.00    -0.052 N 
ATOM     25  H13 UNL     1     -46.266  71.820 -17.353  1.00  0.00     0.276 HD
ATOM     26  H12 UNL     1     -45.636  71.001 -16.205  1.00  0.00     0.276 HD
ATOM     27  H11 UNL     1     -46.308  70.136 -17.493  1.00  0.00     0.276 HD
ENDBRANCH  17  24
ENDBRANCH  14  17
ENDBRANCH   1  13
BRANCH   9  28
HETATM   28  C11 UNL     1     -49.891  76.120 -10.772  1.00  0.00     0.269 C 
HETATM   29  N6  UNL     1     -50.032  77.493 -10.455  1.00  0.00    -0.059 NA
HETATM   30  O4  UNL     1     -49.641  75.270  -9.894  1.00  0.00    -0.273 OA
ENDBRANCH   9  28
TORSDOF 7
ENDMDL
MODEL 4
REMARK VINA RESULT: -6.724388843      1.566      1.981
REMARK  7 active torsions:
REMARK  status: ('A' for Active; 'I' for Inactive)
REMARK    1  A    between atoms: C2_2  and  O1_3 
REMARK    2  A    between atoms: O1_3  and  C3_4 
REMARK    3  A    between atoms: C3_4  and  C4_6 
REMARK    4  A    between atoms: C4_6  and  N1_8 
REMARK    5  A    between atoms: C4_6  and  C6_12 
REMARK       I    between atoms: C6_12  and  N2_14 
REMARK    6  A    between atoms: N2_14  and  C7_16 
REMARK    7  A    between atoms: C10_24  and  C11_25 
ROOT
HETATM    1  C7  UNL     1     -49.169  73.972 -14.129  1.00  0.00     0.403 C 
HETATM    2  N3  UNL     1     -49.400  74.491 -12.772  1.00  0.00    -0.034 N 
ATOM      3  H31 UNL     1     -48.743  74.085 -12.106  1.00  0.00     0.281 HD
ATOM      4  H32 UNL     1     -50.271  74.130 -12.382  1.00  0.00     0.281 HD
HETATM    5  C8  UNL     1     -49.366  75.920 -12.725  1.00  0.00     0.254 C 
HETATM    6  C9  UNL     1     -50.633  76.432 -12.056  1.00  0.00     0.158 C 
HETATM    7  N4  UNL     1     -51.687  76.357 -13.038  1.00  0.00    -0.145 NA
HETATM    8  N5  UNL     1     -51.822  75.109 -13.611  1.00  0.00    -0.116 NA
HETATM    9  C10 UNL     1     -51.765  75.244 -15.039  1.00  0.00     0.296 C 
HETATM   10  N7  UNL     1     -51.019  74.117 -15.602  1.00  0.00    -0.110 NA
HETATM   11  N8  UNL     1     -50.407  73.428 -14.583  1.00  0.00    -0.291 N 
ATOM     12  H8  UNL     1     -50.812  72.584 -14.177  1.00  0.00     0.179 HD
ENDROOT
BRANCH   1  13
HETATM   13  N2  UNL     1     -48.109  72.997 -14.034  1.00  0.00    -0.314 N 
HETATM   14  C6  UNL     1     -48.241  71.767 -13.347  1.00  0.00     0.266 C 
HETATM   15  O3  UNL     1     -49.314  71.474 -12.781  1.00  0.00    -0.270 OA
ATOM     16  H2  UNL     1     -47.219  73.205 -14.485  1.00  0.00     0.166 HD
BRANCH  14  17
HETATM   17  C4  UNL     1     -47.115  70.813 -13.289  1.00  0.00     0.285 C 
HETATM   18  C5  UNL     1     -45.929  71.415 -14.012  1.00  0.00     0.068 C 
BRANCH  17  19
HETATM   19  C3  UNL     1     -47.510  69.514 -13.907  1.00  0.00     0.304 C 
HETATM   20  O2  UNL     1     -47.809  68.498 -13.235  1.00  0.00    -0.262 OA
BRANCH  19  21
HETATM   21  O1  UNL     1     -47.545  69.440 -15.281  1.00  0.00    -0.320 OA
BRANCH  21  22
HETATM   22  C2  UNL     1     -48.656  69.794 -16.064  1.00  0.00     0.174 C 
HETATM   23  C1  UNL     1     -48.188  70.907 -17.006  1.00  0.00     0.034 C 
ENDBRANCH  21  22
ENDBRANCH  19  21
ENDBRANCH  17  19
BRANCH  17  24
HETATM   24  N1  UNL     1     -46.704  70.606 -11.904  1.00  0.00    -0.052 N 
ATOM     25  H13 UNL     1     -47.101  69.753 -11.511  1.00  0.00     0.276 HD
ATOM     26  H12 UNL     1     -45.717  70.358 -11.833  1.00  0.00     0.276 HD
ATOM     27  H11 UNL     1     -46.932  71.426 -11.343  1.00  0.00     0.276 HD
ENDBRANCH  17  24
ENDBRANCH  14  17
ENDBRANCH   1  13
BRANCH   9  28
HETATM   28  C11 UNL     1     -53.129  75.205 -15.609  1.00  0.00     0.269 C 
HETATM   29  N6  UNL     1     -54.101  74.374 -15.000  1.00  0.00    -0.059 NA
HETATM   30  O4  UNL     1     -53.399  75.900 -16.609  1.00  0.00    -0.273 OA
ENDBRANCH   9  28
TORSDOF 7
ENDMDL
MODEL 5
REMARK VINA RESULT: -6.606807265      2.594      4.213
REMARK  7 active torsions:
REMARK  status: ('A' for Active; 'I' for Inactive)
REMARK    1  A    between atoms: C2_2  and  O1_3 
REMARK    2  A    between atoms: O1_3  and  C3_4 
REMARK    3  A    between atoms: C3_4  and  C4_6 
REMARK    4  A    between atoms: C4_6  and  N1_8 
REMARK    5  A    between atoms: C4_6  and  C6_12 
REMARK       I    between atoms: C6_12  and  N2_14 
REMARK    6  A    between atoms: N2_14  and  C7_16 
REMARK    7  A    between atoms: C10_24  and  C11_25 
ROOT
HETATM    1  C7  UNL     1     -49.338  73.920 -12.404  1.00  0.00     0.403 C 
HETATM    2  N3  UNL     1     -48.717  74.633 -13.531  1.00  0.00    -0.034 N 
ATOM      3  H31 UNL     1     -48.168  73.998 -14.111  1.00  0.00     0.281 HD
ATOM      4  H32 UNL     1     -47.970  75.248 -13.210  1.00  0.00     0.281 HD
HETATM    5  C8  UNL     1     -49.676  75.349 -14.314  1.00  0.00     0.254 C 
HETATM    6  C9  UNL     1     -49.232  76.798 -14.452  1.00  0.00     0.158 C 
HETATM    7  N4  UNL     1     -49.556  77.458 -13.212  1.00  0.00    -0.145 NA
HETATM    8  N5  UNL     1     -49.048  76.821 -12.097  1.00  0.00    -0.116 NA
HETATM    9  C10 UNL     1     -50.119  76.577 -11.172  1.00  0.00     0.296 C 
HETATM   10  N7  UNL     1     -49.928  75.267 -10.546  1.00  0.00    -0.110 NA
HETATM   11  N8  UNL     1     -48.934  74.591 -11.212  1.00  0.00    -0.291 N 
ATOM     12  H8  UNL     1     -47.970  74.570 -10.877  1.00  0.00     0.179 HD
ENDROOT
BRANCH   1  13
HETATM   13  N2  UNL     1     -48.893  72.548 -12.475  1.00  0.00    -0.314 N 
HETATM   14  C6  UNL     1     -49.002  71.752 -13.638  1.00  0.00     0.266 C 
HETATM   15  O3  UNL     1     -49.505  72.223 -14.679  1.00  0.00    -0.270 OA
ATOM     16  H2  UNL     1     -48.477  72.132 -11.642  1.00  0.00     0.166 HD
BRANCH  14  17
HETATM   17  C4  UNL     1     -48.525  70.354 -13.643  1.00  0.00     0.285 C 
HETATM   18  C5  UNL     1     -49.404  69.538 -12.718  1.00  0.00     0.068 C 
BRANCH  17  19
HETATM   19  C3  UNL     1     -47.100  70.296 -13.207  1.00  0.00     0.304 C 
HETATM   20  O2  UNL     1     -46.749  70.300 -12.003  1.00  0.00    -0.262 OA
BRANCH  19  21
HETATM   21  O1  UNL     1     -46.130  70.235 -14.184  1.00  0.00    -0.320 OA
BRANCH  21  22
HETATM   22  C2  UNL     1     -45.605  71.356 -14.847  1.00  0.00     0.174 C 
HETATM   23  C1  UNL     1     -45.530  70.987 -16.332  1.00  0.00     0.034 C 
ENDBRANCH  21  22
ENDBRANCH  19  21
ENDBRANCH  17  19
BRANCH  17  24
HETATM   24  N1  UNL     1     -48.667  69.779 -14.976  1.00  0.00    -0.052 N 
ATOM     25  H13 UNL     1     -49.377  69.047 -15.002  1.00  0.00     0.276 HD
ATOM     26  H12 UNL     1     -49.101  70.432 -15.629  1.00  0.00     0.276 HD
ATOM     27  H11 UNL     1     -47.765  69.446 -15.314  1.00  0.00     0.276 HD
ENDBRANCH  17  24
ENDBRANCH  14  17
ENDBRANCH   1  13
BRANCH   9  28
HETATM   28  C11 UNL     1     -50.105  77.591 -10.097  1.00  0.00     0.269 C 
HETATM   29  N6  UNL     1     -50.484  77.205  -8.788  1.00  0.00    -0.059 NA
HETATM   30  O4  UNL     1     -49.762  78.761 -10.359  1.00  0.00    -0.273 OA
ENDBRANCH   9  28
TORSDOF 7
ENDMDL
