MODEL 1
REMARK VINA RESULT: -8.164819343      0.000      0.000
REMARK  6 active torsions:
REMARK  status: ('A' for Active; 'I' for Inactive)
REMARK    1  A    between atoms: N1_1  and  C1_4 
REMARK    2  A    between atoms: C7_17  and  C8_18 
REMARK    3  A    between atoms: C9_22  and  C10_23 
REMARK    4  A    between atoms: C10_23  and  O2_24 
REMARK    5  A    between atoms: C10_23  and  C11_26 
REMARK       I    between atoms: C11_26  and  N6_28 
REMARK    6  A    between atoms: N7_30  and  N8_32 
ROOT
HETATM    1  C8  UNL     1     -49.337  73.730 -13.901  1.00  0.00     0.373 C 
HETATM    2  N5  UNL     1     -48.874  75.037 -14.349  1.00  0.00    -0.034 N 
ATOM      3  H51 UNL     1     -48.937  75.223 -15.350  1.00  0.00     0.281 HD
ATOM      4  H52 UNL     1     -47.868  75.201 -14.311  1.00  0.00     0.281 HD
HETATM    5  C9  UNL     1     -49.697  75.859 -13.486  1.00  0.00     0.250 C 
HETATM    6  C12 UNL     1     -51.025  75.208 -13.681  1.00  0.00     0.207 C 
HETATM    7  O4  UNL     1     -50.714  73.978 -14.291  1.00  0.00    -0.352 OA
ENDROOT
BRANCH   1   8
HETATM    8  C7  UNL     1     -48.929  72.603 -14.754  1.00  0.00     0.080 A 
HETATM    9  C3  UNL     1     -48.803  71.357 -14.319  1.00  0.00     0.086 A 
HETATM   10  C2  UNL     1     -49.052  71.051 -13.004  1.00  0.00     0.274 A 
HETATM   11  C4  UNL     1     -48.439  70.326 -15.200  1.00  0.00     0.065 A 
HETATM   12  N2  UNL     1     -48.945  69.759 -12.576  1.00  0.00    -0.156 N 
HETATM   13  O1  UNL     1     -49.374  71.943 -12.195  1.00  0.00    -0.267 OA
HETATM   14  C1  UNL     1     -48.597  68.780 -13.418  1.00  0.00     0.679 A 
ATOM     15  H2  UNL     1     -49.132  69.538 -11.598  1.00  0.00     0.187 HD
HETATM   16  N3  UNL     1     -48.347  69.073 -14.725  1.00  0.00    -0.191 N 
ATOM     17  H3  UNL     1     -48.083  68.319 -15.360  1.00  0.00     0.184 HD
HETATM   18  C5  UNL     1     -48.183  70.517 -16.473  1.00  0.00     0.024 A 
HETATM   19  C6  UNL     1     -48.257  71.845 -17.101  1.00  0.00     0.149 A 
HETATM   20  N4  UNL     1     -48.641  72.821 -16.140  1.00  0.00    -0.385 N 
ATOM     21  H4  UNL     1     -48.719  73.782 -16.475  1.00  0.00     0.159 HD
BRANCH  14  22
HETATM   22  N1  UNL     1     -48.497  67.568 -13.008  1.00  0.00    -0.234 N 
ATOM     23  H12 UNL     1     -48.893  67.306 -12.105  1.00  0.00     0.174 HD
ATOM     24  H11 UNL     1     -48.026  66.863 -13.576  1.00  0.00     0.174 HD
ENDBRANCH  14  22
ENDBRANCH   1   8
BRANCH   5  25
HETATM   25  C10 UNL     1     -49.660  77.318 -13.755  1.00  0.00     0.244 C 
BRANCH  25  26
HETATM   26  O2  UNL     1     -48.890  77.470 -14.937  1.00  0.00    -0.384 OA
ATOM     27  H2  UNL     1     -48.089  77.905 -14.668  1.00  0.00     0.210 HD
ENDBRANCH  25  26
BRANCH  25  28
HETATM   28  C11 UNL     1     -49.086  78.169 -12.730  1.00  0.00     0.268 C 
HETATM   29  O3  UNL     1     -48.409  79.178 -13.038  1.00  0.00    -0.269 OA
HETATM   30  N6  UNL     1     -49.271  77.886 -11.356  1.00  0.00    -0.254 N 
HETATM   31  N7  UNL     1     -50.204  77.237 -10.843  1.00  0.00    -0.247 N 
ATOM     32  H6  UNL     1     -48.565  78.252 -10.717  1.00  0.00     0.191 HD
ATOM     33  H7  UNL     1     -50.944  76.842 -11.424  1.00  0.00     0.207 HD
BRANCH  31  34
HETATM   34  N8  UNL     1     -50.214  77.063  -9.456  1.00  0.00    -0.331 N 
ATOM     35  H82 UNL     1     -49.440  77.419  -8.895  1.00  0.00     0.178 HD
ATOM     36  H81 UNL     1     -51.005  76.578  -9.031  1.00  0.00     0.178 HD
ENDBRANCH  31  34
ENDBRANCH  25  28
ENDBRANCH   5  25
TORSDOF 6
ENDMDL
MODEL 2
REMARK VINA RESULT: -7.869903071      2.885      6.904
REMARK  6 active torsions:
REMARK  status: ('A' for Active; 'I' for Inactive)
REMARK    1  A    between atoms: N1_1  and  C1_4 
REMARK    2  A    between atoms: C7_17  and  C8_18 
REMARK    3  A    between atoms: C9_22  and  C10_23 
REMARK    4  A    between atoms: C10_23  and  O2_24 
REMARK    5  A    between atoms: C10_23  and  C11_26 
REMARK       I    between atoms: C11_26  and  N6_28 
REMARK    6  A    between atoms: N7_30  and  N8_32 
ROOT
HETATM    1  C8  UNL     1     -49.346  72.692 -13.401  1.00  0.00     0.373 C 
HETATM    2  N5  UNL     1     -47.925  72.459 -13.625  1.00  0.00    -0.034 N 
ATOM      3  H51 UNL     1     -47.306  72.620 -12.830  1.00  0.00     0.281 HD
ATOM      4  H52 UNL     1     -47.443  73.129 -14.225  1.00  0.00     0.281 HD
HETATM    5  C9  UNL     1     -48.009  71.098 -14.114  1.00  0.00     0.250 C 
HETATM    6  C12 UNL     1     -48.915  70.501 -13.090  1.00  0.00     0.207 C 
HETATM    7  O4  UNL     1     -49.466  71.618 -12.431  1.00  0.00    -0.352 OA
ENDROOT
BRANCH   1   8
HETATM    8  C7  UNL     1     -49.659  73.901 -12.622  1.00  0.00     0.080 A 
HETATM    9  C3  UNL     1     -50.121  75.023 -13.157  1.00  0.00     0.086 A 
HETATM   10  C2  UNL     1     -50.331  75.112 -14.511  1.00  0.00     0.274 A 
HETATM   11  C4  UNL     1     -50.426  76.128 -12.347  1.00  0.00     0.065 A 
HETATM   12  N2  UNL     1     -50.832  76.264 -15.045  1.00  0.00    -0.156 N 
HETATM   13  O1  UNL     1     -50.067  74.151 -15.260  1.00  0.00    -0.267 OA
HETATM   14  C1  UNL     1     -51.122  77.315 -14.270  1.00  0.00     0.679 A 
ATOM     15  H2  UNL     1     -50.987  76.325 -16.051  1.00  0.00     0.187 HD
HETATM   16  N3  UNL     1     -50.916  77.237 -12.925  1.00  0.00    -0.191 N 
ATOM     17  H3  UNL     1     -51.140  78.043 -12.342  1.00  0.00     0.184 HD
HETATM   18  C5  UNL     1     -50.262  76.139 -11.045  1.00  0.00     0.024 A 
HETATM   19  C6  UNL     1     -49.737  74.979 -10.307  1.00  0.00     0.149 A 
HETATM   20  N4  UNL     1     -49.466  73.909 -11.203  1.00  0.00    -0.385 N 
ATOM     21  H4  UNL     1     -49.094  73.053 -10.790  1.00  0.00     0.159 HD
BRANCH  14  22
HETATM   22  N1  UNL     1     -51.591  78.396 -14.779  1.00  0.00    -0.234 N 
ATOM     23  H12 UNL     1     -51.261  78.710 -15.691  1.00  0.00     0.174 HD
ATOM     24  H11 UNL     1     -52.293  78.945 -14.281  1.00  0.00     0.174 HD
ENDBRANCH  14  22
ENDBRANCH   1   8
BRANCH   5  25
HETATM   25  C10 UNL     1     -46.715  70.397 -14.302  1.00  0.00     0.244 C 
BRANCH  25  26
HETATM   26  O2  UNL     1     -46.090  70.399 -13.028  1.00  0.00    -0.384 OA
ATOM     27  H2  UNL     1     -45.161  70.502 -13.199  1.00  0.00     0.210 HD
ENDBRANCH  25  26
BRANCH  25  28
HETATM   28  C11 UNL     1     -45.786  70.961 -15.263  1.00  0.00     0.268 C 
HETATM   29  O3  UNL     1     -45.840  70.641 -16.473  1.00  0.00    -0.269 OA
HETATM   30  N6  UNL     1     -44.793  71.887 -14.863  1.00  0.00    -0.254 N 
HETATM   31  N7  UNL     1     -44.825  72.636 -13.866  1.00  0.00    -0.247 N 
ATOM     32  H6  UNL     1     -43.963  71.947 -15.452  1.00  0.00     0.191 HD
ATOM     33  H7  UNL     1     -45.624  72.627 -13.233  1.00  0.00     0.207 HD
BRANCH  31  34
HETATM   34  N8  UNL     1     -43.741  73.489 -13.636  1.00  0.00    -0.331 N 
ATOM     35  H82 UNL     1     -43.020  73.596 -14.350  1.00  0.00     0.178 HD
ATOM     36  H81 UNL     1     -43.694  73.989 -12.749  1.00  0.00     0.178 HD
ENDBRANCH  31  34
ENDBRANCH  25  28
ENDBRANCH   5  25
TORSDOF 6
ENDMDL
MODEL 3
REMARK VINA RESULT: -7.712118702      2.126      7.200
REMARK  6 active torsions:
REMARK  status: ('A' for Active; 'I' for Inactive)
REMARK    1  A    between atoms: N1_1  and  C1_4 
REMARK    2  A    between atoms: C7_17  and  C8_18 
REMARK    3  A    between atoms: C9_22  and  C10_23 
REMARK    4  A    between atoms: C10_23  and  O2_24 
REMARK    5  A    between atoms: C10_23  and  C11_26 
REMARK       I    between atoms: C11_26  and  N6_28 
REMARK    6  A    between atoms: N7_30  and  N8_32 
ROOT
HETATM    1  C8  UNL     1     -48.819  73.453 -14.660  1.00  0.00     0.373 C 
HETATM    2  N5  UNL     1     -48.138  72.171 -14.524  1.00  0.00    -0.034 N 
ATOM      3  H51 UNL     1     -48.507  71.533 -13.818  1.00  0.00     0.281 HD
ATOM      4  H52 UNL     1     -47.204  72.194 -14.116  1.00  0.00     0.281 HD
HETATM    5  C9  UNL     1     -48.232  71.736 -15.902  1.00  0.00     0.250 C 
HETATM    6  C12 UNL     1     -49.672  72.017 -16.176  1.00  0.00     0.207 C 
HETATM    7  O4  UNL     1     -50.063  72.852 -15.111  1.00  0.00    -0.352 OA
ENDROOT
BRANCH   1   8
HETATM    8  C7  UNL     1     -49.184  74.098 -13.389  1.00  0.00     0.080 A 
HETATM    9  C3  UNL     1     -49.376  75.402 -13.253  1.00  0.00     0.086 A 
HETATM   10  C2  UNL     1     -49.235  76.242 -14.331  1.00  0.00     0.274 A 
HETATM   11  C4  UNL     1     -49.753  75.944 -12.014  1.00  0.00     0.065 A 
HETATM   12  N2  UNL     1     -49.462  77.580 -14.183  1.00  0.00    -0.156 N 
HETATM   13  O1  UNL     1     -48.898  75.794 -15.445  1.00  0.00    -0.267 OA
HETATM   14  C1  UNL     1     -49.820  78.092 -13.000  1.00  0.00     0.679 A 
ATOM     15  H2  UNL     1     -49.357  78.198 -14.987  1.00  0.00     0.187 HD
HETATM   16  N3  UNL     1     -49.962  77.268 -11.925  1.00  0.00    -0.191 N 
ATOM     17  H3  UNL     1     -50.236  77.668 -11.027  1.00  0.00     0.184 HD
HETATM   18  C5  UNL     1     -49.915  75.226 -10.928  1.00  0.00     0.024 A 
HETATM   19  C6  UNL     1     -49.716  73.768 -10.911  1.00  0.00     0.149 A 
HETATM   20  N4  UNL     1     -49.348  73.308 -12.206  1.00  0.00    -0.385 N 
ATOM     21  H4  UNL     1     -49.184  72.305 -12.302  1.00  0.00     0.159 HD
BRANCH  14  22
HETATM   22  N1  UNL     1     -50.031  79.351 -12.868  1.00  0.00    -0.234 N 
ATOM     23  H12 UNL     1     -50.966  79.726 -13.029  1.00  0.00     0.174 HD
ATOM     24  H11 UNL     1     -49.273  79.982 -12.604  1.00  0.00     0.174 HD
ENDBRANCH  14  22
ENDBRANCH   1   8
BRANCH   5  25
HETATM   25  C10 UNL     1     -47.796  70.343 -16.172  1.00  0.00     0.244 C 
BRANCH  25  26
HETATM   26  O2  UNL     1     -48.982  69.619 -16.459  1.00  0.00    -0.384 OA
ATOM     27  H2  UNL     1     -49.253  69.234 -15.634  1.00  0.00     0.210 HD
ENDBRANCH  25  26
BRANCH  25  28
HETATM   28  C11 UNL     1     -47.089  69.650 -15.111  1.00  0.00     0.268 C 
HETATM   29  O3  UNL     1     -45.867  69.849 -14.918  1.00  0.00    -0.269 OA
HETATM   30  N6  UNL     1     -47.756  68.732 -14.266  1.00  0.00    -0.254 N 
HETATM   31  N7  UNL     1     -48.975  68.704 -14.003  1.00  0.00    -0.247 N 
ATOM     32  H6  UNL     1     -47.179  68.016 -13.825  1.00  0.00     0.191 HD
ATOM     33  H7  UNL     1     -49.611  69.390 -14.410  1.00  0.00     0.207 HD
BRANCH  31  34
HETATM   34  N8  UNL     1     -49.450  67.714 -13.138  1.00  0.00    -0.331 N 
ATOM     35  H82 UNL     1     -48.890  67.432 -12.334  1.00  0.00     0.178 HD
ATOM     36  H81 UNL     1     -50.356  67.290 -13.334  1.00  0.00     0.178 HD
ENDBRANCH  31  34
ENDBRANCH  25  28
ENDBRANCH   5  25
TORSDOF 6
ENDMDL
MODEL 4
REMARK VINA RESULT: -7.703929379      2.169      6.804
REMARK  6 active torsions:
REMARK  status: ('A' for Active; 'I' for Inactive)
REMARK    1  A    between atoms: N1_1  and  C1_4 
REMARK    2  A    between atoms: C7_17  and  C8_18 
REMARK    3  A    between atoms: C9_22  and  C10_23 
REMARK    4  A    between atoms: C10_23  and  O2_24 
REMARK    5  A    between atoms: C10_23  and  C11_26 
REMARK       I    between atoms: C11_26  and  N6_28 
REMARK    6  A    between atoms: N7_30  and  N8_32 
ROOT
HETATM    1  C8  UNL     1     -49.646  73.348 -16.026  1.00  0.00     0.373 C 
HETATM    2  N5  UNL     1     -49.214  72.099 -15.413  1.00  0.00    -0.034 N 
ATOM      3  H51 UNL     1     -49.949  71.487 -15.060  1.00  0.00     0.281 HD
ATOM      4  H52 UNL     1     -48.745  72.173 -14.511  1.00  0.00     0.281 HD
HETATM    5  C9  UNL     1     -48.422  71.588 -16.514  1.00  0.00     0.250 C 
HETATM    6  C12 UNL     1     -49.365  71.808 -17.649  1.00  0.00     0.207 C 
HETATM    7  O4  UNL     1     -50.333  72.685 -17.121  1.00  0.00    -0.352 OA
ENDROOT
BRANCH   1   8
HETATM    8  C7  UNL     1     -50.725  74.047 -15.310  1.00  0.00     0.080 A 
HETATM    9  C3  UNL     1     -50.523  74.851 -14.276  1.00  0.00     0.086 A 
HETATM   10  C2  UNL     1     -49.252  75.073 -13.806  1.00  0.00     0.274 A 
HETATM   11  C4  UNL     1     -51.601  75.509 -13.660  1.00  0.00     0.065 A 
HETATM   12  N2  UNL     1     -49.056  75.925 -12.757  1.00  0.00    -0.156 N 
HETATM   13  O1  UNL     1     -48.274  74.503 -14.327  1.00  0.00    -0.267 OA
HETATM   14  C1  UNL     1     -50.085  76.549 -12.173  1.00  0.00     0.679 A 
ATOM     15  H2  UNL     1     -48.109  76.087 -12.413  1.00  0.00     0.187 HD
HETATM   16  N3  UNL     1     -51.350  76.335 -12.631  1.00  0.00    -0.191 N 
ATOM     17  H3  UNL     1     -52.128  76.816 -12.180  1.00  0.00     0.184 HD
HETATM   18  C5  UNL     1     -52.848  75.364 -14.038  1.00  0.00     0.024 A 
HETATM   19  C6  UNL     1     -53.238  74.488 -15.155  1.00  0.00     0.149 A 
HETATM   20  N4  UNL     1     -52.086  73.875 -15.721  1.00  0.00    -0.385 N 
ATOM     21  H4  UNL     1     -52.248  73.242 -16.505  1.00  0.00     0.159 HD
BRANCH  14  22
HETATM   22  N1  UNL     1     -49.893  77.348 -11.187  1.00  0.00    -0.234 N 
ATOM     23  H12 UNL     1     -50.455  78.195 -11.106  1.00  0.00     0.174 HD
ATOM     24  H11 UNL     1     -49.184  77.144 -10.482  1.00  0.00     0.174 HD
ENDBRANCH  14  22
ENDBRANCH   1   8
BRANCH   5  25
HETATM   25  C10 UNL     1     -47.924  70.198 -16.363  1.00  0.00     0.244 C 
BRANCH  25  26
HETATM   26  O2  UNL     1     -49.083  69.380 -16.320  1.00  0.00    -0.384 OA
ATOM     27  H2  UNL     1     -49.057  68.943 -15.477  1.00  0.00     0.210 HD
ENDBRANCH  25  26
BRANCH  25  28
HETATM   28  C11 UNL     1     -47.119  69.903 -15.193  1.00  0.00     0.268 C 
HETATM   29  O3  UNL     1     -46.011  70.462 -15.019  1.00  0.00    -0.269 OA
HETATM   30  N6  UNL     1     -47.559  68.977 -14.217  1.00  0.00    -0.254 N 
HETATM   31  N7  UNL     1     -48.737  68.652 -13.969  1.00  0.00    -0.247 N 
ATOM     32  H6  UNL     1     -46.835  68.529 -13.656  1.00  0.00     0.191 HD
ATOM     33  H7  UNL     1     -49.512  69.061 -14.492  1.00  0.00     0.207 HD
BRANCH  31  34
HETATM   34  N8  UNL     1     -48.974  67.714 -12.959  1.00  0.00    -0.331 N 
ATOM     35  H82 UNL     1     -48.197  67.374 -12.392  1.00  0.00     0.178 HD
ATOM     36  H81 UNL     1     -49.928  67.388 -12.811  1.00  0.00     0.178 HD
ENDBRANCH  31  34
ENDBRANCH  25  28
ENDBRANCH   5  25
TORSDOF 6
ENDMDL
MODEL 5
REMARK VINA RESULT: -7.638348636      3.016      4.339
REMARK  6 active torsions:
REMARK  status: ('A' for Active; 'I' for Inactive)
REMARK    1  A    between atoms: N1_1  and  C1_4 
REMARK    2  A    between atoms: C7_17  and  C8_18 
REMARK    3  A    between atoms: C9_22  and  C10_23 
REMARK    4  A    between atoms: C10_23  and  O2_24 
REMARK    5  A    between atoms: C10_23  and  C11_26 
REMARK       I    between atoms: C11_26  and  N6_28 
REMARK    6  A    between atoms: N7_30  and  N8_32 
ROOT
HETATM    1  C8  UNL     1     -49.298  73.632 -14.037  1.00  0.00     0.373 C 
HETATM    2  N5  UNL     1     -50.423  73.867 -14.933  1.00  0.00    -0.034 N 
ATOM      3  H51 UNL     1     -51.160  73.162 -14.931  1.00  0.00     0.281 HD
ATOM      4  H52 UNL     1     -50.238  73.772 -15.931  1.00  0.00     0.281 HD
HETATM    5  C9  UNL     1     -50.792  75.188 -14.466  1.00  0.00     0.250 C 
HETATM    6  C12 UNL     1     -50.788  74.963 -12.991  1.00  0.00     0.207 C 
HETATM    7  O4  UNL     1     -50.108  73.739 -12.836  1.00  0.00    -0.352 OA
ENDROOT
BRANCH   1   8
HETATM    8  C7  UNL     1     -48.810  72.245 -14.007  1.00  0.00     0.080 A 
HETATM    9  C3  UNL     1     -47.895  71.767 -14.839  1.00  0.00     0.086 A 
HETATM   10  C2  UNL     1     -47.345  72.573 -15.805  1.00  0.00     0.274 A 
HETATM   11  C4  UNL     1     -47.456  70.437 -14.731  1.00  0.00     0.065 A 
HETATM   12  N2  UNL     1     -46.385  72.075 -16.637  1.00  0.00    -0.156 N 
HETATM   13  O1  UNL     1     -47.715  73.757 -15.930  1.00  0.00    -0.267 OA
HETATM   14  C1  UNL     1     -45.969  70.809 -16.532  1.00  0.00     0.679 A 
ATOM     15  H2  UNL     1     -45.978  72.680 -17.352  1.00  0.00     0.187 HD
HETATM   16  N3  UNL     1     -46.509  70.000 -15.578  1.00  0.00    -0.191 N 
ATOM     17  H3  UNL     1     -46.186  69.035 -15.505  1.00  0.00     0.184 HD
HETATM   18  C5  UNL     1     -47.919  69.591 -13.842  1.00  0.00     0.024 A 
HETATM   19  C6  UNL     1     -48.953  69.963 -12.863  1.00  0.00     0.149 A 
HETATM   20  N4  UNL     1     -49.329  71.324 -13.040  1.00  0.00    -0.385 N 
ATOM     21  H4  UNL     1     -50.046  71.683 -12.409  1.00  0.00     0.159 HD
BRANCH  14  22
HETATM   22  N1  UNL     1     -45.066  70.347 -17.319  1.00  0.00    -0.234 N 
ATOM     23  H12 UNL     1     -44.138  70.133 -16.953  1.00  0.00     0.174 HD
ATOM     24  H11 UNL     1     -45.266  70.192 -18.308  1.00  0.00     0.174 HD
ENDBRANCH  14  22
ENDBRANCH   1   8
BRANCH   5  25
HETATM   25  C10 UNL     1     -52.053  75.742 -15.019  1.00  0.00     0.244 C 
BRANCH  25  26
HETATM   26  O2  UNL     1     -52.850  76.077 -13.894  1.00  0.00    -0.384 OA
ATOM     27  H2  UNL     1     -52.376  76.765 -13.441  1.00  0.00     0.210 HD
ENDBRANCH  25  26
BRANCH  25  28
HETATM   28  C11 UNL     1     -52.834  74.879 -15.886  1.00  0.00     0.268 C 
HETATM   29  O3  UNL     1     -52.436  74.599 -17.041  1.00  0.00    -0.269 OA
HETATM   30  N6  UNL     1     -54.065  74.331 -15.454  1.00  0.00    -0.254 N 
HETATM   31  N7  UNL     1     -54.423  74.126 -14.277  1.00  0.00    -0.247 N 
ATOM     32  H6  UNL     1     -54.731  74.077 -16.184  1.00  0.00     0.191 HD
ATOM     33  H7  UNL     1     -53.808  74.358 -13.498  1.00  0.00     0.207 HD
BRANCH  31  34
HETATM   34  N8  UNL     1     -55.686  73.572 -14.050  1.00  0.00    -0.331 N 
ATOM     35  H82 UNL     1     -55.889  73.123 -13.157  1.00  0.00     0.178 HD
ATOM     36  H81 UNL     1     -56.385  73.630 -14.791  1.00  0.00     0.178 HD
ENDBRANCH  31  34
ENDBRANCH  25  28
ENDBRANCH   5  25
TORSDOF 6
ENDMDL
