MODEL 1
REMARK VINA RESULT: -5.319110918      0.000      0.000
REMARK  6 active torsions:
REMARK  status: ('A' for Active; 'I' for Inactive)
REMARK    1  A    between atoms: O1_1  and  C1_3 
REMARK    2  A    between atoms: C2_5  and  O3_6 
REMARK    3  A    between atoms: O3_6  and  C3_7 
REMARK    4  A    between atoms: C8_12  and  O4_13 
REMARK    5  A    between atoms: C9_15  and  O5_16 
REMARK    6  A    between atoms: C10_18  and  O6_19 
ROOT
HETATM    1  C1  UNL     1       2.222   1.217  17.496  1.00  0.00     0.291 C 
HETATM    2  O2  UNL     1       1.753   1.974  16.443  1.00  0.00    -0.326 OA
HETATM    3  C2  UNL     1       1.120   1.086  15.557  1.00  0.00     0.294 C 
HETATM    4  C8  UNL     1      -0.165   0.683  16.202  1.00  0.00     0.204 C 
HETATM    5  C9  UNL     1       0.192  -0.257  17.325  1.00  0.00     0.185 C 
HETATM    6  C10 UNL     1       1.187   0.427  18.211  1.00  0.00     0.204 C 
ENDROOT
BRANCH   3   7
HETATM    7  O3  UNL     1       1.013   1.580  14.289  1.00  0.00    -0.353 OA
BRANCH   7   8
HETATM    8  C3  UNL     1       1.645   0.807  13.326  1.00  0.00     0.124 C 
HETATM    9  C4  UNL     1       2.078  -0.541  13.828  1.00  0.00     0.032 C 
HETATM   10  C5  UNL     1       1.687  -1.552  12.799  1.00  0.00     0.002 C 
HETATM   11  C6  UNL     1       0.941  -0.861  11.709  1.00  0.00     0.002 C 
HETATM   12  C7  UNL     1       0.572   0.464  12.286  1.00  0.00     0.032 C 
ENDBRANCH   7   8
ENDBRANCH   3   7
BRANCH   4  13
HETATM   13  O4  UNL     1      -1.092   0.139  15.326  1.00  0.00    -0.388 OA
ATOM     14  H4  UNL     1      -1.649  -0.525  15.715  1.00  0.00     0.210 HD
ENDBRANCH   4  13
BRANCH   1  15
HETATM   15  O1  UNL     1       3.226   0.356  17.033  1.00  0.00    -0.368 OA
ATOM     16  H1  UNL     1       3.908   0.288  17.691  1.00  0.00     0.212 HD
ENDBRANCH   1  15
BRANCH   5  17
HETATM   17  O5  UNL     1      -0.913  -0.664  18.054  1.00  0.00    -0.390 OA
ATOM     18  H5  UNL     1      -0.679  -1.058  18.886  1.00  0.00     0.210 HD
ENDBRANCH   5  17
BRANCH   6  19
HETATM   19  O6  UNL     1       1.861  -0.593  18.925  1.00  0.00    -0.388 OA
ATOM     20  H6  UNL     1       1.424  -1.412  18.722  1.00  0.00     0.210 HD
ENDBRANCH   6  19
TORSDOF 6
ENDMDL
MODEL 2
REMARK VINA RESULT: -5.292001750      2.769      4.512
REMARK  6 active torsions:
REMARK  status: ('A' for Active; 'I' for Inactive)
REMARK    1  A    between atoms: O1_1  and  C1_3 
REMARK    2  A    between atoms: C2_5  and  O3_6 
REMARK    3  A    between atoms: O3_6  and  C3_7 
REMARK    4  A    between atoms: C8_12  and  O4_13 
REMARK    5  A    between atoms: C9_15  and  O5_16 
REMARK    6  A    between atoms: C10_18  and  O6_19 
ROOT
HETATM    1  C1  UNL     1       0.241   3.204  15.224  1.00  0.00     0.291 C 
HETATM    2  O2  UNL     1       1.433   2.510  15.210  1.00  0.00    -0.326 OA
HETATM    3  C2  UNL     1       1.579   1.985  13.915  1.00  0.00     0.294 C 
HETATM    4  C8  UNL     1       1.917   3.135  13.024  1.00  0.00     0.204 C 
HETATM    5  C9  UNL     1       0.652   3.936  12.855  1.00  0.00     0.185 C 
HETATM    6  C10 UNL     1       0.134   4.288  14.215  1.00  0.00     0.204 C 
ENDROOT
BRANCH   3   7
HETATM    7  O3  UNL     1       2.437   0.925  13.860  1.00  0.00    -0.353 OA
BRANCH   7   8
HETATM    8  C3  UNL     1       1.811  -0.312  13.904  1.00  0.00     0.124 C 
HETATM    9  C4  UNL     1       1.361  -0.806  12.559  1.00  0.00     0.032 C 
HETATM   10  C5  UNL     1       1.755  -2.244  12.452  1.00  0.00     0.002 C 
HETATM   11  C6  UNL     1       2.521  -2.622  13.674  1.00  0.00     0.002 C 
HETATM   12  C7  UNL     1       2.894  -1.322  14.303  1.00  0.00     0.032 C 
ENDBRANCH   7   8
ENDBRANCH   3   7
BRANCH   4  13
HETATM   13  O4  UNL     1       2.479   2.765  11.811  1.00  0.00    -0.388 OA
ATOM     14  H4  UNL     1       1.855   2.421  11.183  1.00  0.00     0.210 HD
ENDBRANCH   4  13
BRANCH   1  15
HETATM   15  O1  UNL     1      -0.819   2.304  15.054  1.00  0.00    -0.368 OA
ATOM     16  H1  UNL     1      -1.511   2.726  14.561  1.00  0.00     0.212 HD
ENDBRANCH   1  15
BRANCH   5  17
HETATM   17  O5  UNL     1       0.839   5.077  12.092  1.00  0.00    -0.390 OA
ATOM     18  H5  UNL     1       0.817   4.903  11.159  1.00  0.00     0.210 HD
ENDBRANCH   5  17
BRANCH   6  19
HETATM   19  O6  UNL     1      -1.243   4.578  14.060  1.00  0.00    -0.388 OA
ATOM     20  H6  UNL     1      -1.704   3.748  14.043  1.00  0.00     0.210 HD
ENDBRANCH   6  19
TORSDOF 6
ENDMDL
MODEL 3
REMARK VINA RESULT: -5.162532533      1.511      2.282
REMARK  6 active torsions:
REMARK  status: ('A' for Active; 'I' for Inactive)
REMARK    1  A    between atoms: O1_1  and  C1_3 
REMARK    2  A    between atoms: C2_5  and  O3_6 
REMARK    3  A    between atoms: O3_6  and  C3_7 
REMARK    4  A    between atoms: C8_12  and  O4_13 
REMARK    5  A    between atoms: C9_15  and  O5_16 
REMARK    6  A    between atoms: C10_18  and  O6_19 
ROOT
HETATM    1  C1  UNL     1       0.283  -0.091  17.397  1.00  0.00     0.291 C 
HETATM    2  O2  UNL     1       1.229   0.751  16.851  1.00  0.00    -0.326 OA
HETATM    3  C2  UNL     1       0.997   0.775  15.465  1.00  0.00     0.294 C 
HETATM    4  C8  UNL     1      -0.244   1.579  15.254  1.00  0.00     0.204 C 
HETATM    5  C9  UNL     1      -1.396   0.721  15.711  1.00  0.00     0.185 C 
HETATM    6  C10 UNL     1      -1.127   0.284  17.118  1.00  0.00     0.204 C 
ENDROOT
BRANCH   3   7
HETATM    7  O3  UNL     1       2.086   1.174  14.746  1.00  0.00    -0.353 OA
BRANCH   7   8
HETATM    8  C3  UNL     1       2.641   0.175  13.960  1.00  0.00     0.124 C 
HETATM    9  C4  UNL     1       3.227  -0.957  14.753  1.00  0.00     0.032 C 
HETATM   10  C5  UNL     1       2.778  -2.234  14.116  1.00  0.00     0.002 C 
HETATM   11  C6  UNL     1       1.852  -1.908  12.995  1.00  0.00     0.002 C 
HETATM   12  C7  UNL     1       1.469  -0.484  13.222  1.00  0.00     0.032 C 
ENDBRANCH   7   8
ENDBRANCH   3   7
BRANCH   4  13
HETATM   13  O4  UNL     1      -0.406   2.041  13.957  1.00  0.00    -0.388 OA
ATOM     14  H4  UNL     1      -0.907   2.845  13.891  1.00  0.00     0.210 HD
ENDBRANCH   4  13
BRANCH   1  15
HETATM   15  O1  UNL     1       0.514  -1.398  16.946  1.00  0.00    -0.368 OA
ATOM     16  H1  UNL     1       1.021  -1.367  16.144  1.00  0.00     0.212 HD
ENDBRANCH   1  15
BRANCH   5  17
HETATM   17  O5  UNL     1      -2.615   1.374  15.628  1.00  0.00    -0.390 OA
ATOM     18  H5  UNL     1      -3.329   0.790  15.401  1.00  0.00     0.210 HD
ENDBRANCH   5  17
BRANCH   6  19
HETATM   19  O6  UNL     1      -1.916  -0.869  17.341  1.00  0.00    -0.388 OA
ATOM     20  H6  UNL     1      -2.825  -0.606  17.259  1.00  0.00     0.210 HD
ENDBRANCH   6  19
TORSDOF 6
ENDMDL
MODEL 4
REMARK VINA RESULT: -5.152734134      1.300      1.714
REMARK  6 active torsions:
REMARK  status: ('A' for Active; 'I' for Inactive)
REMARK    1  A    between atoms: O1_1  and  C1_3 
REMARK    2  A    between atoms: C2_5  and  O3_6 
REMARK    3  A    between atoms: O3_6  and  C3_7 
REMARK    4  A    between atoms: C8_12  and  O4_13 
REMARK    5  A    between atoms: C9_15  and  O5_16 
REMARK    6  A    between atoms: C10_18  and  O6_19 
ROOT
HETATM    1  C1  UNL     1       2.861   1.641  17.048  1.00  0.00     0.291 C 
HETATM    2  O2  UNL     1       1.981   1.526  15.993  1.00  0.00    -0.326 OA
HETATM    3  C2  UNL     1       1.591   0.177  15.938  1.00  0.00     0.294 C 
HETATM    4  C8  UNL     1       0.670  -0.048  17.092  1.00  0.00     0.204 C 
HETATM    5  C9  UNL     1       1.528  -0.061  18.331  1.00  0.00     0.185 C 
HETATM    6  C10 UNL     1       2.325   1.206  18.363  1.00  0.00     0.204 C 
ENDROOT
BRANCH   3   7
HETATM    7  O3  UNL     1       1.104  -0.191  14.716  1.00  0.00    -0.353 OA
BRANCH   7   8
HETATM    8  C3  UNL     1       2.040  -0.804  13.897  1.00  0.00     0.124 C 
HETATM    9  C4  UNL     1       2.634  -2.049  14.491  1.00  0.00     0.032 C 
HETATM   10  C5  UNL     1       2.645  -3.097  13.424  1.00  0.00     0.002 C 
HETATM   11  C6  UNL     1       1.986  -2.545  12.206  1.00  0.00     0.002 C 
HETATM   12  C7  UNL     1       1.263  -1.331  12.685  1.00  0.00     0.032 C 
ENDBRANCH   7   8
ENDBRANCH   3   7
BRANCH   4  13
HETATM   13  O4  UNL     1      -0.115  -1.186  16.977  1.00  0.00    -0.388 OA
ATOM     14  H4  UNL     1      -0.946  -1.131  17.432  1.00  0.00     0.210 HD
ENDBRANCH   4  13
BRANCH   1  15
HETATM   15  O1  UNL     1       4.025   0.916  16.758  1.00  0.00    -0.368 OA
ATOM     16  H1  UNL     1       4.784   1.456  16.944  1.00  0.00     0.212 HD
ENDBRANCH   1  15
BRANCH   5  17
HETATM   17  O5  UNL     1       0.787  -0.202  19.493  1.00  0.00    -0.390 OA
ATOM     18  H5  UNL     1       1.331  -0.289  20.267  1.00  0.00     0.210 HD
ENDBRANCH   5  17
BRANCH   6  19
HETATM   19  O6  UNL     1       3.436   0.964  19.206  1.00  0.00    -0.388 OA
ATOM     20  H6  UNL     1       3.163   0.322  19.851  1.00  0.00     0.210 HD
ENDBRANCH   6  19
TORSDOF 6
ENDMDL
MODEL 5
REMARK VINA RESULT: -5.117331222      0.857      1.145
REMARK  6 active torsions:
REMARK  status: ('A' for Active; 'I' for Inactive)
REMARK    1  A    between atoms: O1_1  and  C1_3 
REMARK    2  A    between atoms: C2_5  and  O3_6 
REMARK    3  A    between atoms: O3_6  and  C3_7 
REMARK    4  A    between atoms: C8_12  and  O4_13 
REMARK    5  A    between atoms: C9_15  and  O5_16 
REMARK    6  A    between atoms: C10_18  and  O6_19 
ROOT
HETATM    1  C1  UNL     1       2.097   1.049  16.941  1.00  0.00     0.291 C 
HETATM    2  O2  UNL     1       1.582   1.896  15.982  1.00  0.00    -0.326 OA
HETATM    3  C2  UNL     1       0.752   1.118  15.159  1.00  0.00     0.294 C 
HETATM    4  C8  UNL     1      -0.478   0.819  15.952  1.00  0.00     0.204 C 
HETATM    5  C9  UNL     1      -0.084  -0.201  16.989  1.00  0.00     0.185 C 
HETATM    6  C10 UNL     1       1.082   0.337  17.759  1.00  0.00     0.204 C 
ENDROOT
BRANCH   3   7
HETATM    7  O3  UNL     1       0.539   1.677  13.931  1.00  0.00    -0.353 OA
BRANCH   7   8
HETATM    8  C3  UNL     1       1.231   1.057  12.901  1.00  0.00     0.124 C 
HETATM    9  C4  UNL     1       0.662  -0.279  12.514  1.00  0.00     0.032 C 
HETATM   10  C5  UNL     1       0.602  -0.327  11.021  1.00  0.00     0.002 C 
HETATM   11  C6  UNL     1       1.042   0.991  10.482  1.00  0.00     0.002 C 
HETATM   12  C7  UNL     1       0.991   1.914  11.653  1.00  0.00     0.032 C 
ENDBRANCH   7   8
ENDBRANCH   3   7
BRANCH   4  13
HETATM   13  O4  UNL     1      -1.560   0.412  15.188  1.00  0.00    -0.388 OA
ATOM     14  H4  UNL     1      -1.998   1.118  14.728  1.00  0.00     0.210 HD
ENDBRANCH   4  13
BRANCH   1  15
HETATM   15  O1  UNL     1       2.937   0.111  16.325  1.00  0.00    -0.368 OA
ATOM     16  H1  UNL     1       2.732  -0.755  16.654  1.00  0.00     0.212 HD
ENDBRANCH   1  15
BRANCH   5  17
HETATM   17  O5  UNL     1      -1.126  -0.526  17.842  1.00  0.00    -0.390 OA
ATOM     18  H5  UNL     1      -1.965  -0.198  17.539  1.00  0.00     0.210 HD
ENDBRANCH   5  17
BRANCH   6  19
HETATM   19  O6  UNL     1       1.727  -0.777  18.347  1.00  0.00    -0.388 OA
ATOM     20  H6  UNL     1       1.047  -1.350  18.681  1.00  0.00     0.210 HD
ENDBRANCH   6  19
TORSDOF 6
ENDMDL
