MODEL 1
REMARK VINA RESULT: -7.473479983      0.000      0.000
REMARK  8 active torsions:
REMARK  status: ('A' for Active; 'I' for Inactive)
REMARK    1  A    between atoms: C2_2  and  C3_3 
REMARK    2  A    between atoms: C3_3  and  C4_5 
REMARK    3  A    between atoms: C4_5  and  C5_6 
REMARK    4  A    between atoms: C5_6  and  C8_9 
REMARK    5  A    between atoms: C11_12  and  C13_14 
REMARK    6  A    between atoms: C13_14  and  C14_16 
REMARK    7  A    between atoms: C14_16  and  O3_17 
REMARK    8  A    between atoms: C19_23  and  O4_24 
ROOT
HETATM    1  C8  UNL     1     -14.163  -6.757 -11.880  1.00  0.00     0.029 C 
HETATM    2  C9  UNL     1     -13.375  -6.149 -10.741  1.00  0.00    -0.015 C 
HETATM    3  C10 UNL     1     -13.816  -4.911 -10.903  1.00  0.00    -0.059 C 
HETATM    4  C11 UNL     1     -13.851  -3.485 -10.527  1.00  0.00     0.044 C 
HETATM    5  C12 UNL     1     -15.045  -3.102  -9.680  1.00  0.00     0.028 C 
HETATM    6  C20 UNL     1     -13.990  -2.673 -11.824  1.00  0.00     0.022 C 
HETATM    7  C21 UNL     1     -15.107  -3.119 -12.689  1.00  0.00     0.002 C 
HETATM    8  C22 UNL     1     -14.921  -4.585 -13.112  1.00  0.00     0.014 C 
HETATM    9  C23 UNL     1     -14.755  -5.468 -11.963  1.00  0.00    -0.012 C 
HETATM   10  C24 UNL     1     -16.165  -5.523 -11.275  1.00  0.00     0.021 C 
ENDROOT
BRANCH   4  11
HETATM   11  C13 UNL     1     -12.600  -3.034  -9.888  1.00  0.00     0.176 C 
HETATM   12  O2  UNL     1     -11.815  -2.358 -10.527  1.00  0.00    -0.293 OA
BRANCH  11  13
HETATM   13  C14 UNL     1     -12.207  -3.347  -8.490  1.00  0.00     0.144 C 
HETATM   14  C15 UNL     1     -13.007  -4.546  -8.040  1.00  0.00     0.049 C 
HETATM   15  C16 UNL     1     -12.345  -5.104  -6.785  1.00  0.00     0.004 C 
HETATM   16  C17 UNL     1     -11.066  -5.846  -7.133  1.00  0.00     0.003 C 
HETATM   17  C18 UNL     1     -10.604  -5.282  -8.465  1.00  0.00     0.035 C 
HETATM   18  C19 UNL     1     -10.744  -3.785  -8.470  1.00  0.00     0.160 C 
BRANCH  13  19
HETATM   19  O3  UNL     1     -12.412  -2.336  -7.588  1.00  0.00    -0.379 OA
ATOM     20  H3  UNL     1     -11.667  -2.132  -7.034  1.00  0.00     0.211 HD
ENDBRANCH  13  19
BRANCH  18  21
HETATM   21  O4  UNL     1     -10.069  -3.297  -7.353  1.00  0.00    -0.392 OA
ATOM     22  H4  UNL     1      -9.198  -3.668  -7.274  1.00  0.00     0.210 HD
ENDBRANCH  18  21
ENDBRANCH  11  13
ENDBRANCH   4  11
BRANCH   1  23
HETATM   23  C5  UNL     1     -13.212  -7.413 -12.818  1.00  0.00    -0.033 C 
HETATM   24  C6  UNL     1     -13.826  -7.791 -14.133  1.00  0.00     0.016 C 
HETATM   25  C7  UNL     1     -11.914  -6.646 -12.957  1.00  0.00     0.016 C 
BRANCH  23  26
HETATM   26  C4  UNL     1     -12.786  -8.736 -12.147  1.00  0.00     0.087 C 
BRANCH  26  27
HETATM   27  C3  UNL     1     -11.442  -9.175 -12.486  1.00  0.00     0.127 C 
HETATM   28  O1  UNL     1     -11.113  -9.388 -13.632  1.00  0.00    -0.298 OA
BRANCH  27  29
HETATM   29  C2  UNL     1     -10.386  -9.388 -11.448  1.00  0.00     0.074 C 
HETATM   30  C1  UNL     1     -10.680  -8.646 -10.171  1.00  0.00     0.013 C 
ENDBRANCH  27  29
ENDBRANCH  26  27
ENDBRANCH  23  26
ENDBRANCH   1  23
TORSDOF 8
ENDMDL
MODEL 2
REMARK VINA RESULT: -7.013298253      1.877      6.431
REMARK  8 active torsions:
REMARK  status: ('A' for Active; 'I' for Inactive)
REMARK    1  A    between atoms: C2_2  and  C3_3 
REMARK    2  A    between atoms: C3_3  and  C4_5 
REMARK    3  A    between atoms: C4_5  and  C5_6 
REMARK    4  A    between atoms: C5_6  and  C8_9 
REMARK    5  A    between atoms: C11_12  and  C13_14 
REMARK    6  A    between atoms: C13_14  and  C14_16 
REMARK    7  A    between atoms: C14_16  and  O3_17 
REMARK    8  A    between atoms: C19_23  and  O4_24 
ROOT
HETATM    1  C8  UNL     1     -12.482  -3.518 -10.293  1.00  0.00     0.029 C 
HETATM    2  C9  UNL     1     -12.216  -4.580 -11.337  1.00  0.00    -0.015 C 
HETATM    3  C10 UNL     1     -13.486  -4.837 -11.610  1.00  0.00    -0.059 C 
HETATM    4  C11 UNL     1     -14.534  -5.573 -12.344  1.00  0.00     0.044 C 
HETATM    5  C12 UNL     1     -15.115  -4.810 -13.514  1.00  0.00     0.028 C 
HETATM    6  C20 UNL     1     -15.705  -5.790 -11.374  1.00  0.00     0.022 C 
HETATM    7  C21 UNL     1     -16.163  -4.551 -10.705  1.00  0.00     0.002 C 
HETATM    8  C22 UNL     1     -15.028  -3.919  -9.882  1.00  0.00     0.014 C 
HETATM    9  C23 UNL     1     -13.838  -3.678 -10.689  1.00  0.00    -0.012 C 
HETATM   10  C24 UNL     1     -14.219  -2.492 -11.646  1.00  0.00     0.021 C 
ENDROOT
BRANCH   4  11
HETATM   11  C13 UNL     1     -14.094  -6.914 -12.771  1.00  0.00     0.176 C 
HETATM   12  O2  UNL     1     -14.049  -7.814 -11.953  1.00  0.00    -0.293 OA
BRANCH  11  13
HETATM   13  C14 UNL     1     -13.688  -7.268 -14.156  1.00  0.00     0.144 C 
HETATM   14  C15 UNL     1     -12.512  -6.398 -14.531  1.00  0.00     0.049 C 
HETATM   15  C16 UNL     1     -11.855  -7.009 -15.764  1.00  0.00     0.004 C 
HETATM   16  C17 UNL     1     -11.064  -8.252 -15.394  1.00  0.00     0.003 C 
HETATM   17  C18 UNL     1     -11.670  -8.764 -14.100  1.00  0.00     0.035 C 
HETATM   18  C19 UNL     1     -13.171  -8.704 -14.171  1.00  0.00     0.160 C 
BRANCH  13  19
HETATM   19  O3  UNL     1     -14.660  -7.103 -15.107  1.00  0.00    -0.379 OA
ATOM     20  H3  UNL     1     -14.410  -6.566 -15.851  1.00  0.00     0.211 HD
ENDBRANCH  13  19
BRANCH  18  21
HETATM   21  O4  UNL     1     -13.563  -9.387 -15.322  1.00  0.00    -0.392 OA
ATOM     22  H4  UNL     1     -13.263 -10.288 -15.320  1.00  0.00     0.210 HD
ENDBRANCH  18  21
ENDBRANCH  11  13
ENDBRANCH   4  11
BRANCH   1  23
HETATM   23  C5  UNL     1     -11.824  -3.926  -9.022  1.00  0.00    -0.033 C 
HETATM   24  C6  UNL     1     -12.151  -5.327  -8.596  1.00  0.00     0.016 C 
HETATM   25  C7  UNL     1     -10.340  -3.625  -9.016  1.00  0.00     0.016 C 
BRANCH  23  26
HETATM   26  C4  UNL     1     -12.391  -3.002  -7.924  1.00  0.00     0.087 C 
BRANCH  26  27
HETATM   27  C3  UNL     1     -11.458  -2.704  -6.850  1.00  0.00     0.127 C 
HETATM   28  O1  UNL     1     -10.826  -1.671  -6.825  1.00  0.00    -0.298 OA
BRANCH  27  29
HETATM   29  C2  UNL     1     -11.220  -3.647  -5.713  1.00  0.00     0.074 C 
HETATM   30  C1  UNL     1      -9.768  -3.716  -5.321  1.00  0.00     0.013 C 
ENDBRANCH  27  29
ENDBRANCH  26  27
ENDBRANCH  23  26
ENDBRANCH   1  23
TORSDOF 8
ENDMDL
MODEL 3
REMARK VINA RESULT: -6.959822442      0.931      2.091
REMARK  8 active torsions:
REMARK  status: ('A' for Active; 'I' for Inactive)
REMARK    1  A    between atoms: C2_2  and  C3_3 
REMARK    2  A    between atoms: C3_3  and  C4_5 
REMARK    3  A    between atoms: C4_5  and  C5_6 
REMARK    4  A    between atoms: C5_6  and  C8_9 
REMARK    5  A    between atoms: C11_12  and  C13_14 
REMARK    6  A    between atoms: C13_14  and  C14_16 
REMARK    7  A    between atoms: C14_16  and  O3_17 
REMARK    8  A    between atoms: C19_23  and  O4_24 
ROOT
HETATM    1  C8  UNL     1     -14.185  -6.815 -11.743  1.00  0.00     0.029 C 
HETATM    2  C9  UNL     1     -13.380  -6.190 -10.624  1.00  0.00    -0.015 C 
HETATM    3  C10 UNL     1     -13.799  -4.949 -10.821  1.00  0.00    -0.059 C 
HETATM    4  C11 UNL     1     -13.806  -3.512 -10.485  1.00  0.00     0.044 C 
HETATM    5  C12 UNL     1     -14.989  -3.083  -9.645  1.00  0.00     0.028 C 
HETATM    6  C20 UNL     1     -13.935  -2.734 -11.803  1.00  0.00     0.022 C 
HETATM    7  C21 UNL     1     -15.063  -3.184 -12.652  1.00  0.00     0.002 C 
HETATM    8  C22 UNL     1     -14.907  -4.665 -13.034  1.00  0.00     0.014 C 
HETATM    9  C23 UNL     1     -14.752  -5.518 -11.861  1.00  0.00    -0.012 C 
HETATM   10  C24 UNL     1     -16.161  -5.527 -11.167  1.00  0.00     0.021 C 
ENDROOT
BRANCH   4  11
HETATM   11  C13 UNL     1     -12.544  -3.067  -9.863  1.00  0.00     0.176 C 
HETATM   12  O2  UNL     1     -11.753  -2.418 -10.521  1.00  0.00    -0.293 OA
BRANCH  11  13
HETATM   13  C14 UNL     1     -12.147  -3.356  -8.460  1.00  0.00     0.144 C 
HETATM   14  C15 UNL     1     -12.954  -4.540  -7.984  1.00  0.00     0.049 C 
HETATM   15  C16 UNL     1     -12.291  -5.078  -6.721  1.00  0.00     0.004 C 
HETATM   16  C17 UNL     1     -11.018  -5.836  -7.059  1.00  0.00     0.003 C 
HETATM   17  C18 UNL     1     -10.558  -5.301  -8.404  1.00  0.00     0.035 C 
HETATM   18  C19 UNL     1     -10.688  -3.803  -8.438  1.00  0.00     0.160 C 
BRANCH  13  19
HETATM   19  O3  UNL     1     -12.342  -2.326  -7.577  1.00  0.00    -0.379 OA
ATOM     20  H3  UNL     1     -13.192  -2.314  -7.153  1.00  0.00     0.211 HD
ENDBRANCH  13  19
BRANCH  18  21
HETATM   21  O4  UNL     1     -10.005  -3.298  -7.333  1.00  0.00    -0.392 OA
ATOM     22  H4  UNL     1      -9.909  -3.948  -6.646  1.00  0.00     0.210 HD
ENDBRANCH  18  21
ENDBRANCH  11  13
ENDBRANCH   4  11
BRANCH   1  23
HETATM   23  C5  UNL     1     -13.249  -7.515 -12.666  1.00  0.00    -0.033 C 
HETATM   24  C6  UNL     1     -12.040  -6.705 -13.027  1.00  0.00     0.016 C 
HETATM   25  C7  UNL     1     -12.918  -8.918 -12.201  1.00  0.00     0.016 C 
BRANCH  23  26
HETATM   26  C4  UNL     1     -14.025  -7.738 -13.981  1.00  0.00     0.087 C 
BRANCH  26  27
HETATM   27  C3  UNL     1     -13.192  -8.112 -15.112  1.00  0.00     0.127 C 
HETATM   28  O1  UNL     1     -12.734  -9.228 -15.222  1.00  0.00    -0.298 OA
BRANCH  27  29
HETATM   29  C2  UNL     1     -12.849  -7.151 -16.206  1.00  0.00     0.074 C 
HETATM   30  C1  UNL     1     -13.804  -5.987 -16.265  1.00  0.00     0.013 C 
ENDBRANCH  27  29
ENDBRANCH  26  27
ENDBRANCH  23  26
ENDBRANCH   1  23
TORSDOF 8
ENDMDL
MODEL 4
REMARK VINA RESULT: -6.955560846      1.401      2.055
REMARK  8 active torsions:
REMARK  status: ('A' for Active; 'I' for Inactive)
REMARK    1  A    between atoms: C2_2  and  C3_3 
REMARK    2  A    between atoms: C3_3  and  C4_5 
REMARK    3  A    between atoms: C4_5  and  C5_6 
REMARK    4  A    between atoms: C5_6  and  C8_9 
REMARK    5  A    between atoms: C11_12  and  C13_14 
REMARK    6  A    between atoms: C13_14  and  C14_16 
REMARK    7  A    between atoms: C14_16  and  O3_17 
REMARK    8  A    between atoms: C19_23  and  O4_24 
ROOT
HETATM    1  C8  UNL     1     -14.554  -6.827 -11.787  1.00  0.00     0.029 C 
HETATM    2  C9  UNL     1     -13.820  -6.540 -10.495  1.00  0.00    -0.015 C 
HETATM    3  C10 UNL     1     -14.030  -5.232 -10.495  1.00  0.00    -0.059 C 
HETATM    4  C11 UNL     1     -13.878  -3.893  -9.897  1.00  0.00     0.044 C 
HETATM    5  C12 UNL     1     -15.087  -3.427  -9.115  1.00  0.00     0.028 C 
HETATM    6  C20 UNL     1     -13.726  -2.891 -11.051  1.00  0.00     0.022 C 
HETATM    7  C21 UNL     1     -14.787  -3.000 -12.079  1.00  0.00     0.002 C 
HETATM    8  C22 UNL     1     -14.794  -4.400 -12.716  1.00  0.00     0.014 C 
HETATM    9  C23 UNL     1     -14.913  -5.454 -11.715  1.00  0.00    -0.012 C 
HETATM   10  C24 UNL     1     -16.386  -5.353 -11.181  1.00  0.00     0.021 C 
ENDROOT
BRANCH   4  11
HETATM   11  C13 UNL     1     -12.657  -3.770  -9.079  1.00  0.00     0.176 C 
HETATM   12  O2  UNL     1     -11.889  -2.850  -9.288  1.00  0.00    -0.293 OA
BRANCH  11  13
HETATM   13  C14 UNL     1     -12.274  -4.706  -7.989  1.00  0.00     0.144 C 
HETATM   14  C15 UNL     1     -11.208  -5.631  -8.526  1.00  0.00     0.049 C 
HETATM   15  C16 UNL     1     -10.543  -6.316  -7.336  1.00  0.00     0.004 C 
HETATM   16  C17 UNL     1      -9.617  -5.356  -6.608  1.00  0.00     0.003 C 
HETATM   17  C18 UNL     1     -10.116  -3.961  -6.940  1.00  0.00     0.035 C 
HETATM   18  C19 UNL     1     -11.617  -3.915  -6.861  1.00  0.00     0.160 C 
BRANCH  13  19
HETATM   19  O3  UNL     1     -13.296  -5.475  -7.498  1.00  0.00    -0.379 OA
ATOM     20  H3  UNL     1     -13.059  -6.369  -7.280  1.00  0.00     0.211 HD
ENDBRANCH  13  19
BRANCH  18  21
HETATM   21  O4  UNL     1     -11.985  -4.393  -5.605  1.00  0.00    -0.392 OA
ATOM     22  H4  UNL     1     -12.853  -4.781  -5.613  1.00  0.00     0.210 HD
ENDBRANCH  18  21
ENDBRANCH  11  13
ENDBRANCH   4  11
BRANCH   1  23
HETATM   23  C5  UNL     1     -13.616  -7.501 -12.725  1.00  0.00    -0.033 C 
HETATM   24  C6  UNL     1     -13.655  -8.998 -12.646  1.00  0.00     0.016 C 
HETATM   25  C7  UNL     1     -13.728  -6.968 -14.139  1.00  0.00     0.016 C 
BRANCH  23  26
HETATM   26  C4  UNL     1     -12.194  -7.086 -12.289  1.00  0.00     0.087 C 
BRANCH  26  27
HETATM   27  C3  UNL     1     -11.392  -6.493 -13.345  1.00  0.00     0.127 C 
HETATM   28  O1  UNL     1     -10.831  -7.173 -14.176  1.00  0.00    -0.298 OA
BRANCH  27  29
HETATM   29  C2  UNL     1     -11.210  -5.013 -13.475  1.00  0.00     0.074 C 
HETATM   30  C1  UNL     1     -10.639  -4.395 -12.226  1.00  0.00     0.013 C 
ENDBRANCH  27  29
ENDBRANCH  26  27
ENDBRANCH  23  26
ENDBRANCH   1  23
TORSDOF 8
ENDMDL
MODEL 5
REMARK VINA RESULT: -6.943992874      1.509      2.584
REMARK  8 active torsions:
REMARK  status: ('A' for Active; 'I' for Inactive)
REMARK    1  A    between atoms: C2_2  and  C3_3 
REMARK    2  A    between atoms: C3_3  and  C4_5 
REMARK    3  A    between atoms: C4_5  and  C5_6 
REMARK    4  A    between atoms: C5_6  and  C8_9 
REMARK    5  A    between atoms: C11_12  and  C13_14 
REMARK    6  A    between atoms: C13_14  and  C14_16 
REMARK    7  A    between atoms: C14_16  and  O3_17 
REMARK    8  A    between atoms: C19_23  and  O4_24 
ROOT
HETATM    1  C8  UNL     1     -14.460  -6.796 -11.571  1.00  0.00     0.029 C 
HETATM    2  C9  UNL     1     -13.682  -6.570 -10.293  1.00  0.00    -0.015 C 
HETATM    3  C10 UNL     1     -13.789  -5.249 -10.290  1.00  0.00    -0.059 C 
HETATM    4  C11 UNL     1     -13.521  -3.926  -9.696  1.00  0.00     0.044 C 
HETATM    5  C12 UNL     1     -14.675  -3.368  -8.891  1.00  0.00     0.028 C 
HETATM    6  C20 UNL     1     -13.312  -2.938 -10.853  1.00  0.00     0.022 C 
HETATM    7  C21 UNL     1     -14.398  -2.963 -11.861  1.00  0.00     0.002 C 
HETATM    8  C22 UNL     1     -14.526  -4.357 -12.497  1.00  0.00     0.014 C 
HETATM    9  C23 UNL     1     -14.709  -5.399 -11.493  1.00  0.00    -0.012 C 
HETATM   10  C24 UNL     1     -16.160  -5.184 -10.932  1.00  0.00     0.021 C 
ENDROOT
BRANCH   4  11
HETATM   11  C13 UNL     1     -12.279  -3.902  -8.900  1.00  0.00     0.176 C 
HETATM   12  O2  UNL     1     -11.400  -3.113  -9.194  1.00  0.00    -0.293 OA
BRANCH  11  13
HETATM   13  C14 UNL     1     -12.003  -4.786  -7.738  1.00  0.00     0.144 C 
HETATM   14  C15 UNL     1     -10.891  -5.730  -8.128  1.00  0.00     0.049 C 
HETATM   15  C16 UNL     1     -10.344  -6.358  -6.850  1.00  0.00     0.004 C 
HETATM   16  C17 UNL     1      -9.492  -5.363  -6.080  1.00  0.00     0.003 C 
HETATM   17  C18 UNL     1      -9.955  -3.986  -6.522  1.00  0.00     0.035 C 
HETATM   18  C19 UNL     1     -11.457  -3.942  -6.589  1.00  0.00     0.160 C 
BRANCH  13  19
HETATM   19  O3  UNL     1     -13.068  -5.536  -7.313  1.00  0.00    -0.379 OA
ATOM     20  H3  UNL     1     -12.841  -6.368  -6.913  1.00  0.00     0.211 HD
ENDBRANCH  13  19
BRANCH  18  21
HETATM   21  O4  UNL     1     -11.945  -4.365  -5.354  1.00  0.00    -0.392 OA
ATOM     22  H4  UNL     1     -11.388  -5.027  -4.960  1.00  0.00     0.210 HD
ENDBRANCH  18  21
ENDBRANCH  11  13
ENDBRANCH   4  11
BRANCH   1  23
HETATM   23  C5  UNL     1     -13.596  -7.541 -12.527  1.00  0.00    -0.033 C 
HETATM   24  C6  UNL     1     -12.236  -6.935 -12.709  1.00  0.00     0.016 C 
HETATM   25  C7  UNL     1     -13.560  -9.027 -12.238  1.00  0.00     0.016 C 
BRANCH  23  26
HETATM   26  C4  UNL     1     -14.293  -7.451 -13.901  1.00  0.00     0.087 C 
BRANCH  26  27
HETATM   27  C3  UNL     1     -13.422  -7.720 -15.033  1.00  0.00     0.127 C 
HETATM   28  O1  UNL     1     -13.041  -8.841 -15.291  1.00  0.00    -0.298 OA
BRANCH  27  29
HETATM   29  C2  UNL     1     -12.944  -6.638 -15.949  1.00  0.00     0.074 C 
HETATM   30  C1  UNL     1     -13.845  -5.431 -15.928  1.00  0.00     0.013 C 
ENDBRANCH  27  29
ENDBRANCH  26  27
ENDBRANCH  23  26
ENDBRANCH   1  23
TORSDOF 8
ENDMDL
