MODEL 1
REMARK VINA RESULT: -5.812996843      0.000      0.000
REMARK  3 active torsions:
REMARK  status: ('A' for Active; 'I' for Inactive)
REMARK       I    between atoms: C1_2  and  N1_3 
REMARK       I    between atoms: C1_2  and  N2_16 
REMARK    1  A    between atoms: N1_3  and  C2_5 
REMARK    2  A    between atoms: C2_5  and  C3_6 
REMARK    3  A    between atoms: C4_7  and  C5_8 
ROOT
HETATM    1  C5  UNL     1      91.922  95.685 -42.279  1.00  0.00    -0.003 C 
HETATM    2  C6  UNL     1      92.427  94.599 -42.071  1.00  0.00    -0.009 C 
HETATM    3 BR1  UNL     1      93.224  92.915 -41.770  1.00  0.00     0.011 Br
ENDROOT
BRANCH   1   4
HETATM    4  C4  UNL     1      91.350  96.957 -42.507  1.00  0.00    -0.012 C 
HETATM    5  C3  UNL     1      90.864  98.047 -42.682  1.00  0.00    -0.061 C 
BRANCH   5   6
HETATM    6  C2  UNL     1      90.271  99.393 -42.872  1.00  0.00     0.099 C 
HETATM    7  C7  UNL     1      90.429  99.822 -44.312  1.00  0.00     0.044 C 
HETATM    8  C8  UNL     1      89.345  99.198 -45.172  1.00  0.00     0.004 C 
HETATM    9  C9  UNL     1      87.980  99.748 -44.845  1.00  0.00     0.000 C 
HETATM   10  C10 UNL     1      88.018 100.313 -43.461  1.00  0.00     0.004 C 
HETATM   11  C11 UNL     1      88.817  99.374 -42.549  1.00  0.00     0.044 C 
BRANCH   6  12
HETATM   12  N1  UNL     1      91.045 100.284 -42.029  1.00  0.00    -0.323 N 
HETATM   13  C1  UNL     1      92.302 100.798 -42.450  1.00  0.00     0.324 C 
HETATM   14  O1  UNL     1      92.744 100.452 -43.620  1.00  0.00    -0.247 OA
HETATM   15  N2  UNL     1      93.108 101.652 -41.708  1.00  0.00    -0.264 N 
HETATM   16  C12 UNL     1      94.394 102.181 -42.198  1.00  0.00     0.259 C 
HETATM   17  C14 UNL     1      92.954 102.208 -40.407  1.00  0.00     0.322 C 
HETATM   18  N3  UNL     1      95.197 102.013 -40.976  1.00  0.00    -0.339 N 
HETATM   19  C13 UNL     1      94.343 102.154 -39.862  1.00  0.00     0.292 C 
ATOM     20  H3  UNL     1      96.199 101.826 -40.941  1.00  0.00     0.164 HD
HETATM   21  O2  UNL     1      94.643 102.225 -38.658  1.00  0.00    -0.267 OA
HETATM   22  F1  UNL     1      92.083 101.543 -39.569  1.00  0.00    -0.195 F 
HETATM   23 BR2  UNL     1      92.484 104.094 -40.513  1.00  0.00    -0.013 Br
ATOM     24  H1  UNL     1      90.680 100.547 -41.114  1.00  0.00     0.166 HD
ENDBRANCH   6  12
ENDBRANCH   5   6
ENDBRANCH   1   4
TORSDOF 3
ENDMDL
MODEL 2
REMARK VINA RESULT: -5.563198610      1.030      1.049
REMARK  3 active torsions:
REMARK  status: ('A' for Active; 'I' for Inactive)
REMARK       I    between atoms: C1_2  and  N1_3 
REMARK       I    between atoms: C1_2  and  N2_16 
REMARK    1  A    between atoms: N1_3  and  C2_5 
REMARK    2  A    between atoms: C2_5  and  C3_6 
REMARK    3  A    between atoms: C4_7  and  C5_8 
ROOT
HETATM    1  C5  UNL     1      91.372  96.124 -43.768  1.00  0.00    -0.003 C 
HETATM    2  C6  UNL     1      91.802  95.008 -43.984  1.00  0.00    -0.009 C 
HETATM    3 BR1  UNL     1      92.468  93.270 -44.295  1.00  0.00     0.011 Br
ENDROOT
BRANCH   1   4
HETATM    4  C4  UNL     1      90.852  97.415 -43.521  1.00  0.00    -0.012 C 
HETATM    5  C3  UNL     1      90.389  98.509 -43.314  1.00  0.00    -0.061 C 
BRANCH   5   6
HETATM    6  C2  UNL     1      89.795  99.845 -43.062  1.00  0.00     0.099 C 
HETATM    7  C7  UNL     1      89.732 100.627 -44.353  1.00  0.00     0.044 C 
HETATM    8  C8  UNL     1      88.516 100.214 -45.163  1.00  0.00     0.004 C 
HETATM    9  C9  UNL     1      87.229 100.630 -44.498  1.00  0.00     0.000 C 
HETATM   10  C10 UNL     1      87.493 100.829 -43.040  1.00  0.00     0.004 C 
HETATM   11  C11 UNL     1      88.410  99.710 -42.531  1.00  0.00     0.044 C 
BRANCH   6  12
HETATM   12  N1  UNL     1      90.707 100.513 -42.153  1.00  0.00    -0.323 N 
HETATM   13  C1  UNL     1      91.965 101.006 -42.593  1.00  0.00     0.324 C 
HETATM   14  O1  UNL     1      92.282 100.848 -43.842  1.00  0.00    -0.247 OA
HETATM   15  N2  UNL     1      92.897 101.654 -41.792  1.00  0.00    -0.264 N 
HETATM   16  C12 UNL     1      94.180 102.173 -42.301  1.00  0.00     0.259 C 
HETATM   17  C14 UNL     1      92.895 101.975 -40.407  1.00  0.00     0.322 C 
HETATM   18  N3  UNL     1      95.061 101.731 -41.208  1.00  0.00    -0.339 N 
HETATM   19  C13 UNL     1      94.313 101.728 -40.011  1.00  0.00     0.292 C 
ATOM     20  H3  UNL     1      96.043 101.472 -41.299  1.00  0.00     0.164 HD
HETATM   21  O2  UNL     1      94.713 101.559 -38.846  1.00  0.00    -0.267 OA
HETATM   22  F1  UNL     1      92.040 101.231 -39.619  1.00  0.00    -0.195 F 
HETATM   23 BR2  UNL     1      92.580 103.877 -40.138  1.00  0.00    -0.013 Br
ATOM     24  H1  UNL     1      90.439 100.631 -41.176  1.00  0.00     0.166 HD
ENDBRANCH   6  12
ENDBRANCH   5   6
ENDBRANCH   1   4
TORSDOF 3
ENDMDL
MODEL 3
REMARK VINA RESULT: -5.369792987      2.749      4.278
REMARK  3 active torsions:
REMARK  status: ('A' for Active; 'I' for Inactive)
REMARK       I    between atoms: C1_2  and  N1_3 
REMARK       I    between atoms: C1_2  and  N2_16 
REMARK    1  A    between atoms: N1_3  and  C2_5 
REMARK    2  A    between atoms: C2_5  and  C3_6 
REMARK    3  A    between atoms: C4_7  and  C5_8 
ROOT
HETATM    1  C5  UNL     1      87.544 100.518 -42.977  1.00  0.00    -0.003 C 
HETATM    2  C6  UNL     1      86.381 100.869 -42.926  1.00  0.00    -0.009 C 
HETATM    3 BR1  UNL     1      84.584 101.434 -42.834  1.00  0.00     0.011 Br
ENDROOT
BRANCH   1   4
HETATM    4  C4  UNL     1      88.897 100.118 -43.057  1.00  0.00    -0.012 C 
HETATM    5  C3  UNL     1      90.057  99.795 -43.135  1.00  0.00    -0.061 C 
BRANCH   5   6
HETATM    6  C2  UNL     1      91.489  99.422 -43.241  1.00  0.00     0.099 C 
HETATM    7  C7  UNL     1      91.658  97.956 -42.918  1.00  0.00     0.044 C 
HETATM    8  C8  UNL     1      91.324  97.105 -44.131  1.00  0.00     0.004 C 
HETATM    9  C9  UNL     1      92.328  97.286 -45.241  1.00  0.00     0.000 C 
HETATM   10  C10 UNL     1      93.017  98.598 -45.045  1.00  0.00     0.004 C 
HETATM   11  C11 UNL     1      91.989  99.656 -44.624  1.00  0.00     0.044 C 
BRANCH   6  12
HETATM   12  N1  UNL     1      92.172 100.207 -42.231  1.00  0.00    -0.323 N 
HETATM   13  C1  UNL     1      92.456 101.586 -42.429  1.00  0.00     0.324 C 
HETATM   14  O1  UNL     1      92.081 102.134 -43.544  1.00  0.00    -0.247 OA
HETATM   15  N2  UNL     1      93.106 102.409 -41.518  1.00  0.00    -0.264 N 
HETATM   16  C12 UNL     1      93.354 103.843 -41.757  1.00  0.00     0.259 C 
HETATM   17  C14 UNL     1      93.660 102.150 -40.234  1.00  0.00     0.322 C 
HETATM   18  N3  UNL     1      94.741 103.924 -41.272  1.00  0.00    -0.339 N 
HETATM   19  C13 UNL     1      94.907 102.972 -40.244  1.00  0.00     0.292 C 
ATOM     20  H3  UNL     1      95.460 104.560 -41.619  1.00  0.00     0.164 HD
HETATM   21  O2  UNL     1      95.874 102.815 -39.480  1.00  0.00    -0.267 OA
HETATM   22  F1  UNL     1      93.958 100.830 -39.964  1.00  0.00    -0.195 F 
HETATM   23 BR2  UNL     1      92.533 102.890 -38.831  1.00  0.00    -0.013 Br
ATOM     24  H1  UNL     1      92.457  99.760 -41.360  1.00  0.00     0.166 HD
ENDBRANCH   6  12
ENDBRANCH   5   6
ENDBRANCH   1   4
TORSDOF 3
ENDMDL
MODEL 4
REMARK VINA RESULT: -5.329277797     10.898     13.774
REMARK  3 active torsions:
REMARK  status: ('A' for Active; 'I' for Inactive)
REMARK       I    between atoms: C1_2  and  N1_3 
REMARK       I    between atoms: C1_2  and  N2_16 
REMARK    1  A    between atoms: N1_3  and  C2_5 
REMARK    2  A    between atoms: C2_5  and  C3_6 
REMARK    3  A    between atoms: C4_7  and  C5_8 
ROOT
HETATM    1  C5  UNL     1      91.485  92.459 -45.929  1.00  0.00    -0.003 C 
HETATM    2  C6  UNL     1      91.903  92.823 -44.846  1.00  0.00    -0.009 C 
HETATM    3 BR1  UNL     1      92.530  93.401 -43.163  1.00  0.00     0.011 Br
ENDROOT
BRANCH   1   4
HETATM    4  C4  UNL     1      90.992  92.017 -47.177  1.00  0.00    -0.012 C 
HETATM    5  C3  UNL     1      90.561  91.626 -48.233  1.00  0.00    -0.061 C 
BRANCH   5   6
HETATM    6  C2  UNL     1      90.014  91.127 -49.519  1.00  0.00     0.099 C 
HETATM    7  C7  UNL     1      89.006  92.113 -50.062  1.00  0.00     0.044 C 
HETATM    8  C8  UNL     1      89.711  93.251 -50.777  1.00  0.00     0.004 C 
HETATM    9  C9  UNL     1      90.388  92.789 -52.042  1.00  0.00     0.000 C 
HETATM   10  C10 UNL     1      90.623  91.316 -51.941  1.00  0.00     0.004 C 
HETATM   11  C11 UNL     1      91.102  90.972 -50.525  1.00  0.00     0.044 C 
BRANCH   6  12
HETATM   12  N1  UNL     1      89.333  89.887 -49.200  1.00  0.00    -0.323 N 
HETATM   13  C1  UNL     1      88.175  89.472 -49.912  1.00  0.00     0.324 C 
HETATM   14  O1  UNL     1      87.738  90.233 -50.868  1.00  0.00    -0.247 OA
HETATM   15  N2  UNL     1      87.462  88.304 -49.671  1.00  0.00    -0.264 N 
HETATM   16  C12 UNL     1      86.279  87.902 -50.455  1.00  0.00     0.259 C 
HETATM   17  C14 UNL     1      87.636  87.268 -48.712  1.00  0.00     0.322 C 
HETATM   18  N3  UNL     1      85.412  87.450 -49.355  1.00  0.00    -0.339 N 
HETATM   19  C13 UNL     1      86.231  86.939 -48.326  1.00  0.00     0.292 C 
ATOM     20  H3  UNL     1      84.393  87.498 -49.339  1.00  0.00     0.164 HD
HETATM   21  O2  UNL     1      85.896  86.333 -47.295  1.00  0.00    -0.267 OA
HETATM   22  F1  UNL     1      88.375  87.602 -47.595  1.00  0.00    -0.195 F 
HETATM   23 BR2  UNL     1      88.359  85.666 -49.548  1.00  0.00    -0.013 Br
ATOM     24  H1  UNL     1      89.693  89.300 -48.448  1.00  0.00     0.166 HD
ENDBRANCH   6  12
ENDBRANCH   5   6
ENDBRANCH   1   4
TORSDOF 3
ENDMDL
MODEL 5
REMARK VINA RESULT: -5.310773303     11.081     13.872
REMARK  3 active torsions:
REMARK  status: ('A' for Active; 'I' for Inactive)
REMARK       I    between atoms: C1_2  and  N1_3 
REMARK       I    between atoms: C1_2  and  N2_16 
REMARK    1  A    between atoms: N1_3  and  C2_5 
REMARK    2  A    between atoms: C2_5  and  C3_6 
REMARK    3  A    between atoms: C4_7  and  C5_8 
ROOT
HETATM    1  C5  UNL     1      91.323  92.438 -46.353  1.00  0.00    -0.003 C 
HETATM    2  C6  UNL     1      91.715  92.704 -45.232  1.00  0.00    -0.009 C 
HETATM    3 BR1  UNL     1      92.331  93.139 -43.503  1.00  0.00     0.011 Br
ENDROOT
BRANCH   1   4
HETATM    4  C4  UNL     1      90.848  92.135 -47.648  1.00  0.00    -0.012 C 
HETATM    5  C3  UNL     1      90.427  91.892 -48.752  1.00  0.00    -0.061 C 
BRANCH   5   6
HETATM    6  C2  UNL     1      89.893  91.612 -50.108  1.00  0.00     0.099 C 
HETATM    7  C7  UNL     1      88.940  92.711 -50.517  1.00  0.00     0.044 C 
HETATM    8  C8  UNL     1      89.709  93.910 -51.042  1.00  0.00     0.004 C 
HETATM    9  C9  UNL     1      90.398  93.609 -52.349  1.00  0.00     0.000 C 
HETATM   10  C10 UNL     1      90.570  92.128 -52.463  1.00  0.00     0.004 C 
HETATM   11  C11 UNL     1      90.999  91.559 -51.104  1.00  0.00     0.044 C 
BRANCH   6  12
HETATM   12  N1  UNL     1      89.154  90.370 -49.988  1.00  0.00    -0.323 N 
HETATM   13  C1  UNL     1      89.814  89.134 -49.746  1.00  0.00     0.324 C 
HETATM   14  O1  UNL     1      91.107  89.143 -49.630  1.00  0.00    -0.247 OA
HETATM   15  N2  UNL     1      89.186  87.901 -49.620  1.00  0.00    -0.264 N 
HETATM   16  C12 UNL     1      89.912  86.648 -49.343  1.00  0.00     0.259 C 
HETATM   17  C14 UNL     1      87.818  87.522 -49.709  1.00  0.00     0.322 C 
HETATM   18  N3  UNL     1      89.217  85.761 -50.290  1.00  0.00    -0.339 N 
HETATM   19  C13 UNL     1      87.888  86.214 -50.426  1.00  0.00     0.292 C 
ATOM     20  H3  UNL     1      89.626  84.957 -50.766  1.00  0.00     0.164 HD
HETATM   21  O2  UNL     1      86.937  85.668 -51.013  1.00  0.00    -0.267 OA
HETATM   22  F1  UNL     1      86.994  88.397 -50.386  1.00  0.00    -0.195 F 
HETATM   23 BR2  UNL     1      87.092  87.136 -47.945  1.00  0.00    -0.013 Br
ATOM     24  H1  UNL     1      88.139  90.383 -50.079  1.00  0.00     0.166 HD
ENDBRANCH   6  12
ENDBRANCH   5   6
ENDBRANCH   1   4
TORSDOF 3
ENDMDL
