MODEL 1
REMARK VINA RESULT: -5.026702542      0.000      0.000
REMARK  5 active torsions:
REMARK  status: ('A' for Active; 'I' for Inactive)
REMARK    1  A    between atoms: C3_3  and  C4_4 
REMARK    2  A    between atoms: C5_5  and  C6_6 
REMARK    3  A    between atoms: C6_6  and  C7_8 
REMARK    4  A    between atoms: C6_6  and  N1_12 
REMARK    5  A    between atoms: C8_9  and  C9_10 
REMARK       I    between atoms: N2_15  and  C12_16 
ROOT
HETATM    1  C1  UNL     1      92.214 103.196 -38.723  1.00  0.00     0.113 C 
HETATM    2  C2  UNL     1      92.035 102.188 -39.781  1.00  0.00    -0.097 C 
HETATM    3  C3  UNL     1      91.895 101.375 -40.665  1.00  0.00    -0.015 C 
ENDROOT
BRANCH   3   4
HETATM    4  C4  UNL     1      91.752 100.422 -41.720  1.00  0.00    -0.011 C 
HETATM    5  C5  UNL     1      91.629  99.597 -42.598  1.00  0.00    -0.035 C 
BRANCH   5   6
HETATM    6  C6  UNL     1      91.471  98.584 -43.640  1.00  0.00     0.224 C 
HETATM    7 BR1  UNL     1      92.980  98.796 -44.855  1.00  0.00    -0.032 Br
BRANCH   6   8
HETATM    8  C7  UNL     1      91.553  97.218 -43.120  1.00  0.00    -0.048 C 
HETATM    9  C8  UNL     1      91.629  96.103 -42.673  1.00  0.00    -0.091 C 
BRANCH   9  10
HETATM   10  C9  UNL     1      91.711  94.738 -42.101  1.00  0.00     0.179 C 
HETATM   11 BR2  UNL     1      91.997  93.542 -43.590  1.00  0.00    -0.083 Br
ENDBRANCH   9  10
ENDBRANCH   6   8
BRANCH   6  12
HETATM   12  N1  UNL     1      90.291  98.840 -44.353  1.00  0.00    -0.331 N 
HETATM   13  C10 UNL     1      89.333  99.700 -43.798  1.00  0.00     0.086 C 
HETATM   14  C11 UNL     1      88.064  98.935 -43.491  1.00  0.00     0.172 C 
HETATM   15  N2  UNL     1      87.600  98.163 -44.612  1.00  0.00    -0.327 N 
HETATM   16  C12 UNL     1      86.334  97.538 -44.584  1.00  0.00     0.331 C 
HETATM   17  C13 UNL     1      88.463  98.047 -45.757  1.00  0.00     0.172 C 
HETATM   18  N3  UNL     1      85.830  96.771 -45.656  1.00  0.00    -0.040 NA
HETATM   19  O1  UNL     1      85.583  97.644 -43.569  1.00  0.00    -0.251 OA
HETATM   20  C14 UNL     1      89.900  97.910 -45.337  1.00  0.00     0.086 C 
ENDBRANCH   6  12
ENDBRANCH   5   6
ENDBRANCH   3   4
TORSDOF 5
ENDMDL
MODEL 2
REMARK VINA RESULT: -4.896287758      3.554      6.834
REMARK  5 active torsions:
REMARK  status: ('A' for Active; 'I' for Inactive)
REMARK    1  A    between atoms: C3_3  and  C4_4 
REMARK    2  A    between atoms: C5_5  and  C6_6 
REMARK    3  A    between atoms: C6_6  and  C7_8 
REMARK    4  A    between atoms: C6_6  and  N1_12 
REMARK    5  A    between atoms: C8_9  and  C9_10 
REMARK       I    between atoms: N2_15  and  C12_16 
ROOT
HETATM    1  C1  UNL     1      91.704  91.591 -46.662  1.00  0.00     0.113 C 
HETATM    2  C2  UNL     1      91.325  92.975 -46.333  1.00  0.00    -0.097 C 
HETATM    3  C3  UNL     1      90.991  94.106 -46.064  1.00  0.00    -0.015 C 
ENDROOT
BRANCH   3   4
HETATM    4  C4  UNL     1      90.578  95.433 -45.732  1.00  0.00    -0.011 C 
HETATM    5  C5  UNL     1      90.208  96.549 -45.443  1.00  0.00    -0.035 C 
BRANCH   5   6
HETATM    6  C6  UNL     1      89.741  97.885 -45.082  1.00  0.00     0.224 C 
HETATM    7 BR1  UNL     1      90.553  99.122 -46.351  1.00  0.00    -0.032 Br
BRANCH   6   8
HETATM    8  C7  UNL     1      88.292  98.040 -45.230  1.00  0.00    -0.048 C 
HETATM    9  C8  UNL     1      87.100  98.144 -45.354  1.00  0.00    -0.091 C 
BRANCH   9  10
HETATM   10  C9  UNL     1      85.628  98.253 -45.490  1.00  0.00     0.179 C 
HETATM   11 BR2  UNL     1      84.902  98.041 -43.713  1.00  0.00    -0.083 Br
ENDBRANCH   9  10
ENDBRANCH   6   8
BRANCH   6  12
HETATM   12  N1  UNL     1      90.207  98.202 -43.798  1.00  0.00    -0.331 N 
HETATM   13  C10 UNL     1      89.344  98.848 -42.900  1.00  0.00     0.086 C 
HETATM   14  C11 UNL     1      89.863 100.234 -42.588  1.00  0.00     0.172 C 
HETATM   15  N2  UNL     1      91.245 100.230 -42.193  1.00  0.00    -0.327 N 
HETATM   16  C12 UNL     1      91.852 101.397 -41.678  1.00  0.00     0.331 C 
HETATM   17  C13 UNL     1      91.987  99.007 -42.341  1.00  0.00     0.172 C 
HETATM   18  N3  UNL     1      93.204 101.447 -41.274  1.00  0.00    -0.040 NA
HETATM   19  O1  UNL     1      91.190 102.470 -41.555  1.00  0.00    -0.251 OA
HETATM   20  C14 UNL     1      91.600  98.291 -43.604  1.00  0.00     0.086 C 
ENDBRANCH   6  12
ENDBRANCH   5   6
ENDBRANCH   3   4
TORSDOF 5
ENDMDL
MODEL 3
REMARK VINA RESULT: -4.860239598      3.576      6.779
REMARK  5 active torsions:
REMARK  status: ('A' for Active; 'I' for Inactive)
REMARK    1  A    between atoms: C3_3  and  C4_4 
REMARK    2  A    between atoms: C5_5  and  C6_6 
REMARK    3  A    between atoms: C6_6  and  C7_8 
REMARK    4  A    between atoms: C6_6  and  N1_12 
REMARK    5  A    between atoms: C8_9  and  C9_10 
REMARK       I    between atoms: N2_15  and  C12_16 
ROOT
HETATM    1  C1  UNL     1      91.527  91.749 -46.368  1.00  0.00     0.113 C 
HETATM    2  C2  UNL     1      91.331  93.186 -46.113  1.00  0.00    -0.097 C 
HETATM    3  C3  UNL     1      91.148  94.363 -45.904  1.00  0.00    -0.015 C 
ENDROOT
BRANCH   3   4
HETATM    4  C4  UNL     1      90.913  95.748 -45.641  1.00  0.00    -0.011 C 
HETATM    5  C5  UNL     1      90.704  96.922 -45.438  1.00  0.00    -0.035 C 
BRANCH   5   6
HETATM    6  C6  UNL     1      90.434  98.341 -45.214  1.00  0.00     0.224 C 
HETATM    7 BR1  UNL     1      90.313  99.170 -46.974  1.00  0.00    -0.032 Br
BRANCH   6   8
HETATM    8  C7  UNL     1      89.145  98.577 -44.561  1.00  0.00    -0.048 C 
HETATM    9  C8  UNL     1      88.077  98.780 -44.043  1.00  0.00    -0.091 C 
BRANCH   9  10
HETATM   10  C9  UNL     1      86.750  99.019 -43.427  1.00  0.00     0.179 C 
HETATM   11 BR2  UNL     1      85.561  97.688 -44.167  1.00  0.00    -0.083 Br
ENDBRANCH   9  10
ENDBRANCH   6   8
BRANCH   6  12
HETATM   12  N1  UNL     1      91.517  98.912 -44.531  1.00  0.00    -0.331 N 
HETATM   13  C10 UNL     1      91.959  98.319 -43.339  1.00  0.00     0.086 C 
HETATM   14  C11 UNL     1      91.730  99.259 -42.176  1.00  0.00     0.172 C 
HETATM   15  N2  UNL     1      92.251 100.577 -42.420  1.00  0.00    -0.327 N 
HETATM   16  C12 UNL     1      92.306 101.535 -41.384  1.00  0.00     0.331 C 
HETATM   17  C13 UNL     1      92.711 100.887 -43.748  1.00  0.00     0.172 C 
HETATM   18  N3  UNL     1      92.809 102.840 -41.569  1.00  0.00    -0.040 NA
HETATM   19  O1  UNL     1      91.896 101.252 -40.219  1.00  0.00    -0.251 OA
HETATM   20  C14 UNL     1      91.820 100.264 -44.785  1.00  0.00     0.086 C 
ENDBRANCH   6  12
ENDBRANCH   5   6
ENDBRANCH   3   4
TORSDOF 5
ENDMDL
MODEL 4
REMARK VINA RESULT: -4.796228319      2.095      2.457
REMARK  5 active torsions:
REMARK  status: ('A' for Active; 'I' for Inactive)
REMARK    1  A    between atoms: C3_3  and  C4_4 
REMARK    2  A    between atoms: C5_5  and  C6_6 
REMARK    3  A    between atoms: C6_6  and  C7_8 
REMARK    4  A    between atoms: C6_6  and  N1_12 
REMARK    5  A    between atoms: C8_9  and  C9_10 
REMARK       I    between atoms: N2_15  and  C12_16 
ROOT
HETATM    1  C1  UNL     1      93.087 103.349 -38.557  1.00  0.00     0.113 C 
HETATM    2  C2  UNL     1      92.708 102.363 -39.582  1.00  0.00    -0.097 C 
HETATM    3  C3  UNL     1      92.415 101.541 -40.420  1.00  0.00    -0.015 C 
ENDROOT
BRANCH   3   4
HETATM    4  C4  UNL     1      92.076 100.551 -41.393  1.00  0.00    -0.011 C 
HETATM    5  C5  UNL     1      91.794  99.697 -42.202  1.00  0.00    -0.035 C 
BRANCH   5   6
HETATM    6  C6  UNL     1      91.454  98.646 -43.160  1.00  0.00     0.224 C 
HETATM    7 BR1  UNL     1      92.753  98.771 -44.608  1.00  0.00    -0.032 Br
BRANCH   6   8
HETATM    8  C7  UNL     1      91.594  97.300 -42.599  1.00  0.00    -0.048 C 
HETATM    9  C8  UNL     1      91.703  96.203 -42.118  1.00  0.00    -0.091 C 
BRANCH   9  10
HETATM   10  C9  UNL     1      91.815  94.854 -41.514  1.00  0.00     0.179 C 
HETATM   11 BR2  UNL     1      92.071  93.622 -42.980  1.00  0.00    -0.083 Br
ENDBRANCH   9  10
ENDBRANCH   6   8
BRANCH   6  12
HETATM   12  N1  UNL     1      90.181  98.901 -43.687  1.00  0.00    -0.331 N 
HETATM   13  C10 UNL     1      90.069  99.668 -44.857  1.00  0.00     0.086 C 
HETATM   14  C11 UNL     1      89.355 100.968 -44.557  1.00  0.00     0.172 C 
HETATM   15  N2  UNL     1      88.120 100.769 -43.849  1.00  0.00    -0.327 N 
HETATM   16  C12 UNL     1      87.221 101.840 -43.652  1.00  0.00     0.331 C 
HETATM   17  C13 UNL     1      87.830  99.452 -43.349  1.00  0.00     0.172 C 
HETATM   18  N3  UNL     1      85.995 101.700 -42.966  1.00  0.00    -0.040 NA
HETATM   19  O1  UNL     1      87.486 102.998 -44.094  1.00  0.00    -0.251 OA
HETATM   20  C14 UNL     1      89.073  98.791 -42.823  1.00  0.00     0.086 C 
ENDBRANCH   6  12
ENDBRANCH   5   6
ENDBRANCH   3   4
TORSDOF 5
ENDMDL
MODEL 5
REMARK VINA RESULT: -4.754114630      3.722      6.018
REMARK  5 active torsions:
REMARK  status: ('A' for Active; 'I' for Inactive)
REMARK    1  A    between atoms: C3_3  and  C4_4 
REMARK    2  A    between atoms: C5_5  and  C6_6 
REMARK    3  A    between atoms: C6_6  and  C7_8 
REMARK    4  A    between atoms: C6_6  and  N1_12 
REMARK    5  A    between atoms: C8_9  and  C9_10 
REMARK       I    between atoms: N2_15  and  C12_16 
ROOT
HETATM    1  C1  UNL     1      85.884  95.894 -48.005  1.00  0.00     0.113 C 
HETATM    2  C2  UNL     1      86.825  96.520 -47.062  1.00  0.00    -0.097 C 
HETATM    3  C3  UNL     1      87.610  97.015 -46.286  1.00  0.00    -0.015 C 
ENDROOT
BRANCH   3   4
HETATM    4  C4  UNL     1      88.556  97.588 -45.382  1.00  0.00    -0.011 C 
HETATM    5  C5  UNL     1      89.361  98.091 -44.631  1.00  0.00    -0.035 C 
BRANCH   5   6
HETATM    6  C6  UNL     1      90.332  98.721 -43.739  1.00  0.00     0.224 C 
HETATM    7 BR1  UNL     1      89.331  99.945 -42.600  1.00  0.00    -0.032 Br
BRANCH   6   8
HETATM    8  C7  UNL     1      90.982  97.765 -42.841  1.00  0.00    -0.048 C 
HETATM    9  C8  UNL     1      91.522  96.996 -42.089  1.00  0.00    -0.091 C 
BRANCH   9  10
HETATM   10  C9  UNL     1      92.174  96.059 -41.143  1.00  0.00     0.179 C 
HETATM   11 BR2  UNL     1      91.860  94.283 -41.835  1.00  0.00    -0.083 Br
ENDBRANCH   9  10
ENDBRANCH   6   8
BRANCH   6  12
HETATM   12  N1  UNL     1      91.237  99.472 -44.503  1.00  0.00    -0.331 N 
HETATM   13  C10 UNL     1      90.868 100.757 -44.928  1.00  0.00     0.086 C 
HETATM   14  C11 UNL     1      90.761 100.793 -46.437  1.00  0.00     0.172 C 
HETATM   15  N2  UNL     1      91.926 100.258 -47.087  1.00  0.00    -0.327 N 
HETATM   16  C12 UNL     1      92.096 100.382 -48.483  1.00  0.00     0.331 C 
HETATM   17  C13 UNL     1      92.909  99.593 -46.273  1.00  0.00     0.172 C 
HETATM   18  N3  UNL     1      93.220  99.878 -49.170  1.00  0.00    -0.040 NA
HETATM   19  O1  UNL     1      91.223 100.968 -49.191  1.00  0.00    -0.251 OA
HETATM   20  C14 UNL     1      92.253  98.780 -45.193  1.00  0.00     0.086 C 
ENDBRANCH   6  12
ENDBRANCH   5   6
ENDBRANCH   3   4
TORSDOF 5
ENDMDL
