MODEL 1
REMARK VINA RESULT: -5.923367014      0.000      0.000
REMARK  8 active torsions:
REMARK  status: ('A' for Active; 'I' for Inactive)
REMARK    1  A    between atoms: C2_2  and  C3_3 
REMARK    2  A    between atoms: C3_3  and  C4_4 
REMARK    3  A    between atoms: C4_4  and  C5_5 
REMARK    4  A    between atoms: C9_10  and  C10_12 
REMARK    5  A    between atoms: C10_12  and  N2_13 
REMARK    6  A    between atoms: C10_12  and  N6_24 
REMARK    7  A    between atoms: N2_13  and  C11_15 
REMARK    8  A    between atoms: N6_24  and  N7_25 
ROOT
HETATM    1  C10 UNL     1      90.255  99.091 -45.216  1.00  0.00     0.214 C 
ENDROOT
BRANCH   1   2
HETATM    2  C9  UNL     1      89.842  98.033 -44.292  1.00  0.00     0.194 A 
HETATM    3  C8  UNL     1      90.230  96.664 -44.610  1.00  0.00     0.053 A 
HETATM    4  N1  UNL     1      89.946  96.028 -45.755  1.00  0.00    -0.361 N 
HETATM    5  C13 UNL     1      90.920  95.929 -43.634  1.00  0.00     0.053 A 
HETATM    6  C6  UNL     1      90.304  94.760 -45.957  1.00  0.00     0.103 A 
HETATM    7  C7  UNL     1      89.172  96.691 -46.823  1.00  0.00     0.155 C 
HETATM    8  C5  UNL     1      90.997  93.982 -45.010  1.00  0.00    -0.005 A 
HETATM    9  C14 UNL     1      91.286  94.617 -43.849  1.00  0.00     0.041 A 
HETATM   10 BR3  UNL     1      92.216  93.626 -42.538  1.00  0.00    -0.049 Br
HETATM   11 BR2  UNL     1      91.382  96.716 -41.960  1.00  0.00    -0.052 Br
HETATM   12 BR1  UNL     1      90.517  98.519 -42.527  1.00  0.00    -0.071 Br
BRANCH   8  13
HETATM   13  C4  UNL     1      91.297  92.655 -45.390  1.00  0.00    -0.013 C 
BRANCH  13  14
HETATM   14  C3  UNL     1      90.895  91.979 -46.598  1.00  0.00     0.028 C 
BRANCH  14  15
HETATM   15  C2  UNL     1      92.080  91.039 -46.961  1.00  0.00    -0.001 C 
HETATM   16  C1  UNL     1      91.813  90.326 -48.244  1.00  0.00     0.005 C 
ENDBRANCH  14  15
ENDBRANCH  13  14
ENDBRANCH   8  13
ENDBRANCH   1   2
BRANCH   1  17
HETATM   17  N2  UNL     1      91.619  99.055 -45.655  1.00  0.00    -0.163 N 
ATOM     18  H2  UNL     1      92.189  98.250 -45.394  1.00  0.00     0.186 HD
BRANCH  17  19
HETATM   19  C11 UNL     1      92.164  99.984 -46.362  1.00  0.00     0.703 A 
HETATM   20  N3  UNL     1      92.829 101.016 -45.845  1.00  0.00    -0.128 N 
HETATM   21  N4  UNL     1      93.260 101.779 -46.814  1.00  0.00    -0.237 N 
ATOM     22  H3  UNL     1      92.977 101.184 -44.850  1.00  0.00     0.205 HD
HETATM   23  C12 UNL     1      92.863 101.223 -47.969  1.00  0.00     0.353 A 
ATOM     24  H4  UNL     1      93.799 102.639 -46.711  1.00  0.00     0.192 HD
HETATM   25  O1  UNL     1      93.123 101.722 -49.106  1.00  0.00    -0.245 OA
HETATM   26  N5  UNL     1      92.179 100.101 -47.690  1.00  0.00    -0.139 N 
ATOM     27  H5  UNL     1      91.754  99.464 -48.363  1.00  0.00     0.189 HD
ENDBRANCH  17  19
ENDBRANCH   1  17
BRANCH   1  28
HETATM   28  N6  UNL     1      89.532 100.001 -45.686  1.00  0.00    -0.317 NA
BRANCH  28  29
HETATM   29  N7  UNL     1      88.691 100.903 -45.743  1.00  0.00    -0.279 N 
ATOM     30  H72 UNL     1      88.149 100.613 -44.928  1.00  0.00     0.191 HD
ATOM     31  H71 UNL     1      88.195 101.733 -46.068  1.00  0.00     0.191 HD
ENDBRANCH  28  29
ENDBRANCH   1  28
TORSDOF 8
ENDMDL
MODEL 2
REMARK VINA RESULT: -5.831082943      3.322      3.953
REMARK  8 active torsions:
REMARK  status: ('A' for Active; 'I' for Inactive)
REMARK    1  A    between atoms: C2_2  and  C3_3 
REMARK    2  A    between atoms: C3_3  and  C4_4 
REMARK    3  A    between atoms: C4_4  and  C5_5 
REMARK    4  A    between atoms: C9_10  and  C10_12 
REMARK    5  A    between atoms: C10_12  and  N2_13 
REMARK    6  A    between atoms: C10_12  and  N6_24 
REMARK    7  A    between atoms: N2_13  and  C11_15 
REMARK    8  A    between atoms: N6_24  and  N7_25 
ROOT
HETATM    1  C10 UNL     1      91.233  99.005 -43.152  1.00  0.00     0.214 C 
ENDROOT
BRANCH   1   2
HETATM    2  C9  UNL     1      90.683  97.755 -42.625  1.00  0.00     0.194 A 
HETATM    3  C8  UNL     1      90.831  96.553 -43.436  1.00  0.00     0.053 A 
HETATM    4  N1  UNL     1      90.410  96.419 -44.701  1.00  0.00    -0.361 N 
HETATM    5  C13 UNL     1      91.421  95.426 -42.845  1.00  0.00     0.053 A 
HETATM    6  C6  UNL     1      90.548  95.272 -45.366  1.00  0.00     0.103 A 
HETATM    7  C7  UNL     1      89.720  97.524 -45.396  1.00  0.00     0.155 C 
HETATM    8  C5  UNL     1      91.135  94.115 -44.818  1.00  0.00    -0.005 A 
HETATM    9  C14 UNL     1      91.561  94.241 -43.538  1.00  0.00     0.041 A 
HETATM   10 BR3  UNL     1      92.357  92.724 -42.746  1.00  0.00    -0.049 Br
HETATM   11 BR2  UNL     1      92.061  95.483 -41.049  1.00  0.00    -0.052 Br
HETATM   12 BR1  UNL     1      91.484  97.471 -40.869  1.00  0.00    -0.071 Br
BRANCH   8  13
HETATM   13  C4  UNL     1      91.201  92.987 -45.664  1.00  0.00    -0.013 C 
BRANCH  13  14
HETATM   14  C3  UNL     1      90.451  92.755 -46.874  1.00  0.00     0.028 C 
BRANCH  14  15
HETATM   15  C2  UNL     1      90.750  91.280 -47.270  1.00  0.00    -0.001 C 
HETATM   16  C1  UNL     1      92.203  90.978 -47.122  1.00  0.00     0.005 C 
ENDBRANCH  14  15
ENDBRANCH  13  14
ENDBRANCH   8  13
ENDBRANCH   1   2
BRANCH   1  17
HETATM   17  N2  UNL     1      90.614 100.215 -42.695  1.00  0.00    -0.163 N 
ATOM     18  H2  UNL     1      89.843 100.599 -43.242  1.00  0.00     0.186 HD
BRANCH  17  19
HETATM   19  C11 UNL     1      90.979 100.844 -41.631  1.00  0.00     0.703 A 
HETATM   20  N3  UNL     1      90.127 101.364 -40.749  1.00  0.00    -0.128 N 
HETATM   21  N4  UNL     1      90.801 101.934 -39.785  1.00  0.00    -0.237 N 
ATOM     22  H3  UNL     1      89.110 101.326 -40.816  1.00  0.00     0.205 HD
HETATM   23  C12 UNL     1      92.105 101.772 -40.058  1.00  0.00     0.353 A 
ATOM     24  H4  UNL     1      90.408 102.412 -38.975  1.00  0.00     0.192 HD
HETATM   25  O1  UNL     1      93.031 102.213 -39.311  1.00  0.00    -0.245 OA
HETATM   26  N5  UNL     1      92.219 101.091 -41.210  1.00  0.00    -0.139 N 
ATOM     27  H5  UNL     1      93.086 100.817 -41.672  1.00  0.00     0.189 HD
ENDBRANCH  17  19
ENDBRANCH   1  17
BRANCH   1  28
HETATM   28  N6  UNL     1      92.208  99.126 -43.931  1.00  0.00    -0.317 NA
BRANCH  28  29
HETATM   29  N7  UNL     1      93.078  99.655 -44.629  1.00  0.00    -0.279 N 
ATOM     30  H72 UNL     1      93.848  99.534 -43.971  1.00  0.00     0.191 HD
ATOM     31  H71 UNL     1      93.520 100.125 -45.419  1.00  0.00     0.191 HD
ENDBRANCH  28  29
ENDBRANCH   1  28
TORSDOF 8
ENDMDL
MODEL 3
REMARK VINA RESULT: -5.735828386      4.975      6.800
REMARK  8 active torsions:
REMARK  status: ('A' for Active; 'I' for Inactive)
REMARK    1  A    between atoms: C2_2  and  C3_3 
REMARK    2  A    between atoms: C3_3  and  C4_4 
REMARK    3  A    between atoms: C4_4  and  C5_5 
REMARK    4  A    between atoms: C9_10  and  C10_12 
REMARK    5  A    between atoms: C10_12  and  N2_13 
REMARK    6  A    between atoms: C10_12  and  N6_24 
REMARK    7  A    between atoms: N2_13  and  C11_15 
REMARK    8  A    between atoms: N6_24  and  N7_25 
ROOT
HETATM    1  C10 UNL     1      85.752  99.311 -44.244  1.00  0.00     0.214 C 
ENDROOT
BRANCH   1   2
HETATM    2  C9  UNL     1      87.043  99.333 -44.933  1.00  0.00     0.194 A 
HETATM    3  C8  UNL     1      88.205  98.823 -44.215  1.00  0.00     0.053 A 
HETATM    4  N1  UNL     1      88.628  99.260 -43.022  1.00  0.00    -0.361 N 
HETATM    5  C13 UNL     1      88.975  97.824 -44.830  1.00  0.00     0.053 A 
HETATM    6  C6  UNL     1      89.724  98.768 -42.445  1.00  0.00     0.103 A 
HETATM    7  C7  UNL     1      87.925 100.351 -42.317  1.00  0.00     0.155 C 
HETATM    8  C5  UNL     1      90.528  97.765 -43.020  1.00  0.00    -0.005 A 
HETATM    9  C14 UNL     1      90.109  97.319 -44.228  1.00  0.00     0.041 A 
HETATM   10 BR3  UNL     1      91.145  95.973 -45.053  1.00  0.00    -0.049 Br
HETATM   11 BR2  UNL     1      88.484  97.117 -46.532  1.00  0.00    -0.052 Br
HETATM   12 BR1  UNL     1      86.817  98.356 -46.606  1.00  0.00    -0.071 Br
BRANCH   8  13
HETATM   13  C4  UNL     1      91.654  97.360 -42.271  1.00  0.00    -0.013 C 
BRANCH  13  14
HETATM   14  C3  UNL     1      91.661  96.684 -40.997  1.00  0.00     0.028 C 
BRANCH  14  15
HETATM   15  C2  UNL     1      91.273  95.210 -41.308  1.00  0.00    -0.001 C 
HETATM   16  C1  UNL     1      92.490  94.354 -41.405  1.00  0.00     0.005 C 
ENDBRANCH  14  15
ENDBRANCH  13  14
ENDBRANCH   8  13
ENDBRANCH   1   2
BRANCH   1  17
HETATM   17  N2  UNL     1      84.932 100.478 -44.391  1.00  0.00    -0.163 N 
ATOM     18  H2  UNL     1      84.522 100.667 -45.306  1.00  0.00     0.186 HD
BRANCH  17  19
HETATM   19  C11 UNL     1      84.685 101.300 -43.431  1.00  0.00     0.703 A 
HETATM   20  N3  UNL     1      85.063 102.578 -43.434  1.00  0.00    -0.128 N 
HETATM   21  N4  UNL     1      84.665 103.146 -42.326  1.00  0.00    -0.237 N 
ATOM     22  H3  UNL     1      85.581 103.039 -44.181  1.00  0.00     0.205 HD
HETATM   23  C12 UNL     1      84.022 102.214 -41.606  1.00  0.00     0.353 A 
ATOM     24  H4  UNL     1      84.816 104.119 -42.059  1.00  0.00     0.192 HD
HETATM   25  O1  UNL     1      83.509 102.445 -40.469  1.00  0.00    -0.245 OA
HETATM   26  N5  UNL     1      84.033 101.061 -42.294  1.00  0.00    -0.139 N 
ATOM     27  H5  UNL     1      83.621 100.174 -42.003  1.00  0.00     0.189 HD
ENDBRANCH  17  19
ENDBRANCH   1  17
BRANCH   1  28
HETATM   28  N6  UNL     1      85.278  98.366 -43.569  1.00  0.00    -0.317 NA
BRANCH  28  29
HETATM   29  N7  UNL     1      84.456  97.656 -42.984  1.00  0.00    -0.279 N 
ATOM     30  H72 UNL     1      83.711  97.740 -43.676  1.00  0.00     0.191 HD
ATOM     31  H71 UNL     1      84.044  97.051 -42.273  1.00  0.00     0.191 HD
ENDBRANCH  28  29
ENDBRANCH   1  28
TORSDOF 8
ENDMDL
MODEL 4
REMARK VINA RESULT: -5.699175495      4.437      6.168
REMARK  8 active torsions:
REMARK  status: ('A' for Active; 'I' for Inactive)
REMARK    1  A    between atoms: C2_2  and  C3_3 
REMARK    2  A    between atoms: C3_3  and  C4_4 
REMARK    3  A    between atoms: C4_4  and  C5_5 
REMARK    4  A    between atoms: C9_10  and  C10_12 
REMARK    5  A    between atoms: C10_12  and  N2_13 
REMARK    6  A    between atoms: C10_12  and  N6_24 
REMARK    7  A    between atoms: N2_13  and  C11_15 
REMARK    8  A    between atoms: N6_24  and  N7_25 
ROOT
HETATM    1  C10 UNL     1      90.756  99.220 -43.174  1.00  0.00     0.214 C 
ENDROOT
BRANCH   1   2
HETATM    2  C9  UNL     1      89.593  99.868 -43.785  1.00  0.00     0.194 A 
HETATM    3  C8  UNL     1      88.497  99.016 -44.229  1.00  0.00     0.053 A 
HETATM    4  N1  UNL     1      88.612  97.998 -45.092  1.00  0.00    -0.361 N 
HETATM    5  C13 UNL     1      87.207  99.300 -43.757  1.00  0.00     0.053 A 
HETATM    6  C6  UNL     1      87.552  97.287 -45.479  1.00  0.00     0.103 A 
HETATM    7  C7  UNL     1      89.915  97.654 -45.695  1.00  0.00     0.155 C 
HETATM    8  C5  UNL     1      86.240  97.532 -45.033  1.00  0.00    -0.005 A 
HETATM    9  C14 UNL     1      86.114  98.562 -44.162  1.00  0.00     0.041 A 
HETATM   10 BR3  UNL     1      84.377  98.941 -43.526  1.00  0.00    -0.049 Br
HETATM   11 BR2  UNL     1      86.906 100.726 -42.526  1.00  0.00    -0.052 Br
HETATM   12 BR1  UNL     1      88.933 101.184 -42.504  1.00  0.00    -0.071 Br
BRANCH   8  13
HETATM   13  C4  UNL     1      85.236  96.681 -45.546  1.00  0.00    -0.013 C 
BRANCH  13  14
HETATM   14  C3  UNL     1      84.521  96.822 -46.790  1.00  0.00     0.028 C 
BRANCH  14  15
HETATM   15  C2  UNL     1      84.760  95.491 -47.559  1.00  0.00    -0.001 C 
HETATM   16  C1  UNL     1      85.947  95.606 -48.455  1.00  0.00     0.005 C 
ENDBRANCH  14  15
ENDBRANCH  13  14
ENDBRANCH   8  13
ENDBRANCH   1   2
BRANCH   1  17
HETATM   17  N2  UNL     1      90.506  98.450 -41.991  1.00  0.00    -0.163 N 
ATOM     18  H2  UNL     1      89.903  98.851 -41.273  1.00  0.00     0.186 HD
BRANCH  17  19
HETATM   19  C11 UNL     1      91.001  97.278 -41.787  1.00  0.00     0.703 A 
HETATM   20  N3  UNL     1      91.571  96.903 -40.643  1.00  0.00    -0.128 N 
HETATM   21  N4  UNL     1      91.972  95.663 -40.748  1.00  0.00    -0.237 N 
ATOM     22  H3  UNL     1      91.678  97.490 -39.817  1.00  0.00     0.205 HD
HETATM   23  C12 UNL     1      91.650  95.242 -41.981  1.00  0.00     0.353 A 
ATOM     24  H4  UNL     1      92.441  95.118 -40.026  1.00  0.00     0.192 HD
HETATM   25  O1  UNL     1      91.904  94.073 -42.404  1.00  0.00    -0.245 OA
HETATM   26  N5  UNL     1      91.044  96.248 -42.632  1.00  0.00    -0.139 N 
ATOM     27  H5  UNL     1      90.685  96.227 -43.587  1.00  0.00     0.189 HD
ENDBRANCH  17  19
ENDBRANCH   1  17
BRANCH   1  28
HETATM   28  N6  UNL     1      91.936  99.243 -43.598  1.00  0.00    -0.317 NA
BRANCH  28  29
HETATM   29  N7  UNL     1      92.929  99.576 -44.251  1.00  0.00    -0.279 N 
ATOM     30  H72 UNL     1      92.676 100.558 -44.360  1.00  0.00     0.191 HD
ATOM     31  H71 UNL     1      93.820  99.510 -44.744  1.00  0.00     0.191 HD
ENDBRANCH  28  29
ENDBRANCH   1  28
TORSDOF 8
ENDMDL
MODEL 5
REMARK VINA RESULT: -5.694391614      2.267      3.098
REMARK  8 active torsions:
REMARK  status: ('A' for Active; 'I' for Inactive)
REMARK    1  A    between atoms: C2_2  and  C3_3 
REMARK    2  A    between atoms: C3_3  and  C4_4 
REMARK    3  A    between atoms: C4_4  and  C5_5 
REMARK    4  A    between atoms: C9_10  and  C10_12 
REMARK    5  A    between atoms: C10_12  and  N2_13 
REMARK    6  A    between atoms: C10_12  and  N6_24 
REMARK    7  A    between atoms: N2_13  and  C11_15 
REMARK    8  A    between atoms: N6_24  and  N7_25 
ROOT
HETATM    1  C10 UNL     1      91.136  99.302 -42.616  1.00  0.00     0.214 C 
ENDROOT
BRANCH   1   2
HETATM    2  C9  UNL     1      90.457  98.006 -42.577  1.00  0.00     0.194 A 
HETATM    3  C8  UNL     1      90.115  97.380 -43.848  1.00  0.00     0.053 A 
HETATM    4  N1  UNL     1      89.374  97.944 -44.811  1.00  0.00    -0.361 N 
HETATM    5  C13 UNL     1      90.554  96.067 -44.077  1.00  0.00     0.053 A 
HETATM    6  C6  UNL     1      89.072  97.291 -45.933  1.00  0.00     0.103 A 
HETATM    7  C7  UNL     1      88.812  99.299 -44.644  1.00  0.00     0.155 C 
HETATM    8  C5  UNL     1      89.489  95.975 -46.210  1.00  0.00    -0.005 A 
HETATM    9  C14 UNL     1      90.237  95.396 -45.240  1.00  0.00     0.041 A 
HETATM   10 BR3  UNL     1      90.828  93.630 -45.552  1.00  0.00    -0.049 Br
HETATM   11 BR2  UNL     1      91.613  95.148 -42.784  1.00  0.00    -0.052 Br
HETATM   12 BR1  UNL     1      91.580  96.803 -41.528  1.00  0.00    -0.071 Br
BRANCH   8  13
HETATM   13  C4  UNL     1      89.078  95.436 -47.449  1.00  0.00    -0.013 C 
BRANCH  13  14
HETATM   14  C3  UNL     1      88.341  96.104 -48.492  1.00  0.00     0.028 C 
BRANCH  14  15
HETATM   15  C2  UNL     1      87.496  94.993 -49.179  1.00  0.00    -0.001 C 
HETATM   16  C1  UNL     1      88.377  93.914 -49.712  1.00  0.00     0.005 C 
ENDBRANCH  14  15
ENDBRANCH  13  14
ENDBRANCH   8  13
ENDBRANCH   1   2
BRANCH   1  17
HETATM   17  N2  UNL     1      92.365  99.354 -43.353  1.00  0.00    -0.163 N 
ATOM     18  H2  UNL     1      93.201  98.956 -42.926  1.00  0.00     0.186 HD
BRANCH  17  19
HETATM   19  C11 UNL     1      92.469  99.876 -44.526  1.00  0.00     0.703 A 
HETATM   20  N3  UNL     1      92.701 101.170 -44.744  1.00  0.00    -0.128 N 
HETATM   21  N4  UNL     1      92.754 101.387 -46.032  1.00  0.00    -0.237 N 
ATOM     22  H3  UNL     1      92.819 101.879 -44.021  1.00  0.00     0.205 HD
HETATM   23  C12 UNL     1      92.551 100.210 -46.645  1.00  0.00     0.353 A 
ATOM     24  H4  UNL     1      92.918 102.285 -46.486  1.00  0.00     0.192 HD
HETATM   25  O1  UNL     1      92.541 100.076 -47.907  1.00  0.00    -0.245 OA
HETATM   26  N5  UNL     1      92.374  99.265 -45.707  1.00  0.00    -0.139 N 
ATOM     27  H5  UNL     1      92.200  98.273 -45.868  1.00  0.00     0.189 HD
ENDBRANCH  17  19
ENDBRANCH   1  17
BRANCH   1  28
HETATM   28  N6  UNL     1      90.737 100.374 -42.102  1.00  0.00    -0.317 NA
BRANCH  28  29
HETATM   29  N7  UNL     1      90.190 101.151 -41.313  1.00  0.00    -0.279 N 
ATOM     30  H72 UNL     1      90.448 100.655 -40.460  1.00  0.00     0.191 HD
ATOM     31  H71 UNL     1      89.659 101.949 -40.967  1.00  0.00     0.191 HD
ENDBRANCH  28  29
ENDBRANCH   1  28
TORSDOF 8
ENDMDL
