MODEL 1
REMARK VINA RESULT: -6.815344115      0.000      0.000
REMARK  7 active torsions:
REMARK  status: ('A' for Active; 'I' for Inactive)
REMARK       I    between atoms: N3_4  and  C2_6 
REMARK       I    between atoms: C2_6  and  N4_8 
REMARK    1  A    between atoms: N4_8  and  C3_10 
REMARK    2  A    between atoms: C3_10  and  C4_11 
REMARK    3  A    between atoms: C3_10  and  C11_19 
REMARK    4  A    between atoms: C4_11  and  C5_12 
REMARK       I    between atoms: C11_19  and  N5_21 
REMARK    5  A    between atoms: C12_23  and  C13_24 
REMARK    6  A    between atoms: C13_24  and  C14_25 
REMARK    7  A    between atoms: N6_30  and  O3_31 
ROOT
HETATM    1  C3  UNL     1      90.854  98.233 -43.167  1.00  0.00     0.182 C 
ENDROOT
BRANCH   1   2
HETATM    2  N4  UNL     1      89.420  98.453 -43.186  1.00  0.00    -0.329 N 
HETATM    3  C2  UNL     1      88.729  98.799 -44.364  1.00  0.00     0.323 C 
HETATM    4  N3  UNL     1      87.332  98.995 -44.310  1.00  0.00    -0.285 N 
HETATM    5  O1  UNL     1      89.291  98.944 -45.481  1.00  0.00    -0.247 OA
HETATM    6  C1  UNL     1      86.728  99.766 -43.500  1.00  0.00     0.204 C 
ATOM      7  H3  UNL     1      86.760  98.476 -44.977  1.00  0.00     0.172 HD
HETATM    8  N1  UNL     1      87.477 100.510 -42.556  1.00  0.00    -0.066 NA
HETATM    9  N2  UNL     1      85.306  99.884 -43.539  1.00  0.00    -0.066 NA
ATOM     10  H4  UNL     1      88.895  98.355 -42.316  1.00  0.00     0.165 HD
ENDBRANCH   1   2
BRANCH   1  11
HETATM   11  C4  UNL     1      91.189  96.903 -42.540  1.00  0.00     0.073 C 
BRANCH  11  12
HETATM   12  C5  UNL     1      91.262  95.787 -43.475  1.00  0.00    -0.056 A 
HETATM   13  C6  UNL     1      91.553  94.517 -43.042  1.00  0.00     0.008 A 
HETATM   14  C7  UNL     1      91.626  93.432 -43.910  1.00  0.00     0.019 A 
HETATM   15  C8  UNL     1      91.405  93.604 -45.258  1.00  0.00     0.011 A 
HETATM   16 BR1  UNL     1      91.502  92.122 -46.459  1.00  0.00    -0.051 Br
HETATM   17  C9  UNL     1      91.113  94.873 -45.710  1.00  0.00     0.019 A 
HETATM   18  C10 UNL     1      91.045  95.935 -44.837  1.00  0.00     0.008 A 
ENDBRANCH  11  12
ENDBRANCH   1  11
BRANCH   1  19
HETATM   19  C11 UNL     1      91.598  99.374 -42.636  1.00  0.00     0.244 C 
HETATM   20  O2  UNL     1      91.887 100.324 -43.405  1.00  0.00    -0.271 OA
HETATM   21  N5  UNL     1      92.008  99.454 -41.288  1.00  0.00    -0.339 N 
HETATM   22  C12 UNL     1      92.163 100.498 -40.586  1.00  0.00     0.070 C 
ATOM     23  H5  UNL     1      92.202  98.567 -40.824  1.00  0.00     0.167 HD
BRANCH  22  24
HETATM   24  C13 UNL     1      91.907 101.843 -41.173  1.00  0.00     0.104 C 
BRANCH  24  25
HETATM   25  C14 UNL     1      93.111 102.733 -40.988  1.00  0.00     0.044 A 
HETATM   26  C15 UNL     1      93.311 103.416 -39.810  1.00  0.00     0.028 A 
HETATM   27  C16 UNL     1      94.420 104.218 -39.688  1.00  0.00     0.003 A 
HETATM   28  C17 UNL     1      95.331 104.350 -40.714  1.00  0.00     0.020 A 
HETATM   29  C18 UNL     1      95.109 103.658 -41.878  1.00  0.00     0.123 A 
HETATM   30  N6  UNL     1      94.018 102.877 -41.980  1.00  0.00    -0.240 N 
BRANCH  30  31
HETATM   31  O3  UNL     1      93.846 102.204 -43.172  1.00  0.00    -0.283 OA
ATOM     32  H3  UNL     1      94.376 102.433 -43.926  1.00  0.00     0.245 HD
ENDBRANCH  30  31
ENDBRANCH  24  25
ENDBRANCH  22  24
ENDBRANCH   1  19
TORSDOF 7
ENDMDL
MODEL 2
REMARK VINA RESULT: -6.663460137      1.576      2.077
REMARK  7 active torsions:
REMARK  status: ('A' for Active; 'I' for Inactive)
REMARK       I    between atoms: N3_4  and  C2_6 
REMARK       I    between atoms: C2_6  and  N4_8 
REMARK    1  A    between atoms: N4_8  and  C3_10 
REMARK    2  A    between atoms: C3_10  and  C4_11 
REMARK    3  A    between atoms: C3_10  and  C11_19 
REMARK    4  A    between atoms: C4_11  and  C5_12 
REMARK       I    between atoms: C11_19  and  N5_21 
REMARK    5  A    between atoms: C12_23  and  C13_24 
REMARK    6  A    between atoms: C13_24  and  C14_25 
REMARK    7  A    between atoms: N6_30  and  O3_31 
ROOT
HETATM    1  C3  UNL     1      90.882  98.254 -43.080  1.00  0.00     0.182 C 
ENDROOT
BRANCH   1   2
HETATM    2  N4  UNL     1      89.460  98.542 -43.093  1.00  0.00    -0.329 N 
HETATM    3  C2  UNL     1      88.795  98.993 -44.252  1.00  0.00     0.323 C 
HETATM    4  N3  UNL     1      87.409  99.250 -44.193  1.00  0.00    -0.285 N 
HETATM    5  O1  UNL     1      89.373  99.183 -45.353  1.00  0.00    -0.247 OA
HETATM    6  C1  UNL     1      86.835  99.995 -43.339  1.00  0.00     0.204 C 
ATOM      7  H3  UNL     1      86.819  98.801 -44.895  1.00  0.00     0.172 HD
HETATM    8  N1  UNL     1      87.609 100.643 -42.345  1.00  0.00    -0.066 NA
HETATM    9  N2  UNL     1      85.420 100.182 -43.378  1.00  0.00    -0.066 NA
ATOM     10  H4  UNL     1      88.924  98.414 -42.235  1.00  0.00     0.165 HD
ENDBRANCH   1   2
BRANCH   1  11
HETATM   11  C4  UNL     1      91.154  96.895 -42.486  1.00  0.00     0.073 C 
BRANCH  11  12
HETATM   12  C5  UNL     1      91.229  95.809 -43.455  1.00  0.00    -0.056 A 
HETATM   13  C6  UNL     1      91.547  94.531 -43.064  1.00  0.00     0.008 A 
HETATM   14  C7  UNL     1      91.622  93.474 -43.965  1.00  0.00     0.019 A 
HETATM   15  C8  UNL     1      91.375  93.680 -45.303  1.00  0.00     0.011 A 
HETATM   16 BR1  UNL     1      91.473  92.236 -46.548  1.00  0.00    -0.051 Br
HETATM   17  C9  UNL     1      91.055  94.956 -45.713  1.00  0.00     0.019 A 
HETATM   18  C10 UNL     1      90.984  95.992 -44.808  1.00  0.00     0.008 A 
ENDBRANCH  11  12
ENDBRANCH   1  11
BRANCH   1  19
HETATM   19  C11 UNL     1      91.679  99.347 -42.523  1.00  0.00     0.244 C 
HETATM   20  O2  UNL     1      91.982 100.317 -43.259  1.00  0.00    -0.271 OA
HETATM   21  N5  UNL     1      92.122  99.357 -41.183  1.00  0.00    -0.339 N 
HETATM   22  C12 UNL     1      92.331 100.365 -40.443  1.00  0.00     0.070 C 
ATOM     23  H5  UNL     1      92.296  98.444 -40.761  1.00  0.00     0.167 HD
BRANCH  22  24
HETATM   24  C13 UNL     1      92.109 101.741 -40.968  1.00  0.00     0.104 C 
BRANCH  24  25
HETATM   25  C14 UNL     1      91.701 102.668 -39.850  1.00  0.00     0.044 A 
HETATM   26  C15 UNL     1      92.611 103.070 -38.899  1.00  0.00     0.028 A 
HETATM   27  C16 UNL     1      92.193 103.913 -37.896  1.00  0.00     0.003 A 
HETATM   28  C17 UNL     1      90.891 104.361 -37.826  1.00  0.00     0.020 A 
HETATM   29  C18 UNL     1      90.004 103.945 -38.787  1.00  0.00     0.123 A 
HETATM   30  N6  UNL     1      90.430 103.120 -39.762  1.00  0.00    -0.240 N 
BRANCH  30  31
HETATM   31  O3  UNL     1      89.496 102.736 -40.701  1.00  0.00    -0.283 OA
ATOM     32  H3  UNL     1      88.779 102.166 -40.451  1.00  0.00     0.245 HD
ENDBRANCH  30  31
ENDBRANCH  24  25
ENDBRANCH  22  24
ENDBRANCH   1  19
TORSDOF 7
ENDMDL
MODEL 3
REMARK VINA RESULT: -6.607550549      0.930      1.130
REMARK  7 active torsions:
REMARK  status: ('A' for Active; 'I' for Inactive)
REMARK       I    between atoms: N3_4  and  C2_6 
REMARK       I    between atoms: C2_6  and  N4_8 
REMARK    1  A    between atoms: N4_8  and  C3_10 
REMARK    2  A    between atoms: C3_10  and  C4_11 
REMARK    3  A    between atoms: C3_10  and  C11_19 
REMARK    4  A    between atoms: C4_11  and  C5_12 
REMARK       I    between atoms: C11_19  and  N5_21 
REMARK    5  A    between atoms: C12_23  and  C13_24 
REMARK    6  A    between atoms: C13_24  and  C14_25 
REMARK    7  A    between atoms: N6_30  and  O3_31 
ROOT
HETATM    1  C3  UNL     1      90.902  98.161 -43.095  1.00  0.00     0.182 C 
ENDROOT
BRANCH   1   2
HETATM    2  N4  UNL     1      89.488  98.486 -43.114  1.00  0.00    -0.329 N 
HETATM    3  C2  UNL     1      88.845  98.974 -44.269  1.00  0.00     0.323 C 
HETATM    4  N3  UNL     1      87.465  99.267 -44.216  1.00  0.00    -0.285 N 
HETATM    5  O1  UNL     1      89.436  99.168 -45.362  1.00  0.00    -0.247 OA
HETATM    6  C1  UNL     1      86.903 100.011 -43.353  1.00  0.00     0.204 C 
ATOM      7  H3  UNL     1      86.870  98.845 -44.930  1.00  0.00     0.172 HD
HETATM    8  N1  UNL     1      87.686 100.621 -42.342  1.00  0.00    -0.066 NA
HETATM    9  N2  UNL     1      85.494 100.235 -43.400  1.00  0.00    -0.066 NA
ATOM     10  H4  UNL     1      88.942  98.356 -42.262  1.00  0.00     0.165 HD
ENDBRANCH   1   2
BRANCH   1  11
HETATM   11  C4  UNL     1      91.135  96.786 -42.522  1.00  0.00     0.073 C 
BRANCH  11  12
HETATM   12  C5  UNL     1      91.214  95.717 -43.511  1.00  0.00    -0.056 A 
HETATM   13  C6  UNL     1      91.573  94.442 -43.148  1.00  0.00     0.008 A 
HETATM   14  C7  UNL     1      91.654  93.401 -44.068  1.00  0.00     0.019 A 
HETATM   15  C8  UNL     1      91.371  93.624 -45.396  1.00  0.00     0.011 A 
HETATM   16 BR1  UNL     1      91.478  92.202 -46.668  1.00  0.00    -0.051 Br
HETATM   17  C9  UNL     1      91.010  94.898 -45.778  1.00  0.00     0.019 A 
HETATM   18  C10 UNL     1      90.935  95.916 -44.854  1.00  0.00     0.008 A 
ENDBRANCH  11  12
ENDBRANCH   1  11
BRANCH   1  19
HETATM   19  C11 UNL     1      91.722  99.223 -42.513  1.00  0.00     0.244 C 
HETATM   20  O2  UNL     1      92.065 100.192 -43.234  1.00  0.00    -0.271 OA
HETATM   21  N5  UNL     1      92.147  99.204 -41.168  1.00  0.00    -0.339 N 
HETATM   22  C12 UNL     1      92.375 100.196 -40.413  1.00  0.00     0.070 C 
ATOM     23  H5  UNL     1      92.288  98.282 -40.754  1.00  0.00     0.167 HD
BRANCH  22  24
HETATM   24  C13 UNL     1      92.201 101.584 -40.924  1.00  0.00     0.104 C 
BRANCH  24  25
HETATM   25  C14 UNL     1      92.802 102.577 -39.960  1.00  0.00     0.044 A 
HETATM   26  C15 UNL     1      92.030 103.180 -38.994  1.00  0.00     0.028 A 
HETATM   27  C16 UNL     1      92.621 104.081 -38.139  1.00  0.00     0.003 A 
HETATM   28  C17 UNL     1      93.962 104.388 -38.230  1.00  0.00     0.020 A 
HETATM   29  C18 UNL     1      94.709 103.772 -39.202  1.00  0.00     0.123 A 
HETATM   30  N6  UNL     1      94.115 102.893 -40.029  1.00  0.00    -0.240 N 
BRANCH  30  31
HETATM   31  O3  UNL     1      94.915 102.303 -40.986  1.00  0.00    -0.283 OA
ATOM     32  H3  UNL     1      95.742 101.910 -40.735  1.00  0.00     0.245 HD
ENDBRANCH  30  31
ENDBRANCH  24  25
ENDBRANCH  22  24
ENDBRANCH   1  19
TORSDOF 7
ENDMDL
MODEL 4
REMARK VINA RESULT: -6.551671463      1.629      2.294
REMARK  7 active torsions:
REMARK  status: ('A' for Active; 'I' for Inactive)
REMARK       I    between atoms: N3_4  and  C2_6 
REMARK       I    between atoms: C2_6  and  N4_8 
REMARK    1  A    between atoms: N4_8  and  C3_10 
REMARK    2  A    between atoms: C3_10  and  C4_11 
REMARK    3  A    between atoms: C3_10  and  C11_19 
REMARK    4  A    between atoms: C4_11  and  C5_12 
REMARK       I    between atoms: C11_19  and  N5_21 
REMARK    5  A    between atoms: C12_23  and  C13_24 
REMARK    6  A    between atoms: C13_24  and  C14_25 
REMARK    7  A    between atoms: N6_30  and  O3_31 
ROOT
HETATM    1  C3  UNL     1      90.879  98.277 -43.187  1.00  0.00     0.182 C 
ENDROOT
BRANCH   1   2
HETATM    2  N4  UNL     1      89.457  98.561 -43.183  1.00  0.00    -0.329 N 
HETATM    3  C2  UNL     1      88.787  99.060 -44.318  1.00  0.00     0.323 C 
HETATM    4  N3  UNL     1      87.400  99.311 -44.245  1.00  0.00    -0.285 N 
HETATM    5  O1  UNL     1      89.361  99.300 -45.412  1.00  0.00    -0.247 OA
HETATM    6  C1  UNL     1      86.826 100.016 -43.357  1.00  0.00     0.204 C 
ATOM      7  H3  UNL     1      86.810  98.891 -44.963  1.00  0.00     0.172 HD
HETATM    8  N1  UNL     1      87.601 100.621 -42.337  1.00  0.00    -0.066 NA
HETATM    9  N2  UNL     1      85.411 100.200 -43.384  1.00  0.00    -0.066 NA
ATOM     10  H4  UNL     1      88.923  98.393 -42.330  1.00  0.00     0.165 HD
ENDBRANCH   1   2
BRANCH   1  11
HETATM   11  C4  UNL     1      91.169  96.949 -42.534  1.00  0.00     0.073 C 
BRANCH  11  12
HETATM   12  C5  UNL     1      91.251  95.821 -43.453  1.00  0.00    -0.056 A 
HETATM   13  C6  UNL     1      91.579  94.564 -43.006  1.00  0.00     0.008 A 
HETATM   14  C7  UNL     1      91.661  93.469 -43.859  1.00  0.00     0.019 A 
HETATM   15  C8  UNL     1      91.412  93.614 -45.204  1.00  0.00     0.011 A 
HETATM   16 BR1  UNL     1      91.521  92.116 -46.384  1.00  0.00    -0.051 Br
HETATM   17  C9  UNL     1      91.082  94.868 -45.671  1.00  0.00     0.019 A 
HETATM   18  C10 UNL     1      91.005  95.942 -44.813  1.00  0.00     0.008 A 
ENDBRANCH  11  12
ENDBRANCH   1  11
BRANCH   1  19
HETATM   19  C11 UNL     1      91.684  99.397 -42.700  1.00  0.00     0.244 C 
HETATM   20  O2  UNL     1      92.249 100.148 -43.532  1.00  0.00    -0.271 OA
HETATM   21  N5  UNL     1      91.853  99.670 -41.326  1.00  0.00    -0.339 N 
HETATM   22  C12 UNL     1      92.040 100.798 -40.777  1.00  0.00     0.070 C 
ATOM     23  H5  UNL     1      91.821  98.865 -40.700  1.00  0.00     0.167 HD
BRANCH  22  24
HETATM   24  C13 UNL     1      92.105 102.034 -41.605  1.00  0.00     0.104 C 
BRANCH  24  25
HETATM   25  C14 UNL     1      90.942 102.941 -41.283  1.00  0.00     0.044 A 
HETATM   26  C15 UNL     1      90.882 103.613 -40.084  1.00  0.00     0.028 A 
HETATM   27  C16 UNL     1      89.802 104.426 -39.833  1.00  0.00     0.003 A 
HETATM   28  C17 UNL     1      88.786 104.579 -40.752  1.00  0.00     0.020 A 
HETATM   29  C18 UNL     1      88.870 103.898 -41.939  1.00  0.00     0.123 A 
HETATM   30  N6  UNL     1      89.935 103.107 -42.169  1.00  0.00    -0.240 N 
BRANCH  30  31
HETATM   31  O3  UNL     1      89.967 102.447 -43.380  1.00  0.00    -0.283 OA
ATOM     32  H3  UNL     1      89.193 102.425 -43.929  1.00  0.00     0.245 HD
ENDBRANCH  30  31
ENDBRANCH  24  25
ENDBRANCH  22  24
ENDBRANCH   1  19
TORSDOF 7
ENDMDL
MODEL 5
REMARK VINA RESULT: -6.478403455      1.603      2.346
REMARK  7 active torsions:
REMARK  status: ('A' for Active; 'I' for Inactive)
REMARK       I    between atoms: N3_4  and  C2_6 
REMARK       I    between atoms: C2_6  and  N4_8 
REMARK    1  A    between atoms: N4_8  and  C3_10 
REMARK    2  A    between atoms: C3_10  and  C4_11 
REMARK    3  A    between atoms: C3_10  and  C11_19 
REMARK    4  A    between atoms: C4_11  and  C5_12 
REMARK       I    between atoms: C11_19  and  N5_21 
REMARK    5  A    between atoms: C12_23  and  C13_24 
REMARK    6  A    between atoms: C13_24  and  C14_25 
REMARK    7  A    between atoms: N6_30  and  O3_31 
ROOT
HETATM    1  C3  UNL     1      90.010  98.207 -44.601  1.00  0.00     0.182 C 
ENDROOT
BRANCH   1   2
HETATM    2  N4  UNL     1      88.627  98.253 -44.165  1.00  0.00    -0.329 N 
HETATM    3  C2  UNL     1      87.556  97.949 -45.030  1.00  0.00     0.323 C 
HETATM    4  N3  UNL     1      86.235  98.011 -44.537  1.00  0.00    -0.285 N 
HETATM    5  O1  UNL     1      87.710  97.621 -46.234  1.00  0.00    -0.247 OA
HETATM    6  C1  UNL     1      85.721  99.004 -43.934  1.00  0.00     0.204 C 
ATOM      7  H3  UNL     1      85.645  97.191 -44.676  1.00  0.00     0.172 HD
HETATM    8  N1  UNL     1      86.498 100.168 -43.716  1.00  0.00    -0.066 NA
HETATM    9  N2  UNL     1      84.369  98.952 -43.479  1.00  0.00    -0.066 NA
ATOM     10  H4  UNL     1      88.423  98.513 -43.200  1.00  0.00     0.165 HD
ENDBRANCH   1   2
BRANCH   1  11
HETATM   11  C4  UNL     1      90.803  97.216 -43.785  1.00  0.00     0.073 C 
BRANCH  11  12
HETATM   12  C5  UNL     1      90.979  95.912 -44.411  1.00  0.00    -0.056 A 
HETATM   13  C6  UNL     1      90.640  95.705 -45.727  1.00  0.00     0.008 A 
HETATM   14  C7  UNL     1      90.801  94.473 -46.352  1.00  0.00     0.019 A 
HETATM   15  C8  UNL     1      91.314  93.402 -45.657  1.00  0.00     0.011 A 
HETATM   16 BR1  UNL     1      91.540  91.706 -46.506  1.00  0.00    -0.051 Br
HETATM   17  C9  UNL     1      91.659  93.591 -44.336  1.00  0.00     0.019 A 
HETATM   18  C10 UNL     1      91.494  94.817 -43.733  1.00  0.00     0.008 A 
ENDBRANCH  11  12
ENDBRANCH   1  11
BRANCH   1  19
HETATM   19  C11 UNL     1      90.613  99.534 -44.722  1.00  0.00     0.244 C 
HETATM   20  O2  UNL     1      89.870 100.546 -44.686  1.00  0.00    -0.271 OA
HETATM   21  N5  UNL     1      92.002  99.726 -44.879  1.00  0.00    -0.339 N 
HETATM   22  C12 UNL     1      92.696 100.713 -44.490  1.00  0.00     0.070 C 
ATOM     23  H5  UNL     1      92.506  98.983 -45.363  1.00  0.00     0.167 HD
BRANCH  22  24
HETATM   24  C13 UNL     1      92.052 101.850 -43.775  1.00  0.00     0.104 C 
BRANCH  24  25
HETATM   25  C14 UNL     1      92.542 101.917 -42.350  1.00  0.00     0.044 A 
HETATM   26  C15 UNL     1      93.624 102.696 -42.011  1.00  0.00     0.028 A 
HETATM   27  C16 UNL     1      94.037 102.724 -40.700  1.00  0.00     0.003 A 
HETATM   28  C17 UNL     1      93.393 101.992 -39.726  1.00  0.00     0.020 A 
HETATM   29  C18 UNL     1      92.317 101.223 -40.090  1.00  0.00     0.123 A 
HETATM   30  N6  UNL     1      91.926 101.208 -41.377  1.00  0.00    -0.240 N 
BRANCH  30  31
HETATM   31  O3  UNL     1      90.837 100.419 -41.686  1.00  0.00    -0.283 OA
ATOM     32  H3  UNL     1      90.749  99.559 -41.292  1.00  0.00     0.245 HD
ENDBRANCH  30  31
ENDBRANCH  24  25
ENDBRANCH  22  24
ENDBRANCH   1  19
TORSDOF 7
ENDMDL
