MODEL 1
REMARK VINA RESULT: -6.984565993      0.000      0.000
REMARK  6 active torsions:
REMARK  status: ('A' for Active; 'I' for Inactive)
REMARK    1  A    between atoms: C2_2  and  C3_3 
REMARK    2  A    between atoms: C3_3  and  C4_4 
REMARK    3  A    between atoms: C8_10  and  C9_11 
REMARK    4  A    between atoms: C9_11  and  C10_12 
REMARK    5  A    between atoms: C13_17  and  C14_18 
REMARK    6  A    between atoms: C14_18  and  C15_19 
ROOT
HETATM    1  C10 UNL     1      91.470  93.534 -45.952  1.00  0.00     0.020 A 
HETATM    2  N2  UNL     1      92.115  92.963 -44.929  1.00  0.00    -0.359 N 
ATOM      3  H2  UNL     1      92.654  92.100 -45.000  1.00  0.00     0.166 HD
HETATM    4  C11 UNL     1      91.961  93.676 -43.782  1.00  0.00     0.033 A 
HETATM    5  C12 UNL     1      92.484  93.346 -42.620  1.00  0.00     0.044 C 
HETATM    6  C13 UNL     1      91.159  94.788 -44.092  1.00  0.00    -0.000 A 
HETATM    7  C19 UNL     1      90.875  94.673 -45.427  1.00  0.00    -0.027 A 
HETATM    8  C20 UNL     1      90.060  95.613 -46.223  1.00  0.00     0.051 C 
ENDROOT
BRANCH   1   9
HETATM    9  C9  UNL     1      91.407  93.020 -47.375  1.00  0.00     0.087 C 
BRANCH   9  10
HETATM   10  C8  UNL     1      91.220  91.575 -47.409  1.00  0.00     0.010 C 
HETATM   11  C7  UNL     1      90.627  90.830 -48.288  1.00  0.00     0.039 A 
HETATM   12  N1  UNL     1      90.532  89.468 -48.182  1.00  0.00    -0.359 N 
HETATM   13  C21 UNL     1      89.989  91.153 -49.474  1.00  0.00    -0.011 A 
HETATM   14  C5  UNL     1      89.879  88.963 -49.231  1.00  0.00     0.013 A 
ATOM     15  H1  UNL     1      90.907  88.917 -47.410  1.00  0.00     0.166 HD
HETATM   16  C4  UNL     1      89.519  89.983 -50.072  1.00  0.00    -0.021 A 
HETATM   17  C6  UNL     1      89.583  87.515 -49.467  1.00  0.00     0.068 C 
HETATM   18  C22 UNL     1      89.801  92.325 -50.004  1.00  0.00     0.026 C 
BRANCH  16  19
HETATM   19  C3  UNL     1      88.770  89.842 -51.373  1.00  0.00     0.067 C 
BRANCH  19  20
HETATM   20  C2  UNL     1      87.332  89.565 -51.137  1.00  0.00    -0.032 C 
HETATM   21  C1  UNL     1      86.605  90.478 -50.512  1.00  0.00     0.007 C 
ENDBRANCH  19  20
ENDBRANCH  16  19
ENDBRANCH   9  10
ENDBRANCH   1   9
BRANCH   6  22
HETATM   22  C14 UNL     1      90.833  95.669 -43.178  1.00  0.00     0.046 C 
BRANCH  22  23
HETATM   23  C15 UNL     1      91.118  97.089 -43.172  1.00  0.00     0.070 A 
HETATM   24  N3  UNL     1      90.935  97.896 -44.228  1.00  0.00    -0.316 N 
HETATM   25  C16 UNL     1      91.236  99.223 -44.174  1.00  0.00     0.314 A 
ATOM     26  H3  UNL     1      90.561  97.506 -45.093  1.00  0.00     0.169 HD
HETATM   27  O1  UNL     1      91.037  99.928 -45.213  1.00  0.00    -0.262 OA
HETATM   28  C17 UNL     1      91.740  99.760 -43.016  1.00  0.00     0.314 A 
HETATM   29  O2  UNL     1      92.028 100.992 -42.942  1.00  0.00    -0.262 OA
HETATM   30  N4  UNL     1      91.938  98.973 -41.928  1.00  0.00    -0.311 N 
HETATM   31  C18 UNL     1      91.625  97.650 -42.019  1.00  0.00     0.109 A 
ATOM     32  H4  UNL     1      92.311  99.363 -41.062  1.00  0.00     0.170 HD
HETATM   33 BR1  UNL     1      91.890  96.511 -40.518  1.00  0.00    -0.029 Br
ENDBRANCH  22  23
ENDBRANCH   6  22
TORSDOF 6
ENDMDL
MODEL 2
REMARK VINA RESULT: -6.887519379      5.086     10.435
REMARK  6 active torsions:
REMARK  status: ('A' for Active; 'I' for Inactive)
REMARK    1  A    between atoms: C2_2  and  C3_3 
REMARK    2  A    between atoms: C3_3  and  C4_4 
REMARK    3  A    between atoms: C8_10  and  C9_11 
REMARK    4  A    between atoms: C9_11  and  C10_12 
REMARK    5  A    between atoms: C13_17  and  C14_18 
REMARK    6  A    between atoms: C14_18  and  C15_19 
ROOT
HETATM    1  C10 UNL     1      90.455  99.982 -45.235  1.00  0.00     0.020 A 
HETATM    2  N2  UNL     1      89.213  99.493 -45.313  1.00  0.00    -0.359 N 
ATOM      3  H2  UNL     1      88.372 100.067 -45.359  1.00  0.00     0.166 HD
HETATM    4  C11 UNL     1      89.213  98.133 -45.324  1.00  0.00     0.033 A 
HETATM    5  C12 UNL     1      88.133  97.386 -45.392  1.00  0.00     0.044 C 
HETATM    6  C13 UNL     1      90.555  97.720 -45.247  1.00  0.00    -0.000 A 
HETATM    7  C19 UNL     1      91.291  98.875 -45.195  1.00  0.00    -0.027 A 
HETATM    8  C20 UNL     1      92.763  98.960 -45.112  1.00  0.00     0.051 C 
ENDROOT
BRANCH   1   9
HETATM    9  C9  UNL     1      90.844 101.446 -45.189  1.00  0.00     0.087 C 
BRANCH   9  10
HETATM   10  C8  UNL     1      91.987 101.664 -44.313  1.00  0.00     0.010 C 
HETATM   11  C7  UNL     1      92.037 101.833 -43.030  1.00  0.00     0.039 A 
HETATM   12  N1  UNL     1      93.202 102.027 -42.338  1.00  0.00    -0.359 N 
HETATM   13  C21 UNL     1      91.034 101.857 -42.075  1.00  0.00    -0.011 A 
HETATM   14  C5  UNL     1      92.955 102.162 -41.034  1.00  0.00     0.013 A 
ATOM     15  H1  UNL     1      94.130 102.062 -42.760  1.00  0.00     0.166 HD
HETATM   16  C4  UNL     1      91.604 102.062 -40.818  1.00  0.00    -0.021 A 
HETATM   17  C6  UNL     1      93.976 102.386 -39.963  1.00  0.00     0.068 C 
HETATM   18  C22 UNL     1      89.750 101.734 -42.241  1.00  0.00     0.026 C 
BRANCH  16  19
HETATM   19  C3  UNL     1      90.906 102.154 -39.485  1.00  0.00     0.067 C 
BRANCH  19  20
HETATM   20  C2  UNL     1      90.626 103.565 -39.124  1.00  0.00    -0.032 C 
HETATM   21  C1  UNL     1      90.473 103.874 -37.846  1.00  0.00     0.007 C 
ENDBRANCH  19  20
ENDBRANCH  16  19
ENDBRANCH   9  10
ENDBRANCH   1   9
BRANCH   6  22
HETATM   22  C14 UNL     1      90.877  96.450 -45.237  1.00  0.00     0.046 C 
BRANCH  22  23
HETATM   23  C15 UNL     1      91.143  95.610 -44.088  1.00  0.00     0.070 A 
HETATM   24  N3  UNL     1      91.249  96.068 -42.831  1.00  0.00    -0.316 N 
HETATM   25  C16 UNL     1      91.519  95.236 -41.787  1.00  0.00     0.314 A 
ATOM     26  H3  UNL     1      91.125  97.065 -42.653  1.00  0.00     0.169 HD
HETATM   27  O1  UNL     1      91.606  95.741 -40.623  1.00  0.00    -0.262 OA
HETATM   28  C17 UNL     1      91.689  93.894 -42.013  1.00  0.00     0.314 A 
HETATM   29  O2  UNL     1      91.941  93.100 -41.057  1.00  0.00    -0.262 OA
HETATM   30  N4  UNL     1      91.588  93.395 -43.272  1.00  0.00    -0.311 N 
HETATM   31  C18 UNL     1      91.317  94.258 -44.291  1.00  0.00     0.109 A 
ATOM     32  H4  UNL     1      91.712  92.398 -43.450  1.00  0.00     0.170 HD
HETATM   33 BR1  UNL     1      91.171  93.601 -46.071  1.00  0.00    -0.029 Br
ENDBRANCH  22  23
ENDBRANCH   6  22
TORSDOF 6
ENDMDL
MODEL 3
REMARK VINA RESULT: -6.832549970      5.057     10.663
REMARK  6 active torsions:
REMARK  status: ('A' for Active; 'I' for Inactive)
REMARK    1  A    between atoms: C2_2  and  C3_3 
REMARK    2  A    between atoms: C3_3  and  C4_4 
REMARK    3  A    between atoms: C8_10  and  C9_11 
REMARK    4  A    between atoms: C9_11  and  C10_12 
REMARK    5  A    between atoms: C13_17  and  C14_18 
REMARK    6  A    between atoms: C14_18  and  C15_19 
ROOT
HETATM    1  C10 UNL     1      90.260  99.827 -45.319  1.00  0.00     0.020 A 
HETATM    2  N2  UNL     1      89.075  99.248 -45.535  1.00  0.00    -0.359 N 
ATOM      3  H2  UNL     1      88.203  99.759 -45.674  1.00  0.00     0.166 HD
HETATM    4  C11 UNL     1      89.177  97.892 -45.548  1.00  0.00     0.033 A 
HETATM    5  C12 UNL     1      88.170  97.068 -45.737  1.00  0.00     0.044 C 
HETATM    6  C13 UNL     1      90.529  97.579 -45.323  1.00  0.00    -0.000 A 
HETATM    7  C19 UNL     1      91.167  98.784 -45.188  1.00  0.00    -0.027 A 
HETATM    8  C20 UNL     1      92.610  98.977 -44.942  1.00  0.00     0.051 C 
ENDROOT
BRANCH   1   9
HETATM    9  C9  UNL     1      90.531 101.315 -45.228  1.00  0.00     0.087 C 
BRANCH   9  10
HETATM   10  C8  UNL     1      89.915 101.895 -44.042  1.00  0.00     0.010 C 
HETATM   11  C7  UNL     1      90.459 102.397 -42.979  1.00  0.00     0.039 A 
HETATM   12  N1  UNL     1      89.739 102.913 -41.934  1.00  0.00    -0.359 N 
HETATM   13  C21 UNL     1      91.788 102.555 -42.623  1.00  0.00    -0.011 A 
HETATM   14  C5  UNL     1      90.556 103.367 -40.982  1.00  0.00     0.013 A 
ATOM     15  H1  UNL     1      88.720 102.945 -41.890  1.00  0.00     0.166 HD
HETATM   16  C4  UNL     1      91.856 103.165 -41.370  1.00  0.00    -0.021 A 
HETATM   17  C6  UNL     1      90.138 104.001 -39.693  1.00  0.00     0.068 C 
HETATM   18  C22 UNL     1      92.853 102.203 -43.281  1.00  0.00     0.026 C 
BRANCH  16  19
HETATM   19  C3  UNL     1      93.088 103.539 -40.585  1.00  0.00     0.067 C 
BRANCH  19  20
HETATM   20  C2  UNL     1      93.377 102.535 -39.533  1.00  0.00    -0.032 C 
HETATM   21  C1  UNL     1      93.535 102.951 -38.286  1.00  0.00     0.007 C 
ENDBRANCH  19  20
ENDBRANCH  16  19
ENDBRANCH   9  10
ENDBRANCH   1   9
BRANCH   6  22
HETATM   22  C14 UNL     1      90.942  96.336 -45.280  1.00  0.00     0.046 C 
BRANCH  22  23
HETATM   23  C15 UNL     1      91.192  95.524 -44.107  1.00  0.00     0.070 A 
HETATM   24  N3  UNL     1      91.282  96.012 -42.860  1.00  0.00    -0.316 N 
HETATM   25  C16 UNL     1      91.536  95.205 -41.793  1.00  0.00     0.314 A 
ATOM     26  H3  UNL     1      91.157  97.013 -42.708  1.00  0.00     0.169 HD
HETATM   27  O1  UNL     1      91.608  95.737 -40.640  1.00  0.00    -0.262 OA
HETATM   28  C17 UNL     1      91.707  93.857 -41.985  1.00  0.00     0.314 A 
HETATM   29  O2  UNL     1      91.945  93.086 -41.007  1.00  0.00    -0.262 OA
HETATM   30  N4  UNL     1      91.622  93.329 -43.232  1.00  0.00    -0.311 N 
HETATM   31  C18 UNL     1      91.366  94.167 -44.275  1.00  0.00     0.109 A 
ATOM     32  H4  UNL     1      91.747  92.328 -43.384  1.00  0.00     0.170 HD
HETATM   33 BR1  UNL     1      91.242  93.467 -46.041  1.00  0.00    -0.029 Br
ENDBRANCH  22  23
ENDBRANCH   6  22
TORSDOF 6
ENDMDL
MODEL 4
REMARK VINA RESULT: -6.783969726      4.971      8.089
REMARK  6 active torsions:
REMARK  status: ('A' for Active; 'I' for Inactive)
REMARK    1  A    between atoms: C2_2  and  C3_3 
REMARK    2  A    between atoms: C3_3  and  C4_4 
REMARK    3  A    between atoms: C8_10  and  C9_11 
REMARK    4  A    between atoms: C9_11  and  C10_12 
REMARK    5  A    between atoms: C13_17  and  C14_18 
REMARK    6  A    between atoms: C14_18  and  C15_19 
ROOT
HETATM    1  C10 UNL     1      91.277  99.914 -43.163  1.00  0.00     0.020 A 
HETATM    2  N2  UNL     1      92.214 100.629 -42.532  1.00  0.00    -0.359 N 
ATOM      3  H2  UNL     1      92.569 100.415 -41.600  1.00  0.00     0.166 HD
HETATM    4  C11 UNL     1      92.636 101.677 -43.289  1.00  0.00     0.033 A 
HETATM    5  C12 UNL     1      93.549 102.547 -42.918  1.00  0.00     0.044 C 
HETATM    6  C13 UNL     1      91.915 101.630 -44.495  1.00  0.00    -0.000 A 
HETATM    7  C19 UNL     1      91.092 100.540 -44.388  1.00  0.00    -0.027 A 
HETATM    8  C20 UNL     1      90.139 100.072 -45.414  1.00  0.00     0.051 C 
ENDROOT
BRANCH   1   9
HETATM    9  C9  UNL     1      90.569  98.687 -42.627  1.00  0.00     0.087 C 
BRANCH   9  10
HETATM   10  C8  UNL     1      90.694  97.560 -43.543  1.00  0.00     0.010 C 
HETATM   11  C7  UNL     1      91.067  96.339 -43.320  1.00  0.00     0.039 A 
HETATM   12  N1  UNL     1      91.133  95.380 -44.295  1.00  0.00    -0.359 N 
HETATM   13  C21 UNL     1      91.460  95.706 -42.153  1.00  0.00    -0.011 A 
HETATM   14  C5  UNL     1      91.539  94.218 -43.780  1.00  0.00     0.013 A 
ATOM     15  H1  UNL     1      90.904  95.533 -45.277  1.00  0.00     0.166 HD
HETATM   16  C4  UNL     1      91.756  94.372 -42.435  1.00  0.00    -0.021 A 
HETATM   17  C6  UNL     1      91.728  92.940 -44.535  1.00  0.00     0.068 C 
HETATM   18  C22 UNL     1      91.577  96.203 -40.957  1.00  0.00     0.026 C 
BRANCH  16  19
HETATM   19  C3  UNL     1      92.217  93.301 -41.479  1.00  0.00     0.067 C 
BRANCH  19  20
HETATM   20  C2  UNL     1      93.682  93.370 -41.263  1.00  0.00    -0.032 C 
HETATM   21  C1  UNL     1      94.377  92.244 -41.258  1.00  0.00     0.007 C 
ENDBRANCH  19  20
ENDBRANCH  16  19
ENDBRANCH   9  10
ENDBRANCH   1   9
BRANCH   6  22
HETATM   22  C14 UNL     1      92.105 102.523 -45.436  1.00  0.00     0.046 C 
BRANCH  22  23
HETATM   23  C15 UNL     1      92.811 102.355 -46.689  1.00  0.00     0.070 A 
HETATM   24  N3  UNL     1      92.840 101.210 -47.388  1.00  0.00    -0.316 N 
HETATM   25  C16 UNL     1      93.536 101.101 -48.553  1.00  0.00     0.314 A 
ATOM     26  H3  UNL     1      92.329 100.400 -47.037  1.00  0.00     0.169 HD
HETATM   27  O1  UNL     1      93.519  99.984 -49.162  1.00  0.00    -0.262 OA
HETATM   28  C17 UNL     1      94.228 102.183 -49.036  1.00  0.00     0.314 A 
HETATM   29  O2  UNL     1      94.883 102.105 -50.119  1.00  0.00    -0.262 OA
HETATM   30  N4  UNL     1      94.221 103.357 -48.356  1.00  0.00    -0.311 N 
HETATM   31  C18 UNL     1      93.514 103.429 -47.194  1.00  0.00     0.109 A 
ATOM     32  H4  UNL     1      94.732 104.167 -48.707  1.00  0.00     0.170 HD
HETATM   33 BR1  UNL     1      93.479 105.056 -46.207  1.00  0.00    -0.029 Br
ENDBRANCH  22  23
ENDBRANCH   6  22
TORSDOF 6
ENDMDL
MODEL 5
REMARK VINA RESULT: -6.755540687      4.046      6.865
REMARK  6 active torsions:
REMARK  status: ('A' for Active; 'I' for Inactive)
REMARK    1  A    between atoms: C2_2  and  C3_3 
REMARK    2  A    between atoms: C3_3  and  C4_4 
REMARK    3  A    between atoms: C8_10  and  C9_11 
REMARK    4  A    between atoms: C9_11  and  C10_12 
REMARK    5  A    between atoms: C13_17  and  C14_18 
REMARK    6  A    between atoms: C14_18  and  C15_19 
ROOT
HETATM    1  C10 UNL     1      90.392  99.206 -45.044  1.00  0.00     0.020 A 
HETATM    2  N2  UNL     1      91.080  99.440 -46.167  1.00  0.00    -0.359 N 
ATOM      3  H2  UNL     1      90.920  98.957 -47.050  1.00  0.00     0.166 HD
HETATM    4  C11 UNL     1      92.021 100.404 -45.983  1.00  0.00     0.033 A 
HETATM    5  C12 UNL     1      92.843 100.834 -46.915  1.00  0.00     0.044 C 
HETATM    6  C13 UNL     1      91.929 100.819 -44.642  1.00  0.00    -0.000 A 
HETATM    7  C19 UNL     1      90.923 100.068 -44.095  1.00  0.00    -0.027 A 
HETATM    8  C20 UNL     1      90.446 100.146 -42.699  1.00  0.00     0.051 C 
ENDROOT
BRANCH   1   9
HETATM    9  C9  UNL     1      89.277  98.195 -44.867  1.00  0.00     0.087 C 
BRANCH   9  10
HETATM   10  C8  UNL     1      89.524  96.991 -45.649  1.00  0.00     0.010 C 
HETATM   11  C7  UNL     1      90.270  95.964 -45.389  1.00  0.00     0.039 A 
HETATM   12  N1  UNL     1      90.402  94.893 -46.232  1.00  0.00    -0.359 N 
HETATM   13  C21 UNL     1      91.065  95.670 -44.293  1.00  0.00    -0.011 A 
HETATM   14  C5  UNL     1      91.222  93.982 -45.706  1.00  0.00     0.013 A 
ATOM     15  H1  UNL     1      89.937  94.804 -47.135  1.00  0.00     0.166 HD
HETATM   16  C4  UNL     1      91.665  94.425 -44.486  1.00  0.00    -0.021 A 
HETATM   17  C6  UNL     1      91.607  92.679 -46.332  1.00  0.00     0.068 C 
HETATM   18  C22 UNL     1      91.284  96.387 -43.231  1.00  0.00     0.026 C 
BRANCH  16  19
HETATM   19  C3  UNL     1      92.605  93.695 -43.560  1.00  0.00     0.067 C 
BRANCH  19  20
HETATM   20  C2  UNL     1      91.874  93.097 -42.417  1.00  0.00    -0.032 C 
HETATM   21  C1  UNL     1      92.497  92.985 -41.254  1.00  0.00     0.007 C 
ENDBRANCH  19  20
ENDBRANCH  16  19
ENDBRANCH   9  10
ENDBRANCH   1   9
BRANCH   6  22
HETATM   22  C14 UNL     1      92.718 101.749 -44.162  1.00  0.00     0.046 C 
BRANCH  22  23
HETATM   23  C15 UNL     1      92.719 102.311 -42.827  1.00  0.00     0.070 A 
HETATM   24  N3  UNL     1      93.422 101.807 -41.801  1.00  0.00    -0.316 N 
HETATM   25  C16 UNL     1      93.373 102.364 -40.560  1.00  0.00     0.314 A 
ATOM     26  H3  UNL     1      94.007 100.985 -41.955  1.00  0.00     0.169 HD
HETATM   27  O1  UNL     1      94.066 101.833 -39.634  1.00  0.00    -0.262 OA
HETATM   28  C17 UNL     1      92.589 103.468 -40.339  1.00  0.00     0.314 A 
HETATM   29  O2  UNL     1      92.528 104.004 -39.192  1.00  0.00    -0.262 OA
HETATM   30  N4  UNL     1      91.865 104.005 -41.354  1.00  0.00    -0.311 N 
HETATM   31  C18 UNL     1      91.939 103.421 -42.583  1.00  0.00     0.109 A 
ATOM     32  H4  UNL     1      91.280 104.826 -41.200  1.00  0.00     0.170 HD
HETATM   33 BR1  UNL     1      90.936 104.139 -44.032  1.00  0.00    -0.029 Br
ENDBRANCH  22  23
ENDBRANCH   6  22
TORSDOF 6
ENDMDL
