MODEL 1
REMARK VINA RESULT: -6.855688154      0.000      0.000
REMARK  6 active torsions:
REMARK  status: ('A' for Active; 'I' for Inactive)
REMARK    1  A    between atoms: C5_9  and  C6_10 
REMARK    2  A    between atoms: C6_10  and  C12_20 
REMARK    3  A    between atoms: N3_11  and  C7_13 
REMARK    4  A    between atoms: C12_20  and  C13_21 
REMARK    5  A    between atoms: C14_22  and  C15_23 
REMARK       I    between atoms: N5_29  and  C21_31 
REMARK       I    between atoms: C21_31  and  N6_33 
REMARK    6  A    between atoms: N6_33  and  C22_35 
ROOT
HETATM    1  C12 UNL     1      89.116  98.334 -45.693  1.00  0.00     0.064 C 
HETATM    2  N5  UNL     1      88.272  98.510 -46.487  1.00  0.00    -0.306 N 
ATOM      3  H5  UNL     1      87.818  99.423 -46.505  1.00  0.00     0.170 HD
HETATM    4  C21 UNL     1      87.822  97.495 -47.463  1.00  0.00     0.325 C 
HETATM    5  O2  UNL     1      86.686  96.998 -47.264  1.00  0.00    -0.247 OA
HETATM    6  N6  UNL     1      88.682  97.141 -48.521  1.00  0.00    -0.309 N 
ATOM      7  H6  UNL     1      89.571  97.638 -48.576  1.00  0.00     0.170 HD
ENDROOT
BRANCH   1   8
HETATM    8  C6  UNL     1      89.533  99.653 -44.599  1.00  0.00     0.079 C 
HETATM    9  N3  UNL     1      88.584  99.116 -43.797  1.00  0.00    -0.340 N 
ATOM     10  H3  UNL     1      88.844  98.408 -43.111  1.00  0.00     0.167 HD
BRANCH   8  11
HETATM   11  C5  UNL     1      90.409 100.149 -45.342  1.00  0.00     0.090 A 
HETATM   12  C2  UNL     1      91.723 100.100 -44.522  1.00  0.00     0.057 A 
HETATM   13  C1  UNL     1      91.806  99.641 -43.302  1.00  0.00     0.045 C 
HETATM   14  N1  UNL     1      92.663 100.531 -45.302  1.00  0.00    -0.296 N 
HETATM   15  N2  UNL     1      92.236 100.857 -46.483  1.00  0.00    -0.261 N 
ATOM     16  H1  UNL     1      93.640 100.606 -45.018  1.00  0.00     0.187 HD
HETATM   17  C3  UNL     1      93.010 101.380 -47.606  1.00  0.00     0.181 C 
HETATM   18  C4  UNL     1      90.882 100.618 -46.480  1.00  0.00     0.276 A 
HETATM   19  O1  UNL     1      90.275 100.873 -47.591  1.00  0.00    -0.266 OA
ENDBRANCH   8  11
BRANCH   9  20
HETATM   20  C7  UNL     1      87.307  99.507 -43.897  1.00  0.00     0.105 A 
HETATM   21  C8  UNL     1      86.329  98.598 -43.705  1.00  0.00     0.048 A 
HETATM   22  C9  UNL     1      85.016  99.072 -43.814  1.00  0.00     0.005 A 
HETATM   23  C10 UNL     1      84.808 100.398 -44.103  1.00  0.00     0.017 A 
HETATM   24  C11 UNL     1      85.857 101.300 -44.298  1.00  0.00     0.089 A 
HETATM   25  N4  UNL     1      87.099 100.807 -44.185  1.00  0.00    -0.352 N 
ATOM     26  H4  UNL     1      87.899 101.426 -44.319  1.00  0.00     0.166 HD
ENDBRANCH   9  20
ENDBRANCH   1   8
BRANCH   1  27
HETATM   27  C13 UNL     1      89.679  97.126 -45.161  1.00  0.00     0.033 C 
HETATM   28  C14 UNL     1      90.750  96.450 -45.454  1.00  0.00     0.013 C 
BRANCH  28  29
HETATM   29  C15 UNL     1      91.132  95.205 -44.752  1.00  0.00    -0.036 A 
HETATM   30  C16 UNL     1      91.240  95.245 -43.362  1.00  0.00     0.011 A 
HETATM   31  C17 UNL     1      91.634  94.142 -42.637  1.00  0.00     0.001 A 
HETATM   32  C18 UNL     1      91.941  92.951 -43.267  1.00  0.00     0.000 A 
HETATM   33  C19 UNL     1      91.829  92.918 -44.636  1.00  0.00     0.001 A 
HETATM   34  C20 UNL     1      91.427  94.030 -45.389  1.00  0.00     0.011 A 
ENDBRANCH  28  29
ENDBRANCH   1  27
BRANCH   6  35
HETATM   35  C22 UNL     1      88.434  96.157 -49.524  1.00  0.00     0.037 A 
HETATM   36  C23 UNL     1      87.811  96.607 -50.702  1.00  0.00     0.029 A 
HETATM   37  C24 UNL     1      87.583  95.732 -51.728  1.00  0.00     0.004 A 
HETATM   38  C25 UNL     1      87.958  94.423 -51.617  1.00  0.00     0.019 A 
HETATM   39  C26 UNL     1      88.583  93.932 -50.468  1.00  0.00     0.013 A 
HETATM   40 BR1  UNL     1      89.139  92.125 -50.362  1.00  0.00    -0.051 Br
HETATM   41  C27 UNL     1      88.799  94.843 -49.439  1.00  0.00     0.048 A 
ENDBRANCH   6  35
TORSDOF 6
ENDMDL
MODEL 2
REMARK VINA RESULT: -6.773317658      3.212      6.233
REMARK  6 active torsions:
REMARK  status: ('A' for Active; 'I' for Inactive)
REMARK    1  A    between atoms: C5_9  and  C6_10 
REMARK    2  A    between atoms: C6_10  and  C12_20 
REMARK    3  A    between atoms: N3_11  and  C7_13 
REMARK    4  A    between atoms: C12_20  and  C13_21 
REMARK    5  A    between atoms: C14_22  and  C15_23 
REMARK       I    between atoms: N5_29  and  C21_31 
REMARK       I    between atoms: C21_31  and  N6_33 
REMARK    6  A    between atoms: N6_33  and  C22_35 
ROOT
HETATM    1  C12 UNL     1      89.518  99.916 -44.574  1.00  0.00     0.064 C 
HETATM    2  N5  UNL     1      90.606  99.523 -44.759  1.00  0.00    -0.306 N 
ATOM      3  H5  UNL     1      91.347 100.212 -44.880  1.00  0.00     0.170 HD
HETATM    4  C21 UNL     1      90.975  98.093 -44.829  1.00  0.00     0.325 C 
HETATM    5  O2  UNL     1      91.278  97.652 -45.965  1.00  0.00    -0.247 OA
HETATM    6  N6  UNL     1      90.945  97.325 -43.648  1.00  0.00    -0.309 N 
ATOM      7  H6  UNL     1      90.699  97.815 -42.788  1.00  0.00     0.170 HD
ENDROOT
BRANCH   1   8
HETATM    8  C6  UNL     1      89.248 101.658 -44.521  1.00  0.00     0.079 C 
HETATM    9  N3  UNL     1      88.790 101.497 -45.784  1.00  0.00    -0.340 N 
ATOM     10  H3  UNL     1      87.801 101.306 -45.943  1.00  0.00     0.167 HD
BRANCH   8  11
HETATM   11  C5  UNL     1      89.672 101.807 -43.353  1.00  0.00     0.090 A 
HETATM   12  C2  UNL     1      88.456 102.302 -42.530  1.00  0.00     0.057 A 
HETATM   13  C1  UNL     1      87.271 102.519 -43.036  1.00  0.00     0.045 C 
HETATM   14  N1  UNL     1      88.849 102.382 -41.298  1.00  0.00    -0.296 N 
HETATM   15  N2  UNL     1      90.089 102.035 -41.136  1.00  0.00    -0.261 N 
ATOM     16  H1  UNL     1      88.246 102.685 -40.534  1.00  0.00     0.187 HD
HETATM   17  C3  UNL     1      90.859 102.008 -39.895  1.00  0.00     0.181 C 
HETATM   18  C4  UNL     1      90.559 101.695 -42.382  1.00  0.00     0.276 A 
HETATM   19  O1  UNL     1      91.788 101.303 -42.421  1.00  0.00    -0.266 OA
ENDBRANCH   8  11
BRANCH   9  20
HETATM   20  C7  UNL     1      89.625 101.586 -46.827  1.00  0.00     0.105 A 
HETATM   21  C8  UNL     1      90.600 102.519 -46.806  1.00  0.00     0.048 A 
HETATM   22  C9  UNL     1      91.444 102.555 -47.922  1.00  0.00     0.005 A 
HETATM   23  C10 UNL     1      91.235 101.663 -48.945  1.00  0.00     0.017 A 
HETATM   24  C11 UNL     1      90.207 100.717 -48.921  1.00  0.00     0.089 A 
HETATM   25  N4  UNL     1      89.420 100.715 -47.835  1.00  0.00    -0.352 N 
ATOM     26  H4  UNL     1      88.655 100.044 -47.771  1.00  0.00     0.166 HD
ENDBRANCH   9  20
ENDBRANCH   1   8
BRANCH   1  27
HETATM   27  C13 UNL     1      88.241  99.277 -44.727  1.00  0.00     0.033 C 
HETATM   28  C14 UNL     1      87.441  98.698 -43.883  1.00  0.00     0.013 C 
BRANCH  28  29
HETATM   29  C15 UNL     1      86.149  98.098 -44.283  1.00  0.00    -0.036 A 
HETATM   30  C16 UNL     1      85.006  98.477 -43.579  1.00  0.00     0.011 A 
HETATM   31  C17 UNL     1      83.772  97.930 -43.859  1.00  0.00     0.001 A 
HETATM   32  C18 UNL     1      83.625  96.981 -44.852  1.00  0.00     0.000 A 
HETATM   33  C19 UNL     1      84.755  96.615 -45.543  1.00  0.00     0.001 A 
HETATM   34  C20 UNL     1      86.017  97.161 -45.274  1.00  0.00     0.011 A 
ENDBRANCH  28  29
ENDBRANCH   1  27
BRANCH   6  35
HETATM   35  C22 UNL     1      91.225  95.930 -43.536  1.00  0.00     0.037 A 
HETATM   36  C23 UNL     1      91.405  95.432 -42.232  1.00  0.00     0.029 A 
HETATM   37  C24 UNL     1      91.629  94.097 -42.040  1.00  0.00     0.004 A 
HETATM   38  C25 UNL     1      91.678  93.243 -43.105  1.00  0.00     0.019 A 
HETATM   39  C26 UNL     1      91.500  93.692 -44.416  1.00  0.00     0.013 A 
HETATM   40 BR1  UNL     1      91.521  92.478 -45.870  1.00  0.00    -0.051 Br
HETATM   41  C27 UNL     1      91.277  95.055 -44.583  1.00  0.00     0.048 A 
ENDBRANCH   6  35
TORSDOF 6
ENDMDL
MODEL 3
REMARK VINA RESULT: -6.753195736      3.160      4.633
REMARK  6 active torsions:
REMARK  status: ('A' for Active; 'I' for Inactive)
REMARK    1  A    between atoms: C5_9  and  C6_10 
REMARK    2  A    between atoms: C6_10  and  C12_20 
REMARK    3  A    between atoms: N3_11  and  C7_13 
REMARK    4  A    between atoms: C12_20  and  C13_21 
REMARK    5  A    between atoms: C14_22  and  C15_23 
REMARK       I    between atoms: N5_29  and  C21_31 
REMARK       I    between atoms: C21_31  and  N6_33 
REMARK    6  A    between atoms: N6_33  and  C22_35 
ROOT
HETATM    1  C12 UNL     1      90.734  99.558 -43.530  1.00  0.00     0.064 C 
HETATM    2  N5  UNL     1      89.721 100.146 -43.531  1.00  0.00    -0.306 N 
ATOM      3  H5  UNL     1      89.761 101.165 -43.553  1.00  0.00     0.170 HD
HETATM    4  C21 UNL     1      88.387  99.509 -43.501  1.00  0.00     0.325 C 
HETATM    5  O2  UNL     1      87.744  99.615 -42.428  1.00  0.00    -0.247 OA
HETATM    6  N6  UNL     1      87.938  98.820 -44.645  1.00  0.00    -0.309 N 
ATOM      7  H6  UNL     1      88.554  98.828 -45.458  1.00  0.00     0.170 HD
ENDROOT
BRANCH   1   8
HETATM    8  C6  UNL     1      92.241 100.474 -43.566  1.00  0.00     0.079 C 
HETATM    9  N3  UNL     1      92.152 100.428 -42.217  1.00  0.00    -0.340 N 
ATOM     10  H3  UNL     1      92.584  99.656 -41.708  1.00  0.00     0.167 HD
BRANCH   8  11
HETATM   11  C5  UNL     1      92.321 100.518 -44.815  1.00  0.00     0.090 A 
HETATM   12  C2  UNL     1      92.711 101.979 -45.154  1.00  0.00     0.057 A 
HETATM   13  C1  UNL     1      92.878 102.917 -44.259  1.00  0.00     0.045 C 
HETATM   14  N1  UNL     1      92.885 102.029 -46.436  1.00  0.00    -0.296 N 
HETATM   15  N2  UNL     1      92.688 100.887 -47.022  1.00  0.00    -0.261 N 
ATOM     16  H1  UNL     1      93.149 102.878 -46.935  1.00  0.00     0.187 HD
HETATM   17  C3  UNL     1      92.790 100.579 -48.445  1.00  0.00     0.181 C 
HETATM   18  C4  UNL     1      92.352 100.000 -46.027  1.00  0.00     0.276 A 
HETATM   19  O1  UNL     1      92.131  98.790 -46.419  1.00  0.00    -0.266 OA
ENDBRANCH   8  11
BRANCH   9  20
HETATM   20  C7  UNL     1      91.503 101.386 -41.544  1.00  0.00     0.105 A 
HETATM   21  C8  UNL     1      91.556 101.386 -40.195  1.00  0.00     0.048 A 
HETATM   22  C9  UNL     1      90.864 102.419 -39.552  1.00  0.00     0.005 A 
HETATM   23  C10 UNL     1      90.189 103.344 -40.310  1.00  0.00     0.017 A 
HETATM   24  C11 UNL     1      90.162 103.297 -41.707  1.00  0.00     0.089 A 
HETATM   25  N4  UNL     1      90.836 102.293 -42.285  1.00  0.00    -0.352 N 
ATOM     26  H4  UNL     1      90.846 102.215 -43.302  1.00  0.00     0.166 HD
ENDBRANCH   9  20
ENDBRANCH   1   8
BRANCH   1  27
HETATM   27  C13 UNL     1      91.047  98.211 -43.146  1.00  0.00     0.033 C 
HETATM   28  C14 UNL     1      90.825  97.061 -43.710  1.00  0.00     0.013 C 
BRANCH  28  29
HETATM   29  C15 UNL     1      91.250  95.777 -43.112  1.00  0.00    -0.036 A 
HETATM   30  C16 UNL     1      91.430  94.687 -43.962  1.00  0.00     0.011 A 
HETATM   31  C17 UNL     1      91.781  93.445 -43.479  1.00  0.00     0.001 A 
HETATM   32  C18 UNL     1      91.966  93.236 -42.126  1.00  0.00     0.000 A 
HETATM   33  C19 UNL     1      91.790  94.315 -41.294  1.00  0.00     0.001 A 
HETATM   34  C20 UNL     1      91.435  95.586 -41.768  1.00  0.00     0.011 A 
ENDBRANCH  28  29
ENDBRANCH   1  27
BRANCH   6  35
HETATM   35  C22 UNL     1      86.706  98.112 -44.780  1.00  0.00     0.037 A 
HETATM   36  C23 UNL     1      85.768  98.286 -43.746  1.00  0.00     0.029 A 
HETATM   37  C24 UNL     1      84.546  97.678 -43.828  1.00  0.00     0.004 A 
HETATM   38  C25 UNL     1      84.229  96.904 -44.908  1.00  0.00     0.019 A 
HETATM   39  C26 UNL     1      85.127  96.706 -45.960  1.00  0.00     0.013 A 
HETATM   40 BR1  UNL     1      84.642  95.670 -47.469  1.00  0.00    -0.051 Br
HETATM   41  C27 UNL     1      86.364  97.333 -45.849  1.00  0.00     0.048 A 
ENDBRANCH   6  35
TORSDOF 6
ENDMDL
MODEL 4
REMARK VINA RESULT: -6.724938717      4.385      7.984
REMARK  6 active torsions:
REMARK  status: ('A' for Active; 'I' for Inactive)
REMARK    1  A    between atoms: C5_9  and  C6_10 
REMARK    2  A    between atoms: C6_10  and  C12_20 
REMARK    3  A    between atoms: N3_11  and  C7_13 
REMARK    4  A    between atoms: C12_20  and  C13_21 
REMARK    5  A    between atoms: C14_22  and  C15_23 
REMARK       I    between atoms: N5_29  and  C21_31 
REMARK       I    between atoms: C21_31  and  N6_33 
REMARK    6  A    between atoms: N6_33  and  C22_35 
ROOT
HETATM    1  C12 UNL     1      88.848  99.825 -43.994  1.00  0.00     0.064 C 
HETATM    2  N5  UNL     1      89.253 100.924 -43.976  1.00  0.00    -0.306 N 
ATOM      3  H5  UNL     1      88.832 101.597 -44.616  1.00  0.00     0.170 HD
HETATM    4  C21 UNL     1      90.334 101.400 -43.086  1.00  0.00     0.325 C 
HETATM    5  O2  UNL     1      91.434 101.654 -43.635  1.00  0.00    -0.247 OA
HETATM    6  N6  UNL     1      90.075 101.519 -41.707  1.00  0.00    -0.309 N 
ATOM      7  H6  UNL     1      89.129 101.299 -41.396  1.00  0.00     0.170 HD
ENDROOT
BRANCH   1   8
HETATM    8  C6  UNL     1      87.553  99.421 -45.120  1.00  0.00     0.079 C 
HETATM    9  N3  UNL     1      88.550  98.931 -45.892  1.00  0.00    -0.340 N 
ATOM     10  H3  UNL     1      88.829  97.955 -45.798  1.00  0.00     0.167 HD
BRANCH   8  11
HETATM   11  C5  UNL     1      86.631  99.875 -44.405  1.00  0.00     0.090 A 
HETATM   12  C2  UNL     1      85.673  98.683 -44.157  1.00  0.00     0.057 A 
HETATM   13  C1  UNL     1      85.852  97.487 -44.652  1.00  0.00     0.045 C 
HETATM   14  N1  UNL     1      84.754  99.107 -43.348  1.00  0.00    -0.296 N 
HETATM   15  N2  UNL     1      84.911 100.349 -43.006  1.00  0.00    -0.261 N 
ATOM     16  H1  UNL     1      83.986  98.525 -43.015  1.00  0.00     0.187 HD
HETATM   17  C3  UNL     1      84.070 101.149 -42.121  1.00  0.00     0.181 C 
HETATM   18  C4  UNL     1      86.043 100.785 -43.652  1.00  0.00     0.276 A 
HETATM   19  O1  UNL     1      86.373 102.011 -43.420  1.00  0.00    -0.266 OA
ENDBRANCH   8  11
BRANCH   9  20
HETATM   20  C7  UNL     1      89.173  99.717 -46.779  1.00  0.00     0.105 A 
HETATM   21  C8  UNL     1      88.440 100.577 -47.518  1.00  0.00     0.048 A 
HETATM   22  C9  UNL     1      89.151 101.376 -48.420  1.00  0.00     0.005 A 
HETATM   23  C10 UNL     1      90.516 101.241 -48.499  1.00  0.00     0.017 A 
HETATM   24  C11 UNL     1      91.229 100.330 -47.714  1.00  0.00     0.089 A 
HETATM   25  N4  UNL     1      90.511  99.584 -46.862  1.00  0.00    -0.352 N 
ATOM     26  H4  UNL     1      90.986  98.904 -46.268  1.00  0.00     0.166 HD
ENDBRANCH   9  20
ENDBRANCH   1   8
BRANCH   1  27
HETATM   27  C13 UNL     1      89.426  98.596 -43.528  1.00  0.00     0.033 C 
HETATM   28  C14 UNL     1      90.655  98.193 -43.404  1.00  0.00     0.013 C 
BRANCH  28  29
HETATM   29  C15 UNL     1      91.014  96.854 -42.888  1.00  0.00    -0.036 A 
HETATM   30  C16 UNL     1      91.029  95.789 -43.787  1.00  0.00     0.011 A 
HETATM   31  C17 UNL     1      91.308  94.503 -43.379  1.00  0.00     0.001 A 
HETATM   32  C18 UNL     1      91.583  94.223 -42.054  1.00  0.00     0.000 A 
HETATM   33  C19 UNL     1      91.570  95.278 -41.174  1.00  0.00     0.001 A 
HETATM   34  C20 UNL     1      91.290  96.592 -41.572  1.00  0.00     0.011 A 
ENDBRANCH  28  29
ENDBRANCH   1  27
BRANCH   6  35
HETATM   35  C22 UNL     1      91.005 101.917 -40.700  1.00  0.00     0.037 A 
HETATM   36  C23 UNL     1      92.258 101.278 -40.718  1.00  0.00     0.029 A 
HETATM   37  C24 UNL     1      93.219 101.640 -39.815  1.00  0.00     0.004 A 
HETATM   38  C25 UNL     1      92.971 102.619 -38.896  1.00  0.00     0.019 A 
HETATM   39  C26 UNL     1      91.743 103.284 -38.843  1.00  0.00     0.013 A 
HETATM   40 BR1  UNL     1      91.445 104.674 -37.592  1.00  0.00    -0.051 Br
HETATM   41  C27 UNL     1      90.783 102.894 -39.770  1.00  0.00     0.048 A 
ENDBRANCH   6  35
TORSDOF 6
ENDMDL
MODEL 5
REMARK VINA RESULT: -6.712196956      3.743      5.069
REMARK  6 active torsions:
REMARK  status: ('A' for Active; 'I' for Inactive)
REMARK    1  A    between atoms: C5_9  and  C6_10 
REMARK    2  A    between atoms: C6_10  and  C12_20 
REMARK    3  A    between atoms: N3_11  and  C7_13 
REMARK    4  A    between atoms: C12_20  and  C13_21 
REMARK    5  A    between atoms: C14_22  and  C15_23 
REMARK       I    between atoms: N5_29  and  C21_31 
REMARK       I    between atoms: C21_31  and  N6_33 
REMARK    6  A    between atoms: N6_33  and  C22_35 
ROOT
HETATM    1  C12 UNL     1      90.624 100.083 -43.541  1.00  0.00     0.064 C 
HETATM    2  N5  UNL     1      89.641 100.720 -43.533  1.00  0.00    -0.306 N 
ATOM      3  H5  UNL     1      89.731 101.736 -43.560  1.00  0.00     0.170 HD
HETATM    4  C21 UNL     1      88.278 100.149 -43.487  1.00  0.00     0.325 C 
HETATM    5  O2  UNL     1      87.653 100.291 -42.407  1.00  0.00    -0.247 OA
HETATM    6  N6  UNL     1      87.783  99.479 -44.623  1.00  0.00    -0.309 N 
ATOM      7  H6  UNL     1      88.390  99.454 -45.442  1.00  0.00     0.170 HD
ENDROOT
BRANCH   1   8
HETATM    8  C6  UNL     1      92.173 100.924 -43.597  1.00  0.00     0.079 C 
HETATM    9  N3  UNL     1      92.134 100.820 -42.248  1.00  0.00    -0.340 N 
ATOM     10  H3  UNL     1      92.544 100.006 -41.792  1.00  0.00     0.167 HD
BRANCH   8  11
HETATM   11  C5  UNL     1      92.209 101.021 -44.845  1.00  0.00     0.090 A 
HETATM   12  C2  UNL     1      92.847 102.403 -45.134  1.00  0.00     0.057 A 
HETATM   13  C1  UNL     1      93.220 103.245 -44.207  1.00  0.00     0.045 C 
HETATM   14  N1  UNL     1      92.973 102.491 -46.421  1.00  0.00    -0.296 N 
HETATM   15  N2  UNL     1      92.547 101.438 -47.048  1.00  0.00    -0.261 N 
ATOM     16  H1  UNL     1      93.368 103.304 -46.892  1.00  0.00     0.187 HD
HETATM   17  C3  UNL     1      92.531 101.195 -48.487  1.00  0.00     0.181 C 
HETATM   18  C4  UNL     1      92.094 100.573 -46.080  1.00  0.00     0.276 A 
HETATM   19  O1  UNL     1      91.638  99.447 -46.516  1.00  0.00    -0.266 OA
ENDBRANCH   8  11
BRANCH   9  20
HETATM   20  C7  UNL     1      91.560 101.777 -41.508  1.00  0.00     0.105 A 
HETATM   21  C8  UNL     1      91.276 101.520 -40.215  1.00  0.00     0.048 A 
HETATM   22  C9  UNL     1      90.685 102.565 -39.494  1.00  0.00     0.005 A 
HETATM   23  C10 UNL     1      90.437 103.756 -40.129  1.00  0.00     0.017 A 
HETATM   24  C11 UNL     1      90.747 103.971 -41.474  1.00  0.00     0.089 A 
HETATM   25  N4  UNL     1      91.311 102.947 -42.130  1.00  0.00    -0.352 N 
ATOM     26  H4  UNL     1      91.555 103.055 -43.114  1.00  0.00     0.166 HD
ENDBRANCH   9  20
ENDBRANCH   1   8
BRANCH   1  27
HETATM   27  C13 UNL     1      90.875  98.724 -43.155  1.00  0.00     0.033 C 
HETATM   28  C14 UNL     1      90.759  97.594 -43.787  1.00  0.00     0.013 C 
BRANCH  28  29
HETATM   29  C15 UNL     1      91.083  96.290 -43.168  1.00  0.00    -0.036 A 
HETATM   30  C16 UNL     1      91.319  96.259 -41.794  1.00  0.00     0.011 A 
HETATM   31  C17 UNL     1      91.671  95.093 -41.149  1.00  0.00     0.001 A 
HETATM   32  C18 UNL     1      91.806  93.908 -41.847  1.00  0.00     0.000 A 
HETATM   33  C19 UNL     1      91.569  93.946 -43.200  1.00  0.00     0.001 A 
HETATM   34  C20 UNL     1      91.208  95.122 -43.872  1.00  0.00     0.011 A 
ENDBRANCH  28  29
ENDBRANCH   1  27
BRANCH   6  35
HETATM   35  C22 UNL     1      86.517  98.832 -44.742  1.00  0.00     0.037 A 
HETATM   36  C23 UNL     1      86.543  97.441 -44.949  1.00  0.00     0.029 A 
HETATM   37  C24 UNL     1      85.369  96.743 -45.025  1.00  0.00     0.004 A 
HETATM   38  C25 UNL     1      84.171  97.388 -44.901  1.00  0.00     0.019 A 
HETATM   39  C26 UNL     1      84.097  98.767 -44.690  1.00  0.00     0.013 A 
HETATM   40 BR1  UNL     1      82.425  99.627 -44.469  1.00  0.00    -0.051 Br
HETATM   41  C27 UNL     1      85.306  99.453 -44.620  1.00  0.00     0.048 A 
ENDBRANCH   6  35
TORSDOF 6
ENDMDL
