MODEL 1
REMARK VINA RESULT: -5.338147423      0.000      0.000
REMARK  9 active torsions:
REMARK  status: ('A' for Active; 'I' for Inactive)
REMARK       I    between atoms: N1_5  and  C5_7 
REMARK    1  A    between atoms: C5_7  and  C6_9 
REMARK    2  A    between atoms: C6_9  and  C7_10 
REMARK    3  A    between atoms: C7_10  and  N2_11 
REMARK    4  A    between atoms: N2_11  and  C10_14 
REMARK    5  A    between atoms: C10_14  and  C11_15 
REMARK    6  A    between atoms: C12_17  and  C13_18 
REMARK       I    between atoms: C13_18  and  N3_20 
REMARK    7  A    between atoms: N3_20  and  C14_22 
REMARK    8  A    between atoms: C17_29  and  C18_30 
REMARK    9  A    between atoms: C18_30  and  N6_31 
ROOT
HETATM    1  C13 UNL     1      90.414  98.056 -44.734  1.00  0.00     0.234 C 
HETATM    2  O2  UNL     1      91.452  97.630 -45.345  1.00  0.00    -0.272 OA
HETATM    3  N3  UNL     1      90.419  97.934 -43.341  1.00  0.00    -0.311 N 
ATOM      4  H3  UNL     1      89.909  97.148 -42.938  1.00  0.00     0.170 HD
ENDROOT
BRANCH   1   5
HETATM    5  C12 UNL     1      89.280  98.644 -45.491  1.00  0.00     0.138 A 
HETATM    6  C2  UNL     1      88.578  97.930 -46.548  1.00  0.00     0.009 A 
HETATM    7  C1  UNL     1      88.062  98.783 -47.699  1.00  0.00     0.022 C 
HETATM    8  C3  UNL     1      88.924  96.507 -46.914  1.00  0.00     0.022 C 
HETATM    9  C4  UNL     1      87.908  98.106 -45.199  1.00  0.00     0.013 A 
HETATM   10  N1  UNL     1      86.966  97.964 -44.353  1.00  0.00    -0.333 N 
HETATM   11  C5  UNL     1      85.769  97.302 -44.576  1.00  0.00     0.223 C 
ATOM     12  H1  UNL     1      87.105  98.375 -43.430  1.00  0.00     0.168 HD
HETATM   13  O1  UNL     1      84.887  97.436 -43.643  1.00  0.00    -0.273 OA
BRANCH  11  14
HETATM   14  C6  UNL     1      85.417  96.479 -45.738  1.00  0.00     0.131 C 
BRANCH  14  15
HETATM   15  C7  UNL     1      84.497  97.089 -46.729  1.00  0.00     0.245 C 
BRANCH  15  16
HETATM   16  N2  UNL     1      83.162  96.554 -46.827  1.00  0.00    -0.073 N 
HETATM   17  C8  UNL     1      82.992  95.245 -46.216  1.00  0.00     0.272 C 
HETATM   18  C9  UNL     1      82.794  96.443 -48.204  1.00  0.00     0.272 C 
BRANCH  16  19
HETATM   19  C10 UNL     1      82.321  97.494 -46.084  1.00  0.00     0.247 C 
BRANCH  19  20
HETATM   20  C11 UNL     1      82.710  98.920 -46.190  1.00  0.00     0.113 C 
HETATM   21 BR1  UNL     1      82.287  99.742 -44.463  1.00  0.00    -0.095 Br
ENDBRANCH  19  20
ENDBRANCH  16  19
ENDBRANCH  15  16
ENDBRANCH  14  15
ENDBRANCH  11  14
ENDBRANCH   1   5
BRANCH   3  22
HETATM   22  C14 UNL     1      91.017  98.734 -42.527  1.00  0.00     0.133 A 
HETATM   23  N4  UNL     1      92.059  98.473 -41.713  1.00  0.00    -0.285 N 
HETATM   24  N5  UNL     1      92.391  99.556 -41.038  1.00  0.00    -0.300 N 
ATOM     25  H4  UNL     1      92.523  97.569 -41.631  1.00  0.00     0.188 HD
HETATM   26  C15 UNL     1      91.571 100.587 -41.385  1.00  0.00     0.062 A 
ATOM     27  H5  UNL     1      93.148  99.614 -40.357  1.00  0.00     0.186 HD
HETATM   28  C16 UNL     1      90.705 100.068 -42.321  1.00  0.00     0.044 A 
HETATM   29  C24 UNL     1      91.237 102.013 -41.175  1.00  0.00     0.228 A 
HETATM   30  C17 UNL     1      89.823 101.179 -42.694  1.00  0.00     0.186 A 
HETATM   31  O3  UNL     1      90.160 102.264 -41.953  1.00  0.00    -0.373 OA
BRANCH  30  32
HETATM   32  C18 UNL     1      88.370 100.872 -42.758  1.00  0.00     0.274 C 
BRANCH  32  33
HETATM   33  N6  UNL     1      87.545 101.706 -43.555  1.00  0.00    -0.068 N 
HETATM   34  C19 UNL     1      87.256 103.009 -43.042  1.00  0.00     0.272 C 
HETATM   35  C20 UNL     1      86.242 101.016 -43.629  1.00  0.00     0.237 C 
HETATM   36  C21 UNL     1      85.646 101.381 -44.941  1.00  0.00     0.029 C 
HETATM   37  C22 UNL     1      86.735 101.934 -45.791  1.00  0.00     0.029 C 
HETATM   38  C23 UNL     1      87.964 101.859 -44.931  1.00  0.00     0.237 C 
ENDBRANCH  32  33
ENDBRANCH  30  32
ENDBRANCH   3  22
TORSDOF 9
ENDMDL
MODEL 2
REMARK VINA RESULT: -5.263799637      1.281      1.637
REMARK  9 active torsions:
REMARK  status: ('A' for Active; 'I' for Inactive)
REMARK       I    between atoms: N1_5  and  C5_7 
REMARK    1  A    between atoms: C5_7  and  C6_9 
REMARK    2  A    between atoms: C6_9  and  C7_10 
REMARK    3  A    between atoms: C7_10  and  N2_11 
REMARK    4  A    between atoms: N2_11  and  C10_14 
REMARK    5  A    between atoms: C10_14  and  C11_15 
REMARK    6  A    between atoms: C12_17  and  C13_18 
REMARK       I    between atoms: C13_18  and  N3_20 
REMARK    7  A    between atoms: N3_20  and  C14_22 
REMARK    8  A    between atoms: C17_29  and  C18_30 
REMARK    9  A    between atoms: C18_30  and  N6_31 
ROOT
HETATM    1  C13 UNL     1      90.283  98.136 -44.707  1.00  0.00     0.234 C 
HETATM    2  O2  UNL     1      91.302  97.699 -45.341  1.00  0.00    -0.272 OA
HETATM    3  N3  UNL     1      90.324  98.027 -43.314  1.00  0.00    -0.311 N 
ATOM      4  H3  UNL     1      89.820  97.248 -42.890  1.00  0.00     0.170 HD
ENDROOT
BRANCH   1   5
HETATM    5  C12 UNL     1      89.133  98.723 -45.440  1.00  0.00     0.138 A 
HETATM    6  C2  UNL     1      88.408  98.008 -46.482  1.00  0.00     0.009 A 
HETATM    7  C1  UNL     1      87.867  98.859 -47.621  1.00  0.00     0.022 C 
HETATM    8  C3  UNL     1      88.749  96.584 -46.854  1.00  0.00     0.022 C 
HETATM    9  C4  UNL     1      87.767  98.183 -45.119  1.00  0.00     0.013 A 
HETATM   10  N1  UNL     1      86.844  98.041 -44.253  1.00  0.00    -0.333 N 
HETATM   11  C5  UNL     1      85.643  97.377 -44.450  1.00  0.00     0.223 C 
ATOM     12  H1  UNL     1      87.002  98.452 -43.333  1.00  0.00     0.168 HD
HETATM   13  O1  UNL     1      84.781  97.510 -43.498  1.00  0.00    -0.273 OA
BRANCH  11  14
HETATM   14  C6  UNL     1      85.268  96.553 -45.603  1.00  0.00     0.131 C 
BRANCH  14  15
HETATM   15  C7  UNL     1      84.428  97.204 -46.639  1.00  0.00     0.245 C 
BRANCH  15  16
HETATM   16  N2  UNL     1      83.023  96.882 -46.668  1.00  0.00    -0.073 N 
HETATM   17  C8  UNL     1      82.466  96.742 -48.004  1.00  0.00     0.272 C 
HETATM   18  C9  UNL     1      82.286  97.904 -45.993  1.00  0.00     0.272 C 
BRANCH  16  19
HETATM   19  C10 UNL     1      82.920  95.575 -46.014  1.00  0.00     0.247 C 
BRANCH  19  20
HETATM   20  C11 UNL     1      82.352  94.489 -46.845  1.00  0.00     0.113 C 
HETATM   21 BR1  UNL     1      83.797  93.198 -47.137  1.00  0.00    -0.095 Br
ENDBRANCH  19  20
ENDBRANCH  16  19
ENDBRANCH  15  16
ENDBRANCH  14  15
ENDBRANCH  11  14
ENDBRANCH   1   5
BRANCH   3  22
HETATM   22  C14 UNL     1      90.946  98.832 -42.523  1.00  0.00     0.133 A 
HETATM   23  N4  UNL     1      92.034  98.586 -41.766  1.00  0.00    -0.285 N 
HETATM   24  N5  UNL     1      92.378  99.669 -41.098  1.00  0.00    -0.300 N 
ATOM     25  H4  UNL     1      92.521  97.691 -41.718  1.00  0.00     0.188 HD
HETATM   26  C15 UNL     1      91.520 100.685 -41.391  1.00  0.00     0.062 A 
ATOM     27  H5  UNL     1      93.168  99.736 -40.456  1.00  0.00     0.186 HD
HETATM   28  C16 UNL     1      90.618 100.157 -42.287  1.00  0.00     0.044 A 
HETATM   29  C24 UNL     1      91.168 102.102 -41.149  1.00  0.00     0.228 A 
HETATM   30  C17 UNL     1      89.694 101.253 -42.602  1.00  0.00     0.186 A 
HETATM   31  O3  UNL     1      90.047 102.337 -41.868  1.00  0.00    -0.373 OA
BRANCH  30  32
HETATM   32  C18 UNL     1      88.247 100.915 -42.594  1.00  0.00     0.274 C 
BRANCH  32  33
HETATM   33  N6  UNL     1      87.365 101.736 -43.343  1.00  0.00    -0.068 N 
HETATM   34  C19 UNL     1      87.126 103.053 -42.840  1.00  0.00     0.272 C 
HETATM   35  C20 UNL     1      86.056 101.054 -43.295  1.00  0.00     0.237 C 
HETATM   36  C21 UNL     1      85.359 101.392 -44.563  1.00  0.00     0.029 C 
HETATM   37  C22 UNL     1      86.379 101.916 -45.511  1.00  0.00     0.029 C 
HETATM   38  C23 UNL     1      87.673 101.853 -44.751  1.00  0.00     0.237 C 
ENDBRANCH  32  33
ENDBRANCH  30  32
ENDBRANCH   3  22
TORSDOF 9
ENDMDL
MODEL 3
REMARK VINA RESULT: -5.237995604      3.129      5.650
REMARK  9 active torsions:
REMARK  status: ('A' for Active; 'I' for Inactive)
REMARK       I    between atoms: N1_5  and  C5_7 
REMARK    1  A    between atoms: C5_7  and  C6_9 
REMARK    2  A    between atoms: C6_9  and  C7_10 
REMARK    3  A    between atoms: C7_10  and  N2_11 
REMARK    4  A    between atoms: N2_11  and  C10_14 
REMARK    5  A    between atoms: C10_14  and  C11_15 
REMARK    6  A    between atoms: C12_17  and  C13_18 
REMARK       I    between atoms: C13_18  and  N3_20 
REMARK    7  A    between atoms: N3_20  and  C14_22 
REMARK    8  A    between atoms: C17_29  and  C18_30 
REMARK    9  A    between atoms: C18_30  and  N6_31 
ROOT
HETATM    1  C13 UNL     1      91.838 101.049 -40.983  1.00  0.00     0.234 C 
HETATM    2  O2  UNL     1      92.781 100.881 -40.138  1.00  0.00    -0.272 OA
HETATM    3  N3  UNL     1      91.980 100.398 -42.212  1.00  0.00    -0.311 N 
ATOM      4  H3  UNL     1      92.317 100.952 -43.000  1.00  0.00     0.170 HD
ENDROOT
BRANCH   1   5
HETATM    5  C12 UNL     1      90.667 101.898 -40.648  1.00  0.00     0.138 A 
HETATM    6  C2  UNL     1      90.215 102.997 -41.491  1.00  0.00     0.009 A 
HETATM    7  C1  UNL     1      89.621 104.194 -40.764  1.00  0.00     0.022 C 
HETATM    8  C3  UNL     1      90.884 103.316 -42.807  1.00  0.00     0.022 C 
HETATM    9  C4  UNL     1      89.421 101.705 -41.467  1.00  0.00     0.013 A 
HETATM   10  N1  UNL     1      88.469 100.931 -41.809  1.00  0.00    -0.333 N 
HETATM   11  C5  UNL     1      87.461 101.236 -42.711  1.00  0.00     0.223 C 
ATOM     12  H1  UNL     1      88.445 100.005 -41.381  1.00  0.00     0.168 HD
HETATM   13  O1  UNL     1      86.501 100.374 -42.771  1.00  0.00    -0.273 OA
BRANCH  11  14
HETATM   14  C6  UNL     1      87.383 102.410 -43.585  1.00  0.00     0.131 C 
BRANCH  14  15
HETATM   15  C7  UNL     1      87.657 102.185 -45.025  1.00  0.00     0.245 C 
BRANCH  15  16
HETATM   16  N2  UNL     1      86.532 102.123 -45.924  1.00  0.00    -0.073 N 
HETATM   17  C8  UNL     1      86.782 102.688 -47.241  1.00  0.00     0.272 C 
HETATM   18  C9  UNL     1      85.426 102.827 -45.352  1.00  0.00     0.272 C 
BRANCH  16  19
HETATM   19  C10 UNL     1      86.269 100.695 -46.105  1.00  0.00     0.247 C 
BRANCH  19  20
HETATM   20  C11 UNL     1      87.388  99.906 -46.671  1.00  0.00     0.113 C 
HETATM   21 BR1  UNL     1      87.596  98.332 -45.524  1.00  0.00    -0.095 Br
ENDBRANCH  19  20
ENDBRANCH  16  19
ENDBRANCH  15  16
ENDBRANCH  14  15
ENDBRANCH  11  14
ENDBRANCH   1   5
BRANCH   3  22
HETATM   22  C14 UNL     1      91.720  99.155 -42.429  1.00  0.00     0.133 A 
HETATM   23  N4  UNL     1      91.563  98.164 -41.528  1.00  0.00    -0.285 N 
HETATM   24  N5  UNL     1      91.298  97.029 -42.144  1.00  0.00    -0.300 N 
ATOM     25  H4  UNL     1      91.639  98.278 -40.518  1.00  0.00     0.188 HD
HETATM   26  C15 UNL     1      91.269  97.228 -43.491  1.00  0.00     0.062 A 
ATOM     27  H5  UNL     1      91.139  96.134 -41.680  1.00  0.00     0.186 HD
HETATM   28  C16 UNL     1      91.536  98.566 -43.669  1.00  0.00     0.044 A 
HETATM   29  C24 UNL     1      91.066  96.607 -44.818  1.00  0.00     0.228 A 
HETATM   30  C17 UNL     1      91.503  98.780 -45.121  1.00  0.00     0.186 A 
HETATM   31  O3  UNL     1      91.273  97.588 -45.726  1.00  0.00    -0.373 OA
BRANCH  30  32
HETATM   32  C18 UNL     1      92.615  99.584 -45.691  1.00  0.00     0.274 C 
BRANCH  32  33
HETATM   33  N6  UNL     1      92.291 100.611 -46.615  1.00  0.00    -0.068 N 
HETATM   34  C19 UNL     1      93.154 100.758 -47.746  1.00  0.00     0.272 C 
HETATM   35  C20 UNL     1      92.414 101.874 -45.860  1.00  0.00     0.237 C 
HETATM   36  C21 UNL     1      91.438 102.820 -46.460  1.00  0.00     0.029 C 
HETATM   37  C22 UNL     1      90.478 102.023 -47.270  1.00  0.00     0.029 C 
HETATM   38  C23 UNL     1      90.929 100.599 -47.102  1.00  0.00     0.237 C 
ENDBRANCH  32  33
ENDBRANCH  30  32
ENDBRANCH   3  22
TORSDOF 9
ENDMDL
MODEL 4
REMARK VINA RESULT: -5.191407083      3.963      6.124
REMARK  9 active torsions:
REMARK  status: ('A' for Active; 'I' for Inactive)
REMARK       I    between atoms: N1_5  and  C5_7 
REMARK    1  A    between atoms: C5_7  and  C6_9 
REMARK    2  A    between atoms: C6_9  and  C7_10 
REMARK    3  A    between atoms: C7_10  and  N2_11 
REMARK    4  A    between atoms: N2_11  and  C10_14 
REMARK    5  A    between atoms: C10_14  and  C11_15 
REMARK    6  A    between atoms: C12_17  and  C13_18 
REMARK       I    between atoms: C13_18  and  N3_20 
REMARK    7  A    between atoms: N3_20  and  C14_22 
REMARK    8  A    between atoms: C17_29  and  C18_30 
REMARK    9  A    between atoms: C18_30  and  N6_31 
ROOT
HETATM    1  C13 UNL     1      91.913 100.988 -40.926  1.00  0.00     0.234 C 
HETATM    2  O2  UNL     1      92.933 100.865 -40.168  1.00  0.00    -0.272 OA
HETATM    3  N3  UNL     1      91.965 100.319 -42.153  1.00  0.00    -0.311 N 
ATOM      4  H3  UNL     1      92.211 100.868 -42.976  1.00  0.00     0.170 HD
ENDROOT
BRANCH   1   5
HETATM    5  C12 UNL     1      90.750 101.807 -40.499  1.00  0.00     0.138 A 
HETATM    6  C2  UNL     1      90.376 103.055 -41.151  1.00  0.00     0.009 A 
HETATM    7  C1  UNL     1      89.778 104.125 -40.248  1.00  0.00     0.022 C 
HETATM    8  C3  UNL     1      91.124 103.579 -42.353  1.00  0.00     0.022 C 
HETATM    9  C4  UNL     1      89.546 101.811 -41.398  1.00  0.00     0.013 A 
HETATM   10  N1  UNL     1      88.591 101.147 -41.920  1.00  0.00    -0.333 N 
HETATM   11  C5  UNL     1      87.643 101.646 -42.799  1.00  0.00     0.223 C 
ATOM     12  H1  UNL     1      88.519 100.161 -41.668  1.00  0.00     0.168 HD
HETATM   13  O1  UNL     1      86.663 100.846 -43.060  1.00  0.00    -0.273 OA
BRANCH  11  14
HETATM   14  C6  UNL     1      87.646 102.960 -43.449  1.00  0.00     0.131 C 
BRANCH  14  15
HETATM   15  C7  UNL     1      86.828 104.020 -42.810  1.00  0.00     0.245 C 
BRANCH  15  16
HETATM   16  N2  UNL     1      85.707 104.545 -43.549  1.00  0.00    -0.073 N 
HETATM   17  C8  UNL     1      85.535 103.966 -44.871  1.00  0.00     0.272 C 
HETATM   18  C9  UNL     1      85.862 105.958 -43.708  1.00  0.00     0.272 C 
BRANCH  16  19
HETATM   19  C10 UNL     1      84.529 104.184 -42.758  1.00  0.00     0.247 C 
BRANCH  19  20
HETATM   20  C11 UNL     1      83.769 103.010 -43.245  1.00  0.00     0.113 C 
HETATM   21 BR1  UNL     1      83.485 101.849 -41.692  1.00  0.00    -0.095 Br
ENDBRANCH  19  20
ENDBRANCH  16  19
ENDBRANCH  15  16
ENDBRANCH  14  15
ENDBRANCH  11  14
ENDBRANCH   1   5
BRANCH   3  22
HETATM   22  C14 UNL     1      91.726  99.064 -42.325  1.00  0.00     0.133 A 
HETATM   23  N4  UNL     1      91.613  98.099 -41.391  1.00  0.00    -0.285 N 
HETATM   24  N5  UNL     1      91.357  96.940 -41.965  1.00  0.00    -0.300 N 
ATOM     25  H4  UNL     1      91.710  98.245 -40.387  1.00  0.00     0.188 HD
HETATM   26  C15 UNL     1      91.292  97.097 -43.316  1.00  0.00     0.062 A 
ATOM     27  H5  UNL     1      91.229  96.057 -41.471  1.00  0.00     0.186 HD
HETATM   28  C16 UNL     1      91.525  98.434 -43.542  1.00  0.00     0.044 A 
HETATM   29  C24 UNL     1      91.070  96.431 -44.619  1.00  0.00     0.228 A 
HETATM   30  C17 UNL     1      91.454  98.602 -44.998  1.00  0.00     0.186 A 
HETATM   31  O3  UNL     1      91.234  97.388 -45.561  1.00  0.00    -0.373 OA
BRANCH  30  32
HETATM   32  C18 UNL     1      92.534  99.412 -45.620  1.00  0.00     0.274 C 
BRANCH  32  33
HETATM   33  N6  UNL     1      92.161 100.533 -46.406  1.00  0.00    -0.068 N 
HETATM   34  C19 UNL     1      92.978 100.824 -47.543  1.00  0.00     0.272 C 
HETATM   35  C20 UNL     1      92.297 101.702 -45.514  1.00  0.00     0.237 C 
HETATM   36  C21 UNL     1      91.286 102.694 -45.964  1.00  0.00     0.029 C 
HETATM   37  C22 UNL     1      90.306 101.978 -46.825  1.00  0.00     0.029 C 
HETATM   38  C23 UNL     1      90.782 100.553 -46.840  1.00  0.00     0.237 C 
ENDBRANCH  32  33
ENDBRANCH  30  32
ENDBRANCH   3  22
TORSDOF 9
ENDMDL
MODEL 5
REMARK VINA RESULT: -5.146209456      3.448      6.648
REMARK  9 active torsions:
REMARK  status: ('A' for Active; 'I' for Inactive)
REMARK       I    between atoms: N1_5  and  C5_7 
REMARK    1  A    between atoms: C5_7  and  C6_9 
REMARK    2  A    between atoms: C6_9  and  C7_10 
REMARK    3  A    between atoms: C7_10  and  N2_11 
REMARK    4  A    between atoms: N2_11  and  C10_14 
REMARK    5  A    between atoms: C10_14  and  C11_15 
REMARK    6  A    between atoms: C12_17  and  C13_18 
REMARK       I    between atoms: C13_18  and  N3_20 
REMARK    7  A    between atoms: N3_20  and  C14_22 
REMARK    8  A    between atoms: C17_29  and  C18_30 
REMARK    9  A    between atoms: C18_30  and  N6_31 
ROOT
HETATM    1  C13 UNL     1      88.051 100.310 -44.736  1.00  0.00     0.234 C 
HETATM    2  O2  UNL     1      87.447 101.321 -45.232  1.00  0.00    -0.272 OA
HETATM    3  N3  UNL     1      87.323  99.533 -43.830  1.00  0.00    -0.311 N 
ATOM      4  H3  UNL     1      87.495  99.687 -42.836  1.00  0.00     0.170 HD
ENDROOT
BRANCH   1   5
HETATM    5  C12 UNL     1      89.452 100.004 -45.121  1.00  0.00     0.138 A 
HETATM    6  C2  UNL     1      90.396  99.348 -44.227  1.00  0.00     0.009 A 
HETATM    7  C1  UNL     1      91.850  99.778 -44.361  1.00  0.00     0.022 C 
HETATM    8  C3  UNL     1      89.993  98.881 -42.849  1.00  0.00     0.022 C 
HETATM    9  C4  UNL     1      89.795  98.563 -45.376  1.00  0.00     0.013 A 
HETATM   10  N1  UNL     1      89.616  97.527 -46.095  1.00  0.00    -0.333 N 
HETATM   11  C5  UNL     1      90.212  96.290 -45.898  1.00  0.00     0.223 C 
ATOM     12  H1  UNL     1      88.978  97.614 -46.887  1.00  0.00     0.168 HD
HETATM   13  O1  UNL     1      90.030  95.436 -46.848  1.00  0.00    -0.273 OA
BRANCH  11  14
HETATM   14  C6  UNL     1      91.006  95.867 -44.740  1.00  0.00     0.131 C 
BRANCH  14  15
HETATM   15  C7  UNL     1      92.124  94.931 -45.007  1.00  0.00     0.245 C 
BRANCH  15  16
HETATM   16  N2  UNL     1      92.154  93.689 -44.276  1.00  0.00    -0.073 N 
HETATM   17  C8  UNL     1      93.461  93.335 -43.744  1.00  0.00     0.272 C 
HETATM   18  C9  UNL     1      91.727  92.624 -45.129  1.00  0.00     0.272 C 
BRANCH  16  19
HETATM   19  C10 UNL     1      91.262  93.900 -43.135  1.00  0.00     0.247 C 
BRANCH  19  20
HETATM   20  C11 UNL     1      91.921  93.942 -41.808  1.00  0.00     0.113 C 
HETATM   21 BR1  UNL     1      91.669  95.759 -41.120  1.00  0.00    -0.095 Br
ENDBRANCH  19  20
ENDBRANCH  16  19
ENDBRANCH  15  16
ENDBRANCH  14  15
ENDBRANCH  11  14
ENDBRANCH   1   5
BRANCH   3  22
HETATM   22  C14 UNL     1      86.452  98.639 -44.150  1.00  0.00     0.133 A 
HETATM   23  N4  UNL     1      86.663  97.423 -44.692  1.00  0.00    -0.285 N 
HETATM   24  N5  UNL     1      85.515  96.798 -44.866  1.00  0.00    -0.300 N 
ATOM     25  H4  UNL     1      87.578  97.043 -44.933  1.00  0.00     0.188 HD
HETATM   26  C15 UNL     1      84.490  97.586 -44.440  1.00  0.00     0.062 A 
ATOM     27  H5  UNL     1      85.411  95.863 -45.262  1.00  0.00     0.186 HD
HETATM   28  C16 UNL     1      85.080  98.745 -43.990  1.00  0.00     0.044 A 
HETATM   29  C24 UNL     1      83.025  97.703 -44.260  1.00  0.00     0.228 A 
HETATM   30  C17 UNL     1      83.974  99.593 -43.531  1.00  0.00     0.186 A 
HETATM   31  O3  UNL     1      82.808  98.942 -43.763  1.00  0.00    -0.373 OA
BRANCH  30  32
HETATM   32  C18 UNL     1      84.013 101.014 -43.963  1.00  0.00     0.274 C 
BRANCH  32  33
HETATM   33  N6  UNL     1      84.101 102.015 -42.962  1.00  0.00    -0.068 N 
HETATM   34  C19 UNL     1      83.661 101.656 -41.650  1.00  0.00     0.272 C 
HETATM   35  C20 UNL     1      83.191 103.092 -43.400  1.00  0.00     0.237 C 
HETATM   36  C21 UNL     1      83.762 104.362 -42.881  1.00  0.00     0.029 C 
HETATM   37  C22 UNL     1      85.176 104.099 -42.502  1.00  0.00     0.029 C 
HETATM   38  C23 UNL     1      85.394 102.649 -42.833  1.00  0.00     0.237 C 
ENDBRANCH  32  33
ENDBRANCH  30  32
ENDBRANCH   3  22
TORSDOF 9
ENDMDL
