MODEL 1
REMARK VINA RESULT: -6.243178777      0.000      0.000
REMARK  12 active torsions:
REMARK  status: ('A' for Active; 'I' for Inactive)
REMARK    1  A    between atoms: C7_8  and  C8_9 
REMARK    2  A    between atoms: C8_9  and  C9_10 
REMARK    3  A    between atoms: C9_10  and  C10_11 
REMARK       I    between atoms: C10_11  and  N1_13 
REMARK    4  A    between atoms: N1_13  and  C11_15 
REMARK    5  A    between atoms: C11_15  and  C12_16 
REMARK    6  A    between atoms: C12_16  and  C13_17 
REMARK    7  A    between atoms: C14_18  and  C15_19 
REMARK    8  A    between atoms: C16_20  and  C17_21 
REMARK    9  A    between atoms: C22_29  and  C23_30 
REMARK       I    between atoms: C23_30  and  N3_32 
REMARK   10  A    between atoms: N3_32  and  C25_34 
REMARK   11  A    between atoms: N4_37  and  C28_38 
REMARK   12  A    between atoms: N5_39  and  N6_41 
ROOT
HETATM    1  C11 UNL     1      90.796 101.243 -44.376  1.00  0.00     0.203 C 
HETATM    2  N2  UNL     1      91.942 101.693 -45.234  1.00  0.00    -0.314 N 
ATOM      3  H2  UNL     1      92.391 101.188 -45.998  1.00  0.00     0.166 HD
HETATM    4  C21 UNL     1      92.257 102.982 -44.739  1.00  0.00     0.253 C 
HETATM    5  O2  UNL     1      92.808 103.865 -45.445  1.00  0.00    -0.271 OA
HETATM    6  C22 UNL     1      91.820 103.048 -43.314  1.00  0.00     0.273 C 
HETATM    7  N4  UNL     1      91.345 101.727 -43.092  1.00  0.00    -0.309 N 
ENDROOT
BRANCH   1   8
HETATM    8  N1  UNL     1      90.720  99.831 -44.389  1.00  0.00    -0.316 N 
HETATM    9  C10 UNL     1      90.797  98.884 -45.412  1.00  0.00     0.221 C 
HETATM   10  O1  UNL     1      90.985  99.202 -46.602  1.00  0.00    -0.273 OA
ATOM     11  H1  UNL     1      90.582  99.422 -43.465  1.00  0.00     0.166 HD
BRANCH   9  12
HETATM   12  C9  UNL     1      90.658  97.412 -45.150  1.00  0.00     0.107 C 
BRANCH  12  13
HETATM   13  C8  UNL     1      90.913  97.141 -43.696  1.00  0.00     0.048 C 
BRANCH  13  14
HETATM   14  C7  UNL     1      91.330  95.747 -43.457  1.00  0.00    -0.050 A 
HETATM   15  C2  UNL     1      91.709  95.258 -42.234  1.00  0.00    -0.056 A 
HETATM   16  C1  UNL     1      91.724  96.126 -41.031  1.00  0.00     0.049 C 
HETATM   17  C3  UNL     1      92.097  93.928 -42.055  1.00  0.00     0.009 A 
HETATM   18  C4  UNL     1      92.109  93.062 -43.123  1.00  0.00     0.024 A 
HETATM   19  C5  UNL     1      91.728  93.555 -44.354  1.00  0.00     0.034 A 
HETATM   20 CL1  UNL     1      91.740  92.454 -45.731  1.00  0.00    -0.084 Cl
HETATM   21  C6  UNL     1      91.344  94.866 -44.532  1.00  0.00     0.031 A 
ENDBRANCH  13  14
ENDBRANCH  12  13
ENDBRANCH   9  12
ENDBRANCH   1   8
BRANCH   1  22
HETATM   22  C12 UNL     1      89.650 102.028 -44.823  1.00  0.00     0.173 C 
BRANCH  22  23
HETATM   23  C13 UNL     1      88.359 101.417 -44.836  1.00  0.00    -0.086 C 
HETATM   24  C14 UNL     1      87.257 100.878 -44.792  1.00  0.00    -0.015 C 
BRANCH  24  25
HETATM   25  C15 UNL     1      85.995 100.244 -44.759  1.00  0.00    -0.014 C 
HETATM   26  C16 UNL     1      84.939  99.692 -44.741  1.00  0.00    -0.084 C 
BRANCH  26  27
HETATM   27  C17 UNL     1      83.646  99.000 -44.739  1.00  0.00     0.013 C 
HETATM   28  C18 UNL     1      82.585  99.916 -44.156  1.00  0.00     0.028 C 
HETATM   29  C19 UNL     1      83.742  97.769 -43.875  1.00  0.00     0.028 C 
HETATM   30  C20 UNL     1      83.283  98.576 -46.148  1.00  0.00     0.028 C 
ENDBRANCH  26  27
ENDBRANCH  24  25
ENDBRANCH  22  23
ENDBRANCH   1  22
BRANCH   7  31
HETATM   31  C28 UNL     1      91.358 100.954 -41.939  1.00  0.00     0.199 C 
HETATM   32  N5  UNL     1      92.425 100.345 -41.556  1.00  0.00    -0.303 N 
ATOM     33  H5  UNL     1      93.280 100.430 -42.107  1.00  0.00     0.187 HD
BRANCH  32  34
HETATM   34  N6  UNL     1      92.427  99.563 -40.385  1.00  0.00    -0.344 N 
ATOM     35  H62 UNL     1      91.534  99.246 -40.008  1.00  0.00     0.176 HD
ATOM     36  H61 UNL     1      93.303  99.318 -39.923  1.00  0.00     0.176 HD
ENDBRANCH  32  34
ENDBRANCH   7  31
BRANCH   6  37
HETATM   37  C23 UNL     1      92.911 103.497 -42.440  1.00  0.00     0.252 C 
HETATM   38  O3  UNL     1      94.043 102.931 -42.599  1.00  0.00    -0.270 OA
HETATM   39  N3  UNL     1      92.823 104.492 -41.449  1.00  0.00    -0.350 N 
HETATM   40  C24 UNL     1      91.570 105.187 -41.246  1.00  0.00     0.153 C 
BRANCH  39  41
HETATM   41  C25 UNL     1      93.956 104.838 -40.629  1.00  0.00     0.078 C 
HETATM   42  C26 UNL     1      93.876 104.167 -39.262  1.00  0.00     0.032 C 
HETATM   43  C27 UNL     1      94.072 106.322 -40.401  1.00  0.00     0.032 C 
ENDBRANCH  39  41
ENDBRANCH   6  37
TORSDOF 12
ENDMDL
MODEL 2
REMARK VINA RESULT: -6.099531915      3.312      5.608
REMARK  12 active torsions:
REMARK  status: ('A' for Active; 'I' for Inactive)
REMARK    1  A    between atoms: C7_8  and  C8_9 
REMARK    2  A    between atoms: C8_9  and  C9_10 
REMARK    3  A    between atoms: C9_10  and  C10_11 
REMARK       I    between atoms: C10_11  and  N1_13 
REMARK    4  A    between atoms: N1_13  and  C11_15 
REMARK    5  A    between atoms: C11_15  and  C12_16 
REMARK    6  A    between atoms: C12_16  and  C13_17 
REMARK    7  A    between atoms: C14_18  and  C15_19 
REMARK    8  A    between atoms: C16_20  and  C17_21 
REMARK    9  A    between atoms: C22_29  and  C23_30 
REMARK       I    between atoms: C23_30  and  N3_32 
REMARK   10  A    between atoms: N3_32  and  C25_34 
REMARK   11  A    between atoms: N4_37  and  C28_38 
REMARK   12  A    between atoms: N5_39  and  N6_41 
ROOT
HETATM    1  C11 UNL     1      91.113 100.551 -44.244  1.00  0.00     0.203 C 
HETATM    2  N2  UNL     1      92.535 100.436 -43.776  1.00  0.00    -0.314 N 
ATOM      3  H2  UNL     1      93.199  99.686 -43.965  1.00  0.00     0.166 HD
HETATM    4  C21 UNL     1      92.741 101.610 -43.011  1.00  0.00     0.253 C 
HETATM    5  O2  UNL     1      93.878 102.120 -42.845  1.00  0.00    -0.271 OA
HETATM    6  C22 UNL     1      91.416 102.063 -42.495  1.00  0.00     0.273 C 
HETATM    7  N4  UNL     1      90.553 101.037 -42.966  1.00  0.00    -0.309 N 
ENDROOT
BRANCH   1   8
HETATM    8  N1  UNL     1      90.612  99.266 -44.556  1.00  0.00    -0.316 N 
HETATM    9  C10 UNL     1      91.167  98.159 -45.201  1.00  0.00     0.221 C 
HETATM   10  O1  UNL     1      92.338  98.154 -45.627  1.00  0.00    -0.273 OA
ATOM     11  H1  UNL     1      89.651  99.118 -44.248  1.00  0.00     0.166 HD
BRANCH   9  12
HETATM   12  C9  UNL     1      90.390  96.895 -45.429  1.00  0.00     0.107 C 
BRANCH  12  13
HETATM   13  C8  UNL     1      91.342  95.740 -45.541  1.00  0.00     0.048 C 
BRANCH  13  14
HETATM   14  C7  UNL     1      91.550  95.066 -44.246  1.00  0.00    -0.050 A 
HETATM   15  C2  UNL     1      91.728  93.714 -44.106  1.00  0.00    -0.056 A 
HETATM   16  C1  UNL     1      91.722  92.812 -45.283  1.00  0.00     0.049 C 
HETATM   17  C3  UNL     1      91.922  93.119 -42.857  1.00  0.00     0.009 A 
HETATM   18  C4  UNL     1      91.940  93.890 -41.718  1.00  0.00     0.024 A 
HETATM   19  C5  UNL     1      91.761  95.250 -41.861  1.00  0.00     0.034 A 
HETATM   20 CL1  UNL     1      91.781  96.249 -40.409  1.00  0.00    -0.084 Cl
HETATM   21  C6  UNL     1      91.569  95.839 -43.092  1.00  0.00     0.031 A 
ENDBRANCH  13  14
ENDBRANCH  12  13
ENDBRANCH   9  12
ENDBRANCH   1   8
BRANCH   1  22
HETATM   22  C12 UNL     1      91.130 101.585 -45.273  1.00  0.00     0.173 C 
BRANCH  22  23
HETATM   23  C13 UNL     1      91.878 101.355 -46.469  1.00  0.00    -0.086 C 
HETATM   24  C14 UNL     1      92.483 101.114 -47.508  1.00  0.00    -0.015 C 
BRANCH  24  25
HETATM   25  C15 UNL     1      93.201 100.833 -48.692  1.00  0.00    -0.014 C 
HETATM   26  C16 UNL     1      93.819 100.612 -49.687  1.00  0.00    -0.084 C 
BRANCH  26  27
HETATM   27  C17 UNL     1      94.587 100.364 -50.913  1.00  0.00     0.013 C 
HETATM   28  C18 UNL     1      95.018  98.910 -50.951  1.00  0.00     0.028 C 
HETATM   29  C19 UNL     1      95.821 101.229 -50.909  1.00  0.00     0.028 C 
HETATM   30  C20 UNL     1      93.751 100.716 -52.127  1.00  0.00     0.028 C 
ENDBRANCH  26  27
ENDBRANCH  24  25
ENDBRANCH  22  23
ENDBRANCH   1  22
BRANCH   7  31
HETATM   31  C28 UNL     1      89.395 100.515 -42.405  1.00  0.00     0.199 C 
HETATM   32  N5  UNL     1      88.247 101.054 -42.623  1.00  0.00    -0.303 N 
ATOM     33  H5  UNL     1      88.182 101.879 -43.219  1.00  0.00     0.187 HD
BRANCH  32  34
HETATM   34  N6  UNL     1      87.078 100.516 -42.049  1.00  0.00    -0.344 N 
ATOM     35  H62 UNL     1      86.334 101.155 -41.768  1.00  0.00     0.176 HD
ATOM     36  H61 UNL     1      86.978  99.511 -41.915  1.00  0.00     0.176 HD
ENDBRANCH  32  34
ENDBRANCH   7  31
BRANCH   6  37
HETATM   37  C23 UNL     1      91.448 102.265 -41.042  1.00  0.00     0.252 C 
HETATM   38  O3  UNL     1      91.943 101.319 -40.342  1.00  0.00    -0.270 OA
HETATM   39  N3  UNL     1      90.986 103.400 -40.352  1.00  0.00    -0.350 N 
HETATM   40  C24 UNL     1      90.441 104.514 -41.097  1.00  0.00     0.153 C 
BRANCH  39  41
HETATM   41  C25 UNL     1      91.044 103.482 -38.915  1.00  0.00     0.078 C 
HETATM   42  C26 UNL     1      89.914 104.345 -38.362  1.00  0.00     0.032 C 
HETATM   43  C27 UNL     1      92.343 104.062 -38.421  1.00  0.00     0.032 C 
ENDBRANCH  39  41
ENDBRANCH   6  37
TORSDOF 12
ENDMDL
MODEL 3
REMARK VINA RESULT: -6.077338803      0.828      1.185
REMARK  12 active torsions:
REMARK  status: ('A' for Active; 'I' for Inactive)
REMARK    1  A    between atoms: C7_8  and  C8_9 
REMARK    2  A    between atoms: C8_9  and  C9_10 
REMARK    3  A    between atoms: C9_10  and  C10_11 
REMARK       I    between atoms: C10_11  and  N1_13 
REMARK    4  A    between atoms: N1_13  and  C11_15 
REMARK    5  A    between atoms: C11_15  and  C12_16 
REMARK    6  A    between atoms: C12_16  and  C13_17 
REMARK    7  A    between atoms: C14_18  and  C15_19 
REMARK    8  A    between atoms: C16_20  and  C17_21 
REMARK    9  A    between atoms: C22_29  and  C23_30 
REMARK       I    between atoms: C23_30  and  N3_32 
REMARK   10  A    between atoms: N3_32  and  C25_34 
REMARK   11  A    between atoms: N4_37  and  C28_38 
REMARK   12  A    between atoms: N5_39  and  N6_41 
ROOT
HETATM    1  C11 UNL     1      90.621 101.247 -44.145  1.00  0.00     0.203 C 
HETATM    2  N2  UNL     1      91.642 101.967 -44.976  1.00  0.00    -0.314 N 
ATOM      3  H2  UNL     1      92.171 101.609 -45.772  1.00  0.00     0.166 HD
HETATM    4  C21 UNL     1      91.704 103.260 -44.402  1.00  0.00     0.253 C 
HETATM    5  O2  UNL     1      92.060 104.276 -45.053  1.00  0.00    -0.271 OA
HETATM    6  C22 UNL     1      91.284 103.151 -42.974  1.00  0.00     0.273 C 
HETATM    7  N4  UNL     1      91.083 101.751 -42.835  1.00  0.00    -0.309 N 
ENDROOT
BRANCH   1   8
HETATM    8  N1  UNL     1      90.826  99.852 -44.247  1.00  0.00    -0.316 N 
HETATM    9  C10 UNL     1      91.040  98.999 -45.331  1.00  0.00     0.221 C 
HETATM   10  O1  UNL     1      91.105  99.415 -46.504  1.00  0.00    -0.273 OA
ATOM     11  H1  UNL     1      90.814  99.372 -43.348  1.00  0.00     0.166 HD
BRANCH   9  12
HETATM   12  C9  UNL     1      91.207  97.516 -45.160  1.00  0.00     0.107 C 
BRANCH  12  13
HETATM   13  C8  UNL     1      90.999  97.157 -43.718  1.00  0.00     0.048 C 
BRANCH  13  14
HETATM   14  C7  UNL     1      91.377  95.760 -43.435  1.00  0.00    -0.050 A 
HETATM   15  C2  UNL     1      91.700  95.290 -42.188  1.00  0.00    -0.056 A 
HETATM   16  C1  UNL     1      91.690  96.183 -41.005  1.00  0.00     0.049 C 
HETATM   17  C3  UNL     1      92.052  93.956 -41.968  1.00  0.00     0.009 A 
HETATM   18  C4  UNL     1      92.083  93.066 -43.016  1.00  0.00     0.024 A 
HETATM   19  C5  UNL     1      91.758  93.540 -44.270  1.00  0.00     0.034 A 
HETATM   20 CL1  UNL     1      91.796  92.410 -45.623  1.00  0.00    -0.084 Cl
HETATM   21  C6  UNL     1      91.410  94.856 -44.490  1.00  0.00     0.031 A 
ENDBRANCH  13  14
ENDBRANCH  12  13
ENDBRANCH   9  12
ENDBRANCH   1   8
BRANCH   1  22
HETATM   22  C12 UNL     1      89.336 101.815 -44.539  1.00  0.00     0.173 C 
BRANCH  22  23
HETATM   23  C13 UNL     1      88.234 100.936 -44.767  1.00  0.00    -0.086 C 
HETATM   24  C14 UNL     1      87.317 100.138 -44.936  1.00  0.00    -0.015 C 
BRANCH  24  25
HETATM   25  C15 UNL     1      86.263  99.223 -45.155  1.00  0.00    -0.014 C 
HETATM   26  C16 UNL     1      85.378  98.451 -45.359  1.00  0.00    -0.084 C 
BRANCH  26  27
HETATM   27  C17 UNL     1      84.290  97.507 -45.634  1.00  0.00     0.013 C 
HETATM   28  C18 UNL     1      84.875  96.168 -46.043  1.00  0.00     0.028 C 
HETATM   29  C19 UNL     1      83.453  98.031 -46.773  1.00  0.00     0.028 C 
HETATM   30  C20 UNL     1      83.408  97.364 -44.410  1.00  0.00     0.028 C 
ENDBRANCH  26  27
ENDBRANCH  24  25
ENDBRANCH  22  23
ENDBRANCH   1  22
BRANCH   7  31
HETATM   31  C28 UNL     1      91.265 100.926 -41.733  1.00  0.00     0.199 C 
HETATM   32  N5  UNL     1      92.424 100.448 -41.443  1.00  0.00    -0.303 N 
ATOM     33  H5  UNL     1      93.226 100.678 -42.030  1.00  0.00     0.187 HD
BRANCH  32  34
HETATM   34  N6  UNL     1      92.599  99.612 -40.323  1.00  0.00    -0.344 N 
ATOM     35  H62 UNL     1      92.117  98.713 -40.304  1.00  0.00     0.176 HD
ATOM     36  H61 UNL     1      93.193  99.899 -39.545  1.00  0.00     0.176 HD
ENDBRANCH  32  34
ENDBRANCH   7  31
BRANCH   6  37
HETATM   37  C23 UNL     1      92.278 103.753 -42.077  1.00  0.00     0.252 C 
HETATM   38  O3  UNL     1      93.489 103.386 -42.233  1.00  0.00    -0.270 OA
HETATM   39  N3  UNL     1      92.017 104.695 -41.065  1.00  0.00    -0.350 N 
HETATM   40  C24 UNL     1      90.665 105.168 -40.862  1.00  0.00     0.153 C 
BRANCH  39  41
HETATM   41  C25 UNL     1      93.070 105.203 -40.222  1.00  0.00     0.078 C 
HETATM   42  C26 UNL     1      93.111 104.472 -38.885  1.00  0.00     0.032 C 
HETATM   43  C27 UNL     1      92.918 106.673 -39.933  1.00  0.00     0.032 C 
ENDBRANCH  39  41
ENDBRANCH   6  37
TORSDOF 12
ENDMDL
MODEL 4
REMARK VINA RESULT: -6.068275633      3.340      5.454
REMARK  12 active torsions:
REMARK  status: ('A' for Active; 'I' for Inactive)
REMARK    1  A    between atoms: C7_8  and  C8_9 
REMARK    2  A    between atoms: C8_9  and  C9_10 
REMARK    3  A    between atoms: C9_10  and  C10_11 
REMARK       I    between atoms: C10_11  and  N1_13 
REMARK    4  A    between atoms: N1_13  and  C11_15 
REMARK    5  A    between atoms: C11_15  and  C12_16 
REMARK    6  A    between atoms: C12_16  and  C13_17 
REMARK    7  A    between atoms: C14_18  and  C15_19 
REMARK    8  A    between atoms: C16_20  and  C17_21 
REMARK    9  A    between atoms: C22_29  and  C23_30 
REMARK       I    between atoms: C23_30  and  N3_32 
REMARK   10  A    between atoms: N3_32  and  C25_34 
REMARK   11  A    between atoms: N4_37  and  C28_38 
REMARK   12  A    between atoms: N5_39  and  N6_41 
ROOT
HETATM    1  C11 UNL     1      92.041 101.508 -43.743  1.00  0.00     0.203 C 
HETATM    2  N2  UNL     1      93.458 101.425 -43.255  1.00  0.00    -0.314 N 
ATOM      3  H2  UNL     1      94.149 100.703 -43.454  1.00  0.00     0.166 HD
HETATM    4  C21 UNL     1      93.613 102.583 -42.454  1.00  0.00     0.253 C 
HETATM    5  O2  UNL     1      94.730 103.125 -42.255  1.00  0.00    -0.271 OA
HETATM    6  C22 UNL     1      92.266 102.978 -41.948  1.00  0.00     0.273 C 
HETATM    7  N4  UNL     1      91.445 101.939 -42.462  1.00  0.00    -0.309 N 
ENDROOT
BRANCH   1   8
HETATM    8  N1  UNL     1      91.586 100.217 -44.099  1.00  0.00    -0.316 N 
HETATM    9  C10 UNL     1      92.222  99.105 -44.657  1.00  0.00     0.221 C 
HETATM   10  O1  UNL     1      93.437  99.101 -44.934  1.00  0.00    -0.273 OA
ATOM     11  H1  UNL     1      90.596 100.067 -43.911  1.00  0.00     0.166 HD
BRANCH   9  12
HETATM   12  C9  UNL     1      91.483  97.835 -44.965  1.00  0.00     0.107 C 
BRANCH  12  13
HETATM   13  C8  UNL     1      90.908  97.275 -43.696  1.00  0.00     0.048 C 
BRANCH  13  14
HETATM   14  C7  UNL     1      91.303  95.871 -43.480  1.00  0.00    -0.050 A 
HETATM   15  C2  UNL     1      91.677  95.358 -42.265  1.00  0.00    -0.056 A 
HETATM   16  C1  UNL     1      91.712  96.208 -41.050  1.00  0.00     0.049 C 
HETATM   17  C3  UNL     1      92.044  94.020 -42.108  1.00  0.00     0.009 A 
HETATM   18  C4  UNL     1      92.038  93.169 -43.189  1.00  0.00     0.024 A 
HETATM   19  C5  UNL     1      91.660  93.687 -44.410  1.00  0.00     0.034 A 
HETATM   20 CL1  UNL     1      91.649  92.606 -45.804  1.00  0.00    -0.084 Cl
HETATM   21  C6  UNL     1      91.298  95.007 -44.568  1.00  0.00     0.031 A 
ENDBRANCH  13  14
ENDBRANCH  12  13
ENDBRANCH   9  12
ENDBRANCH   1   8
BRANCH   1  22
HETATM   22  C12 UNL     1      92.040 102.571 -44.743  1.00  0.00     0.173 C 
BRANCH  22  23
HETATM   23  C13 UNL     1      92.645 102.323 -46.013  1.00  0.00    -0.086 C 
HETATM   24  C14 UNL     1      93.124 102.069 -47.114  1.00  0.00    -0.015 C 
BRANCH  24  25
HETATM   25  C15 UNL     1      93.696 101.772 -48.371  1.00  0.00    -0.014 C 
HETATM   26  C16 UNL     1      94.198 101.523 -49.423  1.00  0.00    -0.084 C 
BRANCH  26  27
HETATM   27  C17 UNL     1      94.837 101.228 -50.710  1.00  0.00     0.013 C 
HETATM   28  C18 UNL     1      93.968 101.756 -51.836  1.00  0.00     0.028 C 
HETATM   29  C19 UNL     1      94.969  99.735 -50.868  1.00  0.00     0.028 C 
HETATM   30  C20 UNL     1      96.220 101.844 -50.755  1.00  0.00     0.028 C 
ENDBRANCH  26  27
ENDBRANCH  24  25
ENDBRANCH  22  23
ENDBRANCH   1  22
BRANCH   7  31
HETATM   31  C28 UNL     1      90.296 101.364 -41.935  1.00  0.00     0.199 C 
HETATM   32  N5  UNL     1      89.130 101.667 -42.388  1.00  0.00    -0.303 N 
ATOM     33  H5  UNL     1      89.045 102.341 -43.149  1.00  0.00     0.187 HD
BRANCH  32  34
HETATM   34  N6  UNL     1      87.971 101.078 -41.846  1.00  0.00    -0.344 N 
ATOM     35  H62 UNL     1      87.874 100.063 -41.886  1.00  0.00     0.176 HD
ATOM     36  H61 UNL     1      87.242 101.653 -41.424  1.00  0.00     0.176 HD
ENDBRANCH  32  34
ENDBRANCH   7  31
BRANCH   6  37
HETATM   37  C23 UNL     1      92.269 103.139 -40.489  1.00  0.00     0.252 C 
HETATM   38  O3  UNL     1      92.874 102.241 -39.814  1.00  0.00    -0.270 OA
HETATM   39  N3  UNL     1      91.669 104.188 -39.770  1.00  0.00    -0.350 N 
HETATM   40  C24 UNL     1      90.993 105.249 -40.486  1.00  0.00     0.153 C 
BRANCH  39  41
HETATM   41  C25 UNL     1      91.711 104.234 -38.330  1.00  0.00     0.078 C 
HETATM   42  C26 UNL     1      90.419 103.702 -37.720  1.00  0.00     0.032 C 
HETATM   43  C27 UNL     1      91.924 105.628 -37.803  1.00  0.00     0.032 C 
ENDBRANCH  39  41
ENDBRANCH   6  37
TORSDOF 12
ENDMDL
MODEL 5
REMARK VINA RESULT: -6.038136952      4.351      7.331
REMARK  12 active torsions:
REMARK  status: ('A' for Active; 'I' for Inactive)
REMARK    1  A    between atoms: C7_8  and  C8_9 
REMARK    2  A    between atoms: C8_9  and  C9_10 
REMARK    3  A    between atoms: C9_10  and  C10_11 
REMARK       I    between atoms: C10_11  and  N1_13 
REMARK    4  A    between atoms: N1_13  and  C11_15 
REMARK    5  A    between atoms: C11_15  and  C12_16 
REMARK    6  A    between atoms: C12_16  and  C13_17 
REMARK    7  A    between atoms: C14_18  and  C15_19 
REMARK    8  A    between atoms: C16_20  and  C17_21 
REMARK    9  A    between atoms: C22_29  and  C23_30 
REMARK       I    between atoms: C23_30  and  N3_32 
REMARK   10  A    between atoms: N3_32  and  C25_34 
REMARK   11  A    between atoms: N4_37  and  C28_38 
REMARK   12  A    between atoms: N5_39  and  N6_41 
ROOT
HETATM    1  C11 UNL     1      87.518  98.096 -46.693  1.00  0.00     0.203 C 
HETATM    2  N2  UNL     1      87.705  99.322 -47.539  1.00  0.00    -0.314 N 
ATOM      3  H2  UNL     1      88.559  99.650 -47.989  1.00  0.00     0.166 HD
HETATM    4  C21 UNL     1      86.420  99.917 -47.569  1.00  0.00     0.253 C 
HETATM    5  O2  UNL     1      86.038 100.662 -48.508  1.00  0.00    -0.271 OA
HETATM    6  C22 UNL     1      85.688  99.495 -46.339  1.00  0.00     0.273 C 
HETATM    7  N4  UNL     1      86.674  98.729 -45.660  1.00  0.00    -0.309 N 
ENDROOT
BRANCH   1   8
HETATM    8  N1  UNL     1      88.763  97.701 -46.152  1.00  0.00    -0.316 N 
HETATM    9  C10 UNL     1      89.891  98.414 -45.740  1.00  0.00     0.221 C 
HETATM   10  O1  UNL     1      89.947  99.658 -45.787  1.00  0.00    -0.273 OA
ATOM     11  H1  UNL     1      88.856  96.692 -46.038  1.00  0.00     0.166 HD
BRANCH   9  12
HETATM   12  C9  UNL     1      91.119  97.730 -45.211  1.00  0.00     0.107 C 
BRANCH  12  13
HETATM   13  C8  UNL     1      90.892  97.339 -43.780  1.00  0.00     0.048 C 
BRANCH  13  14
HETATM   14  C7  UNL     1      91.279  95.940 -43.520  1.00  0.00    -0.050 A 
HETATM   15  C2  UNL     1      91.640  95.460 -42.288  1.00  0.00    -0.056 A 
HETATM   16  C1  UNL     1      91.667  96.344 -41.098  1.00  0.00     0.049 C 
HETATM   17  C3  UNL     1      91.999  94.125 -42.090  1.00  0.00     0.009 A 
HETATM   18  C4  UNL     1      91.998  93.243 -43.146  1.00  0.00     0.024 A 
HETATM   19  C5  UNL     1      91.634  93.727 -44.385  1.00  0.00     0.034 A 
HETATM   20 CL1  UNL     1      91.630  92.608 -45.747  1.00  0.00    -0.084 Cl
HETATM   21  C6  UNL     1      91.280  95.044 -44.583  1.00  0.00     0.031 A 
ENDBRANCH  13  14
ENDBRANCH  12  13
ENDBRANCH   9  12
ENDBRANCH   1   8
BRANCH   1  22
HETATM   22  C12 UNL     1      86.770  97.163 -47.529  1.00  0.00     0.173 C 
BRANCH  22  23
HETATM   23  C13 UNL     1      87.491  96.246 -48.355  1.00  0.00    -0.086 C 
HETATM   24  C14 UNL     1      88.067  95.420 -49.056  1.00  0.00    -0.015 C 
BRANCH  24  25
HETATM   25  C15 UNL     1      88.751  94.471 -49.848  1.00  0.00    -0.014 C 
HETATM   26  C16 UNL     1      89.315  93.674 -50.531  1.00  0.00    -0.084 C 
BRANCH  26  27
HETATM   27  C17 UNL     1      89.989  92.691 -51.386  1.00  0.00     0.013 C 
HETATM   28  C18 UNL     1      90.835  93.416 -52.417  1.00  0.00     0.028 C 
HETATM   29  C19 UNL     1      88.954  91.869 -52.110  1.00  0.00     0.028 C 
HETATM   30  C20 UNL     1      90.839  91.765 -50.540  1.00  0.00     0.028 C 
ENDBRANCH  26  27
ENDBRANCH  24  25
ENDBRANCH  22  23
ENDBRANCH   1  22
BRANCH   7  31
HETATM   31  C28 UNL     1      86.891  98.555 -44.300  1.00  0.00     0.199 C 
HETATM   32  N5  UNL     1      87.517  99.440 -43.606  1.00  0.00    -0.303 N 
ATOM     33  H5  UNL     1      87.861 100.286 -44.060  1.00  0.00     0.187 HD
BRANCH  32  34
HETATM   34  N6  UNL     1      87.732  99.254 -42.226  1.00  0.00    -0.344 N 
ATOM     35  H62 UNL     1      88.608  98.830 -41.921  1.00  0.00     0.176 HD
ATOM     36  H61 UNL     1      87.026  99.534 -41.546  1.00  0.00     0.176 HD
ENDBRANCH  32  34
ENDBRANCH   7  31
BRANCH   6  37
HETATM   37  C23 UNL     1      85.152 100.652 -45.611  1.00  0.00     0.252 C 
HETATM   38  O3  UNL     1      85.963 101.609 -45.380  1.00  0.00    -0.270 OA
HETATM   39  N3  UNL     1      83.833 100.801 -45.148  1.00  0.00    -0.350 N 
HETATM   40  C24 UNL     1      82.863  99.759 -45.407  1.00  0.00     0.153 C 
BRANCH  39  41
HETATM   41  C25 UNL     1      83.420 101.974 -44.419  1.00  0.00     0.078 C 
HETATM   42  C26 UNL     1      82.652 101.599 -43.156  1.00  0.00     0.032 C 
HETATM   43  C27 UNL     1      82.539 102.881 -45.236  1.00  0.00     0.032 C 
ENDBRANCH  39  41
ENDBRANCH   6  37
TORSDOF 12
ENDMDL
