MODEL 1
REMARK VINA RESULT: -6.544405398      0.000      0.000
REMARK  9 active torsions:
REMARK  status: ('A' for Active; 'I' for Inactive)
REMARK    1  A    between atoms: C2_2  and  N1_4 
REMARK       I    between atoms: N1_4  and  C4_6 
REMARK    2  A    between atoms: C4_6  and  C5_8 
REMARK    3  A    between atoms: C5_8  and  C6_9 
REMARK    4  A    between atoms: C5_8  and  N2_18 
REMARK    5  A    between atoms: C6_9  and  C7_10 
REMARK    6  A    between atoms: C7_10  and  C8_11 
REMARK       I    between atoms: N2_18  and  C14_20 
REMARK       I    between atoms: C14_20  and  N3_22 
REMARK    7  A    between atoms: N3_22  and  C15_24 
REMARK    8  A    between atoms: C15_24  and  C16_26 
REMARK    9  A    between atoms: C16_26  and  N4_27 
ROOT
HETATM    1  N2  UNL     1      89.647  99.073 -42.526  1.00  0.00    -0.330 N 
ATOM      2  H2  UNL     1      89.358  98.632 -41.653  1.00  0.00     0.165 HD
HETATM    3  C14 UNL     1      88.661  99.618 -43.435  1.00  0.00     0.321 C 
HETATM    4  O2  UNL     1      89.037 100.154 -44.492  1.00  0.00    -0.247 OA
HETATM    5  N3  UNL     1      87.326  99.486 -43.021  1.00  0.00    -0.301 N 
ATOM      6  H3  UNL     1      87.163  99.032 -42.123  1.00  0.00     0.171 HD
ENDROOT
BRANCH   1   7
HETATM    7  C5  UNL     1      91.016  99.161 -42.867  1.00  0.00     0.178 C 
BRANCH   7   8
HETATM    8  C4  UNL     1      91.565 100.456 -42.322  1.00  0.00     0.240 C 
HETATM    9  N1  UNL     1      91.570 100.674 -40.931  1.00  0.00    -0.355 N 
ATOM     10  H1  UNL     1      91.204  99.965 -40.296  1.00  0.00     0.162 HD
HETATM   11  O1  UNL     1      92.015 101.325 -43.111  1.00  0.00    -0.271 OA
BRANCH   9  12
HETATM   12  C2  UNL     1      92.104 101.925 -40.410  1.00  0.00     0.076 C 
HETATM   13  C1  UNL     1      91.078 102.462 -39.429  1.00  0.00     0.032 C 
HETATM   14  C3  UNL     1      93.412 101.640 -39.674  1.00  0.00     0.032 C 
ENDBRANCH   9  12
ENDBRANCH   7   8
BRANCH   7  15
HETATM   15  C6  UNL     1      91.918  98.066 -42.407  1.00  0.00     0.039 C 
BRANCH  15  16
HETATM   16  C7  UNL     1      91.235  96.870 -41.816  1.00  0.00     0.041 C 
BRANCH  16  17
HETATM   17  C8  UNL     1      91.361  95.780 -42.852  1.00  0.00    -0.058 A 
HETATM   18  C9  UNL     1      91.699  94.495 -42.485  1.00  0.00     0.008 A 
HETATM   19  C10 UNL     1      91.811  93.529 -43.436  1.00  0.00     0.019 A 
HETATM   20  C11 UNL     1      91.604  93.752 -44.779  1.00  0.00     0.011 A 
HETATM   21 BR1  UNL     1      91.774  92.358 -46.077  1.00  0.00    -0.051 Br
HETATM   22  C12 UNL     1      91.266  95.048 -45.135  1.00  0.00     0.019 A 
HETATM   23  C13 UNL     1      91.148  96.037 -44.183  1.00  0.00     0.008 A 
ENDBRANCH  16  17
ENDBRANCH  15  16
ENDBRANCH   7  15
ENDBRANCH   1   7
BRANCH   5  24
HETATM   24  C15 UNL     1      86.202  99.918 -43.723  1.00  0.00     0.107 C 
HETATM   25  S1  UNL     1      85.149 100.994 -42.969  1.00  0.00    -0.063 SA
BRANCH  24  26
HETATM   26  C16 UNL     1      85.830  99.480 -45.072  1.00  0.00     0.306 C 
BRANCH  26  27
HETATM   27  N4  UNL     1      85.092  98.223 -44.969  1.00  0.00    -0.062 N 
HETATM   28  C17 UNL     1      85.174  97.605 -43.681  1.00  0.00     0.273 C 
HETATM   29  C18 UNL     1      83.711  98.520 -45.320  1.00  0.00     0.265 C 
HETATM   30  C19 UNL     1      82.868  97.299 -45.469  1.00  0.00     0.264 C 
HETATM   31  N5  UNL     1      83.436  96.326 -46.348  1.00  0.00    -0.071 N 
HETATM   32  C20 UNL     1      83.300  96.698 -47.747  1.00  0.00     0.272 C 
HETATM   33  C21 UNL     1      82.698  95.075 -46.147  1.00  0.00     0.272 C 
HETATM   34  C22 UNL     1      84.817  96.049 -46.093  1.00  0.00     0.264 C 
HETATM   35  C23 UNL     1      85.619  97.332 -45.985  1.00  0.00     0.265 C 
ENDBRANCH  26  27
ENDBRANCH  24  26
ENDBRANCH   5  24
TORSDOF 9
ENDMDL
MODEL 2
REMARK VINA RESULT: -6.499298807      0.926      1.780
REMARK  9 active torsions:
REMARK  status: ('A' for Active; 'I' for Inactive)
REMARK    1  A    between atoms: C2_2  and  N1_4 
REMARK       I    between atoms: N1_4  and  C4_6 
REMARK    2  A    between atoms: C4_6  and  C5_8 
REMARK    3  A    between atoms: C5_8  and  C6_9 
REMARK    4  A    between atoms: C5_8  and  N2_18 
REMARK    5  A    between atoms: C6_9  and  C7_10 
REMARK    6  A    between atoms: C7_10  and  C8_11 
REMARK       I    between atoms: N2_18  and  C14_20 
REMARK       I    between atoms: C14_20  and  N3_22 
REMARK    7  A    between atoms: N3_22  and  C15_24 
REMARK    8  A    between atoms: C15_24  and  C16_26 
REMARK    9  A    between atoms: C16_26  and  N4_27 
ROOT
HETATM    1  N2  UNL     1      89.515  98.964 -42.526  1.00  0.00    -0.330 N 
ATOM      2  H2  UNL     1      89.330  98.595 -41.595  1.00  0.00     0.165 HD
HETATM    3  C14 UNL     1      88.423  99.319 -43.407  1.00  0.00     0.321 C 
HETATM    4  O2  UNL     1      88.673  99.771 -44.538  1.00  0.00    -0.247 OA
HETATM    5  N3  UNL     1      87.138  99.115 -42.881  1.00  0.00    -0.301 N 
ATOM      6  H3  UNL     1      87.080  98.747 -41.931  1.00  0.00     0.171 HD
ENDROOT
BRANCH   1   7
HETATM    7  C5  UNL     1      90.843  99.136 -42.978  1.00  0.00     0.178 C 
BRANCH   7   8
HETATM    8  C4  UNL     1      91.369 100.443 -42.441  1.00  0.00     0.240 C 
HETATM    9  N1  UNL     1      91.449 100.637 -41.049  1.00  0.00    -0.355 N 
ATOM     10  H1  UNL     1      91.152  99.902 -40.408  1.00  0.00     0.162 HD
HETATM   11  O1  UNL     1      91.733 101.346 -43.238  1.00  0.00    -0.271 OA
BRANCH   9  12
HETATM   12  C2  UNL     1      91.960 101.901 -40.535  1.00  0.00     0.076 C 
HETATM   13  C1  UNL     1      90.953 102.396 -39.514  1.00  0.00     0.032 C 
HETATM   14  C3  UNL     1      93.302 101.653 -39.848  1.00  0.00     0.032 C 
ENDBRANCH   9  12
ENDBRANCH   7   8
BRANCH   7  15
HETATM   15  C6  UNL     1      91.837  98.079 -42.632  1.00  0.00     0.039 C 
BRANCH  15  16
HETATM   16  C7  UNL     1      91.280  96.863 -41.958  1.00  0.00     0.041 C 
BRANCH  16  17
HETATM   17  C8  UNL     1      91.407  95.748 -42.968  1.00  0.00    -0.058 A 
HETATM   18  C9  UNL     1      91.200  95.986 -44.309  1.00  0.00     0.008 A 
HETATM   19  C10 UNL     1      91.317  94.966 -45.201  1.00  0.00     0.019 A 
HETATM   20  C11 UNL     1      91.637  93.675 -44.847  1.00  0.00     0.011 A 
HETATM   21 BR1  UNL     1      91.789  92.275 -46.141  1.00  0.00    -0.051 Br
HETATM   22  C12 UNL     1      91.843  93.449 -43.494  1.00  0.00     0.019 A 
HETATM   23  C13 UNL     1      91.728  94.472 -42.579  1.00  0.00     0.008 A 
ENDBRANCH  16  17
ENDBRANCH  15  16
ENDBRANCH   7  15
ENDBRANCH   1   7
BRANCH   5  24
HETATM   24  C15 UNL     1      85.933  99.369 -43.534  1.00  0.00     0.107 C 
HETATM   25  S1  UNL     1      85.390 100.960 -43.628  1.00  0.00    -0.063 SA
BRANCH  24  26
HETATM   26  C16 UNL     1      85.062  98.348 -44.123  1.00  0.00     0.306 C 
BRANCH  26  27
HETATM   27  N4  UNL     1      85.350  98.254 -45.552  1.00  0.00    -0.062 N 
HETATM   28  C17 UNL     1      85.838  99.469 -46.127  1.00  0.00     0.273 C 
HETATM   29  C18 UNL     1      86.312  97.174 -45.714  1.00  0.00     0.265 C 
HETATM   30  C19 UNL     1      86.550  96.809 -47.140  1.00  0.00     0.264 C 
HETATM   31  N5  UNL     1      85.346  96.553 -47.865  1.00  0.00    -0.071 N 
HETATM   32  C20 UNL     1      84.769  95.258 -47.538  1.00  0.00     0.272 C 
HETATM   33  C21 UNL     1      85.691  96.538 -49.290  1.00  0.00     0.272 C 
HETATM   34  C22 UNL     1      84.335  97.550 -47.683  1.00  0.00     0.264 C 
HETATM   35  C23 UNL     1      84.123  97.847 -46.211  1.00  0.00     0.265 C 
ENDBRANCH  26  27
ENDBRANCH  24  26
ENDBRANCH   5  24
TORSDOF 9
ENDMDL
MODEL 3
REMARK VINA RESULT: -6.486689367      2.171      3.274
REMARK  9 active torsions:
REMARK  status: ('A' for Active; 'I' for Inactive)
REMARK    1  A    between atoms: C2_2  and  N1_4 
REMARK       I    between atoms: N1_4  and  C4_6 
REMARK    2  A    between atoms: C4_6  and  C5_8 
REMARK    3  A    between atoms: C5_8  and  C6_9 
REMARK    4  A    between atoms: C5_8  and  N2_18 
REMARK    5  A    between atoms: C6_9  and  C7_10 
REMARK    6  A    between atoms: C7_10  and  C8_11 
REMARK       I    between atoms: N2_18  and  C14_20 
REMARK       I    between atoms: C14_20  and  N3_22 
REMARK    7  A    between atoms: N3_22  and  C15_24 
REMARK    8  A    between atoms: C15_24  and  C16_26 
REMARK    9  A    between atoms: C16_26  and  N4_27 
ROOT
HETATM    1  N2  UNL     1      89.271  98.903 -42.947  1.00  0.00    -0.330 N 
ATOM      2  H2  UNL     1      88.948  98.674 -42.008  1.00  0.00     0.165 HD
HETATM    3  C14 UNL     1      88.365  98.829 -44.074  1.00  0.00     0.321 C 
HETATM    4  O2  UNL     1      88.780  99.115 -45.210  1.00  0.00    -0.247 OA
HETATM    5  N3  UNL     1      87.055  98.429 -43.765  1.00  0.00    -0.301 N 
ATOM      6  H3  UNL     1      86.850  98.235 -42.785  1.00  0.00     0.171 HD
ENDROOT
BRANCH   1   7
HETATM    7  C5  UNL     1      90.610  99.295 -43.170  1.00  0.00     0.178 C 
BRANCH   7   8
HETATM    8  C4  UNL     1      90.921 100.471 -42.279  1.00  0.00     0.240 C 
HETATM    9  N1  UNL     1      92.263 100.847 -42.073  1.00  0.00    -0.355 N 
ATOM     10  H1  UNL     1      93.018 100.329 -42.521  1.00  0.00     0.162 HD
HETATM   11  O1  UNL     1      89.985 101.105 -41.730  1.00  0.00    -0.271 OA
BRANCH   9  12
HETATM   12  C2  UNL     1      92.558 101.985 -41.214  1.00  0.00     0.076 C 
HETATM   13  C1  UNL     1      93.058 101.420 -39.898  1.00  0.00     0.032 C 
HETATM   14  C3  UNL     1      93.660 102.824 -41.859  1.00  0.00     0.032 C 
ENDBRANCH   9  12
ENDBRANCH   7   8
BRANCH   7  15
HETATM   15  C6  UNL     1      91.677  98.276 -42.954  1.00  0.00     0.039 C 
BRANCH  15  16
HETATM   16  C7  UNL     1      91.260  97.052 -42.197  1.00  0.00     0.041 C 
BRANCH  16  17
HETATM   17  C8  UNL     1      91.362  95.913 -43.183  1.00  0.00    -0.058 A 
HETATM   18  C9  UNL     1      91.675  94.640 -42.758  1.00  0.00     0.008 A 
HETATM   19  C10 UNL     1      91.766  93.631 -43.665  1.00  0.00     0.019 A 
HETATM   20  C11 UNL     1      91.560  93.796 -45.016  1.00  0.00     0.011 A 
HETATM   21 BR1  UNL     1      91.700  92.341 -46.250  1.00  0.00    -0.051 Br
HETATM   22  C12 UNL     1      91.247  95.081 -45.430  1.00  0.00     0.019 A 
HETATM   23  C13 UNL     1      91.151  96.115 -44.524  1.00  0.00     0.008 A 
ENDBRANCH  16  17
ENDBRANCH  15  16
ENDBRANCH   7  15
ENDBRANCH   1   7
BRANCH   5  24
HETATM   24  C15 UNL     1      86.008  98.274 -44.672  1.00  0.00     0.107 C 
HETATM   25  S1  UNL     1      85.691  96.734 -45.275  1.00  0.00    -0.063 SA
BRANCH  24  26
HETATM   26  C16 UNL     1      85.168  99.360 -45.185  1.00  0.00     0.306 C 
BRANCH  26  27
HETATM   27  N4  UNL     1      84.309  99.838 -44.105  1.00  0.00    -0.062 N 
HETATM   28  C17 UNL     1      83.783  98.798 -43.277  1.00  0.00     0.273 C 
HETATM   29  C18 UNL     1      85.102 100.778 -43.326  1.00  0.00     0.265 C 
HETATM   30  C19 UNL     1      84.301 101.518 -42.309  1.00  0.00     0.264 C 
HETATM   31  N5  UNL     1      83.135 102.139 -42.852  1.00  0.00    -0.071 N 
HETATM   32  C20 UNL     1      83.449 103.341 -43.608  1.00  0.00     0.272 C 
HETATM   33  C21 UNL     1      82.286 102.534 -41.723  1.00  0.00     0.272 C 
HETATM   34  C22 UNL     1      82.355 101.278 -43.689  1.00  0.00     0.264 C 
HETATM   35  C23 UNL     1      83.226 100.584 -44.718  1.00  0.00     0.265 C 
ENDBRANCH  26  27
ENDBRANCH  24  26
ENDBRANCH   5  24
TORSDOF 9
ENDMDL
MODEL 4
REMARK VINA RESULT: -6.378199064      1.523      1.937
REMARK  9 active torsions:
REMARK  status: ('A' for Active; 'I' for Inactive)
REMARK    1  A    between atoms: C2_2  and  N1_4 
REMARK       I    between atoms: N1_4  and  C4_6 
REMARK    2  A    between atoms: C4_6  and  C5_8 
REMARK    3  A    between atoms: C5_8  and  C6_9 
REMARK    4  A    between atoms: C5_8  and  N2_18 
REMARK    5  A    between atoms: C6_9  and  C7_10 
REMARK    6  A    between atoms: C7_10  and  C8_11 
REMARK       I    between atoms: N2_18  and  C14_20 
REMARK       I    between atoms: C14_20  and  N3_22 
REMARK    7  A    between atoms: N3_22  and  C15_24 
REMARK    8  A    between atoms: C15_24  and  C16_26 
REMARK    9  A    between atoms: C16_26  and  N4_27 
ROOT
HETATM    1  N2  UNL     1      88.979 100.132 -42.174  1.00  0.00    -0.330 N 
ATOM      2  H2  UNL     1      88.756  99.718 -41.270  1.00  0.00     0.165 HD
HETATM    3  C14 UNL     1      87.924 100.593 -43.051  1.00  0.00     0.321 C 
HETATM    4  O2  UNL     1      88.219 101.097 -44.148  1.00  0.00    -0.247 OA
HETATM    5  N3  UNL     1      86.620 100.424 -42.560  1.00  0.00    -0.301 N 
ATOM      6  H3  UNL     1      86.524 100.003 -41.636  1.00  0.00     0.171 HD
ENDROOT
BRANCH   1   7
HETATM    7  C5  UNL     1      90.323 100.263 -42.592  1.00  0.00     0.178 C 
BRANCH   7   8
HETATM    8  C4  UNL     1      91.017 101.241 -41.679  1.00  0.00     0.240 C 
HETATM    9  N1  UNL     1      92.415 101.395 -41.763  1.00  0.00    -0.355 N 
ATOM     10  H1  UNL     1      92.954 100.848 -42.434  1.00  0.00     0.162 HD
HETATM   11  O1  UNL     1      90.346 101.912 -40.855  1.00  0.00    -0.271 OA
BRANCH   9  12
HETATM   12  C2  UNL     1      93.080 102.343 -40.881  1.00  0.00     0.076 C 
HETATM   13  C1  UNL     1      93.540 101.560 -39.666  1.00  0.00     0.032 C 
HETATM   14  C3  UNL     1      94.296 102.924 -41.601  1.00  0.00     0.032 C 
ENDBRANCH   9  12
ENDBRANCH   7   8
BRANCH   7  15
HETATM   15  C6  UNL     1      91.158  99.028 -42.641  1.00  0.00     0.039 C 
BRANCH  15  16
HETATM   16  C7  UNL     1      90.777  98.030 -43.692  1.00  0.00     0.041 C 
BRANCH  16  17
HETATM   17  C8  UNL     1      91.190  96.687 -43.141  1.00  0.00    -0.058 A 
HETATM   18  C9  UNL     1      91.303  95.591 -43.969  1.00  0.00     0.008 A 
HETATM   19  C10 UNL     1      91.673  94.389 -43.450  1.00  0.00     0.019 A 
HETATM   20  C11 UNL     1      91.952  94.185 -42.117  1.00  0.00     0.011 A 
HETATM   21 BR1  UNL     1      92.468  92.474 -41.438  1.00  0.00    -0.051 Br
HETATM   22  C12 UNL     1      91.834  95.296 -41.296  1.00  0.00     0.019 A 
HETATM   23  C13 UNL     1      91.460  96.520 -41.806  1.00  0.00     0.008 A 
ENDBRANCH  16  17
ENDBRANCH  15  16
ENDBRANCH   7  15
ENDBRANCH   1   7
BRANCH   5  24
HETATM   24  C15 UNL     1      85.442 100.776 -43.218  1.00  0.00     0.107 C 
HETATM   25  S1  UNL     1      84.243 101.572 -42.345  1.00  0.00    -0.063 SA
BRANCH  24  26
HETATM   26  C16 UNL     1      85.136 100.474 -44.619  1.00  0.00     0.306 C 
BRANCH  26  27
HETATM   27  N4  UNL     1      84.724  99.075 -44.718  1.00  0.00    -0.062 N 
HETATM   28  C17 UNL     1      84.018  98.595 -43.570  1.00  0.00     0.273 C 
HETATM   29  C18 UNL     1      83.909  98.965 -45.919  1.00  0.00     0.265 C 
HETATM   30  C19 UNL     1      83.585  97.554 -46.279  1.00  0.00     0.264 C 
HETATM   31  N5  UNL     1      84.736  96.710 -46.345  1.00  0.00    -0.071 N 
HETATM   32  C20 UNL     1      85.516  96.932 -47.552  1.00  0.00     0.272 C 
HETATM   33  C21 UNL     1      84.257  95.324 -46.373  1.00  0.00     0.272 C 
HETATM   34  C22 UNL     1      85.612  96.834 -45.220  1.00  0.00     0.264 C 
HETATM   35  C23 UNL     1      85.925  98.289 -44.931  1.00  0.00     0.265 C 
ENDBRANCH  26  27
ENDBRANCH  24  26
ENDBRANCH   5  24
TORSDOF 9
ENDMDL
MODEL 5
REMARK VINA RESULT: -6.365249796      2.214      3.704
REMARK  9 active torsions:
REMARK  status: ('A' for Active; 'I' for Inactive)
REMARK    1  A    between atoms: C2_2  and  N1_4 
REMARK       I    between atoms: N1_4  and  C4_6 
REMARK    2  A    between atoms: C4_6  and  C5_8 
REMARK    3  A    between atoms: C5_8  and  C6_9 
REMARK    4  A    between atoms: C5_8  and  N2_18 
REMARK    5  A    between atoms: C6_9  and  C7_10 
REMARK    6  A    between atoms: C7_10  and  C8_11 
REMARK       I    between atoms: N2_18  and  C14_20 
REMARK       I    between atoms: C14_20  and  N3_22 
REMARK    7  A    between atoms: N3_22  and  C15_24 
REMARK    8  A    between atoms: C15_24  and  C16_26 
REMARK    9  A    between atoms: C16_26  and  N4_27 
ROOT
HETATM    1  N2  UNL     1      89.567  99.039 -42.524  1.00  0.00    -0.330 N 
ATOM      2  H2  UNL     1      89.321  99.011 -41.535  1.00  0.00     0.165 HD
HETATM    3  C14 UNL     1      88.541  98.939 -43.540  1.00  0.00     0.321 C 
HETATM    4  O2  UNL     1      88.864  98.978 -44.740  1.00  0.00    -0.247 OA
HETATM    5  N3  UNL     1      87.230  98.803 -43.056  1.00  0.00    -0.301 N 
ATOM      6  H3  UNL     1      87.109  98.796 -42.043  1.00  0.00     0.171 HD
ENDROOT
BRANCH   1   7
HETATM    7  C5  UNL     1      90.916  99.175 -42.924  1.00  0.00     0.178 C 
BRANCH   7   8
HETATM    8  C4  UNL     1      91.448 100.479 -42.386  1.00  0.00     0.240 C 
HETATM    9  N1  UNL     1      91.442 100.708 -40.997  1.00  0.00    -0.355 N 
ATOM     10  H1  UNL     1      91.080 100.000 -40.358  1.00  0.00     0.162 HD
HETATM   11  O1  UNL     1      91.893 101.348 -43.179  1.00  0.00    -0.271 OA
BRANCH   9  12
HETATM   12  C2  UNL     1      91.960 101.968 -40.482  1.00  0.00     0.076 C 
HETATM   13  C1  UNL     1      90.949 102.473 -39.468  1.00  0.00     0.032 C 
HETATM   14  C3  UNL     1      93.295 101.711 -39.785  1.00  0.00     0.032 C 
ENDBRANCH   9  12
ENDBRANCH   7   8
BRANCH   7  15
HETATM   15  C6  UNL     1      91.871  98.103 -42.521  1.00  0.00     0.039 C 
BRANCH  15  16
HETATM   16  C7  UNL     1      91.256  96.890 -41.893  1.00  0.00     0.041 C 
BRANCH  16  17
HETATM   17  C8  UNL     1      91.370  95.797 -42.927  1.00  0.00    -0.058 A 
HETATM   18  C9  UNL     1      91.658  94.502 -42.554  1.00  0.00     0.008 A 
HETATM   19  C10 UNL     1      91.760  93.534 -43.504  1.00  0.00     0.019 A 
HETATM   20  C11 UNL     1      91.590  93.764 -44.851  1.00  0.00     0.011 A 
HETATM   21 BR1  UNL     1      91.744  92.366 -46.147  1.00  0.00    -0.051 Br
HETATM   22  C12 UNL     1      91.301  95.071 -45.212  1.00  0.00     0.019 A 
HETATM   23  C13 UNL     1      91.195  96.063 -44.262  1.00  0.00     0.008 A 
ENDBRANCH  16  17
ENDBRANCH  15  16
ENDBRANCH   7  15
ENDBRANCH   1   7
BRANCH   5  24
HETATM   24  C15 UNL     1      86.077  98.679 -43.831  1.00  0.00     0.107 C 
HETATM   25  S1  UNL     1      86.037  97.492 -45.025  1.00  0.00    -0.063 SA
BRANCH  24  26
HETATM   26  C16 UNL     1      84.891  99.532 -43.720  1.00  0.00     0.306 C 
BRANCH  26  27
HETATM   27  N4  UNL     1      85.256 100.895 -44.100  1.00  0.00    -0.062 N 
HETATM   28  C17 UNL     1      86.034 100.975 -45.298  1.00  0.00     0.273 C 
HETATM   29  C18 UNL     1      84.011 101.638 -44.233  1.00  0.00     0.265 C 
HETATM   30  C19 UNL     1      84.221 103.104 -44.411  1.00  0.00     0.264 C 
HETATM   31  N5  UNL     1      85.071 103.676 -43.416  1.00  0.00    -0.071 N 
HETATM   32  C20 UNL     1      84.396 103.838 -42.138  1.00  0.00     0.272 C 
HETATM   33  C21 UNL     1      85.455 105.011 -43.888  1.00  0.00     0.272 C 
HETATM   34  C22 UNL     1      86.279 102.942 -43.192  1.00  0.00     0.264 C 
HETATM   35  C23 UNL     1      85.990 101.468 -42.988  1.00  0.00     0.265 C 
ENDBRANCH  26  27
ENDBRANCH  24  26
ENDBRANCH   5  24
TORSDOF 9
ENDMDL
