MODEL 1
REMARK VINA RESULT: -5.028567703      0.000      0.000
REMARK  0 active torsions:
REMARK  status: ('A' for Active; 'I' for Inactive)
ROOT
HETATM    1  O1  UNL     1      28.311 -23.427   1.981  1.00  0.00    -0.260 OA
HETATM    2  C1  UNL     1      27.827 -22.341   1.592  1.00  0.00     0.323 C 
HETATM    3  O2  UNL     1      26.508 -21.960   1.768  1.00  0.00    -0.317 OA
HETATM    4  C2  UNL     1      26.352 -20.564   1.630  1.00  0.00     0.184 C 
HETATM    5  C3  UNL     1      27.470 -20.191   0.697  1.00  0.00     0.107 C 
HETATM    6  C4  UNL     1      28.525 -21.262   0.885  1.00  0.00     0.316 C 
HETATM    7  N1  UNL     1      29.020 -21.776  -0.361  1.00  0.00    -0.031 N 
ATOM      8  H11 UNL     1      28.573 -21.371  -1.183  1.00  0.00     0.281 HD
ATOM      9  H12 UNL     1      28.751 -22.742  -0.549  1.00  0.00     0.281 HD
HETATM   10  C5  UNL     1      30.464 -21.562  -0.304  1.00  0.00     0.262 C 
HETATM   11  C6  UNL     1      30.499 -20.330   0.610  1.00  0.00     0.199 C 
HETATM   12  O3  UNL     1      29.580 -20.720   1.580  1.00  0.00    -0.345 OA
ENDROOT
TORSDOF 0
ENDMDL
MODEL 2
REMARK VINA RESULT: -4.934426740      1.061      1.216
REMARK  0 active torsions:
REMARK  status: ('A' for Active; 'I' for Inactive)
ROOT
HETATM    1  O1  UNL     1      28.924 -22.961   2.159  1.00  0.00    -0.260 OA
HETATM    2  C1  UNL     1      28.189 -22.002   1.834  1.00  0.00     0.323 C 
HETATM    3  O2  UNL     1      26.821 -22.085   1.653  1.00  0.00    -0.317 OA
HETATM    4  C2  UNL     1      26.214 -20.813   1.720  1.00  0.00     0.184 C 
HETATM    5  C3  UNL     1      27.311 -19.892   1.264  1.00  0.00     0.107 C 
HETATM    6  C4  UNL     1      28.602 -20.617   1.582  1.00  0.00     0.316 C 
HETATM    7  N1  UNL     1      29.527 -20.607   0.483  1.00  0.00    -0.031 N 
ATOM      8  H11 UNL     1      29.173 -20.144  -0.353  1.00  0.00     0.281 HD
ATOM      9  H12 UNL     1      29.674 -21.521   0.055  1.00  0.00     0.281 HD
HETATM   10  C5  UNL     1      30.742 -20.005   1.026  1.00  0.00     0.262 C 
HETATM   11  C6  UNL     1      30.118 -19.111   2.106  1.00  0.00     0.199 C 
HETATM   12  O3  UNL     1      29.198 -20.000   2.656  1.00  0.00    -0.345 OA
ENDROOT
TORSDOF 0
ENDMDL
MODEL 3
REMARK VINA RESULT: -4.853373224      1.489      2.373
REMARK  0 active torsions:
REMARK  status: ('A' for Active; 'I' for Inactive)
ROOT
HETATM    1  O1  UNL     1      26.501 -20.111   1.476  1.00  0.00    -0.260 OA
HETATM    2  C1  UNL     1      27.193 -21.146   1.596  1.00  0.00     0.323 C 
HETATM    3  O2  UNL     1      26.690 -22.398   1.898  1.00  0.00    -0.317 OA
HETATM    4  C2  UNL     1      27.602 -23.418   1.550  1.00  0.00     0.184 C 
HETATM    5  C3  UNL     1      28.934 -22.731   1.665  1.00  0.00     0.107 C 
HETATM    6  C4  UNL     1      28.648 -21.260   1.447  1.00  0.00     0.316 C 
HETATM    7  N1  UNL     1      29.277 -20.422   2.430  1.00  0.00    -0.031 N 
ATOM      8  H11 UNL     1      29.795 -20.937   3.142  1.00  0.00     0.281 HD
ATOM      9  H12 UNL     1      28.623 -19.969   3.069  1.00  0.00     0.281 HD
HETATM   10  C5  UNL     1      30.095 -19.491   1.658  1.00  0.00     0.262 C 
HETATM   11  C6  UNL     1      30.387 -20.370   0.434  1.00  0.00     0.199 C 
HETATM   12  O3  UNL     1      29.120 -20.901   0.207  1.00  0.00    -0.345 OA
ENDROOT
TORSDOF 0
ENDMDL
MODEL 4
REMARK VINA RESULT: -4.766646768      1.578      2.954
REMARK  0 active torsions:
REMARK  status: ('A' for Active; 'I' for Inactive)
ROOT
HETATM    1  O1  UNL     1      27.772 -23.710   1.904  1.00  0.00    -0.260 OA
HETATM    2  C1  UNL     1      28.770 -22.968   1.774  1.00  0.00     0.323 C 
HETATM    3  O2  UNL     1      30.051 -23.295   2.181  1.00  0.00    -0.317 OA
HETATM    4  C2  UNL     1      31.017 -22.490   1.539  1.00  0.00     0.184 C 
HETATM    5  C3  UNL     1      30.263 -21.221   1.257  1.00  0.00     0.107 C 
HETATM    6  C4  UNL     1      28.805 -21.628   1.181  1.00  0.00     0.316 C 
HETATM    7  N1  UNL     1      27.950 -20.764   1.946  1.00  0.00    -0.031 N 
ATOM      8  H11 UNL     1      28.446 -20.028   2.448  1.00  0.00     0.281 HD
ATOM      9  H12 UNL     1      27.540 -21.208   2.767  1.00  0.00     0.281 HD
HETATM   10  C5  UNL     1      26.967 -20.269   0.985  1.00  0.00     0.262 C 
HETATM   11  C6  UNL     1      27.812 -20.330  -0.294  1.00  0.00     0.199 C 
HETATM   12  O3  UNL     1      28.406 -21.580  -0.134  1.00  0.00    -0.345 OA
ENDROOT
TORSDOF 0
ENDMDL
MODEL 5
REMARK VINA RESULT: -4.719896282      1.741      2.016
REMARK  0 active torsions:
REMARK  status: ('A' for Active; 'I' for Inactive)
ROOT
HETATM    1  O1  UNL     1      28.949 -21.874  -0.661  1.00  0.00    -0.260 OA
HETATM    2  C1  UNL     1      28.491 -21.148   0.248  1.00  0.00     0.323 C 
HETATM    3  O2  UNL     1      27.170 -20.747   0.343  1.00  0.00    -0.317 OA
HETATM    4  C2  UNL     1      26.855 -20.317   1.650  1.00  0.00     0.184 C 
HETATM    5  C3  UNL     1      28.175 -19.822   2.169  1.00  0.00     0.107 C 
HETATM    6  C4  UNL     1      29.226 -20.577   1.381  1.00  0.00     0.316 C 
HETATM    7  N1  UNL     1      30.259 -19.718   0.872  1.00  0.00    -0.031 N 
ATOM      8  H11 UNL     1      30.121 -18.731   1.088  1.00  0.00     0.281 HD
ATOM      9  H12 UNL     1      30.252 -19.617  -0.143  1.00  0.00     0.281 HD
HETATM   10  C5  UNL     1      31.500 -20.274   1.405  1.00  0.00     0.262 C 
HETATM   11  C6  UNL     1      30.960 -20.903   2.696  1.00  0.00     0.199 C 
HETATM   12  O3  UNL     1      29.806 -21.510   2.207  1.00  0.00    -0.345 OA
ENDROOT
TORSDOF 0
ENDMDL
