MODEL 1
REMARK VINA RESULT: -4.699671748      0.000      0.000
REMARK  0 active torsions:
REMARK  status: ('A' for Active; 'I' for Inactive)
ROOT
HETATM    1  C1  UNL     1      29.745 -19.882   1.941  1.00  0.00     0.152 C 
HETATM    2  N1  UNL     1      28.449 -19.575   2.423  1.00  0.00    -0.362 N 
ATOM      3  H1  UNL     1      28.301 -19.034   3.274  1.00  0.00     0.167 HD
HETATM    4  S1  UNL     1      27.132 -20.179   1.472  1.00  0.00    -0.043 SA
HETATM    5  C2  UNL     1      27.088 -21.999   1.682  1.00  0.00     0.219 C 
HETATM    6  N2  UNL     1      28.167 -22.594   0.963  1.00  0.00    -0.163 NA
HETATM    7  C3  UNL     1      29.078 -21.648   0.370  1.00  0.00     0.148 C 
HETATM    8  C4  UNL     1      29.968 -21.294   1.529  1.00  0.00     0.142 C 
HETATM    9  N3  UNL     1      29.651 -22.271   2.517  1.00  0.00    -0.071 NA
HETATM   10  O1  UNL     1      28.960 -23.240   1.839  1.00  0.00    -0.189 OA
ENDROOT
TORSDOF 0
ENDMDL
MODEL 2
REMARK VINA RESULT: -4.518680916      1.754      2.587
REMARK  0 active torsions:
REMARK  status: ('A' for Active; 'I' for Inactive)
ROOT
HETATM    1  C1  UNL     1      27.475 -20.347   0.348  1.00  0.00     0.152 C 
HETATM    2  N1  UNL     1      28.439 -20.512  -0.675  1.00  0.00    -0.362 N 
ATOM      3  H1  UNL     1      28.178 -20.612  -1.657  1.00  0.00     0.167 HD
HETATM    4  S1  UNL     1      30.091 -20.533  -0.154  1.00  0.00    -0.043 SA
HETATM    5  C2  UNL     1      30.366 -22.104   0.749  1.00  0.00     0.219 C 
HETATM    6  N2  UNL     1      29.735 -22.043   2.027  1.00  0.00    -0.163 NA
HETATM    7  C3  UNL     1      28.950 -20.854   2.245  1.00  0.00     0.148 C 
HETATM    8  C4  UNL     1      27.657 -21.195   1.557  1.00  0.00     0.142 C 
HETATM    9  N3  UNL     1      27.761 -22.594   1.305  1.00  0.00    -0.071 NA
HETATM   10  O1  UNL     1      28.802 -23.013   2.090  1.00  0.00    -0.189 OA
ENDROOT
TORSDOF 0
ENDMDL
MODEL 3
REMARK VINA RESULT: -4.488289561      1.981      2.586
REMARK  0 active torsions:
REMARK  status: ('A' for Active; 'I' for Inactive)
ROOT
HETATM    1  C1  UNL     1      27.612 -19.958   2.114  1.00  0.00     0.152 C 
HETATM    2  N1  UNL     1      28.855 -19.285   2.209  1.00  0.00    -0.362 N 
ATOM      3  H1  UNL     1      28.920 -18.267   2.230  1.00  0.00     0.167 HD
HETATM    4  S1  UNL     1      30.255 -20.302   2.288  1.00  0.00    -0.043 SA
HETATM    5  C2  UNL     1      30.475 -21.069   0.638  1.00  0.00     0.219 C 
HETATM    6  N2  UNL     1      29.485 -22.076   0.438  1.00  0.00    -0.163 NA
HETATM    7  C3  UNL     1      28.503 -22.160   1.491  1.00  0.00     0.148 C 
HETATM    8  C4  UNL     1      27.545 -21.062   1.119  1.00  0.00     0.142 C 
HETATM    9  N3  UNL     1      27.927 -20.706  -0.207  1.00  0.00    -0.071 NA
HETATM   10  O1  UNL     1      28.732 -21.732  -0.625  1.00  0.00    -0.189 OA
ENDROOT
TORSDOF 0
ENDMDL
MODEL 4
REMARK VINA RESULT: -4.389356565      2.129      2.593
REMARK  0 active torsions:
REMARK  status: ('A' for Active; 'I' for Inactive)
ROOT
HETATM    1  C1  UNL     1      29.609 -19.475   2.305  1.00  0.00     0.152 C 
HETATM    2  N1  UNL     1      30.464 -19.464   1.176  1.00  0.00    -0.362 N 
ATOM      3  H1  UNL     1      30.918 -18.611   0.847  1.00  0.00     0.167 HD
HETATM    4  S1  UNL     1      30.690 -20.991   0.391  1.00  0.00    -0.043 SA
HETATM    5  C2  UNL     1      29.119 -21.418  -0.450  1.00  0.00     0.219 C 
HETATM    6  N2  UNL     1      28.146 -21.812   0.516  1.00  0.00    -0.163 NA
HETATM    7  C3  UNL     1      28.574 -21.662   1.884  1.00  0.00     0.148 C 
HETATM    8  C4  UNL     1      28.321 -20.202   2.139  1.00  0.00     0.142 C 
HETATM    9  N3  UNL     1      27.534 -19.790   1.025  1.00  0.00    -0.071 NA
HETATM   10  O1  UNL     1      27.106 -20.957   0.450  1.00  0.00    -0.189 OA
ENDROOT
TORSDOF 0
ENDMDL
MODEL 5
REMARK VINA RESULT: -4.318877585      2.277      2.766
REMARK  0 active torsions:
REMARK  status: ('A' for Active; 'I' for Inactive)
ROOT
HETATM    1  C1  UNL     1      29.883 -20.435   0.202  1.00  0.00     0.152 C 
HETATM    2  N1  UNL     1      30.108 -21.830   0.286  1.00  0.00    -0.362 N 
ATOM      3  H1  UNL     1      30.570 -22.351  -0.460  1.00  0.00     0.167 HD
HETATM    4  S1  UNL     1      29.548 -22.595   1.736  1.00  0.00    -0.043 SA
HETATM    5  C2  UNL     1      27.716 -22.607   1.683  1.00  0.00     0.219 C 
HETATM    6  N2  UNL     1      27.218 -21.292   1.924  1.00  0.00    -0.163 NA
HETATM    7  C3  UNL     1      28.239 -20.279   2.020  1.00  0.00     0.148 C 
HETATM    8  C4  UNL     1      28.519 -19.972   0.575  1.00  0.00     0.142 C 
HETATM    9  N3  UNL     1      27.452 -20.607  -0.125  1.00  0.00    -0.071 NA
HETATM   10  O1  UNL     1      26.523 -20.892   0.841  1.00  0.00    -0.189 OA
ENDROOT
TORSDOF 0
ENDMDL
