MODEL 1
REMARK VINA RESULT: -4.768432557      0.000      0.000
REMARK  0 active torsions:
REMARK  status: ('A' for Active; 'I' for Inactive)
ROOT
HETATM    1  C1  UNL     1      26.226 -20.870   1.613  1.00  0.00     0.048 C 
HETATM    2  C2  UNL     1      27.745 -20.948   1.412  1.00  0.00     0.081 C 
HETATM    3  C3  UNL     1      28.414 -19.876   2.181  1.00  0.00     0.048 C 
HETATM    4  O1  UNL     1      28.082 -20.860   0.046  1.00  0.00    -0.359 OA
HETATM    5  C4  UNL     1      28.822 -22.013   0.077  1.00  0.00     0.242 C 
HETATM    6  S1  UNL     1      30.592 -21.769   0.518  1.00  0.00     0.054 SA
HETATM    7  O2  UNL     1      30.413 -22.228   2.186  1.00  0.00    -0.206 OA
HETATM    8  N1  UNL     1      29.227 -22.754   2.317  1.00  0.00    -0.278 N 
ATOM      9  H1  UNL     1      29.024 -23.452   3.032  1.00  0.00     0.189 HD
HETATM   10  C5  UNL     1      28.266 -22.316   1.435  1.00  0.00     0.182 C 
ENDROOT
TORSDOF 0
ENDMDL
MODEL 2
REMARK VINA RESULT: -4.751576475      1.788      2.231
REMARK  0 active torsions:
REMARK  status: ('A' for Active; 'I' for Inactive)
ROOT
HETATM    1  C1  UNL     1      26.248 -20.722   1.630  1.00  0.00     0.048 C 
HETATM    2  C2  UNL     1      27.690 -21.185   1.387  1.00  0.00     0.081 C 
HETATM    3  C3  UNL     1      27.787 -22.651   1.548  1.00  0.00     0.048 C 
HETATM    4  O1  UNL     1      28.587 -20.532   2.258  1.00  0.00    -0.359 OA
HETATM    5  C4  UNL     1      29.389 -20.104   1.233  1.00  0.00     0.242 C 
HETATM    6  S1  UNL     1      30.720 -21.285   0.764  1.00  0.00     0.054 SA
HETATM    7  O2  UNL     1      29.881 -21.947  -0.607  1.00  0.00    -0.206 OA
HETATM    8  N1  UNL     1      28.849 -21.183  -0.835  1.00  0.00    -0.278 N 
ATOM      9  H1  UNL     1      28.448 -21.085  -1.767  1.00  0.00     0.189 HD
HETATM   10  C5  UNL     1      28.333 -20.517   0.252  1.00  0.00     0.182 C 
ENDROOT
TORSDOF 0
ENDMDL
MODEL 3
REMARK VINA RESULT: -4.621074058      2.441      3.137
REMARK  0 active torsions:
REMARK  status: ('A' for Active; 'I' for Inactive)
ROOT
HETATM    1  C1  UNL     1      30.916 -21.869   0.164  1.00  0.00     0.048 C 
HETATM    2  C2  UNL     1      29.511 -21.559   0.693  1.00  0.00     0.081 C 
HETATM    3  C3  UNL     1      29.185 -22.455   1.823  1.00  0.00     0.048 C 
HETATM    4  O1  UNL     1      28.546 -21.681  -0.328  1.00  0.00    -0.359 OA
HETATM    5  C4  UNL     1      28.046 -20.424  -0.109  1.00  0.00     0.242 C 
HETATM    6  S1  UNL     1      26.698 -20.347   1.142  1.00  0.00     0.054 SA
HETATM    7  O2  UNL     1      27.714 -19.815   2.449  1.00  0.00    -0.206 OA
HETATM    8  N1  UNL     1      28.864 -19.480   1.934  1.00  0.00    -0.278 N 
ATOM      9  H1  UNL     1      29.464 -18.780   2.367  1.00  0.00     0.189 HD
HETATM   10  C5  UNL     1      29.221 -20.126   0.772  1.00  0.00     0.182 C 
ENDROOT
TORSDOF 0
ENDMDL
MODEL 4
REMARK VINA RESULT: -4.528600209      1.359      1.741
REMARK  0 active torsions:
REMARK  status: ('A' for Active; 'I' for Inactive)
ROOT
HETATM    1  C1  UNL     1      27.336 -23.596   1.774  1.00  0.00     0.048 C 
HETATM    2  C2  UNL     1      28.103 -22.315   1.421  1.00  0.00     0.081 C 
HETATM    3  C3  UNL     1      27.297 -21.127   1.774  1.00  0.00     0.048 C 
HETATM    4  O1  UNL     1      28.448 -22.291   0.053  1.00  0.00    -0.359 OA
HETATM    5  C4  UNL     1      29.775 -22.070   0.314  1.00  0.00     0.242 C 
HETATM    6  S1  UNL     1      30.238 -20.294   0.453  1.00  0.00     0.054 SA
HETATM    7  O2  UNL     1      30.228 -20.254   2.191  1.00  0.00    -0.206 OA
HETATM    8  N1  UNL     1      30.150 -21.487   2.606  1.00  0.00    -0.278 N 
ATOM      9  H1  UNL     1      30.531 -21.777   3.506  1.00  0.00     0.189 HD
HETATM   10  C5  UNL     1      29.527 -22.376   1.760  1.00  0.00     0.182 C 
ENDROOT
TORSDOF 0
ENDMDL
MODEL 5
REMARK VINA RESULT: -4.519212747      1.991      2.291
REMARK  0 active torsions:
REMARK  status: ('A' for Active; 'I' for Inactive)
ROOT
HETATM    1  C1  UNL     1      26.400 -20.631   1.604  1.00  0.00     0.048 C 
HETATM    2  C2  UNL     1      27.885 -20.684   1.223  1.00  0.00     0.081 C 
HETATM    3  C3  UNL     1      28.049 -20.404  -0.219  1.00  0.00     0.048 C 
HETATM    4  O1  UNL     1      28.449 -21.934   1.552  1.00  0.00    -0.359 OA
HETATM    5  C4  UNL     1      29.468 -21.370   2.274  1.00  0.00     0.242 C 
HETATM    6  S1  UNL     1      30.966 -20.964   1.286  1.00  0.00     0.054 SA
HETATM    7  O2  UNL     1      30.597 -19.274   1.108  1.00  0.00    -0.206 OA
HETATM    8  N1  UNL     1      29.612 -19.006   1.919  1.00  0.00    -0.278 N 
ATOM      9  H1  UNL     1      29.479 -18.076   2.315  1.00  0.00     0.189 HD
HETATM   10  C5  UNL     1      28.762 -20.049   2.209  1.00  0.00     0.182 C 
ENDROOT
TORSDOF 0
ENDMDL
