MODEL 1
REMARK VINA RESULT: -4.730714224      0.000      0.000
REMARK  0 active torsions:
REMARK  status: ('A' for Active; 'I' for Inactive)
ROOT
HETATM    1  C1  UNL     1      28.075 -23.141   1.734  1.00  0.00     0.079 C 
HETATM    2  C2  UNL     1      28.938 -21.954   1.502  1.00  0.00     0.179 C 
HETATM    3  O1  UNL     1      28.574 -20.811   2.150  1.00  0.00    -0.338 OA
HETATM    4  C3  UNL     1      27.820 -20.066   1.261  1.00  0.00     0.300 C 
HETATM    5  N1  UNL     1      27.813 -20.800  -0.003  1.00  0.00    -0.135 NA
HETATM    6  N2  UNL     1      28.976 -21.562   0.099  1.00  0.00    -0.189 NA
HETATM    7  C4  UNL     1      30.135 -20.680  -0.020  1.00  0.00     0.124 C 
HETATM    8  C5  UNL     1      31.330 -21.590   0.232  1.00  0.00     0.094 C 
HETATM    9  S1  UNL     1      30.702 -22.384   1.770  1.00  0.00    -0.113 SA
ENDROOT
TORSDOF 0
ENDMDL
MODEL 2
REMARK VINA RESULT: -4.374573312      1.900      2.813
REMARK  0 active torsions:
REMARK  status: ('A' for Active; 'I' for Inactive)
ROOT
HETATM    1  C1  UNL     1      30.937 -22.411   1.969  1.00  0.00     0.079 C 
HETATM    2  C2  UNL     1      29.825 -21.832   1.172  1.00  0.00     0.179 C 
HETATM    3  O1  UNL     1      30.023 -21.766  -0.175  1.00  0.00    -0.338 OA
HETATM    4  C3  UNL     1      30.489 -20.494  -0.453  1.00  0.00     0.300 C 
HETATM    5  N1  UNL     1      30.490 -19.761   0.812  1.00  0.00    -0.135 NA
HETATM    6  N2  UNL     1      29.531 -20.455   1.549  1.00  0.00    -0.189 NA
HETATM    7  C4  UNL     1      28.209 -20.180   0.991  1.00  0.00     0.124 C 
HETATM    8  C5  UNL     1      27.270 -21.079   1.783  1.00  0.00     0.094 C 
HETATM    9  S1  UNL     1      28.236 -22.638   1.613  1.00  0.00    -0.113 SA
ENDROOT
TORSDOF 0
ENDMDL
MODEL 3
REMARK VINA RESULT: -4.344976010      2.044      2.619
REMARK  0 active torsions:
REMARK  status: ('A' for Active; 'I' for Inactive)
ROOT
HETATM    1  C1  UNL     1      28.416 -23.053   1.563  1.00  0.00     0.079 C 
HETATM    2  C2  UNL     1      28.768 -21.685   1.104  1.00  0.00     0.179 C 
HETATM    3  O1  UNL     1      28.766 -21.485  -0.244  1.00  0.00    -0.338 OA
HETATM    4  C3  UNL     1      30.070 -21.644  -0.678  1.00  0.00     0.300 C 
HETATM    5  N1  UNL     1      30.883 -21.880   0.514  1.00  0.00    -0.135 NA
HETATM    6  N2  UNL     1      30.110 -21.290   1.513  1.00  0.00    -0.189 NA
HETATM    7  C4  UNL     1      30.148 -19.839   1.351  1.00  0.00     0.124 C 
HETATM    8  C5  UNL     1      29.179 -19.316   2.403  1.00  0.00     0.094 C 
HETATM    9  S1  UNL     1      27.771 -20.433   2.004  1.00  0.00    -0.113 SA
ENDROOT
TORSDOF 0
ENDMDL
MODEL 4
REMARK VINA RESULT: -4.294212336      2.484      3.322
REMARK  0 active torsions:
REMARK  status: ('A' for Active; 'I' for Inactive)
ROOT
HETATM    1  C1  UNL     1      29.836 -18.642   3.235  1.00  0.00     0.079 C 
HETATM    2  C2  UNL     1      29.807 -19.780   2.280  1.00  0.00     0.179 C 
HETATM    3  O1  UNL     1      30.617 -20.836   2.580  1.00  0.00    -0.338 OA
HETATM    4  C3  UNL     1      31.791 -20.657   1.872  1.00  0.00     0.300 C 
HETATM    5  N1  UNL     1      31.612 -19.457   1.057  1.00  0.00    -0.135 NA
HETATM    6  N2  UNL     1      30.224 -19.391   0.940  1.00  0.00    -0.189 NA
HETATM    7  C4  UNL     1      29.768 -20.471   0.068  1.00  0.00     0.124 C 
HETATM    8  C5  UNL     1      28.249 -20.379   0.118  1.00  0.00     0.094 C 
HETATM    9  S1  UNL     1      28.076 -20.293   1.949  1.00  0.00    -0.113 SA
ENDROOT
TORSDOF 0
ENDMDL
MODEL 5
REMARK VINA RESULT: -4.229569688      1.830      2.382
REMARK  0 active torsions:
REMARK  status: ('A' for Active; 'I' for Inactive)
ROOT
HETATM    1  C1  UNL     1      29.793 -18.954   2.722  1.00  0.00     0.079 C 
HETATM    2  C2  UNL     1      29.732 -20.100   1.779  1.00  0.00     0.179 C 
HETATM    3  O1  UNL     1      29.250 -19.827   0.533  1.00  0.00    -0.338 OA
HETATM    4  C3  UNL     1      27.905 -20.147   0.542  1.00  0.00     0.300 C 
HETATM    5  N1  UNL     1      27.615 -20.708   1.861  1.00  0.00    -0.135 NA
HETATM    6  N2  UNL     1      28.868 -21.170   2.260  1.00  0.00    -0.189 NA
HETATM    7  C4  UNL     1      29.224 -22.339   1.459  1.00  0.00     0.124 C 
HETATM    8  C5  UNL     1      30.645 -22.673   1.888  1.00  0.00     0.094 C 
HETATM    9  S1  UNL     1      31.345 -20.977   1.734  1.00  0.00    -0.113 SA
ENDROOT
TORSDOF 0
ENDMDL
