MODEL 1
REMARK VINA RESULT: -7.904296167      0.000      0.000
REMARK  2 active torsions:
REMARK  status: ('A' for Active; 'I' for Inactive)
REMARK       I    between atoms: N1_2  and  C2_4 
REMARK       I    between atoms: C2_4  and  N3_18 
REMARK    1  A    between atoms: N2_5  and  S1_7 
REMARK    2  A    between atoms: S1_7  and  C3_10 
ROOT
HETATM    1  S1  UNL     1      -4.871 -33.854 -26.520  1.00  0.00     0.277 S 
HETATM    2  O1  UNL     1      -4.983 -34.881 -25.433  1.00  0.00    -0.200 OA
HETATM    3  O2  UNL     1      -3.752 -32.916 -26.105  1.00  0.00    -0.200 OA
ENDROOT
BRANCH   1   4
HETATM    4  N2  UNL     1      -6.352 -32.978 -26.582  1.00  0.00    -0.113 N 
HETATM    5  C2  UNL     1      -6.354 -31.833 -27.187  1.00  0.00     0.684 C 
HETATM    6  N1  UNL     1      -5.193 -31.291 -27.790  1.00  0.00    -0.230 N 
HETATM    7  N3  UNL     1      -7.569 -31.065 -27.264  1.00  0.00    -0.226 N 
HETATM    8  C1  UNL     1      -4.476 -30.148 -27.325  1.00  0.00     0.165 C 
ATOM      9  H1  UNL     1      -4.840 -31.756 -28.627  1.00  0.00     0.177 HD
HETATM   10  C11 UNL     1      -7.546 -29.632 -27.035  1.00  0.00     0.168 C 
HETATM   11  C12 UNL     1      -8.839 -31.672 -27.566  1.00  0.00     0.168 C 
ATOM     12  H2  UNL     1      -7.200 -33.349 -26.156  1.00  0.00     0.197 HD
ENDBRANCH   1   4
BRANCH   1  13
HETATM   13  C3  UNL     1      -4.503 -34.649 -28.007  1.00  0.00     0.086 A 
HETATM   14  C4  UNL     1      -3.756 -33.989 -28.958  1.00  0.00     0.026 A 
HETATM   15  C5  UNL     1      -3.418 -34.554 -30.175  1.00  0.00     0.008 A 
HETATM   16  C6  UNL     1      -3.836 -35.838 -30.474  1.00  0.00    -0.061 A 
HETATM   17  C7  UNL     1      -3.491 -36.484 -31.778  1.00  0.00     0.048 C 
HETATM   18  C8  UNL     1      -4.583 -36.488 -29.512  1.00  0.00     0.015 A 
HETATM   19  C9  UNL     1      -4.923 -35.938 -28.306  1.00  0.00    -0.038 A 
HETATM   20  C10 UNL     1      -5.728 -36.645 -27.278  1.00  0.00     0.050 C 
ENDBRANCH   1  13
TORSDOF 2
ENDMDL
MODEL 2
REMARK VINA RESULT: -7.790324095      0.955      1.763
REMARK  2 active torsions:
REMARK  status: ('A' for Active; 'I' for Inactive)
REMARK       I    between atoms: N1_2  and  C2_4 
REMARK       I    between atoms: C2_4  and  N3_18 
REMARK    1  A    between atoms: N2_5  and  S1_7 
REMARK    2  A    between atoms: S1_7  and  C3_10 
ROOT
HETATM    1  S1  UNL     1      -4.291 -33.860 -26.579  1.00  0.00     0.277 S 
HETATM    2  O1  UNL     1      -5.430 -34.447 -25.802  1.00  0.00    -0.200 OA
HETATM    3  O2  UNL     1      -3.050 -34.054 -25.725  1.00  0.00    -0.200 OA
ENDROOT
BRANCH   1   4
HETATM    4  N2  UNL     1      -4.588 -32.174 -26.770  1.00  0.00    -0.113 N 
HETATM    5  C2  UNL     1      -5.819 -31.781 -26.849  1.00  0.00     0.684 C 
HETATM    6  N1  UNL     1      -6.910 -32.681 -26.780  1.00  0.00    -0.230 N 
HETATM    7  N3  UNL     1      -6.115 -30.381 -27.009  1.00  0.00    -0.226 N 
HETATM    8  C1  UNL     1      -7.779 -33.010 -27.864  1.00  0.00     0.165 C 
ATOM      9  H1  UNL     1      -7.089 -33.131 -25.883  1.00  0.00     0.177 HD
HETATM   10  C11 UNL     1      -7.139 -29.951 -27.945  1.00  0.00     0.168 C 
HETATM   11  C12 UNL     1      -5.422 -29.362 -26.263  1.00  0.00     0.168 C 
ATOM     12  H2  UNL     1      -3.818 -31.507 -26.820  1.00  0.00     0.197 HD
ENDBRANCH   1   4
BRANCH   1  13
HETATM   13  C3  UNL     1      -4.152 -34.688 -28.085  1.00  0.00     0.086 A 
HETATM   14  C4  UNL     1      -3.674 -34.011 -29.186  1.00  0.00     0.026 A 
HETATM   15  C5  UNL     1      -3.532 -34.601 -30.430  1.00  0.00     0.008 A 
HETATM   16  C6  UNL     1      -3.877 -35.929 -30.602  1.00  0.00    -0.061 A 
HETATM   17  C7  UNL     1      -3.738 -36.603 -31.930  1.00  0.00     0.048 C 
HETATM   18  C8  UNL     1      -4.354 -36.595 -29.491  1.00  0.00     0.015 A 
HETATM   19  C9  UNL     1      -4.499 -36.022 -28.257  1.00  0.00    -0.038 A 
HETATM   20  C10 UNL     1      -5.013 -36.747 -27.068  1.00  0.00     0.050 C 
ENDBRANCH   1  13
TORSDOF 2
ENDMDL
MODEL 3
REMARK VINA RESULT: -7.398509700      1.761      5.776
REMARK  2 active torsions:
REMARK  status: ('A' for Active; 'I' for Inactive)
REMARK       I    between atoms: N1_2  and  C2_4 
REMARK       I    between atoms: C2_4  and  N3_18 
REMARK    1  A    between atoms: N2_5  and  S1_7 
REMARK    2  A    between atoms: S1_7  and  C3_10 
ROOT
HETATM    1  S1  UNL     1      -4.428 -32.954 -26.992  1.00  0.00     0.277 S 
HETATM    2  O1  UNL     1      -3.344 -32.054 -26.479  1.00  0.00    -0.200 OA
HETATM    3  O2  UNL     1      -4.648 -34.007 -25.921  1.00  0.00    -0.200 OA
ENDROOT
BRANCH   1   4
HETATM    4  N2  UNL     1      -3.855 -33.716 -28.426  1.00  0.00    -0.113 N 
HETATM    5  C2  UNL     1      -4.506 -34.743 -28.868  1.00  0.00     0.684 C 
HETATM    6  N1  UNL     1      -5.658 -35.249 -28.218  1.00  0.00    -0.230 N 
HETATM    7  N3  UNL     1      -4.064 -35.412 -30.064  1.00  0.00    -0.226 N 
HETATM    8  C1  UNL     1      -5.737 -36.495 -27.526  1.00  0.00     0.165 C 
ATOM      9  H1  UNL     1      -6.501 -34.676 -28.247  1.00  0.00     0.177 HD
HETATM   10  C11 UNL     1      -4.040 -36.863 -30.126  1.00  0.00     0.168 C 
HETATM   11  C12 UNL     1      -3.633 -34.687 -31.231  1.00  0.00     0.168 C 
ATOM     12  H2  UNL     1      -3.028 -33.368 -28.912  1.00  0.00     0.197 HD
ENDBRANCH   1   4
BRANCH   1  13
HETATM   13  C3  UNL     1      -5.854 -32.020 -27.257  1.00  0.00     0.086 A 
HETATM   14  C4  UNL     1      -7.080 -32.650 -27.268  1.00  0.00     0.026 A 
HETATM   15  C5  UNL     1      -8.270 -31.975 -27.474  1.00  0.00     0.008 A 
HETATM   16  C6  UNL     1      -8.257 -30.607 -27.678  1.00  0.00    -0.061 A 
HETATM   17  C7  UNL     1      -9.522 -29.842 -27.904  1.00  0.00     0.048 C 
HETATM   18  C8  UNL     1      -7.023 -29.990 -27.664  1.00  0.00     0.015 A 
HETATM   19  C9  UNL     1      -5.839 -30.647 -27.462  1.00  0.00    -0.038 A 
HETATM   20  C10 UNL     1      -4.517 -29.973 -27.449  1.00  0.00     0.050 C 
ENDBRANCH   1  13
TORSDOF 2
ENDMDL
MODEL 4
REMARK VINA RESULT: -6.151152830      1.931      5.589
REMARK  2 active torsions:
REMARK  status: ('A' for Active; 'I' for Inactive)
REMARK       I    between atoms: N1_2  and  C2_4 
REMARK       I    between atoms: C2_4  and  N3_18 
REMARK    1  A    between atoms: N2_5  and  S1_7 
REMARK    2  A    between atoms: S1_7  and  C3_10 
ROOT
HETATM    1  S1  UNL     1      -4.222 -33.187 -27.160  1.00  0.00     0.277 S 
HETATM    2  O1  UNL     1      -3.061 -32.460 -26.551  1.00  0.00    -0.200 OA
HETATM    3  O2  UNL     1      -4.510 -34.367 -26.249  1.00  0.00    -0.200 OA
ENDROOT
BRANCH   1   4
HETATM    4  N2  UNL     1      -3.735 -33.771 -28.705  1.00  0.00    -0.113 N 
HETATM    5  C2  UNL     1      -4.269 -34.869 -29.134  1.00  0.00     0.684 C 
HETATM    6  N1  UNL     1      -5.227 -35.592 -28.382  1.00  0.00    -0.230 N 
HETATM    7  N3  UNL     1      -3.892 -35.395 -30.420  1.00  0.00    -0.226 N 
HETATM    8  C1  UNL     1      -5.012 -36.866 -27.776  1.00  0.00     0.165 C 
ATOM      9  H1  UNL     1      -6.146 -35.166 -28.264  1.00  0.00     0.177 HD
HETATM   10  C11 UNL     1      -3.647 -36.816 -30.588  1.00  0.00     0.168 C 
HETATM   11  C12 UNL     1      -3.745 -34.551 -31.578  1.00  0.00     0.168 C 
ATOM     12  H2  UNL     1      -3.048 -33.266 -29.265  1.00  0.00     0.197 HD
ENDBRANCH   1   4
BRANCH   1  13
HETATM   13  C3  UNL     1      -5.572 -32.117 -27.246  1.00  0.00     0.086 A 
HETATM   14  C4  UNL     1      -5.354 -30.757 -27.277  1.00  0.00     0.026 A 
HETATM   15  C5  UNL     1      -6.380 -29.831 -27.345  1.00  0.00     0.008 A 
HETATM   16  C6  UNL     1      -7.693 -30.264 -27.387  1.00  0.00    -0.061 A 
HETATM   17  C7  UNL     1      -8.829 -29.296 -27.462  1.00  0.00     0.048 C 
HETATM   18  C8  UNL     1      -7.896 -31.629 -27.356  1.00  0.00     0.015 A 
HETATM   19  C9  UNL     1      -6.889 -32.553 -27.288  1.00  0.00    -0.038 A 
HETATM   20  C10 UNL     1      -7.119 -34.019 -27.255  1.00  0.00     0.050 C 
ENDBRANCH   1  13
TORSDOF 2
ENDMDL
MODEL 5
REMARK VINA RESULT: -5.691702929      0.689      1.574
REMARK  2 active torsions:
REMARK  status: ('A' for Active; 'I' for Inactive)
REMARK       I    between atoms: N1_2  and  C2_4 
REMARK       I    between atoms: C2_4  and  N3_18 
REMARK    1  A    between atoms: N2_5  and  S1_7 
REMARK    2  A    between atoms: S1_7  and  C3_10 
ROOT
HETATM    1  S1  UNL     1      -5.460 -34.059 -26.270  1.00  0.00     0.277 S 
HETATM    2  O1  UNL     1      -5.843 -35.193 -25.368  1.00  0.00    -0.200 OA
HETATM    3  O2  UNL     1      -4.386 -33.276 -25.537  1.00  0.00    -0.200 OA
ENDROOT
BRANCH   1   4
HETATM    4  N2  UNL     1      -6.844 -33.056 -26.485  1.00  0.00    -0.113 N 
HETATM    5  C2  UNL     1      -6.678 -31.910 -27.064  1.00  0.00     0.684 C 
HETATM    6  N1  UNL     1      -5.414 -31.466 -27.521  1.00  0.00    -0.230 N 
HETATM    7  N3  UNL     1      -7.806 -31.039 -27.265  1.00  0.00    -0.226 N 
HETATM    8  C1  UNL     1      -4.660 -30.394 -26.955  1.00  0.00     0.165 C 
ATOM      9  H1  UNL     1      -5.007 -31.953 -28.320  1.00  0.00     0.177 HD
HETATM   10  C11 UNL     1      -7.687 -29.615 -27.008  1.00  0.00     0.168 C 
HETATM   11  C12 UNL     1      -9.080 -31.531 -27.722  1.00  0.00     0.168 C 
ATOM     12  H2  UNL     1      -7.764 -33.356 -26.166  1.00  0.00     0.197 HD
ENDBRANCH   1   4
BRANCH   1  13
HETATM   13  C3  UNL     1      -4.864 -34.700 -27.757  1.00  0.00     0.086 A 
HETATM   14  C4  UNL     1      -5.593 -35.668 -28.414  1.00  0.00     0.026 A 
HETATM   15  C5  UNL     1      -5.186 -36.234 -29.610  1.00  0.00     0.008 A 
HETATM   16  C6  UNL     1      -3.999 -35.827 -30.192  1.00  0.00    -0.061 A 
HETATM   17  C7  UNL     1      -3.525 -36.414 -31.483  1.00  0.00     0.048 C 
HETATM   18  C8  UNL     1      -3.280 -34.857 -29.523  1.00  0.00     0.015 A 
HETATM   19  C9  UNL     1      -3.673 -34.291 -28.341  1.00  0.00    -0.038 A 
HETATM   20  C10 UNL     1      -2.892 -33.248 -27.629  1.00  0.00     0.050 C 
ENDBRANCH   1  13
TORSDOF 2
ENDMDL
