MODEL 1
REMARK VINA RESULT: -7.975609616      0.000      0.000
REMARK  4 active torsions:
REMARK  status: ('A' for Active; 'I' for Inactive)
REMARK    1  A    between atoms: O1_2  and  C2_3 
REMARK    2  A    between atoms: C2_3  and  C3_5 
REMARK    3  A    between atoms: C4_6  and  N1_7 
REMARK       I    between atoms: N1_7  and  C5_9 
REMARK    4  A    between atoms: C5_9  and  C6_11 
ROOT
HETATM    1  C3  UNL     1      18.854  10.504  40.132  1.00  0.00     0.080 A 
HETATM    2  C4  UNL     1      18.768  10.709  41.478  1.00  0.00     0.094 A 
HETATM    3  S1  UNL     1      19.905   9.591  42.116  1.00  0.00    -0.075 SA
HETATM    4  C9  UNL     1      20.457   8.898  40.669  1.00  0.00    -0.008 A 
HETATM    5  C10 UNL     1      19.740   9.556  39.718  1.00  0.00    -0.026 A 
HETATM    6  C11 UNL     1      20.219   8.959  38.402  1.00  0.00     0.041 C 
HETATM    7  C12 UNL     1      20.523   7.540  38.829  1.00  0.00     0.010 C 
HETATM    8  C13 UNL     1      21.393   7.875  40.051  1.00  0.00     0.047 C 
ENDROOT
BRANCH   2   9
HETATM    9  N1  UNL     1      17.984  11.585  42.282  1.00  0.00    -0.315 N 
HETATM   10  C5  UNL     1      18.650  12.557  43.101  1.00  0.00     0.275 C 
HETATM   11  O3  UNL     1      19.900  12.639  43.116  1.00  0.00    -0.266 OA
ATOM     12  H1  UNL     1      16.966  11.522  42.275  1.00  0.00     0.170 HD
BRANCH  10  13
HETATM   13  C6  UNL     1      17.849  13.443  43.913  1.00  0.00     0.126 A 
HETATM   14  C7  UNL     1      17.664  13.340  45.291  1.00  0.00     0.089 A 
HETATM   15  C8  UNL     1      16.839  14.369  45.676  1.00  0.00     0.170 A 
HETATM   16 CL1  UNL     1      16.303  14.683  47.305  1.00  0.00    -0.054 Cl
HETATM   17  O4  UNL     1      16.549  15.043  44.603  1.00  0.00    -0.225 OA
HETATM   18  N2  UNL     1      17.129  14.520  43.557  1.00  0.00    -0.254 N 
ATOM     19  H2  UNL     1      17.047  14.877  42.606  1.00  0.00     0.195 HD
ENDBRANCH  10  13
ENDBRANCH   2   9
BRANCH   1  20
HETATM   20  C2  UNL     1      18.014  11.290  39.193  1.00  0.00     0.296 C 
HETATM   21  O2  UNL     1      17.807  10.845  38.050  1.00  0.00    -0.259 OA
BRANCH  20  22
HETATM   22  O1  UNL     1      17.474  12.497  39.589  1.00  0.00    -0.322 OA
HETATM   23  C1  UNL     1      17.507  13.568  38.652  1.00  0.00     0.213 C 
ENDBRANCH  20  22
ENDBRANCH   1  20
TORSDOF 4
ENDMDL
MODEL 2
REMARK VINA RESULT: -7.745062050      1.594      1.858
REMARK  4 active torsions:
REMARK  status: ('A' for Active; 'I' for Inactive)
REMARK    1  A    between atoms: O1_2  and  C2_3 
REMARK    2  A    between atoms: C2_3  and  C3_5 
REMARK    3  A    between atoms: C4_6  and  N1_7 
REMARK       I    between atoms: N1_7  and  C5_9 
REMARK    4  A    between atoms: C5_9  and  C6_11 
ROOT
HETATM    1  C3  UNL     1      18.461  10.923  40.815  1.00  0.00     0.080 A 
HETATM    2  C4  UNL     1      18.646  10.546  42.112  1.00  0.00     0.094 A 
HETATM    3  S1  UNL     1      19.518   9.073  41.970  1.00  0.00    -0.075 SA
HETATM    4  C9  UNL     1      19.624   8.975  40.279  1.00  0.00    -0.008 A 
HETATM    5  C10 UNL     1      18.975  10.096  39.863  1.00  0.00    -0.026 A 
HETATM    6  C11 UNL     1      19.060  10.039  38.344  1.00  0.00     0.041 C 
HETATM    7  C12 UNL     1      19.025   8.544  38.114  1.00  0.00     0.010 C 
HETATM    8  C13 UNL     1      20.134   8.158  39.106  1.00  0.00     0.047 C 
ENDROOT
BRANCH   2   9
HETATM    9  N1  UNL     1      18.269  11.125  43.358  1.00  0.00    -0.315 N 
HETATM   10  C5  UNL     1      19.177  12.027  44.007  1.00  0.00     0.275 C 
HETATM   11  O3  UNL     1      20.286  12.306  43.493  1.00  0.00    -0.266 OA
ATOM     12  H1  UNL     1      17.369  10.902  43.781  1.00  0.00     0.170 HD
BRANCH  10  13
HETATM   13  C6  UNL     1      18.788  12.611  45.269  1.00  0.00     0.126 A 
HETATM   14  C7  UNL     1      17.532  13.134  45.572  1.00  0.00     0.089 A 
HETATM   15  C8  UNL     1      17.575  13.589  46.869  1.00  0.00     0.170 A 
HETATM   16 CL1  UNL     1      16.251  14.333  47.725  1.00  0.00    -0.054 Cl
HETATM   17  O4  UNL     1      18.774  13.355  47.313  1.00  0.00    -0.225 OA
HETATM   18  N2  UNL     1      19.503  12.783  46.393  1.00  0.00    -0.254 N 
ATOM     19  H2  UNL     1      20.478  12.506  46.512  1.00  0.00     0.195 HD
ENDBRANCH  10  13
ENDBRANCH   2   9
BRANCH   1  20
HETATM   20  C2  UNL     1      17.732  12.176  40.488  1.00  0.00     0.296 C 
HETATM   21  O2  UNL     1      17.570  13.030  41.376  1.00  0.00    -0.259 OA
BRANCH  20  22
HETATM   22  O1  UNL     1      17.244  12.381  39.213  1.00  0.00    -0.322 OA
HETATM   23  C1  UNL     1      17.717  13.523  38.507  1.00  0.00     0.213 C 
ENDBRANCH  20  22
ENDBRANCH   1  20
TORSDOF 4
ENDMDL
MODEL 3
REMARK VINA RESULT: -7.466037995      3.706      7.824
REMARK  4 active torsions:
REMARK  status: ('A' for Active; 'I' for Inactive)
REMARK    1  A    between atoms: O1_2  and  C2_3 
REMARK    2  A    between atoms: C2_3  and  C3_5 
REMARK    3  A    between atoms: C4_6  and  N1_7 
REMARK       I    between atoms: N1_7  and  C5_9 
REMARK    4  A    between atoms: C5_9  and  C6_11 
ROOT
HETATM    1  C3  UNL     1      17.745  12.306  45.907  1.00  0.00     0.080 A 
HETATM    2  C4  UNL     1      17.758  12.314  44.543  1.00  0.00     0.094 A 
HETATM    3  S1  UNL     1      17.348  13.937  44.158  1.00  0.00    -0.075 SA
HETATM    4  C9  UNL     1      17.173  14.559  45.727  1.00  0.00    -0.008 A 
HETATM    5  C10 UNL     1      17.438  13.484  46.518  1.00  0.00    -0.026 A 
HETATM    6  C11 UNL     1      17.295  14.014  47.938  1.00  0.00     0.041 C 
HETATM    7  C12 UNL     1      16.213  15.054  47.744  1.00  0.00     0.010 C 
HETATM    8  C13 UNL     1      16.847  15.790  46.553  1.00  0.00     0.047 C 
ENDROOT
BRANCH   2   9
HETATM    9  N1  UNL     1      18.022  11.312  43.566  1.00  0.00    -0.315 N 
HETATM   10  C5  UNL     1      19.372  11.121  43.117  1.00  0.00     0.275 C 
HETATM   11  O3  UNL     1      20.308  11.820  43.571  1.00  0.00    -0.266 OA
ATOM     12  H1  UNL     1      17.266  10.741  43.191  1.00  0.00     0.170 HD
BRANCH  10  13
HETATM   13  C6  UNL     1      19.634  10.103  42.126  1.00  0.00     0.126 A 
HETATM   14  C7  UNL     1      18.832   9.815  41.023  1.00  0.00     0.089 A 
HETATM   15  C8  UNL     1      19.429   8.787  40.334  1.00  0.00     0.170 A 
HETATM   16 CL1  UNL     1      18.819   8.057  38.873  1.00  0.00    -0.054 Cl
HETATM   17  O4  UNL     1      20.515   8.479  40.980  1.00  0.00    -0.225 OA
HETATM   18  N2  UNL     1      20.656   9.236  42.033  1.00  0.00    -0.254 N 
ATOM     19  H2  UNL     1      21.432   9.178  42.692  1.00  0.00     0.195 HD
ENDBRANCH  10  13
ENDBRANCH   2   9
BRANCH   1  20
HETATM   20  C2  UNL     1      18.053  11.062  46.659  1.00  0.00     0.296 C 
HETATM   21  O2  UNL     1      19.241  10.725  46.807  1.00  0.00    -0.259 OA
BRANCH  20  22
HETATM   22  O1  UNL     1      17.031  10.297  47.181  1.00  0.00    -0.322 OA
HETATM   23  C1  UNL     1      16.868  10.300  48.596  1.00  0.00     0.213 C 
ENDBRANCH  20  22
ENDBRANCH   1  20
TORSDOF 4
ENDMDL
MODEL 4
REMARK VINA RESULT: -7.301709163      3.560      4.850
REMARK  4 active torsions:
REMARK  status: ('A' for Active; 'I' for Inactive)
REMARK    1  A    between atoms: O1_2  and  C2_3 
REMARK    2  A    between atoms: C2_3  and  C3_5 
REMARK    3  A    between atoms: C4_6  and  N1_7 
REMARK       I    between atoms: N1_7  and  C5_9 
REMARK    4  A    between atoms: C5_9  and  C6_11 
ROOT
HETATM    1  C3  UNL     1      18.926  10.731  41.486  1.00  0.00     0.080 A 
HETATM    2  C4  UNL     1      18.918  11.427  42.659  1.00  0.00     0.094 A 
HETATM    3  S1  UNL     1      18.050  12.854  42.261  1.00  0.00    -0.075 SA
HETATM    4  C9  UNL     1      17.722  12.534  40.627  1.00  0.00    -0.008 A 
HETATM    5  C10 UNL     1      18.299  11.317  40.428  1.00  0.00    -0.026 A 
HETATM    6  C11 UNL     1      18.015  10.998  38.967  1.00  0.00     0.041 C 
HETATM    7  C12 UNL     1      18.034  12.386  38.365  1.00  0.00     0.010 C 
HETATM    8  C13 UNL     1      17.070  13.054  39.359  1.00  0.00     0.047 C 
ENDROOT
BRANCH   2   9
HETATM    9  N1  UNL     1      19.450  11.160  43.953  1.00  0.00    -0.315 N 
HETATM   10  C5  UNL     1      20.685  11.782  44.337  1.00  0.00     0.275 C 
HETATM   11  O3  UNL     1      21.292  12.548  43.552  1.00  0.00    -0.266 OA
ATOM     12  H1  UNL     1      18.962  10.537  44.595  1.00  0.00     0.170 HD
BRANCH  10  13
HETATM   13  C6  UNL     1      21.219  11.508  45.650  1.00  0.00     0.126 A 
HETATM   14  C7  UNL     1      22.472  11.902  46.118  1.00  0.00     0.089 A 
HETATM   15  C8  UNL     1      22.594  11.446  47.409  1.00  0.00     0.170 A 
HETATM   16 CL1  UNL     1      23.981  11.680  48.439  1.00  0.00    -0.054 Cl
HETATM   17  O4  UNL     1      21.490  10.821  47.695  1.00  0.00    -0.225 OA
HETATM   18  N2  UNL     1      20.670  10.844  46.680  1.00  0.00    -0.254 N 
ATOM     19  H2  UNL     1      19.743  10.418  46.671  1.00  0.00     0.195 HD
ENDBRANCH  10  13
ENDBRANCH   2   9
BRANCH   1  20
HETATM   20  C2  UNL     1      19.593   9.406  41.396  1.00  0.00     0.296 C 
HETATM   21  O2  UNL     1      19.337   8.542  42.253  1.00  0.00    -0.259 OA
BRANCH  20  22
HETATM   22  O1  UNL     1      20.482   9.146  40.374  1.00  0.00    -0.322 OA
HETATM   23  C1  UNL     1      21.621   8.349  40.684  1.00  0.00     0.213 C 
ENDBRANCH  20  22
ENDBRANCH   1  20
TORSDOF 4
ENDMDL
MODEL 5
REMARK VINA RESULT: -7.289379405      2.339      3.265
REMARK  4 active torsions:
REMARK  status: ('A' for Active; 'I' for Inactive)
REMARK    1  A    between atoms: O1_2  and  C2_3 
REMARK    2  A    between atoms: C2_3  and  C3_5 
REMARK    3  A    between atoms: C4_6  and  N1_7 
REMARK       I    between atoms: N1_7  and  C5_9 
REMARK    4  A    between atoms: C5_9  and  C6_11 
ROOT
HETATM    1  C3  UNL     1      18.430  11.342  41.297  1.00  0.00     0.080 A 
HETATM    2  C4  UNL     1      18.817  10.546  42.335  1.00  0.00     0.094 A 
HETATM    3  S1  UNL     1      19.381   9.127  41.550  1.00  0.00    -0.075 SA
HETATM    4  C9  UNL     1      19.113   9.576  39.935  1.00  0.00    -0.008 A 
HETATM    5  C10 UNL     1      18.588  10.826  40.045  1.00  0.00    -0.026 A 
HETATM    6  C11 UNL     1      18.343  11.262  38.608  1.00  0.00     0.041 C 
HETATM    7  C12 UNL     1      18.011   9.934  37.963  1.00  0.00     0.010 C 
HETATM    8  C13 UNL     1      19.223   9.144  38.485  1.00  0.00     0.047 C 
ENDROOT
BRANCH   2   9
HETATM    9  N1  UNL     1      18.811  10.719  43.748  1.00  0.00    -0.315 N 
HETATM   10  C5  UNL     1      19.935  11.356  44.374  1.00  0.00     0.275 C 
HETATM   11  O3  UNL     1      20.910  11.756  43.695  1.00  0.00    -0.266 OA
ATOM     12  H1  UNL     1      18.022  10.395  44.306  1.00  0.00     0.170 HD
BRANCH  10  13
HETATM   13  C6  UNL     1      19.922  11.529  45.808  1.00  0.00     0.126 A 
HETATM   14  C7  UNL     1      19.112  12.416  46.514  1.00  0.00     0.089 A 
HETATM   15  C8  UNL     1      19.406  12.272  47.850  1.00  0.00     0.170 A 
HETATM   16 CL1  UNL     1      18.661  13.159  49.152  1.00  0.00    -0.054 Cl
HETATM   17  O4  UNL     1      20.329  11.361  47.938  1.00  0.00    -0.225 OA
HETATM   18  N2  UNL     1      20.649  10.911  46.755  1.00  0.00    -0.254 N 
ATOM     19  H2  UNL     1      21.350  10.193  46.575  1.00  0.00     0.195 HD
ENDBRANCH  10  13
ENDBRANCH   2   9
BRANCH   1  20
HETATM   20  C2  UNL     1      17.869  12.694  41.548  1.00  0.00     0.296 C 
HETATM   21  O2  UNL     1      17.036  13.160  40.751  1.00  0.00    -0.259 OA
BRANCH  20  22
HETATM   22  O1  UNL     1      18.271  13.417  42.653  1.00  0.00    -0.322 OA
HETATM   23  C1  UNL     1      17.258  13.866  43.546  1.00  0.00     0.213 C 
ENDBRANCH  20  22
ENDBRANCH   1  20
TORSDOF 4
ENDMDL
