MODEL 1
REMARK VINA RESULT: -9.308076305      0.000      0.000
REMARK  8 active torsions:
REMARK  status: ('A' for Active; 'I' for Inactive)
REMARK    1  A    between atoms: C1_2  and  O1_3 
REMARK    2  A    between atoms: N2_5  and  C2_7 
REMARK    3  A    between atoms: C2_7  and  C3_8 
REMARK    4  A    between atoms: C3_8  and  C4_9 
REMARK    5  A    between atoms: C3_8  and  N4_16 
REMARK    6  A    between atoms: N5_19  and  C11_20 
REMARK    7  A    between atoms: C11_20  and  C12_21 
REMARK    8  A    between atoms: C12_21  and  N6_22 
ROOT
HETATM    1  C3  UNL     1      29.131  21.618  14.472  1.00  0.00     0.136 C 
ENDROOT
BRANCH   1   2
HETATM    2  C2  UNL     1      30.177  21.398  15.557  1.00  0.00     0.152 C 
BRANCH   2   3
HETATM    3  N2  UNL     1      31.415  22.042  15.172  1.00  0.00    -0.357 N 
HETATM    4  C1  UNL     1      31.933  22.966  15.893  1.00  0.00     0.225 C 
HETATM    5  N1  UNL     1      33.142  23.571  15.485  1.00  0.00    -0.057 NA
ATOM      6  H2  UNL     1      31.883  21.755  14.312  1.00  0.00     0.162 HD
BRANCH   4   7
HETATM    7  O1  UNL     1      31.293  23.348  17.056  1.00  0.00    -0.335 OA
ATOM      8  H1  UNL     1      30.872  22.711  17.622  1.00  0.00     0.220 HD
ENDBRANCH   4   7
ENDBRANCH   2   3
ENDBRANCH   1   2
BRANCH   1   9
HETATM    9  C4  UNL     1      27.974  20.728  14.709  1.00  0.00    -0.018 A 
HETATM   10  C5  UNL     1      26.751  20.954  14.128  1.00  0.00     0.012 A 
HETATM   11  C6  UNL     1      25.707  20.077  14.405  1.00  0.00     0.018 A 
HETATM   12  C7  UNL     1      25.873  18.995  15.241  1.00  0.00     0.087 A 
HETATM   13  N3  UNL     1      27.080  18.777  15.811  1.00  0.00    -0.375 N 
HETATM   14  C8  UNL     1      28.098  19.608  15.558  1.00  0.00     0.096 A 
ATOM     15  H3  UNL     1      27.214  17.979  16.432  1.00  0.00     0.164 HD
ENDBRANCH   1   9
BRANCH   1  16
HETATM   16  N4  UNL     1      29.637  21.682  13.179  1.00  0.00    -0.377 N 
HETATM   17  C9  UNL     1      29.680  22.821  12.400  1.00  0.00     0.103 C 
HETATM   18  C10 UNL     1      29.617  22.604  10.904  1.00  0.00     0.102 C 
HETATM   19  N5  UNL     1      30.123  21.394  10.417  1.00  0.00    -0.382 N 
HETATM   20  C17 UNL     1      29.698  20.272  11.176  1.00  0.00     0.142 C 
HETATM   21  C18 UNL     1      30.110  20.460  12.606  1.00  0.00     0.143 C 
BRANCH  19  22
HETATM   22  C11 UNL     1      31.455  21.371   9.898  1.00  0.00     0.167 C 
BRANCH  22  23
HETATM   23  C12 UNL     1      31.907  22.721   9.395  1.00  0.00     0.082 C 
BRANCH  23  24
HETATM   24  N6  UNL     1      33.183  22.828   8.891  1.00  0.00    -0.372 N 
HETATM   25  C13 UNL     1      34.139  23.719   9.385  1.00  0.00     0.063 C 
HETATM   26  C14 UNL     1      34.770  24.355   8.164  1.00  0.00     0.046 C 
HETATM   27  C15 UNL     1      34.765  23.186   7.174  1.00  0.00     0.025 C 
HETATM   28  C16 UNL     1      33.522  22.390   7.596  1.00  0.00     0.127 C 
ENDBRANCH  23  24
ENDBRANCH  22  23
ENDBRANCH  19  22
ENDBRANCH   1  16
TORSDOF 8
ENDMDL
MODEL 2
REMARK VINA RESULT: -9.252050757      0.505      1.029
REMARK  8 active torsions:
REMARK  status: ('A' for Active; 'I' for Inactive)
REMARK    1  A    between atoms: C1_2  and  O1_3 
REMARK    2  A    between atoms: N2_5  and  C2_7 
REMARK    3  A    between atoms: C2_7  and  C3_8 
REMARK    4  A    between atoms: C3_8  and  C4_9 
REMARK    5  A    between atoms: C3_8  and  N4_16 
REMARK    6  A    between atoms: N5_19  and  C11_20 
REMARK    7  A    between atoms: C11_20  and  C12_21 
REMARK    8  A    between atoms: C12_21  and  N6_22 
ROOT
HETATM    1  C3  UNL     1      29.122  21.618  14.477  1.00  0.00     0.136 C 
ENDROOT
BRANCH   1   2
HETATM    2  C2  UNL     1      30.158  21.428  15.578  1.00  0.00     0.152 C 
BRANCH   2   3
HETATM    3  N2  UNL     1      31.409  22.034  15.174  1.00  0.00    -0.357 N 
HETATM    4  C1  UNL     1      31.931  22.988  15.851  1.00  0.00     0.225 C 
HETATM    5  N1  UNL     1      33.153  23.554  15.426  1.00  0.00    -0.057 NA
ATOM      6  H2  UNL     1      31.883  21.695  14.336  1.00  0.00     0.162 HD
BRANCH   4   7
HETATM    7  O1  UNL     1      31.284  23.439  16.985  1.00  0.00    -0.335 OA
ATOM      8  H1  UNL     1      30.926  22.836  17.625  1.00  0.00     0.220 HD
ENDBRANCH   4   7
ENDBRANCH   2   3
ENDBRANCH   1   2
BRANCH   1   9
HETATM    9  C4  UNL     1      27.975  20.714  14.713  1.00  0.00    -0.018 A 
HETATM   10  C5  UNL     1      26.745  20.938  14.147  1.00  0.00     0.012 A 
HETATM   11  C6  UNL     1      25.711  20.049  14.420  1.00  0.00     0.018 A 
HETATM   12  C7  UNL     1      25.894  18.957  15.240  1.00  0.00     0.087 A 
HETATM   13  N3  UNL     1      27.108  18.741  15.796  1.00  0.00    -0.375 N 
HETATM   14  C8  UNL     1      28.116  19.584  15.545  1.00  0.00     0.096 A 
ATOM     15  H3  UNL     1      27.255  17.936  16.404  1.00  0.00     0.164 HD
ENDBRANCH   1   9
BRANCH   1  16
HETATM   16  N4  UNL     1      29.643  21.672  13.191  1.00  0.00    -0.377 N 
HETATM   17  C9  UNL     1      29.772  22.820  12.435  1.00  0.00     0.103 C 
HETATM   18  C10 UNL     1      29.707  22.637  10.934  1.00  0.00     0.102 C 
HETATM   19  N5  UNL     1      30.132  21.404  10.427  1.00  0.00    -0.382 N 
HETATM   20  C17 UNL     1      29.624  20.300  11.160  1.00  0.00     0.142 C 
HETATM   21  C18 UNL     1      30.035  20.431  12.597  1.00  0.00     0.143 C 
BRANCH  19  22
HETATM   22  C11 UNL     1      31.465  21.299   9.918  1.00  0.00     0.167 C 
BRANCH  22  23
HETATM   23  C12 UNL     1      32.009  22.621   9.433  1.00  0.00     0.082 C 
BRANCH  23  24
HETATM   24  N6  UNL     1      32.664  22.645   8.224  1.00  0.00    -0.372 N 
HETATM   25  C13 UNL     1      32.427  21.729   7.196  1.00  0.00     0.063 C 
HETATM   26  C14 UNL     1      33.795  21.313   6.699  1.00  0.00     0.046 C 
HETATM   27  C15 UNL     1      34.582  22.619   6.846  1.00  0.00     0.025 C 
HETATM   28  C16 UNL     1      33.904  23.290   8.049  1.00  0.00     0.127 C 
ENDBRANCH  23  24
ENDBRANCH  22  23
ENDBRANCH  19  22
ENDBRANCH   1  16
TORSDOF 8
ENDMDL
MODEL 3
REMARK VINA RESULT: -9.247596772      1.208      1.642
REMARK  8 active torsions:
REMARK  status: ('A' for Active; 'I' for Inactive)
REMARK    1  A    between atoms: C1_2  and  O1_3 
REMARK    2  A    between atoms: N2_5  and  C2_7 
REMARK    3  A    between atoms: C2_7  and  C3_8 
REMARK    4  A    between atoms: C3_8  and  C4_9 
REMARK    5  A    between atoms: C3_8  and  N4_16 
REMARK    6  A    between atoms: N5_19  and  C11_20 
REMARK    7  A    between atoms: C11_20  and  C12_21 
REMARK    8  A    between atoms: C12_21  and  N6_22 
ROOT
HETATM    1  C3  UNL     1      29.134  21.129  15.173  1.00  0.00     0.136 C 
ENDROOT
BRANCH   1   2
HETATM    2  C2  UNL     1      30.316  21.399  16.095  1.00  0.00     0.152 C 
BRANCH   2   3
HETATM    3  N2  UNL     1      31.352  22.094  15.361  1.00  0.00    -0.357 N 
HETATM    4  C1  UNL     1      31.929  23.128  15.851  1.00  0.00     0.225 C 
HETATM    5  N1  UNL     1      32.936  23.780  15.105  1.00  0.00    -0.057 NA
ATOM      6  H2  UNL     1      31.627  21.755  14.439  1.00  0.00     0.162 HD
BRANCH   4   7
HETATM    7  O1  UNL     1      31.552  23.579  17.100  1.00  0.00    -0.335 OA
ATOM      8  H1  UNL     1      30.698  23.376  17.464  1.00  0.00     0.220 HD
ENDBRANCH   4   7
ENDBRANCH   2   3
ENDBRANCH   1   2
BRANCH   1   9
HETATM    9  C4  UNL     1      28.323  20.018  15.718  1.00  0.00    -0.018 A 
HETATM   10  C5  UNL     1      27.226  19.526  15.055  1.00  0.00     0.012 A 
HETATM   11  C6  UNL     1      26.507  18.484  15.633  1.00  0.00     0.018 A 
HETATM   12  C7  UNL     1      26.870  17.940  16.845  1.00  0.00     0.087 A 
HETATM   13  N3  UNL     1      27.952  18.428  17.493  1.00  0.00    -0.375 N 
HETATM   14  C8  UNL     1      28.658  19.430  16.955  1.00  0.00     0.096 A 
ATOM     15  H3  UNL     1      28.231  18.032  18.391  1.00  0.00     0.164 HD
ENDBRANCH   1   9
BRANCH   1  16
HETATM   16  N4  UNL     1      29.447  21.092  13.820  1.00  0.00    -0.377 N 
HETATM   17  C9  UNL     1      28.959  21.965  12.870  1.00  0.00     0.103 C 
HETATM   18  C10 UNL     1      28.845  21.419  11.463  1.00  0.00     0.102 C 
HETATM   19  N5  UNL     1      29.742  20.409  11.101  1.00  0.00    -0.382 N 
HETATM   20  C17 UNL     1      29.873  19.405  12.095  1.00  0.00     0.142 C 
HETATM   21  C18 UNL     1      30.311  20.039  13.382  1.00  0.00     0.143 C 
BRANCH  19  22
HETATM   22  C11 UNL     1      30.917  20.770  10.370  1.00  0.00     0.167 C 
BRANCH  22  23
HETATM   23  C12 UNL     1      30.728  22.018   9.543  1.00  0.00     0.082 C 
BRANCH  23  24
HETATM   24  N6  UNL     1      31.661  22.295   8.571  1.00  0.00    -0.372 N 
HETATM   25  C13 UNL     1      31.663  21.701   7.306  1.00  0.00     0.063 C 
HETATM   26  C14 UNL     1      33.101  21.308   7.044  1.00  0.00     0.046 C 
HETATM   27  C15 UNL     1      33.858  22.456   7.720  1.00  0.00     0.025 C 
HETATM   28  C16 UNL     1      32.921  22.850   8.869  1.00  0.00     0.127 C 
ENDBRANCH  23  24
ENDBRANCH  22  23
ENDBRANCH  19  22
ENDBRANCH   1  16
TORSDOF 8
ENDMDL
MODEL 4
REMARK VINA RESULT: -9.237957785      1.156      1.671
REMARK  8 active torsions:
REMARK  status: ('A' for Active; 'I' for Inactive)
REMARK    1  A    between atoms: C1_2  and  O1_3 
REMARK    2  A    between atoms: N2_5  and  C2_7 
REMARK    3  A    between atoms: C2_7  and  C3_8 
REMARK    4  A    between atoms: C3_8  and  C4_9 
REMARK    5  A    between atoms: C3_8  and  N4_16 
REMARK    6  A    between atoms: N5_19  and  C11_20 
REMARK    7  A    between atoms: C11_20  and  C12_21 
REMARK    8  A    between atoms: C12_21  and  N6_22 
ROOT
HETATM    1  C3  UNL     1      28.665  21.260  14.463  1.00  0.00     0.136 C 
ENDROOT
BRANCH   1   2
HETATM    2  C2  UNL     1      29.624  20.998  15.617  1.00  0.00     0.152 C 
BRANCH   2   3
HETATM    3  N2  UNL     1      30.520  22.125  15.767  1.00  0.00    -0.357 N 
HETATM    4  C1  UNL     1      31.197  22.294  16.842  1.00  0.00     0.225 C 
HETATM    5  N1  UNL     1      32.061  23.406  16.951  1.00  0.00    -0.057 NA
ATOM      6  H2  UNL     1      30.614  22.795  15.004  1.00  0.00     0.162 HD
BRANCH   4   7
HETATM    7  O1  UNL     1      31.064  21.382  17.870  1.00  0.00    -0.335 OA
ATOM      8  H1  UNL     1      30.451  20.658  17.814  1.00  0.00     0.220 HD
ENDBRANCH   4   7
ENDBRANCH   2   3
ENDBRANCH   1   2
BRANCH   1   9
HETATM    9  C4  UNL     1      27.453  20.427  14.625  1.00  0.00    -0.018 A 
HETATM   10  C5  UNL     1      27.444  19.302  15.411  1.00  0.00     0.012 A 
HETATM   11  C6  UNL     1      26.268  18.565  15.509  1.00  0.00     0.018 A 
HETATM   12  C7  UNL     1      25.123  18.936  14.839  1.00  0.00     0.087 A 
HETATM   13  N3  UNL     1      25.138  20.046  14.066  1.00  0.00    -0.375 N 
HETATM   14  C8  UNL     1      26.259  20.770  13.958  1.00  0.00     0.096 A 
ATOM     15  H3  UNL     1      24.297  20.330  13.565  1.00  0.00     0.164 HD
ENDBRANCH   1   9
BRANCH   1  16
HETATM   16  N4  UNL     1      29.259  21.292  13.208  1.00  0.00    -0.377 N 
HETATM   17  C9  UNL     1      29.151  22.331  12.306  1.00  0.00     0.103 C 
HETATM   18  C10 UNL     1      29.261  21.955  10.844  1.00  0.00     0.102 C 
HETATM   19  N5  UNL     1      30.029  20.828  10.536  1.00  0.00    -0.382 N 
HETATM   20  C17 UNL     1      29.764  19.727  11.392  1.00  0.00     0.142 C 
HETATM   21  C18 UNL     1      30.006  20.138  12.814  1.00  0.00     0.143 C 
BRANCH  19  22
HETATM   22  C11 UNL     1      31.382  21.020  10.111  1.00  0.00     0.167 C 
BRANCH  22  23
HETATM   23  C12 UNL     1      31.619  22.390   9.524  1.00  0.00     0.082 C 
BRANCH  23  24
HETATM   24  N6  UNL     1      32.315  22.474   8.341  1.00  0.00    -0.372 N 
HETATM   25  C13 UNL     1      32.051  21.671   7.229  1.00  0.00     0.063 C 
HETATM   26  C14 UNL     1      33.405  21.205   6.734  1.00  0.00     0.046 C 
HETATM   27  C15 UNL     1      34.273  22.434   7.021  1.00  0.00     0.025 C 
HETATM   28  C16 UNL     1      33.601  23.042   8.260  1.00  0.00     0.127 C 
ENDBRANCH  23  24
ENDBRANCH  22  23
ENDBRANCH  19  22
ENDBRANCH   1  16
TORSDOF 8
ENDMDL
MODEL 5
REMARK VINA RESULT: -8.864392878      1.027      1.568
REMARK  8 active torsions:
REMARK  status: ('A' for Active; 'I' for Inactive)
REMARK    1  A    between atoms: C1_2  and  O1_3 
REMARK    2  A    between atoms: N2_5  and  C2_7 
REMARK    3  A    between atoms: C2_7  and  C3_8 
REMARK    4  A    between atoms: C3_8  and  C4_9 
REMARK    5  A    between atoms: C3_8  and  N4_16 
REMARK    6  A    between atoms: N5_19  and  C11_20 
REMARK    7  A    between atoms: C11_20  and  C12_21 
REMARK    8  A    between atoms: C12_21  and  N6_22 
ROOT
HETATM    1  C3  UNL     1      28.882  21.306  14.295  1.00  0.00     0.136 C 
ENDROOT
BRANCH   1   2
HETATM    2  C2  UNL     1      30.010  21.086  15.295  1.00  0.00     0.152 C 
BRANCH   2   3
HETATM    3  N2  UNL     1      31.154  21.889  14.918  1.00  0.00    -0.357 N 
HETATM    4  C1  UNL     1      31.704  22.691  15.753  1.00  0.00     0.225 C 
HETATM    5  N1  UNL     1      32.818  23.458  15.348  1.00  0.00    -0.057 NA
ATOM      6  H2  UNL     1      31.527  21.816  13.972  1.00  0.00     0.162 HD
BRANCH   4   7
HETATM    7  O1  UNL     1      31.191  22.783  17.032  1.00  0.00    -0.335 OA
ATOM      8  H1  UNL     1      31.734  23.046  17.766  1.00  0.00     0.220 HD
ENDBRANCH   4   7
ENDBRANCH   2   3
ENDBRANCH   1   2
BRANCH   1   9
HETATM    9  C4  UNL     1      27.741  20.427  14.632  1.00  0.00    -0.018 A 
HETATM   10  C5  UNL     1      26.482  20.643  14.127  1.00  0.00     0.012 A 
HETATM   11  C6  UNL     1      25.457  19.778  14.495  1.00  0.00     0.018 A 
HETATM   12  C7  UNL     1      25.675  18.718  15.346  1.00  0.00     0.087 A 
HETATM   13  N3  UNL     1      26.917  18.509  15.840  1.00  0.00    -0.375 N 
HETATM   14  C8  UNL     1      27.918  19.329  15.499  1.00  0.00     0.096 A 
ATOM     15  H3  UNL     1      27.090  17.727  16.471  1.00  0.00     0.164 HD
ENDBRANCH   1   9
BRANCH   1  16
HETATM   16  N4  UNL     1      29.283  21.357  12.966  1.00  0.00    -0.377 N 
HETATM   17  C9  UNL     1      29.784  20.289  12.249  1.00  0.00     0.103 C 
HETATM   18  C10 UNL     1      30.744  20.634  11.131  1.00  0.00     0.102 C 
HETATM   19  N5  UNL     1      30.587  21.884  10.523  1.00  0.00    -0.382 N 
HETATM   20  C17 UNL     1      30.399  22.934  11.460  1.00  0.00     0.142 C 
HETATM   21  C18 UNL     1      29.204  22.626  12.312  1.00  0.00     0.143 C 
BRANCH  19  22
HETATM   22  C11 UNL     1      29.858  21.958   9.295  1.00  0.00     0.167 C 
BRANCH  22  23
HETATM   23  C12 UNL     1      30.731  22.327   8.120  1.00  0.00     0.082 C 
BRANCH  23  24
HETATM   24  N6  UNL     1      31.993  21.781   8.058  1.00  0.00    -0.372 N 
HETATM   25  C13 UNL     1      33.167  22.532   8.165  1.00  0.00     0.063 C 
HETATM   26  C14 UNL     1      34.074  22.025   7.063  1.00  0.00     0.046 C 
HETATM   27  C15 UNL     1      33.720  20.535   7.039  1.00  0.00     0.025 C 
HETATM   28  C16 UNL     1      32.246  20.529   7.467  1.00  0.00     0.127 C 
ENDBRANCH  23  24
ENDBRANCH  22  23
ENDBRANCH  19  22
ENDBRANCH   1  16
TORSDOF 8
ENDMDL
