MODEL 1
REMARK VINA RESULT: -7.934614639      0.000      0.000
REMARK  8 active torsions:
REMARK  status: ('A' for Active; 'I' for Inactive)
REMARK    1  A    between atoms: C3_3  and  C4_4 
REMARK    2  A    between atoms: C4_4  and  O1_5 
REMARK    3  A    between atoms: C9_11  and  C10_12 
REMARK    4  A    between atoms: C11_18  and  C12_19 
REMARK    5  A    between atoms: C12_19  and  O2_20 
REMARK    6  A    between atoms: C12_19  and  C13_22 
REMARK    7  A    between atoms: C12_19  and  C15_26 
REMARK    8  A    between atoms: C13_22  and  C14_23 
ROOT
HETATM    1  C1  UNL     1     -12.104  -2.423 -12.588  1.00  0.00     0.051 C 
HETATM    2  C2  UNL     1     -13.017  -1.530 -13.323  1.00  0.00    -0.027 A 
HETATM    3  C3  UNL     1     -14.287  -1.834 -13.725  1.00  0.00     0.051 A 
HETATM    4  N1  UNL     1     -15.055  -0.958 -14.396  1.00  0.00    -0.355 N 
ATOM      5  H1  UNL     1     -15.993  -1.257 -14.663  1.00  0.00     0.166 HD
HETATM    6  C11 UNL     1     -14.664   0.308 -14.746  1.00  0.00     0.084 A 
HETATM    7  C21 UNL     1     -13.394   0.626 -14.353  1.00  0.00     0.148 A 
HETATM    8  F4  UNL     1     -12.873   1.809 -14.695  1.00  0.00    -0.203 F 
HETATM    9  C22 UNL     1     -12.574  -0.244 -13.662  1.00  0.00    -0.013 A 
HETATM   10  C23 UNL     1     -11.204   0.139 -13.250  1.00  0.00     0.052 C 
ENDROOT
BRANCH   6  11
HETATM   11  C12 UNL     1     -15.547   1.262 -15.418  1.00  0.00     0.114 C 
BRANCH  11  12
HETATM   12  O2  UNL     1     -15.657   0.697 -16.755  1.00  0.00    -0.383 OA
ATOM     13  H2  UNL     1     -16.471   0.209 -16.702  1.00  0.00     0.211 HD
ENDBRANCH  11  12
BRANCH  11  14
HETATM   14  C13 UNL     1     -14.902   2.591 -15.711  1.00  0.00     0.144 C 
BRANCH  14  15
HETATM   15  C14 UNL     1     -14.524   2.797 -17.127  1.00  0.00     0.234 C 
HETATM   16  N2  UNL     1     -13.454   2.111 -17.772  1.00  0.00    -0.062 NA
HETATM   17  O3  UNL     1     -15.158   3.616 -17.845  1.00  0.00    -0.277 OA
ENDBRANCH  14  15
ENDBRANCH  11  14
BRANCH  11  18
HETATM   18  C15 UNL     1     -16.976   1.294 -15.070  1.00  0.00     0.027 C 
HETATM   19  C16 UNL     1     -17.916   0.200 -15.222  1.00  0.00     0.008 C 
HETATM   20  C17 UNL     1     -19.361   0.729 -15.110  1.00  0.00     0.000 C 
HETATM   21  C18 UNL     1     -19.385   1.864 -14.146  1.00  0.00     0.000 C 
HETATM   22  C19 UNL     1     -18.728   3.054 -14.798  1.00  0.00     0.000 C 
HETATM   23  C20 UNL     1     -17.620   2.529 -15.730  1.00  0.00     0.008 C 
ENDBRANCH  11  18
ENDBRANCH   6  11
BRANCH   3  24
HETATM   24  C4  UNL     1     -14.890  -3.148 -13.430  1.00  0.00     0.112 C 
HETATM   25  C5  UNL     1     -16.355  -3.174 -13.880  1.00  0.00     0.045 C 
HETATM   26  C6  UNL     1     -16.869  -4.550 -13.818  1.00  0.00     0.003 C 
HETATM   27  C7  UNL     1     -16.507  -5.371 -12.633  1.00  0.00     0.001 C 
HETATM   28  C8  UNL     1     -15.197  -5.081 -12.016  1.00  0.00     0.017 C 
HETATM   29  C9  UNL     1     -14.821  -3.609 -12.029  1.00  0.00     0.134 C 
BRANCH  24  30
HETATM   30  O1  UNL     1     -14.338  -4.169 -14.249  1.00  0.00    -0.383 OA
ATOM     31  H1  UNL     1     -14.457  -5.028 -13.861  1.00  0.00     0.211 HD
ENDBRANCH  24  30
BRANCH  29  32
HETATM   32  C10 UNL     1     -15.608  -2.838 -11.011  1.00  0.00     0.394 C 
HETATM   33  F1  UNL     1     -14.841  -2.844  -9.824  1.00  0.00    -0.171 F 
HETATM   34  F2  UNL     1     -16.785  -3.454 -10.616  1.00  0.00    -0.171 F 
HETATM   35  F3  UNL     1     -15.772  -1.525 -11.349  1.00  0.00    -0.171 F 
ENDBRANCH  29  32
ENDBRANCH   3  24
TORSDOF 8
ENDMDL
MODEL 2
REMARK VINA RESULT: -7.822314807     15.137     18.081
REMARK  8 active torsions:
REMARK  status: ('A' for Active; 'I' for Inactive)
REMARK    1  A    between atoms: C3_3  and  C4_4 
REMARK    2  A    between atoms: C4_4  and  O1_5 
REMARK    3  A    between atoms: C9_11  and  C10_12 
REMARK    4  A    between atoms: C11_18  and  C12_19 
REMARK    5  A    between atoms: C12_19  and  O2_20 
REMARK    6  A    between atoms: C12_19  and  C13_22 
REMARK    7  A    between atoms: C12_19  and  C15_26 
REMARK    8  A    between atoms: C13_22  and  C14_23 
ROOT
HETATM    1  C1  UNL     1     -31.130  -2.741  -2.962  1.00  0.00     0.051 C 
HETATM    2  C2  UNL     1     -30.626  -3.795  -3.861  1.00  0.00    -0.027 A 
HETATM    3  C3  UNL     1     -29.601  -3.665  -4.756  1.00  0.00     0.051 A 
HETATM    4  N1  UNL     1     -29.204  -4.679  -5.543  1.00  0.00    -0.355 N 
ATOM      5  H1  UNL     1     -28.431  -4.507  -6.186  1.00  0.00     0.166 HD
HETATM    6  C11 UNL     1     -29.766  -5.930  -5.540  1.00  0.00     0.084 A 
HETATM    7  C21 UNL     1     -30.795  -6.075  -4.652  1.00  0.00     0.148 A 
HETATM    8  F4  UNL     1     -31.468  -7.229  -4.604  1.00  0.00    -0.203 F 
HETATM    9  C22 UNL     1     -31.232  -5.058  -3.826  1.00  0.00    -0.013 A 
HETATM   10  C23 UNL     1     -32.349  -5.255  -2.873  1.00  0.00     0.052 C 
ENDROOT
BRANCH   6  11
HETATM   11  C12 UNL     1     -29.268  -7.034  -6.362  1.00  0.00     0.114 C 
BRANCH  11  12
HETATM   12  O2  UNL     1     -28.101  -6.444  -7.002  1.00  0.00    -0.383 OA
ATOM     13  H2  UNL     1     -27.648  -7.207  -7.342  1.00  0.00     0.211 HD
ENDBRANCH  11  12
BRANCH  11  14
HETATM   14  C13 UNL     1     -30.133  -7.348  -7.555  1.00  0.00     0.144 C 
BRANCH  14  15
HETATM   15  C14 UNL     1     -29.611  -8.417  -8.434  1.00  0.00     0.234 C 
HETATM   16  N2  UNL     1     -30.311  -9.627  -8.716  1.00  0.00    -0.062 NA
HETATM   17  O3  UNL     1     -28.487  -8.296  -8.989  1.00  0.00    -0.277 OA
ENDBRANCH  14  15
ENDBRANCH  11  14
BRANCH  11  18
HETATM   18  C15 UNL     1     -28.612  -8.179  -5.712  1.00  0.00     0.027 C 
HETATM   19  C16 UNL     1     -29.273  -9.370  -5.213  1.00  0.00     0.008 C 
HETATM   20  C17 UNL     1     -28.321 -10.146  -4.280  1.00  0.00     0.000 C 
HETATM   21  C18 UNL     1     -26.924  -9.979  -4.769  1.00  0.00     0.000 C 
HETATM   22  C19 UNL     1     -26.481  -8.570  -4.468  1.00  0.00     0.000 C 
HETATM   23  C20 UNL     1     -27.716  -7.656  -4.572  1.00  0.00     0.008 C 
ENDBRANCH  11  18
ENDBRANCH   6  11
BRANCH   3  24
HETATM   24  C4  UNL     1     -28.863  -2.395  -4.896  1.00  0.00     0.112 C 
HETATM   25  C5  UNL     1     -29.841  -1.235  -5.115  1.00  0.00     0.045 C 
HETATM   26  C6  UNL     1     -29.126   0.045  -5.000  1.00  0.00     0.003 C 
HETATM   27  C7  UNL     1     -27.789   0.152  -5.640  1.00  0.00     0.001 C 
HETATM   28  C8  UNL     1     -26.997  -1.093  -5.704  1.00  0.00     0.017 C 
HETATM   29  C9  UNL     1     -27.828  -2.342  -5.946  1.00  0.00     0.134 C 
BRANCH  24  30
HETATM   30  O1  UNL     1     -28.257  -2.007  -3.671  1.00  0.00    -0.383 OA
ATOM     31  H1  UNL     1     -27.553  -2.598  -3.429  1.00  0.00     0.211 HD
ENDBRANCH  24  30
BRANCH  29  32
HETATM   32  C10 UNL     1     -28.289  -2.419  -7.371  1.00  0.00     0.394 C 
HETATM   33  F1  UNL     1     -27.484  -3.396  -8.000  1.00  0.00    -0.171 F 
HETATM   34  F2  UNL     1     -28.025  -1.281  -8.117  1.00  0.00    -0.171 F 
HETATM   35  F3  UNL     1     -29.577  -2.857  -7.490  1.00  0.00    -0.171 F 
ENDBRANCH  29  32
ENDBRANCH   3  24
TORSDOF 8
ENDMDL
MODEL 3
REMARK VINA RESULT: -7.685274497      1.721      3.137
REMARK  8 active torsions:
REMARK  status: ('A' for Active; 'I' for Inactive)
REMARK    1  A    between atoms: C3_3  and  C4_4 
REMARK    2  A    between atoms: C4_4  and  O1_5 
REMARK    3  A    between atoms: C9_11  and  C10_12 
REMARK    4  A    between atoms: C11_18  and  C12_19 
REMARK    5  A    between atoms: C12_19  and  O2_20 
REMARK    6  A    between atoms: C12_19  and  C13_22 
REMARK    7  A    between atoms: C12_19  and  C15_26 
REMARK    8  A    between atoms: C13_22  and  C14_23 
ROOT
HETATM    1  C1  UNL     1     -11.814  -3.380 -12.497  1.00  0.00     0.051 C 
HETATM    2  C2  UNL     1     -12.609  -2.371 -13.219  1.00  0.00    -0.027 A 
HETATM    3  C3  UNL     1     -13.934  -2.473 -13.542  1.00  0.00     0.051 A 
HETATM    4  N1  UNL     1     -14.586  -1.504 -14.206  1.00  0.00    -0.355 N 
ATOM      5  H1  UNL     1     -15.574  -1.651 -14.411  1.00  0.00     0.166 HD
HETATM    6  C11 UNL     1     -14.014  -0.331 -14.626  1.00  0.00     0.084 A 
HETATM    7  C21 UNL     1     -12.689  -0.215 -14.312  1.00  0.00     0.148 A 
HETATM    8  F4  UNL     1     -12.002   0.855 -14.727  1.00  0.00    -0.203 F 
HETATM    9  C22 UNL     1     -11.984  -1.187 -13.631  1.00  0.00    -0.013 A 
HETATM   10  C23 UNL     1     -10.547  -1.023 -13.306  1.00  0.00     0.052 C 
ENDROOT
BRANCH   6  11
HETATM   11  C12 UNL     1     -14.767   0.736 -15.289  1.00  0.00     0.114 C 
BRANCH  11  12
HETATM   12  O2  UNL     1     -14.589   1.855 -14.376  1.00  0.00    -0.383 OA
ATOM     13  H2  UNL     1     -15.424   1.884 -13.925  1.00  0.00     0.211 HD
ENDBRANCH  11  12
BRANCH  11  14
HETATM   14  C13 UNL     1     -16.261   0.549 -15.240  1.00  0.00     0.144 C 
BRANCH  14  15
HETATM   15  C14 UNL     1     -16.920   1.133 -14.051  1.00  0.00     0.234 C 
HETATM   16  N2  UNL     1     -16.604   0.770 -12.709  1.00  0.00    -0.062 NA
HETATM   17  O3  UNL     1     -17.817   2.008 -14.182  1.00  0.00    -0.277 OA
ENDBRANCH  14  15
ENDBRANCH  11  14
BRANCH  11  18
HETATM   18  C15 UNL     1     -14.226   1.351 -16.509  1.00  0.00     0.027 C 
HETATM   19  C16 UNL     1     -14.661   2.603 -17.099  1.00  0.00     0.008 C 
HETATM   20  C17 UNL     1     -14.131   2.715 -18.544  1.00  0.00     0.000 C 
HETATM   21  C18 UNL     1     -12.802   2.049 -18.622  1.00  0.00     0.000 C 
HETATM   22  C19 UNL     1     -13.012   0.558 -18.544  1.00  0.00     0.000 C 
HETATM   23  C20 UNL     1     -14.231   0.301 -17.638  1.00  0.00     0.008 C 
ENDBRANCH  11  18
ENDBRANCH   6  11
BRANCH   3  24
HETATM   24  C4  UNL     1     -14.725  -3.660 -13.163  1.00  0.00     0.112 C 
HETATM   25  C5  UNL     1     -16.153  -3.543 -13.709  1.00  0.00     0.045 C 
HETATM   26  C6  UNL     1     -16.851  -4.827 -13.550  1.00  0.00     0.003 C 
HETATM   27  C7  UNL     1     -16.670  -5.560 -12.269  1.00  0.00     0.001 C 
HETATM   28  C8  UNL     1     -15.369  -5.378 -11.595  1.00  0.00     0.017 C 
HETATM   29  C9  UNL     1     -14.796  -3.978 -11.724  1.00  0.00     0.134 C 
BRANCH  24  30
HETATM   30  O1  UNL     1     -14.272  -4.824 -13.841  1.00  0.00    -0.383 OA
ATOM     31  H1  UNL     1     -13.339  -4.787 -14.010  1.00  0.00     0.211 HD
ENDBRANCH  24  30
BRANCH  29  32
HETATM   32  C10 UNL     1     -15.526  -3.009 -10.841  1.00  0.00     0.394 C 
HETATM   33  F1  UNL     1     -14.844  -3.003  -9.603  1.00  0.00    -0.171 F 
HETATM   34  F2  UNL     1     -16.802  -3.415 -10.483  1.00  0.00    -0.171 F 
HETATM   35  F3  UNL     1     -15.477  -1.725 -11.306  1.00  0.00    -0.171 F 
ENDBRANCH  29  32
ENDBRANCH   3  24
TORSDOF 8
ENDMDL
MODEL 4
REMARK VINA RESULT: -7.599172745      4.326      7.819
REMARK  8 active torsions:
REMARK  status: ('A' for Active; 'I' for Inactive)
REMARK    1  A    between atoms: C3_3  and  C4_4 
REMARK    2  A    between atoms: C4_4  and  O1_5 
REMARK    3  A    between atoms: C9_11  and  C10_12 
REMARK    4  A    between atoms: C11_18  and  C12_19 
REMARK    5  A    between atoms: C12_19  and  O2_20 
REMARK    6  A    between atoms: C12_19  and  C13_22 
REMARK    7  A    between atoms: C12_19  and  C15_26 
REMARK    8  A    between atoms: C13_22  and  C14_23 
ROOT
HETATM    1  C1  UNL     1     -13.732  -1.629 -14.672  1.00  0.00     0.051 C 
HETATM    2  C2  UNL     1     -13.462  -3.076 -14.750  1.00  0.00    -0.027 A 
HETATM    3  C3  UNL     1     -13.613  -3.976 -13.732  1.00  0.00     0.051 A 
HETATM    4  N1  UNL     1     -13.342  -5.283 -13.887  1.00  0.00    -0.355 N 
ATOM      5  H1  UNL     1     -13.478  -5.894 -13.081  1.00  0.00     0.166 HD
HETATM    6  C11 UNL     1     -12.895  -5.851 -15.051  1.00  0.00     0.084 A 
HETATM    7  C21 UNL     1     -12.738  -4.962 -16.078  1.00  0.00     0.148 A 
HETATM    8  F4  UNL     1     -12.243  -5.384 -17.247  1.00  0.00    -0.203 F 
HETATM    9  C22 UNL     1     -13.006  -3.613 -15.960  1.00  0.00    -0.013 A 
HETATM   10  C23 UNL     1     -12.826  -2.681 -17.098  1.00  0.00     0.052 C 
ENDROOT
BRANCH   6  11
HETATM   11  C12 UNL     1     -12.672  -7.290 -15.208  1.00  0.00     0.114 C 
BRANCH  11  12
HETATM   12  O2  UNL     1     -11.250  -7.353 -15.510  1.00  0.00    -0.383 OA
ATOM     13  H2  UNL     1     -11.181  -8.171 -15.989  1.00  0.00     0.211 HD
ENDBRANCH  11  12
BRANCH  11  14
HETATM   14  C13 UNL     1     -13.269  -7.867 -16.465  1.00  0.00     0.144 C 
BRANCH  14  15
HETATM   15  C14 UNL     1     -12.360  -8.746 -17.233  1.00  0.00     0.234 C 
HETATM   16  N2  UNL     1     -11.662  -8.337 -18.407  1.00  0.00    -0.062 NA
HETATM   17  O3  UNL     1     -12.158  -9.934 -16.865  1.00  0.00    -0.277 OA
ENDBRANCH  14  15
ENDBRANCH  11  14
BRANCH  11  18
HETATM   18  C15 UNL     1     -12.689  -8.156 -14.020  1.00  0.00     0.027 C 
HETATM   19  C16 UNL     1     -13.862  -8.531 -13.253  1.00  0.00     0.008 C 
HETATM   20  C17 UNL     1     -13.434  -9.120 -11.893  1.00  0.00     0.000 C 
HETATM   21  C18 UNL     1     -12.150  -9.853 -12.068  1.00  0.00     0.000 C 
HETATM   22  C19 UNL     1     -11.049  -8.842 -12.264  1.00  0.00     0.000 C 
HETATM   23  C20 UNL     1     -11.646  -7.634 -13.011  1.00  0.00     0.008 C 
ENDBRANCH  11  18
ENDBRANCH   6  11
BRANCH   3  24
HETATM   24  C4  UNL     1     -14.095  -3.555 -12.402  1.00  0.00     0.112 C 
HETATM   25  C5  UNL     1     -13.402  -4.369 -11.304  1.00  0.00     0.045 C 
HETATM   26  C6  UNL     1     -13.694  -3.777  -9.990  1.00  0.00     0.003 C 
HETATM   27  C7  UNL     1     -15.085  -3.326  -9.727  1.00  0.00     0.001 C 
HETATM   28  C8  UNL     1     -15.846  -2.847 -10.898  1.00  0.00     0.017 C 
HETATM   29  C9  UNL     1     -15.553  -3.610 -12.179  1.00  0.00     0.134 C 
BRANCH  24  30
HETATM   30  O1  UNL     1     -13.658  -2.242 -12.082  1.00  0.00    -0.383 OA
ATOM     31  H1  UNL     1     -13.113  -2.237 -11.304  1.00  0.00     0.211 HD
ENDBRANCH  24  30
BRANCH  29  32
HETATM   32  C10 UNL     1     -16.196  -4.965 -12.163  1.00  0.00     0.394 C 
HETATM   33  F1  UNL     1     -17.284  -4.881 -11.263  1.00  0.00    -0.171 F 
HETATM   34  F2  UNL     1     -15.413  -5.960 -11.601  1.00  0.00    -0.171 F 
HETATM   35  F3  UNL     1     -16.731  -5.314 -13.370  1.00  0.00    -0.171 F 
ENDBRANCH  29  32
ENDBRANCH   3  24
TORSDOF 8
ENDMDL
MODEL 5
REMARK VINA RESULT: -7.570429930      2.314      7.271
REMARK  8 active torsions:
REMARK  status: ('A' for Active; 'I' for Inactive)
REMARK    1  A    between atoms: C3_3  and  C4_4 
REMARK    2  A    between atoms: C4_4  and  O1_5 
REMARK    3  A    between atoms: C9_11  and  C10_12 
REMARK    4  A    between atoms: C11_18  and  C12_19 
REMARK    5  A    between atoms: C12_19  and  O2_20 
REMARK    6  A    between atoms: C12_19  and  C13_22 
REMARK    7  A    between atoms: C12_19  and  C15_26 
REMARK    8  A    between atoms: C13_22  and  C14_23 
ROOT
HETATM    1  C1  UNL     1     -17.830   3.560 -16.411  1.00  0.00     0.051 C 
HETATM    2  C2  UNL     1     -16.945   2.564 -15.779  1.00  0.00    -0.027 A 
HETATM    3  C3  UNL     1     -15.582   2.632 -15.708  1.00  0.00     0.051 A 
HETATM    4  N1  UNL     1     -14.848   1.677 -15.113  1.00  0.00    -0.355 N 
ATOM      5  H1  UNL     1     -13.835   1.796 -15.099  1.00  0.00     0.166 HD
HETATM    6  C11 UNL     1     -15.367   0.553 -14.523  1.00  0.00     0.084 A 
HETATM    7  C21 UNL     1     -16.729   0.470 -14.588  1.00  0.00     0.148 A 
HETATM    8  F4  UNL     1     -17.349  -0.613 -14.108  1.00  0.00    -0.203 F 
HETATM    9  C22 UNL     1     -17.519   1.430 -15.190  1.00  0.00    -0.013 A 
HETATM   10  C23 UNL     1     -18.995   1.306 -15.237  1.00  0.00     0.052 C 
ENDROOT
BRANCH   6  11
HETATM   11  C12 UNL     1     -14.545  -0.437 -13.824  1.00  0.00     0.114 C 
BRANCH  11  12
HETATM   12  O2  UNL     1     -14.281   0.221 -12.553  1.00  0.00    -0.383 OA
ATOM     13  H2  UNL     1     -13.405  -0.084 -12.345  1.00  0.00     0.211 HD
ENDBRANCH  11  12
BRANCH  11  14
HETATM   14  C13 UNL     1     -13.152  -0.578 -14.380  1.00  0.00     0.144 C 
BRANCH  14  15
HETATM   15  C14 UNL     1     -12.093   0.053 -13.562  1.00  0.00     0.234 C 
HETATM   16  N2  UNL     1     -11.326  -0.642 -12.581  1.00  0.00    -0.062 NA
HETATM   17  O3  UNL     1     -11.815   1.273 -13.707  1.00  0.00    -0.277 OA
ENDBRANCH  14  15
ENDBRANCH  11  14
BRANCH  11  18
HETATM   18  C15 UNL     1     -15.172  -1.666 -13.315  1.00  0.00     0.027 C 
HETATM   19  C16 UNL     1     -15.564  -1.918 -11.941  1.00  0.00     0.008 C 
HETATM   20  C17 UNL     1     -15.826  -3.425 -11.738  1.00  0.00     0.000 C 
HETATM   21  C18 UNL     1     -16.386  -3.991 -12.997  1.00  0.00     0.000 C 
HETATM   22  C19 UNL     1     -15.281  -4.061 -14.020  1.00  0.00     0.000 C 
HETATM   23  C20 UNL     1     -14.330  -2.876 -13.767  1.00  0.00     0.008 C 
ENDBRANCH  11  18
ENDBRANCH   6  11
BRANCH   3  24
HETATM   24  C4  UNL     1     -14.841   3.774 -16.277  1.00  0.00     0.112 C 
HETATM   25  C5  UNL     1     -15.469   4.204 -17.608  1.00  0.00     0.045 C 
HETATM   26  C6  UNL     1     -14.891   5.486 -18.037  1.00  0.00     0.003 C 
HETATM   27  C7  UNL     1     -13.424   5.671 -17.886  1.00  0.00     0.001 C 
HETATM   28  C8  UNL     1     -12.792   4.957 -16.758  1.00  0.00     0.017 C 
HETATM   29  C9  UNL     1     -13.391   3.589 -16.479  1.00  0.00     0.134 C 
BRANCH  24  30
HETATM   30  O1  UNL     1     -15.023   4.951 -15.501  1.00  0.00    -0.383 OA
ATOM     31  H1  UNL     1     -14.589   5.697 -15.895  1.00  0.00     0.211 HD
ENDBRANCH  24  30
BRANCH  29  32
HETATM   32  C10 UNL     1     -12.962   2.588 -17.511  1.00  0.00     0.394 C 
HETATM   33  F1  UNL     1     -12.292   1.557 -16.814  1.00  0.00    -0.171 F 
HETATM   34  F2  UNL     1     -11.988   3.050 -18.382  1.00  0.00    -0.171 F 
HETATM   35  F3  UNL     1     -14.016   1.993 -18.145  1.00  0.00    -0.171 F 
ENDBRANCH  29  32
ENDBRANCH   3  24
TORSDOF 8
ENDMDL
