MODEL 1
REMARK VINA RESULT: -10.055427944      0.000      0.000
REMARK  8 active torsions:
REMARK  status: ('A' for Active; 'I' for Inactive)
REMARK    1  A    between atoms: O1_1  and  C1_3 
REMARK    2  A    between atoms: C3_5  and  C4_6 
REMARK    3  A    between atoms: C4_6  and  O2_7 
REMARK    4  A    between atoms: C4_6  and  N1_9 
REMARK    5  A    between atoms: N1_9  and  C5_11 
REMARK    6  A    between atoms: N2_22  and  C16_23 
REMARK    7  A    between atoms: C16_23  and  C17_24 
REMARK    8  A    between atoms: C25_33  and  C26_35 
ROOT
HETATM    1  C1  UNL     1     -28.193  -1.884  -6.968  1.00  0.00     0.142 A 
HETATM    2  C2  UNL     1     -27.510  -1.287  -8.009  1.00  0.00     0.069 A 
HETATM    3  C3  UNL     1     -27.825  -2.046  -9.111  1.00  0.00     0.009 A 
HETATM    4  C15 UNL     1     -28.670  -3.058  -8.714  1.00  0.00     0.104 A 
HETATM    5  N2  UNL     1     -28.892  -2.952  -7.397  1.00  0.00    -0.337 N 
ENDROOT
BRANCH   3   6
HETATM    6  C4  UNL     1     -27.314  -1.794 -10.511  1.00  0.00     0.250 C 
BRANCH   6   7
HETATM    7  O2  UNL     1     -28.221  -0.864 -11.078  1.00  0.00    -0.373 OA
ATOM      8  H2  UNL     1     -27.753  -0.038 -11.097  1.00  0.00     0.212 HD
ENDBRANCH   6   7
BRANCH   6   9
HETATM    9  N1  UNL     1     -26.018  -1.258 -10.382  1.00  0.00    -0.384 N 
ATOM     10  H1  UNL     1     -25.684  -0.946  -9.470  1.00  0.00     0.156 HD
BRANCH   9  11
HETATM   11  C5  UNL     1     -25.182  -1.155 -11.513  1.00  0.00     0.029 C 
HETATM   12  C6  UNL     1     -25.718  -1.822 -12.754  1.00  0.00     0.035 C 
HETATM   13  C7  UNL     1     -24.660  -1.738 -13.828  1.00  0.00    -0.012 C 
HETATM   14  C8  UNL     1     -24.376  -0.300 -14.168  1.00  0.00     0.009 C 
HETATM   15  C12 UNL     1     -23.389  -2.448 -13.428  1.00  0.00     0.009 C 
HETATM   16  C9  UNL     1     -23.811   0.378 -12.932  1.00  0.00    -0.012 C 
HETATM   17  C10 UNL     1     -22.548  -0.304 -12.513  1.00  0.00     0.009 C 
HETATM   18  C14 UNL     1     -24.893   0.279 -11.869  1.00  0.00     0.035 C 
HETATM   19  C11 UNL     1     -22.839  -1.763 -12.216  1.00  0.00    -0.012 C 
HETATM   20  C13 UNL     1     -23.849  -1.813 -11.119  1.00  0.00     0.035 C 
ENDBRANCH   9  11
ENDBRANCH   6   9
ENDBRANCH   3   6
BRANCH   1  21
HETATM   21  O1  UNL     1     -28.129  -1.400  -5.663  1.00  0.00    -0.346 OA
ATOM     22  H1  UNL     1     -28.688  -1.734  -4.972  1.00  0.00     0.219 HD
ENDBRANCH   1  21
BRANCH   5  23
HETATM   23  C16 UNL     1     -29.696  -3.790  -6.583  1.00  0.00     0.143 C 
BRANCH  23  24
HETATM   24  C17 UNL     1     -28.979  -4.732  -5.703  1.00  0.00     0.083 C 
HETATM   25  C18 UNL     1     -28.924  -6.079  -6.323  1.00  0.00    -0.040 A 
HETATM   26  C19 UNL     1     -29.038  -6.529  -7.633  1.00  0.00     0.050 A 
HETATM   27  C23 UNL     1     -28.700  -6.968  -5.294  1.00  0.00    -0.048 A 
HETATM   28  C20 UNL     1     -28.928  -7.865  -7.906  1.00  0.00     0.117 A 
HETATM   29  F1  UNL     1     -29.028  -8.382  -9.151  1.00  0.00    -0.206 F 
HETATM   30  C21 UNL     1     -28.705  -8.746  -6.871  1.00  0.00     0.043 A 
HETATM   31  C22 UNL     1     -28.590  -8.316  -5.573  1.00  0.00     0.011 A 
HETATM   32  C24 UNL     1     -28.634  -6.215  -3.988  1.00  0.00     0.089 C 
HETATM   33  C25 UNL     1     -29.533  -5.016  -4.363  1.00  0.00     0.174 C 
HETATM   34  F2  UNL     1     -29.296  -3.971  -3.466  1.00  0.00    -0.236 F 
BRANCH  33  35
HETATM   35  C26 UNL     1     -30.928  -5.494  -4.266  1.00  0.00     0.393 C 
HETATM   36  F3  UNL     1     -31.719  -4.367  -3.982  1.00  0.00    -0.211 F 
HETATM   37  F4  UNL     1     -31.187  -6.368  -3.232  1.00  0.00    -0.211 F 
ENDBRANCH  33  35
ENDBRANCH  23  24
ENDBRANCH   5  23
TORSDOF 8
ENDMDL
MODEL 2
REMARK VINA RESULT: -10.022281233      1.617      2.235
REMARK  8 active torsions:
REMARK  status: ('A' for Active; 'I' for Inactive)
REMARK    1  A    between atoms: O1_1  and  C1_3 
REMARK    2  A    between atoms: C3_5  and  C4_6 
REMARK    3  A    between atoms: C4_6  and  O2_7 
REMARK    4  A    between atoms: C4_6  and  N1_9 
REMARK    5  A    between atoms: N1_9  and  C5_11 
REMARK    6  A    between atoms: N2_22  and  C16_23 
REMARK    7  A    between atoms: C16_23  and  C17_24 
REMARK    8  A    between atoms: C25_33  and  C26_35 
ROOT
HETATM    1  C1  UNL     1     -27.877  -1.197  -7.710  1.00  0.00     0.142 A 
HETATM    2  C2  UNL     1     -27.309  -0.853  -8.919  1.00  0.00     0.069 A 
HETATM    3  C3  UNL     1     -27.678  -1.862  -9.776  1.00  0.00     0.009 A 
HETATM    4  C15 UNL     1     -28.442  -2.769  -9.076  1.00  0.00     0.104 A 
HETATM    5  N2  UNL     1     -28.560  -2.354  -7.807  1.00  0.00    -0.337 N 
ENDROOT
BRANCH   3   6
HETATM    6  C4  UNL     1     -27.296  -1.943 -11.236  1.00  0.00     0.250 C 
BRANCH   6   7
HETATM    7  O2  UNL     1     -28.519  -2.096 -11.935  1.00  0.00    -0.373 OA
ATOM      8  H2  UNL     1     -28.578  -1.338 -12.504  1.00  0.00     0.212 HD
ENDBRANCH   6   7
BRANCH   6   9
HETATM    9  N1  UNL     1     -26.650  -0.734 -11.556  1.00  0.00    -0.384 N 
ATOM     10  H1  UNL     1     -27.134   0.154 -11.422  1.00  0.00     0.156 HD
BRANCH   9  11
HETATM   11  C5  UNL     1     -25.333  -0.750 -12.061  1.00  0.00     0.029 C 
HETATM   12  C6  UNL     1     -24.717   0.613 -12.252  1.00  0.00     0.035 C 
HETATM   13  C7  UNL     1     -23.372   0.432 -12.916  1.00  0.00    -0.012 C 
HETATM   14  C8  UNL     1     -22.455  -0.364 -12.028  1.00  0.00     0.009 C 
HETATM   15  C12 UNL     1     -23.493  -0.220 -14.273  1.00  0.00     0.009 C 
HETATM   16  C9  UNL     1     -23.053  -1.749 -11.847  1.00  0.00    -0.012 C 
HETATM   17  C10 UNL     1     -23.183  -2.422 -13.176  1.00  0.00     0.009 C 
HETATM   18  C14 UNL     1     -24.402  -1.539 -11.180  1.00  0.00     0.035 C 
HETATM   19  C11 UNL     1     -24.073  -1.587 -14.078  1.00  0.00    -0.012 C 
HETATM   20  C13 UNL     1     -25.406  -1.468 -13.419  1.00  0.00     0.035 C 
ENDBRANCH   9  11
ENDBRANCH   6   9
ENDBRANCH   3   6
BRANCH   1  21
HETATM   21  O1  UNL     1     -27.728  -0.412  -6.568  1.00  0.00    -0.346 OA
ATOM     22  H1  UNL     1     -28.411  -0.337  -5.913  1.00  0.00     0.219 HD
ENDBRANCH   1  21
BRANCH   5  23
HETATM   23  C16 UNL     1     -29.256  -2.990  -6.747  1.00  0.00     0.143 C 
BRANCH  23  24
HETATM   24  C17 UNL     1     -28.452  -3.845  -5.855  1.00  0.00     0.083 C 
HETATM   25  C18 UNL     1     -29.157  -5.124  -5.589  1.00  0.00    -0.040 A 
HETATM   26  C19 UNL     1     -30.154  -5.817  -6.264  1.00  0.00     0.050 A 
HETATM   27  C23 UNL     1     -28.619  -5.626  -4.426  1.00  0.00    -0.048 A 
HETATM   28  C20 UNL     1     -30.607  -7.010  -5.771  1.00  0.00     0.117 A 
HETATM   29  F1  UNL     1     -31.574  -7.745  -6.366  1.00  0.00    -0.206 F 
HETATM   30  C21 UNL     1     -30.063  -7.505  -4.605  1.00  0.00     0.043 A 
HETATM   31  C22 UNL     1     -29.078  -6.830  -3.929  1.00  0.00     0.011 A 
HETATM   32  C24 UNL     1     -27.576  -4.669  -3.902  1.00  0.00     0.089 C 
HETATM   33  C25 UNL     1     -28.142  -3.359  -4.494  1.00  0.00     0.174 C 
HETATM   34  F2  UNL     1     -27.135  -2.391  -4.500  1.00  0.00    -0.236 F 
BRANCH  33  35
HETATM   35  C26 UNL     1     -29.262  -2.956  -3.619  1.00  0.00     0.393 C 
HETATM   36  F3  UNL     1     -29.608  -1.645  -3.988  1.00  0.00    -0.211 F 
HETATM   37  F4  UNL     1     -28.966  -2.871  -2.275  1.00  0.00    -0.211 F 
ENDBRANCH  33  35
ENDBRANCH  23  24
ENDBRANCH   5  23
TORSDOF 8
ENDMDL
MODEL 3
REMARK VINA RESULT: -10.015286163      0.435      1.353
REMARK  8 active torsions:
REMARK  status: ('A' for Active; 'I' for Inactive)
REMARK    1  A    between atoms: O1_1  and  C1_3 
REMARK    2  A    between atoms: C3_5  and  C4_6 
REMARK    3  A    between atoms: C4_6  and  O2_7 
REMARK    4  A    between atoms: C4_6  and  N1_9 
REMARK    5  A    between atoms: N1_9  and  C5_11 
REMARK    6  A    between atoms: N2_22  and  C16_23 
REMARK    7  A    between atoms: C16_23  and  C17_24 
REMARK    8  A    between atoms: C25_33  and  C26_35 
ROOT
HETATM    1  C1  UNL     1     -28.013  -1.737  -7.323  1.00  0.00     0.142 A 
HETATM    2  C2  UNL     1     -27.343  -1.266  -8.434  1.00  0.00     0.069 A 
HETATM    3  C3  UNL     1     -27.702  -2.125  -9.445  1.00  0.00     0.009 A 
HETATM    4  C15 UNL     1     -28.560  -3.070  -8.929  1.00  0.00     0.104 A 
HETATM    5  N2  UNL     1     -28.745  -2.826  -7.625  1.00  0.00    -0.337 N 
ENDROOT
BRANCH   3   6
HETATM    6  C4  UNL     1     -27.220  -2.029 -10.875  1.00  0.00     0.250 C 
BRANCH   6   7
HETATM    7  O2  UNL     1     -28.397  -1.985 -11.664  1.00  0.00    -0.373 OA
ATOM      8  H2  UNL     1     -29.014  -1.464 -11.163  1.00  0.00     0.212 HD
ENDBRANCH   6   7
BRANCH   6   9
HETATM    9  N1  UNL     1     -26.471  -0.841 -10.974  1.00  0.00    -0.384 N 
ATOM     10  H1  UNL     1     -26.796   0.007 -10.509  1.00  0.00     0.156 HD
BRANCH   9  11
HETATM   11  C5  UNL     1     -25.272  -0.823 -11.717  1.00  0.00     0.029 C 
HETATM   12  C6  UNL     1     -24.712   0.553 -11.972  1.00  0.00     0.035 C 
HETATM   13  C7  UNL     1     -23.514   0.412 -12.881  1.00  0.00    -0.012 C 
HETATM   14  C8  UNL     1     -22.442  -0.400 -12.207  1.00  0.00     0.009 C 
HETATM   15  C12 UNL     1     -23.881  -0.197 -14.213  1.00  0.00     0.009 C 
HETATM   16  C9  UNL     1     -22.985  -1.798 -11.966  1.00  0.00    -0.012 C 
HETATM   17  C10 UNL     1     -23.357  -2.429 -13.270  1.00  0.00     0.009 C 
HETATM   18  C14 UNL     1     -24.188  -1.628 -11.052  1.00  0.00     0.035 C 
HETATM   19  C11 UNL     1     -24.406  -1.577 -13.960  1.00  0.00    -0.012 C 
HETATM   20  C13 UNL     1     -25.593  -1.497 -13.060  1.00  0.00     0.035 C 
ENDBRANCH   9  11
ENDBRANCH   6   9
ENDBRANCH   3   6
BRANCH   1  21
HETATM   21  O1  UNL     1     -27.905  -1.125  -6.076  1.00  0.00    -0.346 OA
ATOM     22  H1  UNL     1     -28.665  -0.814  -5.598  1.00  0.00     0.219 HD
ENDBRANCH   1  21
BRANCH   5  23
HETATM   23  C16 UNL     1     -29.548  -3.557  -6.712  1.00  0.00     0.143 C 
BRANCH  23  24
HETATM   24  C17 UNL     1     -28.834  -4.462  -5.792  1.00  0.00     0.083 C 
HETATM   25  C18 UNL     1     -28.797  -5.838  -6.346  1.00  0.00    -0.040 A 
HETATM   26  C19 UNL     1     -28.925  -6.349  -7.632  1.00  0.00     0.050 A 
HETATM   27  C23 UNL     1     -28.575  -6.678  -5.277  1.00  0.00    -0.048 A 
HETATM   28  C20 UNL     1     -28.830  -7.698  -7.841  1.00  0.00     0.117 A 
HETATM   29  F1  UNL     1     -28.944  -8.274  -9.059  1.00  0.00    -0.206 F 
HETATM   30  C21 UNL     1     -28.609  -8.531  -6.765  1.00  0.00     0.043 A 
HETATM   31  C22 UNL     1     -28.481  -8.040  -5.490  1.00  0.00     0.011 A 
HETATM   32  C24 UNL     1     -28.493  -5.864  -4.009  1.00  0.00     0.089 C 
HETATM   33  C25 UNL     1     -29.382  -4.675  -4.437  1.00  0.00     0.174 C 
HETATM   34  F2  UNL     1     -29.128  -3.590  -3.593  1.00  0.00    -0.236 F 
BRANCH  33  35
HETATM   35  C26 UNL     1     -30.781  -5.133  -4.307  1.00  0.00     0.393 C 
HETATM   36  F3  UNL     1     -31.543  -4.003  -3.965  1.00  0.00    -0.211 F 
HETATM   37  F4  UNL     1     -31.021  -6.033  -3.290  1.00  0.00    -0.211 F 
ENDBRANCH  33  35
ENDBRANCH  23  24
ENDBRANCH   5  23
TORSDOF 8
ENDMDL
MODEL 4
REMARK VINA RESULT: -9.862439905      1.393      3.338
REMARK  8 active torsions:
REMARK  status: ('A' for Active; 'I' for Inactive)
REMARK    1  A    between atoms: O1_1  and  C1_3 
REMARK    2  A    between atoms: C3_5  and  C4_6 
REMARK    3  A    between atoms: C4_6  and  O2_7 
REMARK    4  A    between atoms: C4_6  and  N1_9 
REMARK    5  A    between atoms: N1_9  and  C5_11 
REMARK    6  A    between atoms: N2_22  and  C16_23 
REMARK    7  A    between atoms: C16_23  and  C17_24 
REMARK    8  A    between atoms: C25_33  and  C26_35 
ROOT
HETATM    1  C1  UNL     1     -27.789  -1.307  -7.450  1.00  0.00     0.142 A 
HETATM    2  C2  UNL     1     -27.552  -0.834  -8.725  1.00  0.00     0.069 A 
HETATM    3  C3  UNL     1     -27.541  -1.958  -9.516  1.00  0.00     0.009 A 
HETATM    4  C15 UNL     1     -27.766  -3.055  -8.715  1.00  0.00     0.104 A 
HETATM    5  N2  UNL     1     -27.917  -2.647  -7.447  1.00  0.00    -0.337 N 
ENDROOT
BRANCH   3   6
HETATM    6  C4  UNL     1     -27.314  -1.964 -11.011  1.00  0.00     0.250 C 
BRANCH   6   7
HETATM    7  O2  UNL     1     -28.608  -2.037 -11.584  1.00  0.00    -0.373 OA
ATOM      8  H2  UNL     1     -29.157  -2.424 -10.914  1.00  0.00     0.212 HD
ENDBRANCH   6   7
BRANCH   6   9
HETATM    9  N1  UNL     1     -26.660  -0.758 -11.328  1.00  0.00    -0.384 N 
ATOM     10  H1  UNL     1     -27.115   0.134 -11.136  1.00  0.00     0.156 HD
BRANCH   9  11
HETATM   11  C5  UNL     1     -25.377  -0.785 -11.912  1.00  0.00     0.029 C 
HETATM   12  C6  UNL     1     -24.784   0.573 -12.188  1.00  0.00     0.035 C 
HETATM   13  C7  UNL     1     -23.481   0.377 -12.925  1.00  0.00    -0.012 C 
HETATM   14  C8  UNL     1     -22.505  -0.382 -12.067  1.00  0.00     0.009 C 
HETATM   15  C12 UNL     1     -23.678  -0.324 -14.249  1.00  0.00     0.009 C 
HETATM   16  C9  UNL     1     -23.080  -1.763 -11.802  1.00  0.00    -0.012 C 
HETATM   17  C10 UNL     1     -23.285  -2.483 -13.097  1.00  0.00     0.009 C 
HETATM   18  C14 UNL     1     -24.388  -1.537 -11.062  1.00  0.00     0.035 C 
HETATM   19  C11 UNL     1     -24.235  -1.686 -13.971  1.00  0.00    -0.012 C 
HETATM   20  C13 UNL     1     -25.527  -1.551 -13.236  1.00  0.00     0.035 C 
ENDBRANCH   9  11
ENDBRANCH   6   9
ENDBRANCH   3   6
BRANCH   1  21
HETATM   21  O1  UNL     1     -27.874  -0.460  -6.347  1.00  0.00    -0.346 OA
ATOM     22  H1  UNL     1     -28.229   0.419  -6.410  1.00  0.00     0.219 HD
ENDBRANCH   1  21
BRANCH   5  23
HETATM   23  C16 UNL     1     -28.159  -3.448  -6.302  1.00  0.00     0.143 C 
BRANCH  23  24
HETATM   24  C17 UNL     1     -29.312  -4.365  -6.375  1.00  0.00     0.083 C 
HETATM   25  C18 UNL     1     -30.116  -4.287  -5.130  1.00  0.00    -0.040 A 
HETATM   26  C19 UNL     1     -30.244  -3.320  -4.141  1.00  0.00     0.050 A 
HETATM   27  C23 UNL     1     -30.838  -5.458  -5.064  1.00  0.00    -0.048 A 
HETATM   28  C20 UNL     1     -31.096  -3.529  -3.090  1.00  0.00     0.117 A 
HETATM   29  F1  UNL     1     -31.278  -2.640  -2.088  1.00  0.00    -0.206 F 
HETATM   30  C21 UNL     1     -31.815  -4.704  -3.032  1.00  0.00     0.043 A 
HETATM   31  C22 UNL     1     -31.697  -5.668  -4.002  1.00  0.00     0.011 A 
HETATM   32  C24 UNL     1     -30.495  -6.326  -6.250  1.00  0.00     0.089 C 
HETATM   33  C25 UNL     1     -29.060  -5.815  -6.506  1.00  0.00     0.174 C 
HETATM   34  F2  UNL     1     -28.677  -6.165  -7.803  1.00  0.00    -0.236 F 
BRANCH  33  35
HETATM   35  C26 UNL     1     -28.198  -6.472  -5.502  1.00  0.00     0.393 C 
HETATM   36  F3  UNL     1     -28.868  -7.641  -5.102  1.00  0.00    -0.211 F 
HETATM   37  F4  UNL     1     -28.002  -5.769  -4.332  1.00  0.00    -0.211 F 
ENDBRANCH  33  35
ENDBRANCH  23  24
ENDBRANCH   5  23
TORSDOF 8
ENDMDL
MODEL 5
REMARK VINA RESULT: -9.815010270      1.306      3.113
REMARK  8 active torsions:
REMARK  status: ('A' for Active; 'I' for Inactive)
REMARK    1  A    between atoms: O1_1  and  C1_3 
REMARK    2  A    between atoms: C3_5  and  C4_6 
REMARK    3  A    between atoms: C4_6  and  O2_7 
REMARK    4  A    between atoms: C4_6  and  N1_9 
REMARK    5  A    between atoms: N1_9  and  C5_11 
REMARK    6  A    between atoms: N2_22  and  C16_23 
REMARK    7  A    between atoms: C16_23  and  C17_24 
REMARK    8  A    between atoms: C25_33  and  C26_35 
ROOT
HETATM    1  C1  UNL     1     -27.978  -1.725  -7.300  1.00  0.00     0.142 A 
HETATM    2  C2  UNL     1     -27.755  -1.131  -8.525  1.00  0.00     0.069 A 
HETATM    3  C3  UNL     1     -27.581  -2.182  -9.394  1.00  0.00     0.009 A 
HETATM    4  C15 UNL     1     -27.699  -3.356  -8.685  1.00  0.00     0.104 A 
HETATM    5  N2  UNL     1     -27.943  -3.067  -7.399  1.00  0.00    -0.337 N 
ENDROOT
BRANCH   3   6
HETATM    6  C4  UNL     1     -27.302  -2.046 -10.874  1.00  0.00     0.250 C 
BRANCH   6   7
HETATM    7  O2  UNL     1     -28.575  -1.925 -11.483  1.00  0.00    -0.373 OA
ATOM      8  H2  UNL     1     -28.398  -1.730 -12.396  1.00  0.00     0.212 HD
ENDBRANCH   6   7
BRANCH   6   9
HETATM    9  N1  UNL     1     -26.524  -0.884 -11.037  1.00  0.00    -0.384 N 
ATOM     10  H1  UNL     1     -26.778  -0.027 -10.546  1.00  0.00     0.156 HD
BRANCH   9  11
HETATM   11  C5  UNL     1     -25.393  -0.906 -11.879  1.00  0.00     0.029 C 
HETATM   12  C6  UNL     1     -25.622  -1.549 -13.223  1.00  0.00     0.035 C 
HETATM   13  C7  UNL     1     -24.298  -1.612 -13.947  1.00  0.00    -0.012 C 
HETATM   14  C8  UNL     1     -23.770  -0.224 -14.188  1.00  0.00     0.009 C 
HETATM   15  C12 UNL     1     -23.283  -2.443 -13.199  1.00  0.00     0.009 C 
HETATM   16  C9  UNL     1     -23.510   0.426 -12.840  1.00  0.00    -0.012 C 
HETATM   17  C10 UNL     1     -22.504  -0.374 -12.076  1.00  0.00     0.009 C 
HETATM   18  C14 UNL     1     -24.855   0.477 -12.134  1.00  0.00     0.035 C 
HETATM   19  C11 UNL     1     -23.030  -1.784 -11.878  1.00  0.00    -0.012 C 
HETATM   20  C13 UNL     1     -24.311  -1.691 -11.120  1.00  0.00     0.035 C 
ENDBRANCH   9  11
ENDBRANCH   6   9
ENDBRANCH   3   6
BRANCH   1  21
HETATM   21  O1  UNL     1     -28.203  -0.981  -6.143  1.00  0.00    -0.346 OA
ATOM     22  H1  UNL     1     -27.495  -0.708  -5.572  1.00  0.00     0.219 HD
ENDBRANCH   1  21
BRANCH   5  23
HETATM   23  C16 UNL     1     -28.127  -3.976  -6.326  1.00  0.00     0.143 C 
BRANCH  23  24
HETATM   24  C17 UNL     1     -29.372  -4.768  -6.344  1.00  0.00     0.083 C 
HETATM   25  C18 UNL     1     -30.156  -4.527  -5.107  1.00  0.00    -0.040 A 
HETATM   26  C19 UNL     1     -30.176  -3.492  -4.180  1.00  0.00     0.050 A 
HETATM   27  C23 UNL     1     -30.999  -5.607  -4.970  1.00  0.00    -0.048 A 
HETATM   28  C20 UNL     1     -31.040  -3.544  -3.120  1.00  0.00     0.117 A 
HETATM   29  F1  UNL     1     -31.120  -2.580  -2.176  1.00  0.00    -0.206 F 
HETATM   30  C21 UNL     1     -31.879  -4.629  -2.990  1.00  0.00     0.043 A 
HETATM   31  C22 UNL     1     -31.870  -5.658  -3.898  1.00  0.00     0.011 A 
HETATM   32  C24 UNL     1     -30.757  -6.579  -6.098  1.00  0.00     0.089 C 
HETATM   33  C25 UNL     1     -29.277  -6.241  -6.384  1.00  0.00     0.174 C 
HETATM   34  F2  UNL     1     -28.940  -6.711  -7.656  1.00  0.00    -0.236 F 
BRANCH  33  35
HETATM   35  C26 UNL     1     -28.485  -6.924  -5.339  1.00  0.00     0.393 C 
HETATM   36  F3  UNL     1     -27.729  -7.913  -5.991  1.00  0.00    -0.211 F 
HETATM   37  F4  UNL     1     -29.215  -7.613  -4.394  1.00  0.00    -0.211 F 
ENDBRANCH  33  35
ENDBRANCH  23  24
ENDBRANCH   5  23
TORSDOF 8
ENDMDL
