MODEL 1
REMARK VINA RESULT: -10.080007598      0.000      0.000
REMARK  5 active torsions:
REMARK  status: ('A' for Active; 'I' for Inactive)
REMARK       I    between atoms: C1_2  and  N1_3 
REMARK    1  A    between atoms: C1_2  and  C8_12 
REMARK    2  A    between atoms: N1_3  and  C2_5 
REMARK    3  A    between atoms: C2_5  and  C3_6 
REMARK    4  A    between atoms: C11_15  and  C12_16 
REMARK    5  A    between atoms: C12_16  and  C13_17 
REMARK       I    between atoms: C13_17  and  N2_19 
ROOT
HETATM    1  C8  UNL     1      33.119 -22.835  59.376  1.00  0.00     0.078 C 
HETATM    2  C9  UNL     1      34.318 -22.405  58.585  1.00  0.00     0.014 C 
HETATM    3  C10 UNL     1      34.323 -20.920  58.294  1.00  0.00     0.006 C 
HETATM    4  C11 UNL     1      33.022 -20.626  57.591  1.00  0.00    -0.006 C 
HETATM    5  C19 UNL     1      31.938 -20.731  58.628  1.00  0.00     0.006 C 
HETATM    6  C20 UNL     1      31.832 -22.202  58.995  1.00  0.00     0.014 C 
ENDROOT
BRANCH   4   7
HETATM    7  C12 UNL     1      33.048 -19.348  56.851  1.00  0.00     0.107 C 
BRANCH   7   8
HETATM    8  C13 UNL     1      32.292 -18.233  57.414  1.00  0.00     0.220 C 
HETATM    9  O3  UNL     1      32.683 -17.559  58.410  1.00  0.00    -0.273 OA
HETATM   10  N2  UNL     1      31.054 -17.867  56.832  1.00  0.00    -0.346 N 
HETATM   11  C14 UNL     1      30.590 -18.621  55.697  1.00  0.00     0.132 C 
HETATM   12  C18 UNL     1      30.324 -16.759  57.406  1.00  0.00     0.186 C 
HETATM   13  C15 UNL     1      29.119 -18.471  55.444  1.00  0.00     0.080 C 
HETATM   14  C16 UNL     1      28.622 -17.098  55.628  1.00  0.00     0.054 A 
HETATM   15  N3  UNL     1      27.650 -16.358  55.059  1.00  0.00    -0.288 N 
HETATM   16  C17 UNL     1      29.213 -16.302  56.570  1.00  0.00     0.069 A 
HETATM   17  N4  UNL     1      27.626 -15.171  55.605  1.00  0.00    -0.242 N 
ATOM     18  H3  UNL     1      27.027 -16.675  54.316  1.00  0.00     0.188 HD
HETATM   19  N5  UNL     1      28.576 -15.134  56.523  1.00  0.00    -0.287 N 
ATOM     20  H4  UNL     1      26.990 -14.410  55.365  1.00  0.00     0.208 HD
ATOM     21  H5  UNL     1      28.790 -14.328  57.110  1.00  0.00     0.188 HD
ENDBRANCH   7   8
ENDBRANCH   4   7
BRANCH   1  22
HETATM   22  C1  UNL     1      33.426 -22.705  60.825  1.00  0.00     0.221 C 
HETATM   23  O1  UNL     1      32.495 -22.604  61.669  1.00  0.00    -0.273 OA
HETATM   24  N1  UNL     1      34.756 -22.689  61.316  1.00  0.00    -0.360 N 
ATOM     25  H1  UNL     1      35.521 -22.769  60.647  1.00  0.00     0.162 HD
BRANCH  24  26
HETATM   26  C2  UNL     1      35.075 -22.565  62.710  1.00  0.00     0.127 C 
BRANCH  26  27
HETATM   27  C3  UNL     1      35.773 -23.756  63.271  1.00  0.00     0.007 C 
HETATM   28  C4  UNL     1      37.236 -23.816  62.905  1.00  0.00     0.032 C 
HETATM   29  C5  UNL     1      37.875 -24.899  63.748  1.00  0.00     0.168 C 
HETATM   30  O2  UNL     1      36.916 -25.701  64.372  1.00  0.00    -0.391 OA
HETATM   31  C6  UNL     1      35.991 -26.180  63.433  1.00  0.00     0.168 C 
HETATM   32  C7  UNL     1      35.141 -25.066  62.859  1.00  0.00     0.032 C 
ENDBRANCH  26  27
ENDBRANCH  24  26
ENDBRANCH   1  22
TORSDOF 5
ENDMDL
MODEL 2
REMARK VINA RESULT: -9.776238420      2.942      5.035
REMARK  5 active torsions:
REMARK  status: ('A' for Active; 'I' for Inactive)
REMARK       I    between atoms: C1_2  and  N1_3 
REMARK    1  A    between atoms: C1_2  and  C8_12 
REMARK    2  A    between atoms: N1_3  and  C2_5 
REMARK    3  A    between atoms: C2_5  and  C3_6 
REMARK    4  A    between atoms: C11_15  and  C12_16 
REMARK    5  A    between atoms: C12_16  and  C13_17 
REMARK       I    between atoms: C13_17  and  N2_19 
ROOT
HETATM    1  C8  UNL     1      33.382 -23.213  60.225  1.00  0.00     0.078 C 
HETATM    2  C9  UNL     1      31.979 -22.727  60.021  1.00  0.00     0.014 C 
HETATM    3  C10 UNL     1      31.900 -21.556  59.066  1.00  0.00     0.006 C 
HETATM    4  C11 UNL     1      32.811 -20.494  59.629  1.00  0.00    -0.006 C 
HETATM    5  C19 UNL     1      34.219 -20.973  59.409  1.00  0.00     0.006 C 
HETATM    6  C20 UNL     1      34.422 -22.159  60.337  1.00  0.00     0.014 C 
ENDROOT
BRANCH   4   7
HETATM    7  C12 UNL     1      32.524 -19.149  59.088  1.00  0.00     0.107 C 
BRANCH   7   8
HETATM    8  C13 UNL     1      31.143 -18.680  59.157  1.00  0.00     0.220 C 
HETATM    9  O3  UNL     1      30.487 -18.601  60.235  1.00  0.00    -0.273 OA
HETATM   10  N2  UNL     1      30.481 -18.289  57.967  1.00  0.00    -0.346 N 
HETATM   11  C14 UNL     1      31.209 -18.371  56.729  1.00  0.00     0.132 C 
HETATM   12  C18 UNL     1      29.115 -17.827  58.061  1.00  0.00     0.186 C 
HETATM   13  C15 UNL     1      30.323 -18.378  55.518  1.00  0.00     0.080 C 
HETATM   14  C16 UNL     1      29.189 -17.444  55.606  1.00  0.00     0.054 A 
HETATM   15  N3  UNL     1      28.498 -16.704  54.716  1.00  0.00    -0.288 N 
HETATM   16  C17 UNL     1      28.630 -17.199  56.830  1.00  0.00     0.069 A 
HETATM   17  N4  UNL     1      27.563 -16.034  55.336  1.00  0.00    -0.242 N 
ATOM     18  H3  UNL     1      28.678 -16.672  53.713  1.00  0.00     0.188 HD
HETATM   19  N5  UNL     1      27.641 -16.333  56.621  1.00  0.00    -0.287 N 
ATOM     20  H4  UNL     1      26.893 -15.397  54.905  1.00  0.00     0.208 HD
ATOM     21  H5  UNL     1      27.033 -15.954  57.346  1.00  0.00     0.188 HD
ENDBRANCH   7   8
ENDBRANCH   4   7
BRANCH   1  22
HETATM   22  C1  UNL     1      33.695 -24.232  59.188  1.00  0.00     0.221 C 
HETATM   23  O1  UNL     1      33.639 -25.460  59.462  1.00  0.00    -0.273 OA
HETATM   24  N1  UNL     1      34.065 -23.875  57.867  1.00  0.00    -0.360 N 
ATOM     25  H1  UNL     1      34.116 -22.885  57.628  1.00  0.00     0.162 HD
BRANCH  24  26
HETATM   26  C2  UNL     1      34.370 -24.840  56.850  1.00  0.00     0.127 C 
BRANCH  26  27
HETATM   27  C3  UNL     1      34.326 -24.286  55.468  1.00  0.00     0.007 C 
HETATM   28  C4  UNL     1      35.124 -25.098  54.476  1.00  0.00     0.032 C 
HETATM   29  C5  UNL     1      34.777 -24.596  53.090  1.00  0.00     0.168 C 
HETATM   30  O2  UNL     1      34.084 -23.384  53.137  1.00  0.00    -0.391 OA
HETATM   31  C6  UNL     1      34.778 -22.453  53.924  1.00  0.00     0.168 C 
HETATM   32  C7  UNL     1      34.804 -22.855  55.383  1.00  0.00     0.032 C 
ENDBRANCH  26  27
ENDBRANCH  24  26
ENDBRANCH   1  22
TORSDOF 5
ENDMDL
MODEL 3
REMARK VINA RESULT: -9.652351170      0.774      1.056
REMARK  5 active torsions:
REMARK  status: ('A' for Active; 'I' for Inactive)
REMARK       I    between atoms: C1_2  and  N1_3 
REMARK    1  A    between atoms: C1_2  and  C8_12 
REMARK    2  A    between atoms: N1_3  and  C2_5 
REMARK    3  A    between atoms: C2_5  and  C3_6 
REMARK    4  A    between atoms: C11_15  and  C12_16 
REMARK    5  A    between atoms: C12_16  and  C13_17 
REMARK       I    between atoms: C13_17  and  N2_19 
ROOT
HETATM    1  C8  UNL     1      32.960 -23.000  59.309  1.00  0.00     0.078 C 
HETATM    2  C9  UNL     1      34.197 -22.568  58.582  1.00  0.00     0.014 C 
HETATM    3  C10 UNL     1      34.347 -21.063  58.527  1.00  0.00     0.006 C 
HETATM    4  C11 UNL     1      33.083 -20.539  57.894  1.00  0.00    -0.006 C 
HETATM    5  C19 UNL     1      31.990 -20.700  58.915  1.00  0.00     0.006 C 
HETATM    6  C20 UNL     1      31.741 -22.194  59.047  1.00  0.00     0.014 C 
ENDROOT
BRANCH   4   7
HETATM    7  C12 UNL     1      33.236 -19.168  57.364  1.00  0.00     0.107 C 
BRANCH   7   8
HETATM    8  C13 UNL     1      32.310 -18.153  57.856  1.00  0.00     0.220 C 
HETATM    9  O3  UNL     1      32.492 -17.505  58.927  1.00  0.00    -0.273 OA
HETATM   10  N2  UNL     1      31.140 -17.860  57.114  1.00  0.00    -0.346 N 
HETATM   11  C14 UNL     1      30.913 -18.586  55.893  1.00  0.00     0.132 C 
HETATM   12  C18 UNL     1      30.239 -16.850  57.621  1.00  0.00     0.186 C 
HETATM   13  C15 UNL     1      29.485 -18.544  55.433  1.00  0.00     0.080 C 
HETATM   14  C16 UNL     1      28.845 -17.230  55.599  1.00  0.00     0.054 A 
HETATM   15  N3  UNL     1      27.901 -16.543  54.925  1.00  0.00    -0.288 N 
HETATM   16  C17 UNL     1      29.221 -16.441  56.652  1.00  0.00     0.069 A 
HETATM   17  N4  UNL     1      27.693 -15.394  55.512  1.00  0.00    -0.242 N 
ATOM     18  H3  UNL     1      27.422 -16.870  54.086  1.00  0.00     0.188 HD
HETATM   19  N5  UNL     1      28.495 -15.329  56.561  1.00  0.00    -0.287 N 
ATOM     20  H4  UNL     1      27.032 -14.677  55.214  1.00  0.00     0.208 HD
ATOM     21  H5  UNL     1      28.549 -14.542  57.207  1.00  0.00     0.188 HD
ENDBRANCH   7   8
ENDBRANCH   4   7
BRANCH   1  22
HETATM   22  C1  UNL     1      33.273 -23.130  60.757  1.00  0.00     0.221 C 
HETATM   23  O1  UNL     1      32.566 -22.540  61.619  1.00  0.00    -0.273 OA
HETATM   24  N1  UNL     1      34.361 -23.907  61.228  1.00  0.00    -0.360 N 
ATOM     25  H1  UNL     1      34.944 -24.389  60.544  1.00  0.00     0.162 HD
BRANCH  24  26
HETATM   26  C2  UNL     1      34.681 -24.047  62.620  1.00  0.00     0.127 C 
BRANCH  26  27
HETATM   27  C3  UNL     1      35.955 -24.777  62.869  1.00  0.00     0.007 C 
HETATM   28  C4  UNL     1      35.927 -26.205  62.382  1.00  0.00     0.032 C 
HETATM   29  C5  UNL     1      37.344 -26.738  62.444  1.00  0.00     0.168 C 
HETATM   30  O2  UNL     1      38.180 -25.898  63.183  1.00  0.00    -0.391 OA
HETATM   31  C6  UNL     1      37.617 -25.628  64.439  1.00  0.00     0.168 C 
HETATM   32  C7  UNL     1      36.357 -24.795  64.326  1.00  0.00     0.032 C 
ENDBRANCH  26  27
ENDBRANCH  24  26
ENDBRANCH   1  22
TORSDOF 5
ENDMDL
MODEL 4
REMARK VINA RESULT: -9.610378728      2.922      4.630
REMARK  5 active torsions:
REMARK  status: ('A' for Active; 'I' for Inactive)
REMARK       I    between atoms: C1_2  and  N1_3 
REMARK    1  A    between atoms: C1_2  and  C8_12 
REMARK    2  A    between atoms: N1_3  and  C2_5 
REMARK    3  A    between atoms: C2_5  and  C3_6 
REMARK    4  A    between atoms: C11_15  and  C12_16 
REMARK    5  A    between atoms: C12_16  and  C13_17 
REMARK       I    between atoms: C13_17  and  N2_19 
ROOT
HETATM    1  C8  UNL     1      33.599 -22.876  60.147  1.00  0.00     0.078 C 
HETATM    2  C9  UNL     1      32.232 -22.317  59.891  1.00  0.00     0.014 C 
HETATM    3  C10 UNL     1      32.174 -21.463  58.643  1.00  0.00     0.006 C 
HETATM    4  C11 UNL     1      33.221 -20.392  58.820  1.00  0.00    -0.006 C 
HETATM    5  C19 UNL     1      34.557 -21.065  58.669  1.00  0.00     0.006 C 
HETATM    6  C20 UNL     1      34.733 -21.954  59.889  1.00  0.00     0.014 C 
ENDROOT
BRANCH   4   7
HETATM    7  C12 UNL     1      33.008 -19.233  57.929  1.00  0.00     0.107 C 
BRANCH   7   8
HETATM    8  C13 UNL     1      32.005 -18.253  58.332  1.00  0.00     0.220 C 
HETATM    9  O3  UNL     1      32.020 -17.659  59.449  1.00  0.00    -0.273 OA
HETATM   10  N2  UNL     1      30.948 -17.934  57.445  1.00  0.00    -0.346 N 
HETATM   11  C14 UNL     1      30.910 -18.598  56.169  1.00  0.00     0.132 C 
HETATM   12  C18 UNL     1      29.966 -16.960  57.866  1.00  0.00     0.186 C 
HETATM   13  C15 UNL     1      29.563 -18.548  55.512  1.00  0.00     0.080 C 
HETATM   14  C16 UNL     1      28.883 -17.250  55.649  1.00  0.00     0.054 A 
HETATM   15  N3  UNL     1      28.034 -16.538  54.881  1.00  0.00    -0.288 N 
HETATM   16  C17 UNL     1      29.091 -16.512  56.782  1.00  0.00     0.069 A 
HETATM   17  N4  UNL     1      27.725 -15.423  55.487  1.00  0.00    -0.242 N 
ATOM     18  H3  UNL     1      27.686 -16.826  53.966  1.00  0.00     0.188 HD
HETATM   19  N5  UNL     1      28.367 -15.404  56.642  1.00  0.00    -0.287 N 
ATOM     20  H4  UNL     1      27.101 -14.698  55.132  1.00  0.00     0.208 HD
ATOM     21  H5  UNL     1      28.315 -14.650  57.327  1.00  0.00     0.188 HD
ENDBRANCH   7   8
ENDBRANCH   4   7
BRANCH   1  22
HETATM   22  C1  UNL     1      33.730 -24.175  59.435  1.00  0.00     0.221 C 
HETATM   23  O1  UNL     1      33.305 -25.238  59.962  1.00  0.00    -0.273 OA
HETATM   24  N1  UNL     1      34.327 -24.276  58.154  1.00  0.00    -0.360 N 
ATOM     25  H1  UNL     1      34.677 -23.425  57.713  1.00  0.00     0.162 HD
BRANCH  24  26
HETATM   26  C2  UNL     1      34.463 -25.518  57.447  1.00  0.00     0.127 C 
BRANCH  26  27
HETATM   27  C3  UNL     1      34.556 -25.357  55.969  1.00  0.00     0.007 C 
HETATM   28  C4  UNL     1      35.779 -26.014  55.375  1.00  0.00     0.032 C 
HETATM   29  C5  UNL     1      35.612 -26.016  53.870  1.00  0.00     0.168 C 
HETATM   30  O2  UNL     1      34.569 -25.179  53.465  1.00  0.00    -0.391 OA
HETATM   31  C6  UNL     1      34.723 -23.900  54.020  1.00  0.00     0.168 C 
HETATM   32  C7  UNL     1      34.547 -23.913  55.524  1.00  0.00     0.032 C 
ENDBRANCH  26  27
ENDBRANCH  24  26
ENDBRANCH   1  22
TORSDOF 5
ENDMDL
MODEL 5
REMARK VINA RESULT: -9.594174457      4.180      9.340
REMARK  5 active torsions:
REMARK  status: ('A' for Active; 'I' for Inactive)
REMARK       I    between atoms: C1_2  and  N1_3 
REMARK    1  A    between atoms: C1_2  and  C8_12 
REMARK    2  A    between atoms: N1_3  and  C2_5 
REMARK    3  A    between atoms: C2_5  and  C3_6 
REMARK    4  A    between atoms: C11_15  and  C12_16 
REMARK    5  A    between atoms: C12_16  and  C13_17 
REMARK       I    between atoms: C13_17  and  N2_19 
ROOT
HETATM    1  C8  UNL     1      33.116 -19.168  59.970  1.00  0.00     0.078 C 
HETATM    2  C9  UNL     1      33.702 -19.253  58.593  1.00  0.00     0.014 C 
HETATM    3  C10 UNL     1      33.235 -20.475  57.833  1.00  0.00     0.006 C 
HETATM    4  C11 UNL     1      33.588 -21.663  58.693  1.00  0.00    -0.006 C 
HETATM    5  C19 UNL     1      32.640 -21.647  59.860  1.00  0.00     0.006 C 
HETATM    6  C20 UNL     1      33.025 -20.450  60.713  1.00  0.00     0.014 C 
ENDROOT
BRANCH   4   7
HETATM    7  C12 UNL     1      33.614 -22.930  57.935  1.00  0.00     0.107 C 
BRANCH   7   8
HETATM    8  C13 UNL     1      34.908 -23.388  57.438  1.00  0.00     0.220 C 
HETATM    9  O3  UNL     1      36.006 -23.121  58.007  1.00  0.00    -0.273 OA
HETATM   10  N2  UNL     1      34.964 -24.171  56.260  1.00  0.00    -0.346 N 
HETATM   11  C14 UNL     1      33.726 -24.486  55.597  1.00  0.00     0.132 C 
HETATM   12  C18 UNL     1      36.257 -24.614  55.788  1.00  0.00     0.186 C 
HETATM   13  C15 UNL     1      33.908 -24.908  54.169  1.00  0.00     0.080 C 
HETATM   14  C16 UNL     1      35.066 -25.790  53.952  1.00  0.00     0.054 A 
HETATM   15  N3  UNL     1      35.341 -26.803  53.107  1.00  0.00    -0.288 N 
HETATM   16  C17 UNL     1      36.174 -25.629  54.737  1.00  0.00     0.069 A 
HETATM   17  N4  UNL     1      36.545 -27.254  53.341  1.00  0.00    -0.242 N 
ATOM     18  H3  UNL     1      34.707 -27.163  52.393  1.00  0.00     0.188 HD
HETATM   19  N5  UNL     1      37.053 -26.543  54.332  1.00  0.00    -0.287 N 
ATOM     20  H4  UNL     1      37.009 -28.017  52.847  1.00  0.00     0.208 HD
ATOM     21  H5  UNL     1      37.983 -26.675  54.729  1.00  0.00     0.188 HD
ENDBRANCH   7   8
ENDBRANCH   4   7
BRANCH   1  22
HETATM   22  C1  UNL     1      31.820 -18.443  59.898  1.00  0.00     0.221 C 
HETATM   23  O1  UNL     1      31.062 -18.389  60.904  1.00  0.00    -0.273 OA
HETATM   24  N1  UNL     1      31.384 -17.792  58.717  1.00  0.00    -0.360 N 
ATOM     25  H1  UNL     1      31.985 -17.827  57.894  1.00  0.00     0.162 HD
BRANCH  24  26
HETATM   26  C2  UNL     1      30.138 -17.085  58.625  1.00  0.00     0.127 C 
BRANCH  26  27
HETATM   27  C3  UNL     1      29.416 -17.313  57.342  1.00  0.00     0.007 C 
HETATM   28  C4  UNL     1      30.123 -18.281  56.425  1.00  0.00     0.032 C 
HETATM   29  C5  UNL     1      29.168 -18.629  55.302  1.00  0.00     0.168 C 
HETATM   30  O2  UNL     1      28.071 -17.764  55.270  1.00  0.00    -0.391 OA
HETATM   31  C6  UNL     1      28.500 -16.429  55.261  1.00  0.00     0.168 C 
HETATM   32  C7  UNL     1      29.166 -16.041  56.565  1.00  0.00     0.032 C 
ENDBRANCH  26  27
ENDBRANCH  24  26
ENDBRANCH   1  22
TORSDOF 5
ENDMDL
