MODEL 1
REMARK VINA RESULT: -10.164432903      0.000      0.000
REMARK  7 active torsions:
REMARK  status: ('A' for Active; 'I' for Inactive)
REMARK    1  A    between atoms: C2_2  and  C3_3 
REMARK    2  A    between atoms: C2_2  and  O1_14 
REMARK    3  A    between atoms: C3_3  and  N1_4 
REMARK    4  A    between atoms: C7_8  and  N2_9 
REMARK    5  A    between atoms: O1_14  and  C9_15 
REMARK    6  A    between atoms: C9_15  and  C10_17 
REMARK       I    between atoms: C10_17  and  N3_19 
REMARK       I    between atoms: N3_19  and  C11_21 
REMARK    7  A    between atoms: C11_21  and  C12_23 
ROOT
HETATM    1  C9  UNL     1      34.120 -17.142  55.935  1.00  0.00     0.352 C 
HETATM    2  O2  UNL     1      34.333 -16.568  54.841  1.00  0.00    -0.254 OA
ENDROOT
BRANCH   1   3
HETATM    3  O1  UNL     1      33.200 -16.554  56.786  1.00  0.00    -0.303 OA
BRANCH   3   4
HETATM    4  C2  UNL     1      32.872 -17.170  58.015  1.00  0.00     0.167 C 
HETATM    5  C1  UNL     1      33.712 -16.513  59.077  1.00  0.00     0.046 C 
BRANCH   4   6
HETATM    6  C3  UNL     1      31.396 -16.969  58.233  1.00  0.00     0.100 C 
BRANCH   6   7
HETATM    7  N1  UNL     1      30.563 -17.437  57.207  1.00  0.00    -0.350 N 
HETATM    8  C4  UNL     1      30.754 -18.709  56.684  1.00  0.00     0.068 C 
HETATM    9  C5  UNL     1      30.161 -18.814  55.298  1.00  0.00     0.047 C 
HETATM   10  C6  UNL     1      28.698 -18.420  55.435  1.00  0.00     0.043 C 
HETATM   11  C7  UNL     1      28.634 -16.952  55.764  1.00  0.00     0.222 C 
HETATM   12  C8  UNL     1      29.837 -16.459  56.507  1.00  0.00     0.100 C 
BRANCH  11  13
HETATM   13  N2  UNL     1      27.424 -16.738  56.537  1.00  0.00    -0.070 N 
ATOM     14  H23 UNL     1      26.598 -17.155  56.110  1.00  0.00     0.275 HD
ATOM     15  H22 UNL     1      27.405 -17.272  57.406  1.00  0.00     0.275 HD
ATOM     16  H21 UNL     1      27.334 -15.733  56.683  1.00  0.00     0.275 HD
ENDBRANCH  11  13
ENDBRANCH   6   7
ENDBRANCH   4   6
ENDBRANCH   3   4
ENDBRANCH   1   3
BRANCH   1  17
HETATM   17  C10 UNL     1      34.825 -18.379  56.277  1.00  0.00     0.323 C 
HETATM   18  O3  UNL     1      35.897 -18.705  55.729  1.00  0.00    -0.261 OA
HETATM   19  N3  UNL     1      34.274 -19.234  57.261  1.00  0.00    -0.288 N 
HETATM   20  C11 UNL     1      34.931 -20.426  57.609  1.00  0.00     0.233 C 
ATOM     21  H3  UNL     1      33.398 -18.984  57.719  1.00  0.00     0.172 HD
HETATM   22  O4  UNL     1      36.012 -20.715  57.030  1.00  0.00    -0.272 OA
BRANCH  20  23
HETATM   23  C12 UNL     1      34.338 -21.313  58.643  1.00  0.00     0.042 C 
HETATM   24  C13 UNL     1      35.435 -22.086  59.306  1.00  0.00     0.024 C 
HETATM   25  C14 UNL     1      34.842 -22.962  60.404  1.00  0.00    -0.013 C 
HETATM   26  C15 UNL     1      34.148 -22.056  61.381  1.00  0.00     0.009 C 
HETATM   27  C19 UNL     1      33.875 -23.902  59.723  1.00  0.00     0.009 C 
HETATM   28  C16 UNL     1      33.013 -21.323  60.691  1.00  0.00    -0.013 C 
HETATM   29  C17 UNL     1      32.028 -22.263  60.046  1.00  0.00     0.009 C 
HETATM   30  C21 UNL     1      33.632 -20.441  59.636  1.00  0.00     0.024 C 
HETATM   31  C18 UNL     1      32.760 -23.148  59.067  1.00  0.00    -0.013 C 
HETATM   32  C20 UNL     1      33.330 -22.233  57.990  1.00  0.00     0.024 C 
ENDBRANCH  20  23
ENDBRANCH   1  17
TORSDOF 7
ENDMDL
MODEL 2
REMARK VINA RESULT: -10.159924982      0.035      1.410
REMARK  7 active torsions:
REMARK  status: ('A' for Active; 'I' for Inactive)
REMARK    1  A    between atoms: C2_2  and  C3_3 
REMARK    2  A    between atoms: C2_2  and  O1_14 
REMARK    3  A    between atoms: C3_3  and  N1_4 
REMARK    4  A    between atoms: C7_8  and  N2_9 
REMARK    5  A    between atoms: O1_14  and  C9_15 
REMARK    6  A    between atoms: C9_15  and  C10_17 
REMARK       I    between atoms: C10_17  and  N3_19 
REMARK       I    between atoms: N3_19  and  C11_21 
REMARK    7  A    between atoms: C11_21  and  C12_23 
ROOT
HETATM    1  C9  UNL     1      34.108 -17.149  55.925  1.00  0.00     0.352 C 
HETATM    2  O2  UNL     1      34.319 -16.578  54.828  1.00  0.00    -0.254 OA
ENDROOT
BRANCH   1   3
HETATM    3  O1  UNL     1      33.188 -16.561  56.776  1.00  0.00    -0.303 OA
BRANCH   3   4
HETATM    4  C2  UNL     1      32.862 -17.175  58.006  1.00  0.00     0.167 C 
HETATM    5  C1  UNL     1      33.701 -16.515  59.066  1.00  0.00     0.046 C 
BRANCH   4   6
HETATM    6  C3  UNL     1      31.386 -16.975  58.224  1.00  0.00     0.100 C 
BRANCH   6   7
HETATM    7  N1  UNL     1      30.554 -17.438  57.195  1.00  0.00    -0.350 N 
HETATM    8  C4  UNL     1      30.744 -18.708  56.666  1.00  0.00     0.068 C 
HETATM    9  C5  UNL     1      30.152 -18.806  55.279  1.00  0.00     0.047 C 
HETATM   10  C6  UNL     1      28.690 -18.411  55.416  1.00  0.00     0.043 C 
HETATM   11  C7  UNL     1      28.626 -16.945  55.752  1.00  0.00     0.222 C 
HETATM   12  C8  UNL     1      29.829 -16.456  56.499  1.00  0.00     0.100 C 
BRANCH  11  13
HETATM   13  N2  UNL     1      27.416 -16.733  56.526  1.00  0.00    -0.070 N 
ATOM     14  H23 UNL     1      26.624 -17.277  56.183  1.00  0.00     0.275 HD
ATOM     15  H22 UNL     1      27.461 -17.142  57.459  1.00  0.00     0.275 HD
ATOM     16  H21 UNL     1      27.237 -15.730  56.537  1.00  0.00     0.275 HD
ENDBRANCH  11  13
ENDBRANCH   6   7
ENDBRANCH   4   6
ENDBRANCH   3   4
ENDBRANCH   1   3
BRANCH   1  17
HETATM   17  C10 UNL     1      34.818 -18.383  56.270  1.00  0.00     0.323 C 
HETATM   18  O3  UNL     1      35.886 -18.711  55.717  1.00  0.00    -0.261 OA
HETATM   19  N3  UNL     1      34.273 -19.234  57.262  1.00  0.00    -0.288 N 
HETATM   20  C11 UNL     1      34.933 -20.422  57.612  1.00  0.00     0.233 C 
ATOM     21  H3  UNL     1      33.399 -18.983  57.723  1.00  0.00     0.172 HD
HETATM   22  O4  UNL     1      36.011 -20.713  57.028  1.00  0.00    -0.272 OA
BRANCH  20  23
HETATM   23  C12 UNL     1      34.347 -21.305  58.654  1.00  0.00     0.042 C 
HETATM   24  C13 UNL     1      33.622 -20.458  59.654  1.00  0.00     0.024 C 
HETATM   25  C14 UNL     1      32.974 -21.359  60.700  1.00  0.00    -0.013 C 
HETATM   26  C15 UNL     1      32.030 -22.282  59.981  1.00  0.00     0.009 C 
HETATM   27  C19 UNL     1      34.099 -22.114  61.368  1.00  0.00     0.009 C 
HETATM   28  C16 UNL     1      32.800 -23.157  59.010  1.00  0.00    -0.013 C 
HETATM   29  C17 UNL     1      33.896 -23.939  59.685  1.00  0.00     0.009 C 
HETATM   30  C21 UNL     1      33.400 -22.244  57.971  1.00  0.00     0.024 C 
HETATM   31  C18 UNL     1      34.826 -22.979  60.386  1.00  0.00    -0.013 C 
HETATM   32  C20 UNL     1      35.452 -22.106  59.305  1.00  0.00     0.024 C 
ENDBRANCH  20  23
ENDBRANCH   1  17
TORSDOF 7
ENDMDL
MODEL 3
REMARK VINA RESULT: -10.137412817      0.072      1.402
REMARK  7 active torsions:
REMARK  status: ('A' for Active; 'I' for Inactive)
REMARK    1  A    between atoms: C2_2  and  C3_3 
REMARK    2  A    between atoms: C2_2  and  O1_14 
REMARK    3  A    between atoms: C3_3  and  N1_4 
REMARK    4  A    between atoms: C7_8  and  N2_9 
REMARK    5  A    between atoms: O1_14  and  C9_15 
REMARK    6  A    between atoms: C9_15  and  C10_17 
REMARK       I    between atoms: C10_17  and  N3_19 
REMARK       I    between atoms: N3_19  and  C11_21 
REMARK    7  A    between atoms: C11_21  and  C12_23 
ROOT
HETATM    1  C9  UNL     1      34.145 -17.207  55.939  1.00  0.00     0.352 C 
HETATM    2  O2  UNL     1      34.366 -16.654  54.834  1.00  0.00    -0.254 OA
ENDROOT
BRANCH   1   3
HETATM    3  O1  UNL     1      33.213 -16.607  56.768  1.00  0.00    -0.303 OA
BRANCH   3   4
HETATM    4  C2  UNL     1      32.880 -17.197  58.008  1.00  0.00     0.167 C 
HETATM    5  C1  UNL     1      33.724 -16.525  59.058  1.00  0.00     0.046 C 
BRANCH   4   6
HETATM    6  C3  UNL     1      31.405 -16.980  58.221  1.00  0.00     0.100 C 
BRANCH   6   7
HETATM    7  N1  UNL     1      30.572 -17.441  57.193  1.00  0.00    -0.350 N 
HETATM    8  C4  UNL     1      30.764 -18.709  56.660  1.00  0.00     0.068 C 
HETATM    9  C5  UNL     1      30.167 -18.805  55.274  1.00  0.00     0.047 C 
HETATM   10  C6  UNL     1      28.704 -18.415  55.418  1.00  0.00     0.043 C 
HETATM   11  C7  UNL     1      28.638 -16.950  55.758  1.00  0.00     0.222 C 
HETATM   12  C8  UNL     1      29.841 -16.460  56.503  1.00  0.00     0.100 C 
BRANCH  11  13
HETATM   13  N2  UNL     1      27.429 -16.745  56.537  1.00  0.00    -0.070 N 
ATOM     14  H23 UNL     1      26.688 -16.283  56.009  1.00  0.00     0.275 HD
ATOM     15  H22 UNL     1      26.929 -17.611  56.734  1.00  0.00     0.275 HD
ATOM     16  H21 UNL     1      27.696 -16.236  57.379  1.00  0.00     0.275 HD
ENDBRANCH  11  13
ENDBRANCH   6   7
ENDBRANCH   4   6
ENDBRANCH   3   4
ENDBRANCH   1   3
BRANCH   1  17
HETATM   17  C10 UNL     1      34.855 -18.432  56.314  1.00  0.00     0.323 C 
HETATM   18  O3  UNL     1      35.946 -18.749  55.801  1.00  0.00    -0.261 OA
HETATM   19  N3  UNL     1      34.284 -19.284  57.289  1.00  0.00    -0.288 N 
HETATM   20  C11 UNL     1      34.944 -20.464  57.667  1.00  0.00     0.233 C 
ATOM     21  H3  UNL     1      33.391 -19.041  57.717  1.00  0.00     0.172 HD
HETATM   22  O4  UNL     1      36.045 -20.746  57.124  1.00  0.00    -0.272 OA
BRANCH  20  23
HETATM   23  C12 UNL     1      34.330 -21.350  58.690  1.00  0.00     0.042 C 
HETATM   24  C13 UNL     1      33.382 -22.290  58.013  1.00  0.00     0.024 C 
HETATM   25  C14 UNL     1      32.786 -23.237  59.049  1.00  0.00    -0.013 C 
HETATM   26  C15 UNL     1      33.923 -23.980  59.691  1.00  0.00     0.009 C 
HETATM   27  C19 UNL     1      32.046 -22.371  60.041  1.00  0.00     0.009 C 
HETATM   28  C16 UNL     1      34.838 -23.006  60.408  1.00  0.00    -0.013 C 
HETATM   29  C17 UNL     1      34.107 -22.170  61.426  1.00  0.00     0.009 C 
HETATM   30  C21 UNL     1      35.439 -22.107  59.357  1.00  0.00     0.024 C 
HETATM   31  C18 UNL     1      32.981 -21.434  60.741  1.00  0.00    -0.013 C 
HETATM   32  C20 UNL     1      33.623 -20.500  59.722  1.00  0.00     0.024 C 
ENDBRANCH  20  23
ENDBRANCH   1  17
TORSDOF 7
ENDMDL
MODEL 4
REMARK VINA RESULT: -9.994471467      2.022      5.804
REMARK  7 active torsions:
REMARK  status: ('A' for Active; 'I' for Inactive)
REMARK    1  A    between atoms: C2_2  and  C3_3 
REMARK    2  A    between atoms: C2_2  and  O1_14 
REMARK    3  A    between atoms: C3_3  and  N1_4 
REMARK    4  A    between atoms: C7_8  and  N2_9 
REMARK    5  A    between atoms: O1_14  and  C9_15 
REMARK    6  A    between atoms: C9_15  and  C10_17 
REMARK       I    between atoms: C10_17  and  N3_19 
REMARK       I    between atoms: N3_19  and  C11_21 
REMARK    7  A    between atoms: C11_21  and  C12_23 
ROOT
HETATM    1  C9  UNL     1      36.038 -19.969  55.406  1.00  0.00     0.352 C 
HETATM    2  O2  UNL     1      36.346 -20.288  54.233  1.00  0.00    -0.254 OA
ENDROOT
BRANCH   1   3
HETATM    3  O1  UNL     1      36.440 -20.823  56.418  1.00  0.00    -0.303 OA
BRANCH   3   4
HETATM    4  C2  UNL     1      35.607 -21.892  56.820  1.00  0.00     0.167 C 
HETATM    5  C1  UNL     1      36.169 -23.146  56.205  1.00  0.00     0.046 C 
BRANCH   4   6
HETATM    6  C3  UNL     1      35.623 -21.925  58.325  1.00  0.00     0.100 C 
BRANCH   6   7
HETATM    7  N1  UNL     1      34.370 -22.056  58.940  1.00  0.00    -0.350 N 
HETATM    8  C4  UNL     1      33.433 -22.941  58.425  1.00  0.00     0.068 C 
HETATM    9  C5  UNL     1      32.036 -22.557  58.858  1.00  0.00     0.047 C 
HETATM   10  C6  UNL     1      32.065 -22.510  60.378  1.00  0.00     0.043 C 
HETATM   11  C7  UNL     1      32.925 -21.347  60.798  1.00  0.00     0.222 C 
HETATM   12  C8  UNL     1      33.995 -21.013  59.805  1.00  0.00     0.100 C 
BRANCH  11  13
HETATM   13  N2  UNL     1      33.503 -21.684  62.087  1.00  0.00    -0.070 N 
ATOM     14  H23 UNL     1      32.926 -22.329  62.626  1.00  0.00     0.275 HD
ATOM     15  H22 UNL     1      34.329 -22.278  62.012  1.00  0.00     0.275 HD
ATOM     16  H21 UNL     1      33.684 -20.807  62.574  1.00  0.00     0.275 HD
ENDBRANCH  11  13
ENDBRANCH   6   7
ENDBRANCH   4   6
ENDBRANCH   3   4
ENDBRANCH   1   3
BRANCH   1  17
HETATM   17  C10 UNL     1      35.285 -18.741  55.670  1.00  0.00     0.323 C 
HETATM   18  O3  UNL     1      35.661 -17.629  55.249  1.00  0.00    -0.261 OA
HETATM   19  N3  UNL     1      34.093 -18.816  56.428  1.00  0.00    -0.288 N 
HETATM   20  C11 UNL     1      33.352 -17.654  56.695  1.00  0.00     0.233 C 
ATOM     21  H3  UNL     1      33.771 -19.717  56.782  1.00  0.00     0.172 HD
HETATM   22  O4  UNL     1      33.768 -16.552  56.249  1.00  0.00    -0.272 OA
BRANCH  20  23
HETATM   23  C12 UNL     1      32.102 -17.751  57.495  1.00  0.00     0.042 C 
HETATM   24  C13 UNL     1      31.049 -16.903  56.852  1.00  0.00     0.024 C 
HETATM   25  C14 UNL     1      29.748 -17.036  57.637  1.00  0.00    -0.013 C 
HETATM   26  C15 UNL     1      29.359 -18.487  57.627  1.00  0.00     0.009 C 
HETATM   27  C19 UNL     1      30.040 -16.540  59.033  1.00  0.00     0.009 C 
HETATM   28  C16 UNL     1      30.423 -19.313  58.325  1.00  0.00    -0.013 C 
HETATM   29  C17 UNL     1      30.685 -18.842  59.733  1.00  0.00     0.009 C 
HETATM   30  C21 UNL     1      31.685 -19.190  57.510  1.00  0.00     0.024 C 
HETATM   31  C18 UNL     1      31.081 -17.386  59.699  1.00  0.00    -0.013 C 
HETATM   32  C20 UNL     1      32.384 -17.303  58.911  1.00  0.00     0.024 C 
ENDBRANCH  20  23
ENDBRANCH   1  17
TORSDOF 7
ENDMDL
MODEL 5
REMARK VINA RESULT: -9.974325899      3.516      7.084
REMARK  7 active torsions:
REMARK  status: ('A' for Active; 'I' for Inactive)
REMARK    1  A    between atoms: C2_2  and  C3_3 
REMARK    2  A    between atoms: C2_2  and  O1_14 
REMARK    3  A    between atoms: C3_3  and  N1_4 
REMARK    4  A    between atoms: C7_8  and  N2_9 
REMARK    5  A    between atoms: O1_14  and  C9_15 
REMARK    6  A    between atoms: C9_15  and  C10_17 
REMARK       I    between atoms: C10_17  and  N3_19 
REMARK       I    between atoms: N3_19  and  C11_21 
REMARK    7  A    between atoms: C11_21  and  C12_23 
ROOT
HETATM    1  C9  UNL     1      33.811 -23.314  61.708  1.00  0.00     0.352 C 
HETATM    2  O2  UNL     1      33.588 -23.349  62.942  1.00  0.00    -0.254 OA
ENDROOT
BRANCH   1   3
HETATM    3  O1  UNL     1      35.050 -23.758  61.279  1.00  0.00    -0.303 OA
BRANCH   3   4
HETATM    4  C2  UNL     1      36.036 -22.832  60.872  1.00  0.00     0.167 C 
HETATM    5  C1  UNL     1      36.980 -22.653  62.031  1.00  0.00     0.046 C 
BRANCH   4   6
HETATM    6  C3  UNL     1      36.711 -23.408  59.655  1.00  0.00     0.100 C 
BRANCH   6   7
HETATM    7  N1  UNL     1      36.093 -23.125  58.430  1.00  0.00    -0.350 N 
HETATM    8  C4  UNL     1      35.710 -21.824  58.129  1.00  0.00     0.068 C 
HETATM    9  C5  UNL     1      34.628 -21.813  57.074  1.00  0.00     0.047 C 
HETATM   10  C6  UNL     1      35.190 -22.578  55.886  1.00  0.00     0.043 C 
HETATM   11  C7  UNL     1      35.324 -24.026  56.276  1.00  0.00     0.222 C 
HETATM   12  C8  UNL     1      35.551 -24.225  57.743  1.00  0.00     0.100 C 
BRANCH  11  13
HETATM   13  N2  UNL     1      36.420 -24.580  55.503  1.00  0.00    -0.070 N 
ATOM     14  H23 UNL     1      36.446 -24.235  54.543  1.00  0.00     0.275 HD
ATOM     15  H22 UNL     1      37.333 -24.228  55.793  1.00  0.00     0.275 HD
ATOM     16  H21 UNL     1      36.347 -25.595  55.560  1.00  0.00     0.275 HD
ENDBRANCH  11  13
ENDBRANCH   6   7
ENDBRANCH   4   6
ENDBRANCH   3   4
ENDBRANCH   1   3
BRANCH   1  17
HETATM   17  C10 UNL     1      32.791 -22.819  60.780  1.00  0.00     0.323 C 
HETATM   18  O3  UNL     1      31.864 -23.544  60.366  1.00  0.00    -0.261 OA
HETATM   19  N3  UNL     1      32.859 -21.477  60.337  1.00  0.00    -0.288 N 
HETATM   20  C11 UNL     1      31.894 -20.978  59.448  1.00  0.00     0.233 C 
ATOM     21  H3  UNL     1      33.612 -20.871  60.663  1.00  0.00     0.172 HD
HETATM   22  O4  UNL     1      30.974 -21.744  59.057  1.00  0.00    -0.272 OA
BRANCH  20  23
HETATM   23  C12 UNL     1      31.981 -19.567  58.990  1.00  0.00     0.042 C 
HETATM   24  C13 UNL     1      31.656 -19.509  57.530  1.00  0.00     0.024 C 
HETATM   25  C14 UNL     1      31.692 -18.058  57.063  1.00  0.00    -0.013 C 
HETATM   26  C15 UNL     1      30.684 -17.295  57.875  1.00  0.00     0.009 C 
HETATM   27  C19 UNL     1      33.100 -17.568  57.306  1.00  0.00     0.009 C 
HETATM   28  C16 UNL     1      31.067 -17.333  59.342  1.00  0.00    -0.013 C 
HETATM   29  C17 UNL     1      32.457 -16.806  59.589  1.00  0.00     0.009 C 
HETATM   30  C21 UNL     1      30.989 -18.772  59.784  1.00  0.00     0.024 C 
HETATM   31  C18 UNL     1      33.439 -17.602  58.765  1.00  0.00    -0.013 C 
HETATM   32  C20 UNL     1      33.371 -19.039  59.268  1.00  0.00     0.024 C 
ENDBRANCH  20  23
ENDBRANCH   1  17
TORSDOF 7
ENDMDL
