MODEL 1
REMARK VINA RESULT: -6.656104401      0.000      0.000
REMARK  5 active torsions:
REMARK  status: ('A' for Active; 'I' for Inactive)
REMARK    1  A    between atoms: C2_2  and  C4_4 
REMARK    2  A    between atoms: C4_4  and  C5_5 
REMARK    3  A    between atoms: C5_5  and  O1_6 
REMARK    4  A    between atoms: C9_11  and  O2_12 
REMARK    5  A    between atoms: C22_27  and  O4_28 
ROOT
HETATM    1  C4  UNL     1       6.936 -24.893 -16.340  1.00  0.00     0.041 C 
HETATM    2  C6  UNL     1       5.893 -25.254 -15.271  1.00  0.00     0.049 C 
HETATM    3  C7  UNL     1       6.467 -25.272 -13.903  1.00  0.00    -0.020 C 
HETATM    4  C8  UNL     1       7.524 -25.716 -13.243  1.00  0.00     0.001 C 
HETATM    5  C9  UNL     1       8.760 -26.465 -13.510  1.00  0.00     0.148 C 
HETATM    6  C10 UNL     1       8.912 -27.129 -14.781  1.00  0.00     0.064 C 
HETATM    7  C11 UNL     1       8.945 -28.653 -14.824  1.00  0.00    -0.028 C 
HETATM    8  C12 UNL     1       8.052 -29.373 -13.865  1.00  0.00     0.016 C 
HETATM    9  C13 UNL     1      10.332 -29.134 -14.703  1.00  0.00     0.010 C 
HETATM   10  C14 UNL     1      11.179 -29.269 -15.890  1.00  0.00     0.002 C 
HETATM   11  C15 UNL     1      10.729 -28.551 -17.116  1.00  0.00     0.009 C 
HETATM   12  C16 UNL     1       9.258 -28.829 -17.273  1.00  0.00    -0.040 C 
HETATM   13  C17 UNL     1       9.290 -30.392 -17.365  1.00  0.00     0.015 C 
HETATM   14  C18 UNL     1       8.869 -28.438 -18.665  1.00  0.00     0.015 C 
HETATM   15  C19 UNL     1       8.345 -28.515 -16.201  1.00  0.00     0.040 C 
HETATM   16  C20 UNL     1       7.811 -27.212 -15.758  1.00  0.00     0.100 C 
HETATM   17  O3  UNL     1       6.606 -27.398 -15.085  1.00  0.00    -0.376 OA
HETATM   18  C21 UNL     1       5.550 -26.700 -15.613  1.00  0.00     0.178 C 
HETATM   19  C22 UNL     1       7.816 -26.040 -16.667  1.00  0.00     0.169 C 
ENDROOT
BRANCH   1  20
HETATM   20  C2  UNL     1       6.100 -24.409 -17.483  1.00  0.00    -0.079 C 
HETATM   21  C1  UNL     1       5.640 -25.349 -18.321  1.00  0.00     0.015 C 
HETATM   22  C3  UNL     1       5.789 -22.981 -17.757  1.00  0.00     0.043 C 
ENDBRANCH   1  20
BRANCH   1  23
HETATM   23  C5  UNL     1       7.614 -23.655 -15.804  1.00  0.00     0.181 C 
BRANCH  23  24
HETATM   24  O1  UNL     1       8.415 -23.113 -16.795  1.00  0.00    -0.400 OA
ATOM     25  H1  UNL     1       7.936 -23.112 -17.616  1.00  0.00     0.209 HD
ENDBRANCH  23  24
ENDBRANCH   1  23
BRANCH  19  26
HETATM   26  O4  UNL     1       9.074 -25.507 -16.923  1.00  0.00    -0.391 OA
ATOM     27  H4  UNL     1       9.255 -25.677 -17.840  1.00  0.00     0.210 HD
ENDBRANCH  19  26
BRANCH   5  28
HETATM   28  O2  UNL     1       9.072 -27.296 -12.405  1.00  0.00    -0.391 OA
ATOM     29  H2  UNL     1      10.003 -27.256 -12.220  1.00  0.00     0.210 HD
ENDBRANCH   5  28
TORSDOF 5
ENDMDL
MODEL 2
REMARK VINA RESULT: -5.636196414      1.948      3.417
REMARK  5 active torsions:
REMARK  status: ('A' for Active; 'I' for Inactive)
REMARK    1  A    between atoms: C2_2  and  C4_4 
REMARK    2  A    between atoms: C4_4  and  C5_5 
REMARK    3  A    between atoms: C5_5  and  O1_6 
REMARK    4  A    between atoms: C9_11  and  O2_12 
REMARK    5  A    between atoms: C22_27  and  O4_28 
ROOT
HETATM    1  C4  UNL     1       7.674 -26.214 -15.532  1.00  0.00     0.041 C 
HETATM    2  C6  UNL     1       6.501 -26.903 -16.248  1.00  0.00     0.049 C 
HETATM    3  C7  UNL     1       6.453 -28.362 -15.980  1.00  0.00    -0.020 C 
HETATM    4  C8  UNL     1       7.246 -29.419 -15.931  1.00  0.00     0.001 C 
HETATM    5  C9  UNL     1       8.666 -29.745 -16.122  1.00  0.00     0.148 C 
HETATM    6  C10 UNL     1       9.536 -28.759 -16.713  1.00  0.00     0.064 C 
HETATM    7  C11 UNL     1      10.130 -29.023 -18.092  1.00  0.00    -0.028 C 
HETATM    8  C12 UNL     1       9.257 -29.731 -19.078  1.00  0.00     0.016 C 
HETATM    9  C13 UNL     1      11.429 -29.706 -17.962  1.00  0.00     0.010 C 
HETATM   10  C14 UNL     1      12.661 -28.936 -17.784  1.00  0.00     0.002 C 
HETATM   11  C15 UNL     1      12.506 -27.517 -17.356  1.00  0.00     0.009 C 
HETATM   12  C16 UNL     1      11.424 -26.916 -18.214  1.00  0.00    -0.040 C 
HETATM   13  C17 UNL     1      12.052 -27.141 -19.631  1.00  0.00     0.015 C 
HETATM   14  C18 UNL     1      11.504 -25.427 -18.067  1.00  0.00     0.015 C 
HETATM   15  C19 UNL     1      10.117 -27.524 -18.260  1.00  0.00     0.040 C 
HETATM   16  C20 UNL     1       9.021 -27.495 -17.272  1.00  0.00     0.100 C 
HETATM   17  O3  UNL     1       7.804 -27.731 -17.907  1.00  0.00    -0.376 OA
HETATM   18  C21 UNL     1       6.868 -26.747 -17.720  1.00  0.00     0.178 C 
HETATM   19  C22 UNL     1       8.960 -26.439 -16.233  1.00  0.00     0.169 C 
ENDROOT
BRANCH   1  20
HETATM   20  C2  UNL     1       7.243 -24.782 -15.473  1.00  0.00    -0.079 C 
HETATM   21  C1  UNL     1       6.094 -24.534 -14.828  1.00  0.00     0.015 C 
HETATM   22  C3  UNL     1       7.978 -23.653 -16.102  1.00  0.00     0.043 C 
ENDBRANCH   1  20
BRANCH   1  23
HETATM   23  C5  UNL     1       7.588 -26.704 -14.108  1.00  0.00     0.181 C 
BRANCH  23  24
HETATM   24  O1  UNL     1       8.233 -25.802 -13.279  1.00  0.00    -0.400 OA
ATOM     25  H1  UNL     1       7.588 -25.362 -12.738  1.00  0.00     0.209 HD
ENDBRANCH  23  24
ENDBRANCH   1  23
BRANCH  19  26
HETATM   26  O4  UNL     1       9.932 -26.538 -15.244  1.00  0.00    -0.391 OA
ATOM     27  H4  UNL     1      10.537 -25.820 -15.392  1.00  0.00     0.210 HD
ENDBRANCH  19  26
BRANCH   5  28
HETATM   28  O2  UNL     1       8.794 -31.028 -16.713  1.00  0.00    -0.391 OA
ATOM     29  H2  UNL     1       9.608 -31.433 -16.439  1.00  0.00     0.210 HD
ENDBRANCH   5  28
TORSDOF 5
ENDMDL
MODEL 3
REMARK VINA RESULT: -5.480221947      4.688      7.465
REMARK  5 active torsions:
REMARK  status: ('A' for Active; 'I' for Inactive)
REMARK    1  A    between atoms: C2_2  and  C4_4 
REMARK    2  A    between atoms: C4_4  and  C5_5 
REMARK    3  A    between atoms: C5_5  and  O1_6 
REMARK    4  A    between atoms: C9_11  and  O2_12 
REMARK    5  A    between atoms: C22_27  and  O4_28 
ROOT
HETATM    1  C4  UNL     1      12.435 -28.283 -18.033  1.00  0.00     0.041 C 
HETATM    2  C6  UNL     1      11.575 -27.097 -18.500  1.00  0.00     0.049 C 
HETATM    3  C7  UNL     1      10.161 -27.481 -18.731  1.00  0.00    -0.020 C 
HETATM    4  C8  UNL     1       9.440 -28.430 -19.304  1.00  0.00     0.001 C 
HETATM    5  C9  UNL     1       9.648 -29.675 -20.057  1.00  0.00     0.148 C 
HETATM    6  C10 UNL     1      10.970 -29.984 -20.542  1.00  0.00     0.064 C 
HETATM    7  C11 UNL     1      11.227 -29.992 -22.044  1.00  0.00    -0.028 C 
HETATM    8  C12 UNL     1      10.507 -28.963 -22.856  1.00  0.00     0.016 C 
HETATM    9  C13 UNL     1      10.997 -31.340 -22.592  1.00  0.00     0.010 C 
HETATM   10  C14 UNL     1      12.070 -32.336 -22.592  1.00  0.00     0.002 C 
HETATM   11  C15 UNL     1      13.227 -32.071 -21.693  1.00  0.00     0.009 C 
HETATM   12  C16 UNL     1      13.613 -30.629 -21.888  1.00  0.00    -0.040 C 
HETATM   13  C17 UNL     1      13.925 -30.642 -23.422  1.00  0.00     0.015 C 
HETATM   14  C18 UNL     1      14.974 -30.440 -21.290  1.00  0.00     0.015 C 
HETATM   15  C19 UNL     1      12.636 -29.586 -21.692  1.00  0.00     0.040 C 
HETATM   16  C20 UNL     1      12.085 -29.024 -20.444  1.00  0.00     0.100 C 
HETATM   17  O3  UNL     1      11.609 -27.736 -20.674  1.00  0.00    -0.376 OA
HETATM   18  C21 UNL     1      12.164 -26.775 -19.869  1.00  0.00     0.178 C 
HETATM   19  C22 UNL     1      12.806 -29.175 -19.156  1.00  0.00     0.169 C 
ENDROOT
BRANCH   1  20
HETATM   20  C2  UNL     1      13.596 -27.619 -17.361  1.00  0.00    -0.079 C 
HETATM   21  C1  UNL     1      14.703 -28.361 -17.219  1.00  0.00     0.015 C 
HETATM   22  C3  UNL     1      13.581 -26.232 -16.825  1.00  0.00     0.043 C 
ENDBRANCH   1  20
BRANCH   1  23
HETATM   23  C5  UNL     1      11.643 -28.907 -16.911  1.00  0.00     0.181 C 
BRANCH  23  24
HETATM   24  O1  UNL     1      12.500 -29.628 -16.097  1.00  0.00    -0.400 OA
ATOM     25  H1  UNL     1      12.000 -30.275 -15.614  1.00  0.00     0.209 HD
ENDBRANCH  23  24
ENDBRANCH   1  23
BRANCH  19  26
HETATM   26  O4  UNL     1      12.816 -30.467 -18.643  1.00  0.00    -0.391 OA
ATOM     27  H4  UNL     1      12.054 -30.537 -18.081  1.00  0.00     0.210 HD
ENDBRANCH  19  26
BRANCH   5  28
HETATM   28  O2  UNL     1       8.642 -29.818 -21.046  1.00  0.00    -0.391 OA
ATOM     29  H2  UNL     1       9.040 -29.908 -21.904  1.00  0.00     0.210 HD
ENDBRANCH   5  28
TORSDOF 5
ENDMDL
MODEL 4
REMARK VINA RESULT: -5.458758042      2.148      5.250
REMARK  5 active torsions:
REMARK  status: ('A' for Active; 'I' for Inactive)
REMARK    1  A    between atoms: C2_2  and  C4_4 
REMARK    2  A    between atoms: C4_4  and  C5_5 
REMARK    3  A    between atoms: C5_5  and  O1_6 
REMARK    4  A    between atoms: C9_11  and  O2_12 
REMARK    5  A    between atoms: C22_27  and  O4_28 
ROOT
HETATM    1  C4  UNL     1      10.764 -28.527 -17.795  1.00  0.00     0.041 C 
HETATM    2  C6  UNL     1       9.749 -29.420 -18.527  1.00  0.00     0.049 C 
HETATM    3  C7  UNL     1       8.593 -28.652 -19.050  1.00  0.00    -0.020 C 
HETATM    4  C8  UNL     1       7.735 -27.715 -18.680  1.00  0.00     0.001 C 
HETATM    5  C9  UNL     1       7.442 -26.889 -17.502  1.00  0.00     0.148 C 
HETATM    6  C10 UNL     1       8.079 -27.208 -16.249  1.00  0.00     0.064 C 
HETATM    7  C11 UNL     1       7.228 -27.717 -15.091  1.00  0.00    -0.028 C 
HETATM    8  C12 UNL     1       6.085 -28.617 -15.439  1.00  0.00     0.016 C 
HETATM    9  C13 UNL     1       6.766 -26.587 -14.266  1.00  0.00     0.010 C 
HETATM   10  C14 UNL     1       7.600 -26.069 -13.179  1.00  0.00     0.002 C 
HETATM   11  C15 UNL     1       9.039 -26.453 -13.202  1.00  0.00     0.009 C 
HETATM   12  C16 UNL     1       9.095 -27.931 -13.481  1.00  0.00    -0.040 C 
HETATM   13  C17 UNL     1       8.262 -28.463 -12.266  1.00  0.00     0.015 C 
HETATM   14  C18 UNL     1      10.477 -28.403 -13.146  1.00  0.00     0.015 C 
HETATM   15  C19 UNL     1       8.462 -28.468 -14.660  1.00  0.00     0.040 C 
HETATM   16  C20 UNL     1       8.892 -28.426 -16.072  1.00  0.00     0.100 C 
HETATM   17  O3  UNL     1       8.311 -29.478 -16.775  1.00  0.00    -0.376 OA
HETATM   18  C21 UNL     1       9.208 -30.301 -17.405  1.00  0.00     0.178 C 
HETATM   19  C22 UNL     1      10.310 -28.176 -16.429  1.00  0.00     0.169 C 
ENDROOT
BRANCH   1  20
HETATM   20  C2  UNL     1      12.023 -29.333 -17.841  1.00  0.00    -0.079 C 
HETATM   21  C1  UNL     1      12.647 -29.525 -16.670  1.00  0.00     0.015 C 
HETATM   22  C3  UNL     1      12.627 -29.888 -19.082  1.00  0.00     0.043 C 
ENDBRANCH   1  20
BRANCH   1  23
HETATM   23  C5  UNL     1      11.005 -27.376 -18.741  1.00  0.00     0.181 C 
BRANCH  23  24
HETATM   24  O1  UNL     1      12.228 -26.798 -18.447  1.00  0.00    -0.400 OA
ATOM     25  H1  UNL     1      12.106 -25.866 -18.306  1.00  0.00     0.209 HD
ENDBRANCH  23  24
ENDBRANCH   1  23
BRANCH  19  26
HETATM   26  O4  UNL     1      10.750 -26.879 -16.191  1.00  0.00    -0.391 OA
ATOM     27  H4  UNL     1       9.983 -26.377 -15.944  1.00  0.00     0.210 HD
ENDBRANCH  19  26
BRANCH   5  28
HETATM   28  O2  UNL     1       6.043 -26.692 -17.383  1.00  0.00    -0.391 OA
ATOM     29  H2  UNL     1       5.647 -27.431 -16.935  1.00  0.00     0.210 HD
ENDBRANCH   5  28
TORSDOF 5
ENDMDL
MODEL 5
REMARK VINA RESULT: -5.010337534      2.064      5.443
REMARK  5 active torsions:
REMARK  status: ('A' for Active; 'I' for Inactive)
REMARK    1  A    between atoms: C2_2  and  C4_4 
REMARK    2  A    between atoms: C4_4  and  C5_5 
REMARK    3  A    between atoms: C5_5  and  O1_6 
REMARK    4  A    between atoms: C9_11  and  O2_12 
REMARK    5  A    between atoms: C22_27  and  O4_28 
ROOT
HETATM    1  C4  UNL     1      11.487 -28.204 -17.852  1.00  0.00     0.041 C 
HETATM    2  C6  UNL     1      11.768 -29.205 -16.719  1.00  0.00     0.049 C 
HETATM    3  C7  UNL     1      10.800 -30.329 -16.704  1.00  0.00    -0.020 C 
HETATM    4  C8  UNL     1       9.501 -30.562 -16.797  1.00  0.00     0.001 C 
HETATM    5  C9  UNL     1       8.253 -29.808 -16.972  1.00  0.00     0.148 C 
HETATM    6  C10 UNL     1       8.280 -28.372 -16.838  1.00  0.00     0.064 C 
HETATM    7  C11 UNL     1       7.554 -27.721 -15.667  1.00  0.00    -0.028 C 
HETATM    8  C12 UNL     1       7.586 -28.453 -14.363  1.00  0.00     0.016 C 
HETATM    9  C13 UNL     1       6.169 -27.395 -16.046  1.00  0.00     0.010 C 
HETATM   10  C14 UNL     1       5.855 -26.125 -16.704  1.00  0.00     0.002 C 
HETATM   11  C15 UNL     1       7.000 -25.386 -17.308  1.00  0.00     0.009 C 
HETATM   12  C16 UNL     1       8.110 -25.391 -16.291  1.00  0.00    -0.040 C 
HETATM   13  C17 UNL     1       7.384 -24.679 -15.100  1.00  0.00     0.015 C 
HETATM   14  C18 UNL     1       9.113 -24.361 -16.711  1.00  0.00     0.015 C 
HETATM   15  C19 UNL     1       8.602 -26.640 -15.764  1.00  0.00     0.040 C 
HETATM   16  C20 UNL     1       9.483 -27.651 -16.382  1.00  0.00     0.100 C 
HETATM   17  O3  UNL     1      10.120 -28.393 -15.391  1.00  0.00    -0.376 OA
HETATM   18  C21 UNL     1      11.489 -28.380 -15.467  1.00  0.00     0.178 C 
HETATM   19  C22 UNL     1      10.359 -27.300 -17.526  1.00  0.00     0.169 C 
ENDROOT
BRANCH   1  20
HETATM   20  C2  UNL     1      12.802 -27.514 -18.031  1.00  0.00    -0.079 C 
HETATM   21  C1  UNL     1      13.893 -28.290 -17.964  1.00  0.00     0.015 C 
HETATM   22  C3  UNL     1      12.967 -26.050 -18.238  1.00  0.00     0.043 C 
ENDBRANCH   1  20
BRANCH   1  23
HETATM   23  C5  UNL     1      11.328 -29.062 -19.083  1.00  0.00     0.181 C 
BRANCH  23  24
HETATM   24  O1  UNL     1      11.577 -28.292 -20.206  1.00  0.00    -0.400 OA
ATOM     25  H1  UNL     1      12.474 -27.978 -20.174  1.00  0.00     0.209 HD
ENDBRANCH  23  24
ENDBRANCH   1  23
BRANCH  19  26
HETATM   26  O4  UNL     1       9.690 -27.062 -18.721  1.00  0.00    -0.391 OA
ATOM     27  H4  UNL     1       8.765 -27.035 -18.508  1.00  0.00     0.210 HD
ENDBRANCH  19  26
BRANCH   5  28
HETATM   28  O2  UNL     1       7.209 -30.417 -16.230  1.00  0.00    -0.391 OA
ATOM     29  H2  UNL     1       7.178 -30.054 -15.353  1.00  0.00     0.210 HD
ENDBRANCH   5  28
TORSDOF 5
ENDMDL
