MODEL 1
REMARK VINA RESULT: -5.933177371      0.000      0.000
REMARK  5 active torsions:
REMARK  status: ('A' for Active; 'I' for Inactive)
REMARK    1  A    between atoms: C2_2  and  N1_4 
REMARK       I    between atoms: N1_4  and  C5_6 
REMARK       I    between atoms: C5_6  and  N2_8 
REMARK    2  A    between atoms: N2_8  and  S1_10 
REMARK    3  A    between atoms: S1_10  and  C6_13 
REMARK    4  A    between atoms: C8_17  and  C9_18 
REMARK       I    between atoms: C9_18  and  N4_20 
REMARK    5  A    between atoms: N4_20  and  N5_22 
ROOT
HETATM    1  C6  UNL     1     -13.962   0.504 -14.611  1.00  0.00     0.097 A 
HETATM    2  C7  UNL     1     -14.988  -0.221 -14.061  1.00  0.00     0.113 A 
HETATM    3  N3  UNL     1     -14.996  -0.554 -12.779  1.00  0.00    -0.358 N 
ATOM      4  H3  UNL     1     -15.783  -1.093 -12.417  1.00  0.00     0.165 HD
HETATM    5  C8  UNL     1     -13.992  -0.204 -11.925  1.00  0.00     0.126 A 
HETATM    6  C10 UNL     1     -12.958   0.520 -12.451  1.00  0.00     0.080 A 
HETATM    7  N6  UNL     1     -11.856   0.922 -11.649  1.00  0.00    -0.100 NA
HETATM    8  C11 UNL     1     -12.923   0.884 -13.795  1.00  0.00     0.055 A 
ENDROOT
BRANCH   1   9
HETATM    9  S1  UNL     1     -13.911   0.939 -16.330  1.00  0.00     0.268 S 
HETATM   10  O2  UNL     1     -15.286   1.369 -16.778  1.00  0.00    -0.200 OA
HETATM   11  O3  UNL     1     -13.468  -0.318 -17.061  1.00  0.00    -0.200 OA
BRANCH   9  12
HETATM   12  N2  UNL     1     -12.830   2.232 -16.552  1.00  0.00    -0.232 N 
HETATM   13  C5  UNL     1     -12.415   2.792 -17.782  1.00  0.00     0.332 C 
HETATM   14  N1  UNL     1     -11.509   3.867 -17.883  1.00  0.00    -0.334 N 
HETATM   15  O1  UNL     1     -12.905   2.272 -18.839  1.00  0.00    -0.246 OA
HETATM   16  C4  UNL     1     -10.975   4.448 -16.672  1.00  0.00     0.154 C 
ATOM     17  H2  UNL     1     -12.439   2.648 -15.707  1.00  0.00     0.183 HD
BRANCH  14  18
HETATM   18  C2  UNL     1     -11.109   4.384 -19.163  1.00  0.00     0.080 C 
HETATM   19  C1  UNL     1     -11.615   5.816 -19.273  1.00  0.00     0.032 C 
HETATM   20  C3  UNL     1      -9.602   4.332 -19.346  1.00  0.00     0.032 C 
ENDBRANCH  14  18
ENDBRANCH   9  12
ENDBRANCH   1   9
BRANCH   5  21
HETATM   21  C9  UNL     1     -14.042  -0.595 -10.525  1.00  0.00     0.288 C 
HETATM   22  O4  UNL     1     -14.915  -0.117  -9.761  1.00  0.00    -0.264 OA
HETATM   23  N4  UNL     1     -13.108  -1.522  -9.993  1.00  0.00    -0.271 N 
ATOM     24  H4  UNL     1     -12.397  -1.917 -10.610  1.00  0.00     0.189 HD
BRANCH  23  25
HETATM   25  N5  UNL     1     -13.131  -1.912  -8.647  1.00  0.00    -0.342 N 
ATOM     26  H52 UNL     1     -13.814  -2.616  -8.365  1.00  0.00     0.176 HD
ATOM     27  H51 UNL     1     -12.492  -1.515  -7.958  1.00  0.00     0.176 HD
ENDBRANCH  23  25
ENDBRANCH   5  21
TORSDOF 5
ENDMDL
MODEL 2
REMARK VINA RESULT: -5.680766251      1.594      2.110
REMARK  5 active torsions:
REMARK  status: ('A' for Active; 'I' for Inactive)
REMARK    1  A    between atoms: C2_2  and  N1_4 
REMARK       I    between atoms: N1_4  and  C5_6 
REMARK       I    between atoms: C5_6  and  N2_8 
REMARK    2  A    between atoms: N2_8  and  S1_10 
REMARK    3  A    between atoms: S1_10  and  C6_13 
REMARK    4  A    between atoms: C8_17  and  C9_18 
REMARK       I    between atoms: C9_18  and  N4_20 
REMARK    5  A    between atoms: N4_20  and  N5_22 
ROOT
HETATM    1  C6  UNL     1     -13.771   0.535 -14.610  1.00  0.00     0.097 A 
HETATM    2  C7  UNL     1     -14.142  -0.748 -14.296  1.00  0.00     0.113 A 
HETATM    3  N3  UNL     1     -14.249  -1.154 -13.041  1.00  0.00    -0.358 N 
ATOM      4  H3  UNL     1     -14.529  -2.118 -12.859  1.00  0.00     0.165 HD
HETATM    5  C8  UNL     1     -13.999  -0.332 -11.981  1.00  0.00     0.126 A 
HETATM    6  C10 UNL     1     -13.629   0.951 -12.269  1.00  0.00     0.080 A 
HETATM    7  N6  UNL     1     -13.332   1.883 -11.238  1.00  0.00    -0.100 NA
HETATM    8  C11 UNL     1     -13.507   1.406 -13.580  1.00  0.00     0.055 A 
ENDROOT
BRANCH   1   9
HETATM    9  S1  UNL     1     -13.591   1.098 -16.282  1.00  0.00     0.268 S 
HETATM   10  O2  UNL     1     -14.930   1.560 -16.802  1.00  0.00    -0.200 OA
HETATM   11  O3  UNL     1     -13.085  -0.101 -17.069  1.00  0.00    -0.200 OA
BRANCH   9  12
HETATM   12  N2  UNL     1     -12.504   2.405 -16.323  1.00  0.00    -0.232 N 
HETATM   13  C5  UNL     1     -11.117   2.366 -16.050  1.00  0.00     0.332 C 
HETATM   14  N1  UNL     1     -10.280   3.498 -16.103  1.00  0.00    -0.334 N 
HETATM   15  O1  UNL     1     -10.629   1.228 -15.741  1.00  0.00    -0.246 OA
HETATM   16  C4  UNL     1     -10.853   4.775 -16.465  1.00  0.00     0.154 C 
ATOM     17  H2  UNL     1     -12.894   3.314 -16.570  1.00  0.00     0.183 HD
BRANCH  14  18
HETATM   18  C2  UNL     1      -8.879   3.402 -15.797  1.00  0.00     0.080 C 
HETATM   19  C1  UNL     1      -8.119   4.277 -16.784  1.00  0.00     0.032 C 
HETATM   20  C3  UNL     1      -8.584   3.824 -14.368  1.00  0.00     0.032 C 
ENDBRANCH  14  18
ENDBRANCH   9  12
ENDBRANCH   1   9
BRANCH   5  21
HETATM   21  C9  UNL     1     -14.127  -0.824 -10.618  1.00  0.00     0.288 C 
HETATM   22  O4  UNL     1     -15.233  -0.778 -10.025  1.00  0.00    -0.264 OA
HETATM   23  N4  UNL     1     -13.009  -1.365  -9.930  1.00  0.00    -0.271 N 
ATOM     24  H4  UNL     1     -12.109  -1.408 -10.407  1.00  0.00     0.189 HD
BRANCH  23  25
HETATM   25  N5  UNL     1     -13.105  -1.840  -8.615  1.00  0.00    -0.342 N 
ATOM     26  H52 UNL     1     -13.517  -2.762  -8.468  1.00  0.00     0.176 HD
ATOM     27  H51 UNL     1     -12.777  -1.295  -7.817  1.00  0.00     0.176 HD
ENDBRANCH  23  25
ENDBRANCH   5  21
TORSDOF 5
ENDMDL
MODEL 3
REMARK VINA RESULT: -5.652838753      1.791      2.360
REMARK  5 active torsions:
REMARK  status: ('A' for Active; 'I' for Inactive)
REMARK    1  A    between atoms: C2_2  and  N1_4 
REMARK       I    between atoms: N1_4  and  C5_6 
REMARK       I    between atoms: C5_6  and  N2_8 
REMARK    2  A    between atoms: N2_8  and  S1_10 
REMARK    3  A    between atoms: S1_10  and  C6_13 
REMARK    4  A    between atoms: C8_17  and  C9_18 
REMARK       I    between atoms: C9_18  and  N4_20 
REMARK    5  A    between atoms: N4_20  and  N5_22 
ROOT
HETATM    1  C6  UNL     1     -14.601  -0.627 -14.251  1.00  0.00     0.097 A 
HETATM    2  C7  UNL     1     -13.572  -1.363 -13.719  1.00  0.00     0.113 A 
HETATM    3  N3  UNL     1     -13.374  -1.438 -12.412  1.00  0.00    -0.358 N 
ATOM      4  H3  UNL     1     -12.595  -1.999 -12.066  1.00  0.00     0.165 HD
HETATM    5  C8  UNL     1     -14.172  -0.795 -11.512  1.00  0.00     0.126 A 
HETATM    6  C10 UNL     1     -15.204  -0.057 -12.018  1.00  0.00     0.080 A 
HETATM    7  N6  UNL     1     -16.084   0.663 -11.166  1.00  0.00    -0.100 NA
HETATM    8  C11 UNL     1     -15.437   0.041 -13.389  1.00  0.00     0.055 A 
ENDROOT
BRANCH   1   9
HETATM    9  S1  UNL     1     -14.873  -0.485 -15.998  1.00  0.00     0.268 S 
HETATM   10  O2  UNL     1     -16.153   0.274 -16.245  1.00  0.00    -0.200 OA
HETATM   11  O3  UNL     1     -14.975  -1.910 -16.517  1.00  0.00    -0.200 OA
BRANCH   9  12
HETATM   12  N2  UNL     1     -13.581   0.369 -16.701  1.00  0.00    -0.232 N 
HETATM   13  C5  UNL     1     -13.055   1.611 -16.281  1.00  0.00     0.332 C 
HETATM   14  N1  UNL     1     -11.979   2.259 -16.921  1.00  0.00    -0.334 N 
HETATM   15  O1  UNL     1     -13.608   2.151 -15.265  1.00  0.00    -0.246 OA
HETATM   16  C4  UNL     1     -11.361   1.625 -18.063  1.00  0.00     0.154 C 
ATOM     17  H2  UNL     1     -13.139  -0.063 -17.513  1.00  0.00     0.183 HD
BRANCH  14  18
HETATM   18  C2  UNL     1     -11.497   3.533 -16.459  1.00  0.00     0.080 C 
HETATM   19  C1  UNL     1     -10.180   3.303 -15.732  1.00  0.00     0.032 C 
HETATM   20  C3  UNL     1     -11.314   4.514 -17.604  1.00  0.00     0.032 C 
ENDBRANCH  14  18
ENDBRANCH   9  12
ENDBRANCH   1   9
BRANCH   5  21
HETATM   21  C9  UNL     1     -13.913  -0.905 -10.084  1.00  0.00     0.288 C 
HETATM   22  O4  UNL     1     -14.343  -0.032  -9.291  1.00  0.00    -0.264 OA
HETATM   23  N4  UNL     1     -13.172  -1.995  -9.559  1.00  0.00    -0.271 N 
ATOM     24  H4  UNL     1     -12.823  -2.709 -10.199  1.00  0.00     0.189 HD
BRANCH  23  25
HETATM   25  N5  UNL     1     -12.905  -2.121  -8.189  1.00  0.00    -0.342 N 
ATOM     26  H52 UNL     1     -13.092  -1.317  -7.589  1.00  0.00     0.176 HD
ATOM     27  H51 UNL     1     -12.534  -2.982  -7.787  1.00  0.00     0.176 HD
ENDBRANCH  23  25
ENDBRANCH   5  21
TORSDOF 5
ENDMDL
MODEL 4
REMARK VINA RESULT: -5.649371196      3.355      5.003
REMARK  5 active torsions:
REMARK  status: ('A' for Active; 'I' for Inactive)
REMARK    1  A    between atoms: C2_2  and  N1_4 
REMARK       I    between atoms: N1_4  and  C5_6 
REMARK       I    between atoms: C5_6  and  N2_8 
REMARK    2  A    between atoms: N2_8  and  S1_10 
REMARK    3  A    between atoms: S1_10  and  C6_13 
REMARK    4  A    between atoms: C8_17  and  C9_18 
REMARK       I    between atoms: C9_18  and  N4_20 
REMARK    5  A    between atoms: N4_20  and  N5_22 
ROOT
HETATM    1  C6  UNL     1     -14.015   0.352 -14.639  1.00  0.00     0.097 A 
HETATM    2  C7  UNL     1     -15.043  -0.304 -14.011  1.00  0.00     0.113 A 
HETATM    3  N3  UNL     1     -15.012  -0.566 -12.713  1.00  0.00    -0.358 N 
ATOM      4  H3  UNL     1     -15.802  -1.056 -12.292  1.00  0.00     0.165 HD
HETATM    5  C8  UNL     1     -13.964  -0.205 -11.918  1.00  0.00     0.126 A 
HETATM    6  C10 UNL     1     -12.928   0.451 -12.522  1.00  0.00     0.080 A 
HETATM    7  N6  UNL     1     -11.783   0.858 -11.786  1.00  0.00    -0.100 NA
HETATM    8  C11 UNL     1     -12.934   0.739 -13.885  1.00  0.00     0.055 A 
ENDROOT
BRANCH   1   9
HETATM    9  S1  UNL     1     -14.018   0.689 -16.381  1.00  0.00     0.268 S 
HETATM   10  O2  UNL     1     -12.731   1.381 -16.758  1.00  0.00    -0.200 OA
HETATM   11  O3  UNL     1     -15.215   1.594 -16.624  1.00  0.00    -0.200 OA
BRANCH   9  12
HETATM   12  N2  UNL     1     -14.128  -0.775 -17.238  1.00  0.00    -0.232 N 
HETATM   13  C5  UNL     1     -15.307  -1.482 -17.563  1.00  0.00     0.332 C 
HETATM   14  N1  UNL     1     -15.316  -2.697 -18.278  1.00  0.00    -0.334 N 
HETATM   15  O1  UNL     1     -16.408  -0.968 -17.172  1.00  0.00    -0.246 OA
HETATM   16  C4  UNL     1     -14.059  -3.257 -18.720  1.00  0.00     0.154 C 
ATOM     17  H2  UNL     1     -13.249  -1.186 -17.550  1.00  0.00     0.183 HD
BRANCH  14  18
HETATM   18  C2  UNL     1     -16.547  -3.383 -18.564  1.00  0.00     0.080 C 
HETATM   19  C1  UNL     1     -16.449  -3.960 -19.969  1.00  0.00     0.032 C 
HETATM   20  C3  UNL     1     -16.829  -4.480 -17.552  1.00  0.00     0.032 C 
ENDBRANCH  14  18
ENDBRANCH   9  12
ENDBRANCH   1   9
BRANCH   5  21
HETATM   21  C9  UNL     1     -13.973  -0.517 -10.497  1.00  0.00     0.288 C 
HETATM   22  O4  UNL     1     -14.698   0.136  -9.706  1.00  0.00    -0.264 OA
HETATM   23  N4  UNL     1     -13.164  -1.560  -9.975  1.00  0.00    -0.271 N 
ATOM     24  H4  UNL     1     -12.575  -2.095 -10.613  1.00  0.00     0.189 HD
BRANCH  23  25
HETATM   25  N5  UNL     1     -13.151  -1.876  -8.609  1.00  0.00    -0.342 N 
ATOM     26  H52 UNL     1     -13.150  -1.107  -7.940  1.00  0.00     0.176 HD
ATOM     27  H51 UNL     1     -13.142  -2.841  -8.278  1.00  0.00     0.176 HD
ENDBRANCH  23  25
ENDBRANCH   5  21
TORSDOF 5
ENDMDL
MODEL 5
REMARK VINA RESULT: -5.593375227      4.498      6.876
REMARK  5 active torsions:
REMARK  status: ('A' for Active; 'I' for Inactive)
REMARK    1  A    between atoms: C2_2  and  N1_4 
REMARK       I    between atoms: N1_4  and  C5_6 
REMARK       I    between atoms: C5_6  and  N2_8 
REMARK    2  A    between atoms: N2_8  and  S1_10 
REMARK    3  A    between atoms: S1_10  and  C6_13 
REMARK    4  A    between atoms: C8_17  and  C9_18 
REMARK       I    between atoms: C9_18  and  N4_20 
REMARK    5  A    between atoms: N4_20  and  N5_22 
ROOT
HETATM    1  C6  UNL     1     -13.426  -1.751 -14.031  1.00  0.00     0.097 A 
HETATM    2  C7  UNL     1     -14.387  -0.862 -14.444  1.00  0.00     0.113 A 
HETATM    3  N3  UNL     1     -14.880   0.059 -13.630  1.00  0.00    -0.358 N 
ATOM      4  H3  UNL     1     -15.592   0.697 -13.985  1.00  0.00     0.165 HD
HETATM    5  C8  UNL     1     -14.471   0.186 -12.335  1.00  0.00     0.126 A 
HETATM    6  C10 UNL     1     -13.514  -0.688 -11.901  1.00  0.00     0.080 A 
HETATM    7  N6  UNL     1     -13.030  -0.649 -10.565  1.00  0.00    -0.100 NA
HETATM    8  C11 UNL     1     -12.978  -1.667 -12.735  1.00  0.00     0.055 A 
ENDROOT
BRANCH   1   9
HETATM    9  S1  UNL     1     -12.769  -3.012 -15.091  1.00  0.00     0.268 S 
HETATM   10  O2  UNL     1     -11.524  -3.591 -14.467  1.00  0.00    -0.200 OA
HETATM   11  O3  UNL     1     -12.449  -2.320 -16.406  1.00  0.00    -0.200 OA
BRANCH   9  12
HETATM   12  N2  UNL     1     -13.921  -4.250 -15.274  1.00  0.00    -0.232 N 
HETATM   13  C5  UNL     1     -15.152  -4.170 -15.964  1.00  0.00     0.332 C 
HETATM   14  N1  UNL     1     -16.058  -5.245 -16.069  1.00  0.00    -0.334 N 
HETATM   15  O1  UNL     1     -15.429  -3.049 -16.509  1.00  0.00    -0.246 OA
HETATM   16  C4  UNL     1     -15.719  -6.507 -15.453  1.00  0.00     0.154 C 
ATOM     17  H2  UNL     1     -13.700  -5.145 -14.838  1.00  0.00     0.183 HD
BRANCH  14  18
HETATM   18  C2  UNL     1     -17.305  -5.100 -16.769  1.00  0.00     0.080 C 
HETATM   19  C1  UNL     1     -17.198  -5.856 -18.086  1.00  0.00     0.032 C 
HETATM   20  C3  UNL     1     -18.475  -5.615 -15.948  1.00  0.00     0.032 C 
ENDBRANCH  14  18
ENDBRANCH   9  12
ENDBRANCH   1   9
BRANCH   5  21
HETATM   21  C9  UNL     1     -15.044   1.211 -11.477  1.00  0.00     0.288 C 
HETATM   22  O4  UNL     1     -16.197   1.071 -11.000  1.00  0.00    -0.264 OA
HETATM   23  N4  UNL     1     -14.316   2.388 -11.160  1.00  0.00    -0.271 N 
ATOM     24  H4  UNL     1     -13.377   2.506 -11.542  1.00  0.00     0.189 HD
BRANCH  23  25
HETATM   25  N5  UNL     1     -14.848   3.392 -10.339  1.00  0.00    -0.342 N 
ATOM     26  H52 UNL     1     -15.831   3.324 -10.076  1.00  0.00     0.176 HD
ATOM     27  H51 UNL     1     -14.283   4.174 -10.007  1.00  0.00     0.176 HD
ENDBRANCH  23  25
ENDBRANCH   5  21
TORSDOF 5
ENDMDL
