MODEL 1
REMARK VINA RESULT: -5.946188154      0.000      0.000
REMARK  8 active torsions:
REMARK  status: ('A' for Active; 'I' for Inactive)
REMARK    1  A    between atoms: C2_2  and  C4_4 
REMARK       I    between atoms: C4_4  and  N1_6 
REMARK    2  A    between atoms: N1_6  and  C5_8 
REMARK    3  A    between atoms: C7_13  and  C8_14 
REMARK    4  A    between atoms: C8_14  and  C9_15 
REMARK       I    between atoms: C9_15  and  N4_17 
REMARK    5  A    between atoms: N4_17  and  C10_19 
REMARK    6  A    between atoms: C11_22  and  C12_23 
REMARK    7  A    between atoms: C12_23  and  N6_25 
REMARK    8  A    between atoms: C12_23  and  O3_29 
ROOT
HETATM    1  C9  UNL     1       7.041 -14.265 -13.012  1.00  0.00     0.228 C 
HETATM    2  O2  UNL     1       7.726 -14.553 -12.002  1.00  0.00    -0.273 OA
HETATM    3  N4  UNL     1       5.904 -13.458 -12.833  1.00  0.00    -0.307 N 
ATOM      4  H4  UNL     1       5.976 -12.454 -13.000  1.00  0.00     0.171 HD
ENDROOT
BRANCH   1   5
HETATM    5  C8  UNL     1       7.376 -14.716 -14.352  1.00  0.00     0.152 C 
BRANCH   5   6
HETATM    6  C7  UNL     1       6.429 -14.300 -15.428  1.00  0.00     0.036 A 
HETATM    7  C6  UNL     1       5.339 -14.999 -15.901  1.00  0.00     0.132 A 
HETATM    8  N2  UNL     1       4.660 -14.505 -16.870  1.00  0.00    -0.324 N 
HETATM    9  N3  UNL     1       5.028 -16.282 -15.261  1.00  0.00    -0.082 NA
HETATM   10  C5  UNL     1       5.042 -13.304 -17.397  1.00  0.00     0.152 A 
ATOM     11  H2  UNL     1       3.848 -14.999 -17.240  1.00  0.00     0.169 HD
HETATM   12  S2  UNL     1       6.415 -12.927 -16.434  1.00  0.00    -0.054 SA
BRANCH  10  13
HETATM   13  N1  UNL     1       4.499 -12.726 -18.369  1.00  0.00    -0.307 N 
HETATM   14  C4  UNL     1       4.531 -11.787 -19.273  1.00  0.00     0.227 C 
HETATM   15  O1  UNL     1       5.336 -10.789 -19.220  1.00  0.00    -0.273 OA
ATOM     16  H1  UNL     1       3.622 -13.222 -18.525  1.00  0.00     0.171 HD
BRANCH  14  17
HETATM   17  C2  UNL     1       3.598 -11.818 -20.463  1.00  0.00     0.070 C 
HETATM   18  C1  UNL     1       2.608 -12.945 -20.315  1.00  0.00     0.019 C 
HETATM   19  C3  UNL     1       4.412 -12.071 -21.738  1.00  0.00     0.019 C 
ENDBRANCH  14  17
ENDBRANCH  10  13
ENDBRANCH   5   6
ENDBRANCH   1   5
BRANCH   3  20
HETATM   20  C10 UNL     1       4.761 -13.958 -12.462  1.00  0.00     0.151 A 
HETATM   21  N5  UNL     1       3.625 -13.985 -13.162  1.00  0.00    -0.335 N 
HETATM   22  C11 UNL     1       2.569 -14.528 -12.617  1.00  0.00     0.080 A 
ATOM     23  H5  UNL     1       3.583 -13.590 -14.101  1.00  0.00     0.168 HD
HETATM   24  C14 UNL     1       2.699 -15.038 -11.351  1.00  0.00     0.083 A 
HETATM   25  S1  UNL     1       4.330 -14.717 -10.995  1.00  0.00    -0.064 SA
BRANCH  22  26
HETATM   26  C12 UNL     1       1.245 -14.583 -13.383  1.00  0.00     0.262 C 
HETATM   27  C13 UNL     1       1.373 -13.791 -14.630  1.00  0.00     0.085 C 
BRANCH  26  28
HETATM   28  N6  UNL     1       0.961 -15.967 -13.617  1.00  0.00    -0.042 N 
ATOM     29  H63 UNL     1       0.632 -16.156 -14.563  1.00  0.00     0.278 HD
ATOM     30  H62 UNL     1       1.798 -16.549 -13.654  1.00  0.00     0.278 HD
ATOM     31  H61 UNL     1       0.301 -16.258 -12.896  1.00  0.00     0.278 HD
ENDBRANCH  26  28
BRANCH  26  32
HETATM   32  O3  UNL     1       0.258 -13.981 -12.596  1.00  0.00    -0.361 OA
ATOM     33  H3  UNL     1      -0.479 -13.765 -13.155  1.00  0.00     0.213 HD
ENDBRANCH  26  32
ENDBRANCH  22  26
ENDBRANCH   3  20
TORSDOF 8
ENDMDL
MODEL 2
REMARK VINA RESULT: -5.865254298      1.980      2.397
REMARK  8 active torsions:
REMARK  status: ('A' for Active; 'I' for Inactive)
REMARK    1  A    between atoms: C2_2  and  C4_4 
REMARK       I    between atoms: C4_4  and  N1_6 
REMARK    2  A    between atoms: N1_6  and  C5_8 
REMARK    3  A    between atoms: C7_13  and  C8_14 
REMARK    4  A    between atoms: C8_14  and  C9_15 
REMARK       I    between atoms: C9_15  and  N4_17 
REMARK    5  A    between atoms: N4_17  and  C10_19 
REMARK    6  A    between atoms: C11_22  and  C12_23 
REMARK    7  A    between atoms: C12_23  and  N6_25 
REMARK    8  A    between atoms: C12_23  and  O3_29 
ROOT
HETATM    1  C9  UNL     1       6.594 -15.030 -14.828  1.00  0.00     0.228 C 
HETATM    2  O2  UNL     1       6.342 -16.255 -14.915  1.00  0.00    -0.273 OA
HETATM    3  N4  UNL     1       6.136 -14.338 -13.693  1.00  0.00    -0.307 N 
ATOM      4  H4  UNL     1       6.773 -14.191 -12.910  1.00  0.00     0.171 HD
ENDROOT
BRANCH   1   5
HETATM    5  C8  UNL     1       7.342 -14.300 -15.838  1.00  0.00     0.152 C 
BRANCH   5   6
HETATM    6  C7  UNL     1       6.523 -13.653 -16.905  1.00  0.00     0.036 A 
HETATM    7  C6  UNL     1       6.271 -12.308 -17.068  1.00  0.00     0.132 A 
HETATM    8  N2  UNL     1       5.502 -11.933 -18.023  1.00  0.00    -0.324 N 
HETATM    9  N3  UNL     1       6.903 -11.382 -16.122  1.00  0.00    -0.082 NA
HETATM   10  C5  UNL     1       4.960 -12.882 -18.843  1.00  0.00     0.152 A 
ATOM     11  H2  UNL     1       5.298 -10.944 -18.167  1.00  0.00     0.169 HD
HETATM   12  S2  UNL     1       5.612 -14.326 -18.176  1.00  0.00    -0.054 SA
BRANCH  10  13
HETATM   13  N1  UNL     1       4.161 -12.664 -19.785  1.00  0.00    -0.307 N 
HETATM   14  C4  UNL     1       2.952 -12.737 -20.267  1.00  0.00     0.227 C 
HETATM   15  O1  UNL     1       2.037 -13.479 -19.758  1.00  0.00    -0.273 OA
ATOM     16  H1  UNL     1       4.718 -12.223 -20.517  1.00  0.00     0.171 HD
BRANCH  14  17
HETATM   17  C2  UNL     1       2.548 -11.937 -21.486  1.00  0.00     0.070 C 
HETATM   18  C1  UNL     1       2.771 -12.750 -22.736  1.00  0.00     0.019 C 
HETATM   19  C3  UNL     1       3.424 -10.681 -21.579  1.00  0.00     0.019 C 
ENDBRANCH  14  17
ENDBRANCH  10  13
ENDBRANCH   5   6
ENDBRANCH   1   5
BRANCH   3  20
HETATM   20  C10 UNL     1       4.920 -13.880 -13.615  1.00  0.00     0.151 A 
HETATM   21  N5  UNL     1       3.794 -14.589 -13.513  1.00  0.00    -0.335 N 
HETATM   22  C11 UNL     1       2.656 -13.949 -13.451  1.00  0.00     0.080 A 
ATOM     23  H5  UNL     1       3.822 -15.609 -13.484  1.00  0.00     0.168 HD
HETATM   24  C14 UNL     1       2.696 -12.579 -13.496  1.00  0.00     0.083 A 
HETATM   25  S1  UNL     1       4.362 -12.267 -13.626  1.00  0.00    -0.064 SA
BRANCH  22  26
HETATM   26  C12 UNL     1       1.340 -14.721 -13.332  1.00  0.00     0.262 C 
HETATM   27  C13 UNL     1       0.331 -14.098 -14.222  1.00  0.00     0.085 C 
BRANCH  26  28
HETATM   28  N6  UNL     1       1.629 -16.082 -13.669  1.00  0.00    -0.042 N 
ATOM     29  H63 UNL     1       1.709 -16.240 -14.673  1.00  0.00     0.278 HD
ATOM     30  H62 UNL     1       2.576 -16.367 -13.419  1.00  0.00     0.278 HD
ATOM     31  H61 UNL     1       0.908 -16.654 -13.228  1.00  0.00     0.278 HD
ENDBRANCH  26  28
BRANCH  26  32
HETATM   32  O3  UNL     1       0.880 -14.602 -12.017  1.00  0.00    -0.361 OA
ATOM     33  H3  UNL     1      -0.064 -14.706 -12.021  1.00  0.00     0.213 HD
ENDBRANCH  26  32
ENDBRANCH  22  26
ENDBRANCH   3  20
TORSDOF 8
ENDMDL
MODEL 3
REMARK VINA RESULT: -5.844632263      3.972      7.488
REMARK  8 active torsions:
REMARK  status: ('A' for Active; 'I' for Inactive)
REMARK    1  A    between atoms: C2_2  and  C4_4 
REMARK       I    between atoms: C4_4  and  N1_6 
REMARK    2  A    between atoms: N1_6  and  C5_8 
REMARK    3  A    between atoms: C7_13  and  C8_14 
REMARK    4  A    between atoms: C8_14  and  C9_15 
REMARK       I    between atoms: C9_15  and  N4_17 
REMARK    5  A    between atoms: N4_17  and  C10_19 
REMARK    6  A    between atoms: C11_22  and  C12_23 
REMARK    7  A    between atoms: C12_23  and  N6_25 
REMARK    8  A    between atoms: C12_23  and  O3_29 
ROOT
HETATM    1  C9  UNL     1       6.921 -15.013 -16.159  1.00  0.00     0.228 C 
HETATM    2  O2  UNL     1       6.674 -14.611 -17.321  1.00  0.00    -0.273 OA
HETATM    3  N4  UNL     1       5.946 -15.784 -15.503  1.00  0.00    -0.307 N 
ATOM      4  H4  UNL     1       6.024 -16.801 -15.520  1.00  0.00     0.171 HD
ENDROOT
BRANCH   1   5
HETATM    5  C8  UNL     1       8.168 -14.726 -15.469  1.00  0.00     0.152 C 
BRANCH   5   6
HETATM    6  C7  UNL     1       8.466 -15.591 -14.290  1.00  0.00     0.036 A 
HETATM    7  C6  UNL     1       8.043 -15.410 -12.990  1.00  0.00     0.132 A 
HETATM    8  N2  UNL     1       8.438 -16.234 -12.091  1.00  0.00    -0.324 N 
HETATM    9  N3  UNL     1       7.164 -14.268 -12.717  1.00  0.00    -0.082 NA
HETATM   10  C5  UNL     1       9.263 -17.261 -12.454  1.00  0.00     0.152 A 
ATOM     11  H2  UNL     1       8.141 -16.125 -11.121  1.00  0.00     0.169 HD
HETATM   12  S2  UNL     1       9.436 -16.981 -14.141  1.00  0.00    -0.054 SA
BRANCH  10  13
HETATM   13  N1  UNL     1       9.757 -18.112 -11.676  1.00  0.00    -0.307 N 
HETATM   14  C4  UNL     1      10.682 -18.996 -11.427  1.00  0.00     0.227 C 
HETATM   15  O1  UNL     1      11.455 -19.477 -12.331  1.00  0.00    -0.273 OA
ATOM     16  H1  UNL     1       9.152 -18.113 -10.855  1.00  0.00     0.171 HD
BRANCH  14  17
HETATM   17  C2  UNL     1      10.901 -19.522 -10.025  1.00  0.00     0.070 C 
HETATM   18  C1  UNL     1       9.712 -20.340  -9.588  1.00  0.00     0.019 C 
HETATM   19  C3  UNL     1      11.041 -18.340  -9.058  1.00  0.00     0.019 C 
ENDBRANCH  14  17
ENDBRANCH  10  13
ENDBRANCH   5   6
ENDBRANCH   1   5
BRANCH   3  20
HETATM   20  C10 UNL     1       4.947 -15.235 -14.875  1.00  0.00     0.151 A 
HETATM   21  N5  UNL     1       4.354 -15.673 -13.763  1.00  0.00    -0.335 N 
HETATM   22  C11 UNL     1       3.353 -14.987 -13.278  1.00  0.00     0.080 A 
ATOM     23  H5  UNL     1       4.676 -16.524 -13.301  1.00  0.00     0.168 HD
HETATM   24  C14 UNL     1       2.975 -13.853 -13.951  1.00  0.00     0.083 A 
HETATM   25  S1  UNL     1       4.070 -13.821 -15.250  1.00  0.00    -0.064 SA
BRANCH  22  26
HETATM   26  C12 UNL     1       2.644 -15.450 -12.003  1.00  0.00     0.262 C 
HETATM   27  C13 UNL     1       3.251 -14.768 -10.835  1.00  0.00     0.085 C 
BRANCH  26  28
HETATM   28  N6  UNL     1       1.253 -15.151 -12.173  1.00  0.00    -0.042 N 
ATOM     29  H63 UNL     1       1.065 -14.559 -12.982  1.00  0.00     0.278 HD
ATOM     30  H62 UNL     1       0.702 -15.955 -12.473  1.00  0.00     0.278 HD
ATOM     31  H61 UNL     1       0.930 -14.746 -11.295  1.00  0.00     0.278 HD
ENDBRANCH  26  28
BRANCH  26  32
HETATM   32  O3  UNL     1       2.860 -16.823 -11.855  1.00  0.00    -0.361 OA
ATOM     33  H3  UNL     1       2.045 -17.226 -11.581  1.00  0.00     0.213 HD
ENDBRANCH  26  32
ENDBRANCH  22  26
ENDBRANCH   3  20
TORSDOF 8
ENDMDL
MODEL 4
REMARK VINA RESULT: -5.841341963      3.135      6.719
REMARK  8 active torsions:
REMARK  status: ('A' for Active; 'I' for Inactive)
REMARK    1  A    between atoms: C2_2  and  C4_4 
REMARK       I    between atoms: C4_4  and  N1_6 
REMARK    2  A    between atoms: N1_6  and  C5_8 
REMARK    3  A    between atoms: C7_13  and  C8_14 
REMARK    4  A    between atoms: C8_14  and  C9_15 
REMARK       I    between atoms: C9_15  and  N4_17 
REMARK    5  A    between atoms: N4_17  and  C10_19 
REMARK    6  A    between atoms: C11_22  and  C12_23 
REMARK    7  A    between atoms: C12_23  and  N6_25 
REMARK    8  A    between atoms: C12_23  and  O3_29 
ROOT
HETATM    1  C9  UNL     1       5.932 -15.086 -16.918  1.00  0.00     0.228 C 
HETATM    2  O2  UNL     1       5.255 -14.829 -17.942  1.00  0.00    -0.273 OA
HETATM    3  N4  UNL     1       5.302 -15.766 -15.862  1.00  0.00    -0.307 N 
ATOM      4  H4  UNL     1       5.410 -16.778 -15.788  1.00  0.00     0.171 HD
ENDROOT
BRANCH   1   5
HETATM    5  C8  UNL     1       7.332 -14.723 -16.782  1.00  0.00     0.152 C 
BRANCH   5   6
HETATM    6  C7  UNL     1       7.970 -15.092 -15.483  1.00  0.00     0.036 A 
HETATM    7  C6  UNL     1       8.457 -16.326 -15.110  1.00  0.00     0.132 A 
HETATM    8  N2  UNL     1       8.934 -16.471 -13.928  1.00  0.00    -0.324 N 
HETATM    9  N3  UNL     1       8.392 -17.407 -16.099  1.00  0.00    -0.082 NA
HETATM   10  C5  UNL     1       8.941 -15.398 -13.084  1.00  0.00     0.152 A 
ATOM     11  H2  UNL     1       9.302 -17.373 -13.624  1.00  0.00     0.169 HD
HETATM   12  S2  UNL     1       8.234 -14.180 -14.070  1.00  0.00    -0.054 SA
BRANCH  10  13
HETATM   13  N1  UNL     1       9.335 -15.406 -11.893  1.00  0.00    -0.307 N 
HETATM   14  C4  UNL     1       9.878 -16.051 -10.898  1.00  0.00     0.227 C 
HETATM   15  O1  UNL     1      10.001 -17.328 -10.873  1.00  0.00    -0.273 OA
ATOM     16  H1  UNL     1       9.141 -14.470 -11.536  1.00  0.00     0.171 HD
BRANCH  14  17
HETATM   17  C2  UNL     1      10.403 -15.314  -9.685  1.00  0.00     0.070 C 
HETATM   18  C1  UNL     1       9.313 -14.461  -9.086  1.00  0.00     0.019 C 
HETATM   19  C3  UNL     1      11.547 -14.387 -10.113  1.00  0.00     0.019 C 
ENDBRANCH  14  17
ENDBRANCH  10  13
ENDBRANCH   5   6
ENDBRANCH   1   5
BRANCH   3  20
HETATM   20  C10 UNL     1       4.585 -15.139 -14.974  1.00  0.00     0.151 A 
HETATM   21  N5  UNL     1       3.971 -15.666 -13.913  1.00  0.00    -0.335 N 
HETATM   22  C11 UNL     1       3.286 -14.874 -13.131  1.00  0.00     0.080 A 
ATOM     23  H5  UNL     1       4.035 -16.665 -13.718  1.00  0.00     0.168 HD
HETATM   24  C14 UNL     1       3.244 -13.542 -13.457  1.00  0.00     0.083 A 
HETATM   25  S1  UNL     1       4.186 -13.483 -14.869  1.00  0.00    -0.064 SA
BRANCH  22  26
HETATM   26  C12 UNL     1       2.566 -15.433 -11.902  1.00  0.00     0.262 C 
HETATM   27  C13 UNL     1       3.149 -14.828 -10.681  1.00  0.00     0.085 C 
BRANCH  26  28
HETATM   28  N6  UNL     1       1.174 -15.139 -12.070  1.00  0.00    -0.042 N 
ATOM     29  H63 UNL     1       0.799 -14.538 -11.338  1.00  0.00     0.278 HD
ATOM     30  H62 UNL     1       0.986 -14.517 -12.856  1.00  0.00     0.278 HD
ATOM     31  H61 UNL     1       0.691 -16.035 -12.142  1.00  0.00     0.278 HD
ENDBRANCH  26  28
BRANCH  26  32
HETATM   32  O3  UNL     1       2.798 -16.812 -11.848  1.00  0.00    -0.361 OA
ATOM     33  H3  UNL     1       2.577 -17.185 -12.693  1.00  0.00     0.213 HD
ENDBRANCH  26  32
ENDBRANCH  22  26
ENDBRANCH   3  20
TORSDOF 8
ENDMDL
MODEL 5
REMARK VINA RESULT: -5.831280012      2.629      3.231
REMARK  8 active torsions:
REMARK  status: ('A' for Active; 'I' for Inactive)
REMARK    1  A    between atoms: C2_2  and  C4_4 
REMARK       I    between atoms: C4_4  and  N1_6 
REMARK    2  A    between atoms: N1_6  and  C5_8 
REMARK    3  A    between atoms: C7_13  and  C8_14 
REMARK    4  A    between atoms: C8_14  and  C9_15 
REMARK       I    between atoms: C9_15  and  N4_17 
REMARK    5  A    between atoms: N4_17  and  C10_19 
REMARK    6  A    between atoms: C11_22  and  C12_23 
REMARK    7  A    between atoms: C12_23  and  N6_25 
REMARK    8  A    between atoms: C12_23  and  O3_29 
ROOT
HETATM    1  C9  UNL     1       7.004 -15.163 -15.770  1.00  0.00     0.228 C 
HETATM    2  O2  UNL     1       7.020 -16.405 -15.945  1.00  0.00    -0.273 OA
HETATM    3  N4  UNL     1       6.622 -14.676 -14.508  1.00  0.00    -0.307 N 
ATOM      4  H4  UNL     1       7.344 -14.433 -13.830  1.00  0.00     0.171 HD
ENDROOT
BRANCH   1   5
HETATM    5  C8  UNL     1       7.371 -14.212 -16.806  1.00  0.00     0.152 C 
BRANCH   5   6
HETATM    6  C7  UNL     1       6.615 -14.331 -18.088  1.00  0.00     0.036 A 
HETATM    7  C6  UNL     1       6.991 -15.020 -19.221  1.00  0.00     0.132 A 
HETATM    8  N2  UNL     1       6.232 -14.975 -20.253  1.00  0.00    -0.324 N 
HETATM    9  N3  UNL     1       8.255 -15.764 -19.172  1.00  0.00    -0.082 NA
HETATM   10  C5  UNL     1       5.080 -14.245 -20.192  1.00  0.00     0.152 A 
ATOM     11  H2  UNL     1       6.485 -15.474 -21.106  1.00  0.00     0.169 HD
HETATM   12  S2  UNL     1       5.144 -13.636 -18.586  1.00  0.00    -0.054 SA
BRANCH  10  13
HETATM   13  N1  UNL     1       4.268 -14.078 -21.134  1.00  0.00    -0.307 N 
HETATM   14  C4  UNL     1       3.213 -13.477 -21.610  1.00  0.00     0.227 C 
HETATM   15  O1  UNL     1       2.385 -12.828 -20.875  1.00  0.00    -0.273 OA
ATOM     16  H1  UNL     1       4.580 -14.706 -21.875  1.00  0.00     0.171 HD
BRANCH  14  17
HETATM   17  C2  UNL     1       2.894 -13.516 -23.088  1.00  0.00     0.070 C 
HETATM   18  C1  UNL     1       4.128 -13.877 -23.874  1.00  0.00     0.019 C 
HETATM   19  C3  UNL     1       2.435 -12.124 -23.542  1.00  0.00     0.019 C 
ENDBRANCH  14  17
ENDBRANCH  10  13
ENDBRANCH   5   6
ENDBRANCH   1   5
BRANCH   3  20
HETATM   20  C10 UNL     1       5.370 -14.527 -14.181  1.00  0.00     0.151 A 
HETATM   21  N5  UNL     1       4.732 -15.089 -13.153  1.00  0.00    -0.335 N 
HETATM   22  C11 UNL     1       3.463 -14.824 -12.987  1.00  0.00     0.080 A 
ATOM     23  H5  UNL     1       5.223 -15.712 -12.513  1.00  0.00     0.168 HD
HETATM   24  C14 UNL     1       2.868 -13.978 -13.888  1.00  0.00     0.083 A 
HETATM   25  S1  UNL     1       4.152 -13.601 -14.935  1.00  0.00    -0.064 SA
BRANCH  22  26
HETATM   26  C12 UNL     1       2.689 -15.444 -11.821  1.00  0.00     0.262 C 
HETATM   27  C13 UNL     1       3.201 -14.885 -10.547  1.00  0.00     0.085 C 
BRANCH  26  28
HETATM   28  N6  UNL     1       1.304 -15.160 -12.048  1.00  0.00    -0.042 N 
ATOM     29  H63 UNL     1       0.805 -14.887 -11.202  1.00  0.00     0.278 HD
ATOM     30  H62 UNL     1       1.150 -14.298 -12.571  1.00  0.00     0.278 HD
ATOM     31  H61 UNL     1       0.906 -15.982 -12.502  1.00  0.00     0.278 HD
ENDBRANCH  26  28
BRANCH  26  32
HETATM   32  O3  UNL     1       2.938 -16.821 -11.813  1.00  0.00    -0.361 OA
ATOM     33  H3  UNL     1       2.123 -17.270 -11.622  1.00  0.00     0.213 HD
ENDBRANCH  26  32
ENDBRANCH  22  26
ENDBRANCH   3  20
TORSDOF 8
ENDMDL
