MODEL 1
REMARK VINA RESULT: -6.064512411      0.000      0.000
REMARK  8 active torsions:
REMARK  status: ('A' for Active; 'I' for Inactive)
REMARK       I    between atoms: N1_2  and  C2_4 
REMARK    1  A    between atoms: C2_4  and  C3_6 
REMARK    2  A    between atoms: C3_6  and  N2_7 
REMARK    3  A    between atoms: C3_6  and  C13_23 
REMARK    4  A    between atoms: N2_7  and  C4_10 
REMARK    5  A    between atoms: C4_10  and  C5_11 
REMARK    6  A    between atoms: C5_11  and  N3_12 
REMARK    7  A    between atoms: N3_12  and  C6_14 
REMARK    8  A    between atoms: C10_19  and  O2_20 
ROOT
HETATM    1  C4  UNL     1     -63.420 -20.282 -20.233  1.00  0.00     0.253 C 
ENDROOT
BRANCH   1   2
HETATM    2  N2  UNL     1     -62.408 -21.037 -20.880  1.00  0.00    -0.054 N 
ATOM      3  H22 UNL     1     -62.804 -21.569 -21.656  1.00  0.00     0.278 HD
ATOM      4  H21 UNL     1     -62.099 -21.803 -20.282  1.00  0.00     0.278 HD
BRANCH   2   5
HETATM    5  C3  UNL     1     -61.287 -20.268 -21.324  1.00  0.00     0.345 C 
BRANCH   5   6
HETATM    6  C2  UNL     1     -61.458 -18.801 -21.201  1.00  0.00     0.255 C 
HETATM    7  N1  UNL     1     -60.952 -18.026 -20.140  1.00  0.00    -0.363 N 
HETATM    8  C1  UNL     1     -61.188 -16.593 -20.124  1.00  0.00     0.149 C 
ATOM      9  H1  UNL     1     -60.423 -18.468 -19.388  1.00  0.00     0.161 HD
HETATM   10  O1  UNL     1     -62.105 -18.170 -22.112  1.00  0.00    -0.271 OA
ENDBRANCH   5   6
BRANCH   5  11
HETATM   11  C13 UNL     1     -60.106 -20.750 -20.558  1.00  0.00     0.163 C 
HETATM   12  C14 UNL     1     -58.959 -21.342 -21.257  1.00  0.00     0.093 C 
HETATM   13  O3  UNL     1     -60.094 -20.650 -19.336  1.00  0.00    -0.296 OA
ENDBRANCH   5  11
ENDBRANCH   2   5
ENDBRANCH   1   2
BRANCH   1  14
HETATM   14  C5  UNL     1     -64.779 -20.549 -20.901  1.00  0.00     0.147 C 
BRANCH  14  15
HETATM   15  N3  UNL     1     -64.813 -19.791 -22.121  1.00  0.00    -0.388 N 
ATOM     16  H3  UNL     1     -64.087 -19.945 -22.821  1.00  0.00     0.159 HD
BRANCH  15  17
HETATM   17  C6  UNL     1     -65.845 -18.820 -22.381  1.00  0.00     0.032 A 
HETATM   18  C7  UNL     1     -66.134 -17.856 -21.447  1.00  0.00     0.055 A 
HETATM   19  C8  UNL     1     -67.136 -16.909 -21.698  1.00  0.00     0.051 A 
HETATM   20  N4  UNL     1     -67.466 -15.897 -20.771  1.00  0.00    -0.102 NA
HETATM   21  C9  UNL     1     -67.859 -16.924 -22.890  1.00  0.00     0.063 A 
HETATM   22  C10 UNL     1     -67.560 -17.898 -23.818  1.00  0.00     0.072 A 
HETATM   23  C12 UNL     1     -66.561 -18.831 -23.553  1.00  0.00     0.066 A 
BRANCH  22  24
HETATM   24  O2  UNL     1     -68.284 -17.901 -24.995  1.00  0.00    -0.356 OA
HETATM   25  C11 UNL     1     -68.976 -16.792 -25.511  1.00  0.00     0.210 C 
ENDBRANCH  22  24
ENDBRANCH  15  17
ENDBRANCH  14  15
ENDBRANCH   1  14
TORSDOF 8
ENDMDL
MODEL 2
REMARK VINA RESULT: -6.053160265      1.564      2.170
REMARK  8 active torsions:
REMARK  status: ('A' for Active; 'I' for Inactive)
REMARK       I    between atoms: N1_2  and  C2_4 
REMARK    1  A    between atoms: C2_4  and  C3_6 
REMARK    2  A    between atoms: C3_6  and  N2_7 
REMARK    3  A    between atoms: C3_6  and  C13_23 
REMARK    4  A    between atoms: N2_7  and  C4_10 
REMARK    5  A    between atoms: C4_10  and  C5_11 
REMARK    6  A    between atoms: C5_11  and  N3_12 
REMARK    7  A    between atoms: N3_12  and  C6_14 
REMARK    8  A    between atoms: C10_19  and  O2_20 
ROOT
HETATM    1  C4  UNL     1     -63.375 -20.265 -20.202  1.00  0.00     0.253 C 
ENDROOT
BRANCH   1   2
HETATM    2  N2  UNL     1     -62.360 -21.018 -20.846  1.00  0.00    -0.054 N 
ATOM      3  H22 UNL     1     -62.754 -21.561 -21.615  1.00  0.00     0.278 HD
ATOM      4  H21 UNL     1     -62.042 -21.775 -20.241  1.00  0.00     0.278 HD
BRANCH   2   5
HETATM    5  C3  UNL     1     -61.246 -20.244 -21.301  1.00  0.00     0.345 C 
BRANCH   5   6
HETATM    6  C2  UNL     1     -61.427 -18.777 -21.187  1.00  0.00     0.255 C 
HETATM    7  N1  UNL     1     -60.906 -17.990 -20.143  1.00  0.00    -0.363 N 
HETATM    8  C1  UNL     1     -61.155 -16.558 -20.135  1.00  0.00     0.149 C 
ATOM      9  H1  UNL     1     -60.359 -18.420 -19.398  1.00  0.00     0.161 HD
HETATM   10  O1  UNL     1     -62.098 -18.160 -22.091  1.00  0.00    -0.271 OA
ENDBRANCH   5   6
BRANCH   5  11
HETATM   11  C13 UNL     1     -60.058 -20.712 -20.539  1.00  0.00     0.163 C 
HETATM   12  C14 UNL     1     -58.942 -21.368 -21.232  1.00  0.00     0.093 C 
HETATM   13  O3  UNL     1     -60.012 -20.548 -19.324  1.00  0.00    -0.296 OA
ENDBRANCH   5  11
ENDBRANCH   2   5
ENDBRANCH   1   2
BRANCH   1  14
HETATM   14  C5  UNL     1     -64.731 -20.535 -20.875  1.00  0.00     0.147 C 
BRANCH  14  15
HETATM   15  N3  UNL     1     -64.761 -19.779 -22.096  1.00  0.00    -0.388 N 
ATOM     16  H3  UNL     1     -64.027 -19.926 -22.789  1.00  0.00     0.159 HD
BRANCH  15  17
HETATM   17  C6  UNL     1     -65.801 -18.818 -22.367  1.00  0.00     0.032 A 
HETATM   18  C7  UNL     1     -66.429 -18.811 -23.587  1.00  0.00     0.055 A 
HETATM   19  C8  UNL     1     -67.442 -17.878 -23.853  1.00  0.00     0.051 A 
HETATM   20  N4  UNL     1     -68.118 -17.833 -25.091  1.00  0.00    -0.102 NA
HETATM   21  C9  UNL     1     -67.831 -16.945 -22.894  1.00  0.00     0.063 A 
HETATM   22  C10 UNL     1     -67.191 -16.963 -21.673  1.00  0.00     0.072 A 
HETATM   23  C12 UNL     1     -66.188 -17.896 -21.425  1.00  0.00     0.066 A 
BRANCH  22  24
HETATM   24  O2  UNL     1     -67.587 -16.032 -20.731  1.00  0.00    -0.356 OA
HETATM   25  C11 UNL     1     -68.751 -16.132 -19.950  1.00  0.00     0.210 C 
ENDBRANCH  22  24
ENDBRANCH  15  17
ENDBRANCH  14  15
ENDBRANCH   1  14
TORSDOF 8
ENDMDL
MODEL 3
REMARK VINA RESULT: -5.958980287      1.825      2.105
REMARK  8 active torsions:
REMARK  status: ('A' for Active; 'I' for Inactive)
REMARK       I    between atoms: N1_2  and  C2_4 
REMARK    1  A    between atoms: C2_4  and  C3_6 
REMARK    2  A    between atoms: C3_6  and  N2_7 
REMARK    3  A    between atoms: C3_6  and  C13_23 
REMARK    4  A    between atoms: N2_7  and  C4_10 
REMARK    5  A    between atoms: C4_10  and  C5_11 
REMARK    6  A    between atoms: C5_11  and  N3_12 
REMARK    7  A    between atoms: N3_12  and  C6_14 
REMARK    8  A    between atoms: C10_19  and  O2_20 
ROOT
HETATM    1  C4  UNL     1     -63.579 -20.997 -21.549  1.00  0.00     0.253 C 
ENDROOT
BRANCH   1   2
HETATM    2  N2  UNL     1     -62.432 -20.944 -20.715  1.00  0.00    -0.054 N 
ATOM      3  H22 UNL     1     -62.190 -21.879 -20.384  1.00  0.00     0.278 HD
ATOM      4  H21 UNL     1     -62.660 -20.497 -19.827  1.00  0.00     0.278 HD
BRANCH   2   5
HETATM    5  C3  UNL     1     -61.293 -20.316 -21.312  1.00  0.00     0.345 C 
BRANCH   5   6
HETATM    6  C2  UNL     1     -61.358 -18.836 -21.354  1.00  0.00     0.255 C 
HETATM    7  N1  UNL     1     -61.379 -18.006 -20.218  1.00  0.00    -0.363 N 
HETATM    8  C1  UNL     1     -61.449 -16.564 -20.386  1.00  0.00     0.149 C 
ATOM      9  H1  UNL     1     -61.345 -18.414 -19.283  1.00  0.00     0.161 HD
HETATM   10  O1  UNL     1     -61.395 -18.247 -22.495  1.00  0.00    -0.271 OA
ENDBRANCH   5   6
BRANCH   5  11
HETATM   11  C13 UNL     1     -60.100 -20.792 -20.562  1.00  0.00     0.163 C 
HETATM   12  C14 UNL     1     -58.949 -21.354 -21.279  1.00  0.00     0.093 C 
HETATM   13  O3  UNL     1     -60.080 -20.713 -19.338  1.00  0.00    -0.296 OA
ENDBRANCH   5  11
ENDBRANCH   2   5
ENDBRANCH   1   2
BRANCH   1  14
HETATM   14  C5  UNL     1     -64.727 -20.198 -20.910  1.00  0.00     0.147 C 
BRANCH  14  15
HETATM   15  N3  UNL     1     -65.092 -19.160 -21.833  1.00  0.00    -0.388 N 
ATOM     16  H3  UNL     1     -64.418 -18.865 -22.540  1.00  0.00     0.159 HD
BRANCH  15  17
HETATM   17  C6  UNL     1     -66.385 -18.526 -21.787  1.00  0.00     0.032 A 
HETATM   18  C7  UNL     1     -67.523 -19.269 -21.980  1.00  0.00     0.055 A 
HETATM   19  C8  UNL     1     -68.782 -18.655 -21.934  1.00  0.00     0.051 A 
HETATM   20  N4  UNL     1     -69.980 -19.377 -22.124  1.00  0.00    -0.102 NA
HETATM   21  C9  UNL     1     -68.908 -17.287 -21.694  1.00  0.00     0.063 A 
HETATM   22  C10 UNL     1     -67.758 -16.553 -21.503  1.00  0.00     0.072 A 
HETATM   23  C12 UNL     1     -66.515 -17.179 -21.551  1.00  0.00     0.066 A 
BRANCH  22  24
HETATM   24  O2  UNL     1     -67.898 -15.199 -21.265  1.00  0.00    -0.356 OA
HETATM   25  C11 UNL     1     -68.971 -14.414 -21.721  1.00  0.00     0.210 C 
ENDBRANCH  22  24
ENDBRANCH  15  17
ENDBRANCH  14  15
ENDBRANCH   1  14
TORSDOF 8
ENDMDL
MODEL 4
REMARK VINA RESULT: -5.946887100      0.897      2.449
REMARK  8 active torsions:
REMARK  status: ('A' for Active; 'I' for Inactive)
REMARK       I    between atoms: N1_2  and  C2_4 
REMARK    1  A    between atoms: C2_4  and  C3_6 
REMARK    2  A    between atoms: C3_6  and  N2_7 
REMARK    3  A    between atoms: C3_6  and  C13_23 
REMARK    4  A    between atoms: N2_7  and  C4_10 
REMARK    5  A    between atoms: C4_10  and  C5_11 
REMARK    6  A    between atoms: C5_11  and  N3_12 
REMARK    7  A    between atoms: N3_12  and  C6_14 
REMARK    8  A    between atoms: C10_19  and  O2_20 
ROOT
HETATM    1  C4  UNL     1     -63.944 -20.312 -20.418  1.00  0.00     0.253 C 
ENDROOT
BRANCH   1   2
HETATM    2  N2  UNL     1     -62.966 -19.693 -21.238  1.00  0.00    -0.054 N 
ATOM      3  H22 UNL     1     -63.395 -18.976 -21.824  1.00  0.00     0.278 HD
ATOM      4  H21 UNL     1     -62.646 -20.340 -21.959  1.00  0.00     0.278 HD
BRANCH   2   5
HETATM    5  C3  UNL     1     -61.851 -19.151 -20.525  1.00  0.00     0.345 C 
BRANCH   5   6
HETATM    6  C2  UNL     1     -60.666 -20.041 -20.465  1.00  0.00     0.255 C 
HETATM    7  N1  UNL     1     -60.086 -20.672 -21.581  1.00  0.00    -0.363 N 
HETATM    8  C1  UNL     1     -58.927 -21.529 -21.397  1.00  0.00     0.149 C 
ATOM      9  H1  UNL     1     -60.476 -20.528 -22.513  1.00  0.00     0.161 HD
HETATM   10  O1  UNL     1     -60.113 -20.265 -19.328  1.00  0.00    -0.271 OA
ENDBRANCH   5   6
BRANCH   5  11
HETATM   11  C13 UNL     1     -61.526 -17.847 -21.163  1.00  0.00     0.163 C 
HETATM   12  C14 UNL     1     -61.554 -16.609 -20.376  1.00  0.00     0.093 C 
HETATM   13  O3  UNL     1     -61.232 -17.810 -22.353  1.00  0.00    -0.296 OA
ENDBRANCH   5  11
ENDBRANCH   2   5
ENDBRANCH   1   2
BRANCH   1  14
HETATM   14  C5  UNL     1     -65.234 -20.539 -21.225  1.00  0.00     0.147 C 
BRANCH  14  15
HETATM   15  N3  UNL     1     -65.199 -19.644 -22.347  1.00  0.00    -0.388 N 
ATOM     16  H3  UNL     1     -64.443 -19.728 -23.027  1.00  0.00     0.159 HD
BRANCH  15  17
HETATM   17  C6  UNL     1     -66.206 -18.630 -22.539  1.00  0.00     0.032 A 
HETATM   18  C7  UNL     1     -66.388 -17.653 -21.593  1.00  0.00     0.055 A 
HETATM   19  C8  UNL     1     -67.365 -16.665 -21.778  1.00  0.00     0.051 A 
HETATM   20  N4  UNL     1     -67.586 -15.639 -20.835  1.00  0.00    -0.102 NA
HETATM   21  C9  UNL     1     -68.169 -16.652 -22.916  1.00  0.00     0.063 A 
HETATM   22  C10 UNL     1     -67.977 -17.640 -23.857  1.00  0.00     0.072 A 
HETATM   23  C12 UNL     1     -67.002 -18.613 -23.659  1.00  0.00     0.066 A 
BRANCH  22  24
HETATM   24  O2  UNL     1     -68.782 -17.615 -24.981  1.00  0.00    -0.356 OA
HETATM   25  C11 UNL     1     -68.996 -16.483 -25.785  1.00  0.00     0.210 C 
ENDBRANCH  22  24
ENDBRANCH  15  17
ENDBRANCH  14  15
ENDBRANCH   1  14
TORSDOF 8
ENDMDL
MODEL 5
REMARK VINA RESULT: -5.935410426      1.813      3.287
REMARK  8 active torsions:
REMARK  status: ('A' for Active; 'I' for Inactive)
REMARK       I    between atoms: N1_2  and  C2_4 
REMARK    1  A    between atoms: C2_4  and  C3_6 
REMARK    2  A    between atoms: C3_6  and  N2_7 
REMARK    3  A    between atoms: C3_6  and  C13_23 
REMARK    4  A    between atoms: N2_7  and  C4_10 
REMARK    5  A    between atoms: C4_10  and  C5_11 
REMARK    6  A    between atoms: C5_11  and  N3_12 
REMARK    7  A    between atoms: N3_12  and  C6_14 
REMARK    8  A    between atoms: C10_19  and  O2_20 
ROOT
HETATM    1  C4  UNL     1     -63.903 -20.289 -20.367  1.00  0.00     0.253 C 
ENDROOT
BRANCH   1   2
HETATM    2  N2  UNL     1     -62.925 -19.683 -21.197  1.00  0.00    -0.054 N 
ATOM      3  H22 UNL     1     -63.356 -18.981 -21.799  1.00  0.00     0.278 HD
ATOM      4  H21 UNL     1     -62.599 -20.343 -21.902  1.00  0.00     0.278 HD
BRANCH   2   5
HETATM    5  C3  UNL     1     -61.816 -19.119 -20.491  1.00  0.00     0.345 C 
BRANCH   5   6
HETATM    6  C2  UNL     1     -60.625 -19.999 -20.410  1.00  0.00     0.255 C 
HETATM    7  N1  UNL     1     -60.055 -20.671 -21.507  1.00  0.00    -0.363 N 
HETATM    8  C1  UNL     1     -58.889 -21.514 -21.303  1.00  0.00     0.149 C 
ATOM      9  H1  UNL     1     -60.458 -20.567 -22.439  1.00  0.00     0.161 HD
HETATM   10  O1  UNL     1     -60.056 -20.174 -19.272  1.00  0.00    -0.271 OA
ENDBRANCH   5   6
BRANCH   5  11
HETATM   11  C13 UNL     1     -61.498 -17.826 -21.153  1.00  0.00     0.163 C 
HETATM   12  C14 UNL     1     -61.546 -16.571 -20.393  1.00  0.00     0.093 C 
HETATM   13  O3  UNL     1     -61.193 -17.811 -22.341  1.00  0.00    -0.296 OA
ENDBRANCH   5  11
ENDBRANCH   2   5
ENDBRANCH   1   2
BRANCH   1  14
HETATM   14  C5  UNL     1     -65.218 -20.456 -21.147  1.00  0.00     0.147 C 
BRANCH  14  15
HETATM   15  N3  UNL     1     -65.200 -19.508 -22.225  1.00  0.00    -0.388 N 
ATOM     16  H3  UNL     1     -64.431 -19.532 -22.895  1.00  0.00     0.159 HD
BRANCH  15  17
HETATM   17  C6  UNL     1     -66.239 -18.522 -22.385  1.00  0.00     0.032 A 
HETATM   18  C7  UNL     1     -66.902 -18.410 -23.582  1.00  0.00     0.055 A 
HETATM   19  C8  UNL     1     -67.915 -17.454 -23.740  1.00  0.00     0.051 A 
HETATM   20  N4  UNL     1     -68.625 -17.302 -24.950  1.00  0.00    -0.102 NA
HETATM   21  C9  UNL     1     -68.269 -16.601 -22.696  1.00  0.00     0.063 A 
HETATM   22  C10 UNL     1     -67.595 -16.724 -21.500  1.00  0.00     0.072 A 
HETATM   23  C12 UNL     1     -66.592 -17.680 -21.360  1.00  0.00     0.066 A 
BRANCH  22  24
HETATM   24  O2  UNL     1     -67.958 -15.873 -20.473  1.00  0.00    -0.356 OA
HETATM   25  C11 UNL     1     -69.199 -15.898 -19.815  1.00  0.00     0.210 C 
ENDBRANCH  22  24
ENDBRANCH  15  17
ENDBRANCH  14  15
ENDBRANCH   1  14
TORSDOF 8
ENDMDL
