MODEL 1
REMARK VINA RESULT: -4.985281509      0.000      0.000
REMARK  14 active torsions:
REMARK  status: ('A' for Active; 'I' for Inactive)
REMARK    1  A    between atoms: S1_2  and  C2_3 
REMARK    2  A    between atoms: C2_3  and  C3_4 
REMARK    3  A    between atoms: C2_3  and  C12_26 
REMARK    4  A    between atoms: C3_4  and  O1_5 
REMARK    5  A    between atoms: O1_5  and  C4_6 
REMARK    6  A    between atoms: C4_6  and  C5_7 
REMARK    7  A    between atoms: C5_7  and  O2_8 
REMARK    8  A    between atoms: C5_7  and  C6_10 
REMARK    9  A    between atoms: C6_10  and  O3_11 
REMARK   10  A    between atoms: C6_10  and  C7_13 
REMARK   11  A    between atoms: C7_13  and  N1_14 
REMARK   12  A    between atoms: C7_13  and  C8_18 
REMARK   13  A    between atoms: C8_18  and  C9_19 
REMARK   14  A    between atoms: C12_26  and  N4_27 
ROOT
HETATM    1  C5  UNL     1      13.809 -62.623  20.140  1.00  0.00     0.172 C 
ENDROOT
BRANCH   1   2
HETATM    2  C4  UNL     1      14.942 -63.133  21.036  1.00  0.00     0.201 C 
BRANCH   2   3
HETATM    3  O1  UNL     1      15.129 -64.369  21.078  1.00  0.00    -0.387 OA
BRANCH   3   4
HETATM    4  C3  UNL     1      15.314 -65.591  21.124  1.00  0.00     0.184 C 
BRANCH   4   5
HETATM    5  C2  UNL     1      16.460 -66.004  22.091  1.00  0.00     0.089 C 
BRANCH   5   6
HETATM    6  S1  UNL     1      15.571 -66.783  23.498  1.00  0.00    -0.165 SA
HETATM    7  C1  UNL     1      16.728 -66.816  24.891  1.00  0.00     0.090 C 
ENDBRANCH   5   6
BRANCH   5   8
HETATM    8  C12 UNL     1      17.323 -67.072  21.515  1.00  0.00     0.146 C 
BRANCH   8   9
HETATM    9  N4  UNL     1      18.714 -66.721  21.355  1.00  0.00    -0.350 N 
HETATM   10  C13 UNL     1      19.559 -66.331  22.344  1.00  0.00     0.108 A 
HETATM   11  C14 UNL     1      20.782 -66.096  21.802  1.00  0.00     0.106 A 
HETATM   12  N5  UNL     1      20.715 -66.336  20.487  1.00  0.00    -0.361 N 
HETATM   13  C15 UNL     1      19.436 -66.715  20.247  1.00  0.00     0.182 A 
ATOM     14  H5  UNL     1      21.470 -66.251  19.806  1.00  0.00     0.166 HD
ENDBRANCH   8   9
ENDBRANCH   5   8
ENDBRANCH   4   5
ENDBRANCH   3   4
ENDBRANCH   2   3
ENDBRANCH   1   2
BRANCH   1  15
HETATM   15  O2  UNL     1      14.388 -62.098  18.961  1.00  0.00    -0.391 OA
ATOM     16  H2  UNL     1      14.902 -62.786  18.556  1.00  0.00     0.210 HD
ENDBRANCH   1  15
BRANCH   1  17
HETATM   17  C6  UNL     1      13.042 -61.493  20.765  1.00  0.00     0.179 C 
BRANCH  17  18
HETATM   18  O3  UNL     1      12.874 -60.466  19.792  1.00  0.00    -0.391 OA
ATOM     19  H3  UNL     1      11.968 -60.178  19.809  1.00  0.00     0.210 HD
ENDBRANCH  17  18
BRANCH  17  20
HETATM   20  C7  UNL     1      11.695 -61.952  21.212  1.00  0.00     0.220 C 
BRANCH  20  21
HETATM   21  N1  UNL     1      10.732 -60.856  21.228  1.00  0.00    -0.072 N 
ATOM     22  H13 UNL     1      10.009 -61.006  21.931  1.00  0.00     0.274 HD
ATOM     23  H12 UNL     1      11.145 -60.004  21.606  1.00  0.00     0.274 HD
ATOM     24  H11 UNL     1      10.328 -60.698  20.306  1.00  0.00     0.274 HD
ENDBRANCH  20  21
BRANCH  20  25
HETATM   25  C8  UNL     1      11.657 -62.673  22.524  1.00  0.00     0.094 C 
BRANCH  25  26
HETATM   26  C9  UNL     1      11.318 -64.092  22.489  1.00  0.00     0.027 A 
HETATM   27  C10 UNL     1      10.079 -64.676  22.591  1.00  0.00     0.114 A 
HETATM   28  N2  UNL     1      10.246 -65.998  22.480  1.00  0.00    -0.360 N 
HETATM   29  C11 UNL     1      11.548 -66.256  22.312  1.00  0.00     0.180 A 
ATOM     30  H2  UNL     1       9.502 -66.696  22.516  1.00  0.00     0.166 HD
HETATM   31  N3  UNL     1      12.223 -65.094  22.314  1.00  0.00    -0.355 N 
ATOM     32  H3  UNL     1      13.231 -64.982  22.205  1.00  0.00     0.166 HD
ENDBRANCH  25  26
ENDBRANCH  20  25
ENDBRANCH  17  20
ENDBRANCH   1  17
TORSDOF 14
ENDMDL
MODEL 2
REMARK VINA RESULT: -4.838176800      2.119      3.646
REMARK  14 active torsions:
REMARK  status: ('A' for Active; 'I' for Inactive)
REMARK    1  A    between atoms: S1_2  and  C2_3 
REMARK    2  A    between atoms: C2_3  and  C3_4 
REMARK    3  A    between atoms: C2_3  and  C12_26 
REMARK    4  A    between atoms: C3_4  and  O1_5 
REMARK    5  A    between atoms: O1_5  and  C4_6 
REMARK    6  A    between atoms: C4_6  and  C5_7 
REMARK    7  A    between atoms: C5_7  and  O2_8 
REMARK    8  A    between atoms: C5_7  and  C6_10 
REMARK    9  A    between atoms: C6_10  and  O3_11 
REMARK   10  A    between atoms: C6_10  and  C7_13 
REMARK   11  A    between atoms: C7_13  and  N1_14 
REMARK   12  A    between atoms: C7_13  and  C8_18 
REMARK   13  A    between atoms: C8_18  and  C9_19 
REMARK   14  A    between atoms: C12_26  and  N4_27 
ROOT
HETATM    1  C5  UNL     1      13.173 -66.837  21.883  1.00  0.00     0.172 C 
ENDROOT
BRANCH   1   2
HETATM    2  C4  UNL     1      14.207 -67.864  21.412  1.00  0.00     0.201 C 
BRANCH   2   3
HETATM    3  O1  UNL     1      15.259 -67.969  22.081  1.00  0.00    -0.387 OA
BRANCH   3   4
HETATM    4  C3  UNL     1      16.297 -68.075  22.746  1.00  0.00     0.184 C 
BRANCH   4   5
HETATM    5  C2  UNL     1      16.840 -66.711  23.260  1.00  0.00     0.089 C 
BRANCH   5   6
HETATM    6  S1  UNL     1      15.834 -66.391  24.764  1.00  0.00    -0.165 SA
HETATM    7  C1  UNL     1      15.665 -67.977  25.623  1.00  0.00     0.090 C 
ENDBRANCH   5   6
BRANCH   5   8
HETATM    8  C12 UNL     1      18.250 -66.810  23.728  1.00  0.00     0.146 C 
BRANCH   8   9
HETATM    9  N4  UNL     1      19.250 -66.439  22.755  1.00  0.00    -0.350 N 
HETATM   10  C13 UNL     1      20.587 -66.652  22.862  1.00  0.00     0.108 A 
HETATM   11  C14 UNL     1      21.194 -66.172  21.745  1.00  0.00     0.106 A 
HETATM   12  N5  UNL     1      20.254 -65.662  20.940  1.00  0.00    -0.361 N 
HETATM   13  C15 UNL     1      19.077 -65.841  21.589  1.00  0.00     0.182 A 
ATOM     14  H5  UNL     1      20.393 -65.228  20.027  1.00  0.00     0.166 HD
ENDBRANCH   8   9
ENDBRANCH   5   8
ENDBRANCH   4   5
ENDBRANCH   3   4
ENDBRANCH   2   3
ENDBRANCH   1   2
BRANCH   1  15
HETATM   15  O2  UNL     1      12.016 -66.985  21.083  1.00  0.00    -0.391 OA
ATOM     16  H2  UNL     1      11.257 -66.865  21.641  1.00  0.00     0.210 HD
ENDBRANCH   1  15
BRANCH   1  17
HETATM   17  C6  UNL     1      13.635 -65.420  21.687  1.00  0.00     0.179 C 
BRANCH  17  18
HETATM   18  O3  UNL     1      13.394 -65.049  20.333  1.00  0.00    -0.391 OA
ATOM     19  H3  UNL     1      13.204 -64.118  20.304  1.00  0.00     0.210 HD
ENDBRANCH  17  18
BRANCH  17  20
HETATM   20  C7  UNL     1      12.883 -64.492  22.578  1.00  0.00     0.220 C 
BRANCH  20  21
HETATM   21  N1  UNL     1      11.494 -64.350  22.156  1.00  0.00    -0.072 N 
ATOM     22  H13 UNL     1      11.228 -63.369  22.073  1.00  0.00     0.274 HD
ATOM     23  H12 UNL     1      11.370 -64.630  21.183  1.00  0.00     0.274 HD
ATOM     24  H11 UNL     1      10.860 -64.857  22.773  1.00  0.00     0.274 HD
ENDBRANCH  20  21
BRANCH  20  25
HETATM   25  C8  UNL     1      13.491 -63.136  22.766  1.00  0.00     0.094 C 
BRANCH  25  26
HETATM   26  C9  UNL     1      13.804 -62.379  21.558  1.00  0.00     0.027 A 
HETATM   27  C10 UNL     1      12.957 -61.634  20.775  1.00  0.00     0.114 A 
HETATM   28  N2  UNL     1      13.685 -61.097  19.791  1.00  0.00    -0.360 N 
HETATM   29  C11 UNL     1      14.958 -61.484  19.935  1.00  0.00     0.180 A 
ATOM     30  H2  UNL     1      13.329 -60.491  19.051  1.00  0.00     0.166 HD
HETATM   31  N3  UNL     1      15.049 -62.273  21.019  1.00  0.00    -0.355 N 
ATOM     32  H3  UNL     1      15.898 -62.714  21.374  1.00  0.00     0.166 HD
ENDBRANCH  25  26
ENDBRANCH  20  25
ENDBRANCH  17  20
ENDBRANCH   1  17
TORSDOF 14
ENDMDL
MODEL 3
REMARK VINA RESULT: -4.818446693      2.411      4.117
REMARK  14 active torsions:
REMARK  status: ('A' for Active; 'I' for Inactive)
REMARK    1  A    between atoms: S1_2  and  C2_3 
REMARK    2  A    between atoms: C2_3  and  C3_4 
REMARK    3  A    between atoms: C2_3  and  C12_26 
REMARK    4  A    between atoms: C3_4  and  O1_5 
REMARK    5  A    between atoms: O1_5  and  C4_6 
REMARK    6  A    between atoms: C4_6  and  C5_7 
REMARK    7  A    between atoms: C5_7  and  O2_8 
REMARK    8  A    between atoms: C5_7  and  C6_10 
REMARK    9  A    between atoms: C6_10  and  O3_11 
REMARK   10  A    between atoms: C6_10  and  C7_13 
REMARK   11  A    between atoms: C7_13  and  N1_14 
REMARK   12  A    between atoms: C7_13  and  C8_18 
REMARK   13  A    between atoms: C8_18  and  C9_19 
REMARK   14  A    between atoms: C12_26  and  N4_27 
ROOT
HETATM    1  C5  UNL     1      14.613 -66.115  21.698  1.00  0.00     0.172 C 
ENDROOT
BRANCH   1   2
HETATM    2  C4  UNL     1      16.095 -66.453  21.505  1.00  0.00     0.201 C 
BRANCH   2   3
HETATM    3  O1  UNL     1      16.795 -66.579  22.534  1.00  0.00    -0.387 OA
BRANCH   3   4
HETATM    4  C3  UNL     1      17.482 -66.706  23.554  1.00  0.00     0.184 C 
BRANCH   4   5
HETATM    5  C2  UNL     1      18.998 -66.891  23.255  1.00  0.00     0.089 C 
BRANCH   5   6
HETATM    6  S1  UNL     1      19.689 -67.424  24.873  1.00  0.00    -0.165 SA
HETATM    7  C1  UNL     1      21.410 -67.901  24.572  1.00  0.00     0.090 C 
ENDBRANCH   5   6
BRANCH   5   8
HETATM    8  C12 UNL     1      19.251 -68.017  22.315  1.00  0.00     0.146 C 
BRANCH   8   9
HETATM    9  N4  UNL     1      19.862 -67.647  21.060  1.00  0.00    -0.350 N 
HETATM   10  C13 UNL     1      20.810 -68.355  20.393  1.00  0.00     0.108 A 
HETATM   11  C14 UNL     1      21.126 -67.689  19.252  1.00  0.00     0.106 A 
HETATM   12  N5  UNL     1      20.387 -66.573  19.196  1.00  0.00    -0.361 N 
HETATM   13  C15 UNL     1      19.626 -66.579  20.318  1.00  0.00     0.182 A 
ATOM     14  H5  UNL     1      20.395 -65.865  18.461  1.00  0.00     0.166 HD
ENDBRANCH   8   9
ENDBRANCH   5   8
ENDBRANCH   4   5
ENDBRANCH   3   4
ENDBRANCH   2   3
ENDBRANCH   1   2
BRANCH   1  15
HETATM   15  O2  UNL     1      13.852 -67.075  20.991  1.00  0.00    -0.391 OA
ATOM     16  H2  UNL     1      12.934 -66.860  21.103  1.00  0.00     0.210 HD
ENDBRANCH   1  15
BRANCH   1  17
HETATM   17  C6  UNL     1      14.244 -64.781  21.115  1.00  0.00     0.179 C 
BRANCH  17  18
HETATM   18  O3  UNL     1      13.628 -64.994  19.848  1.00  0.00    -0.391 OA
ATOM     19  H3  UNL     1      12.709 -65.190  19.989  1.00  0.00     0.210 HD
ENDBRANCH  17  18
BRANCH  17  20
HETATM   20  C7  UNL     1      13.280 -64.066  22.001  1.00  0.00     0.220 C 
BRANCH  20  21
HETATM   21  N1  UNL     1      12.004 -64.768  22.082  1.00  0.00    -0.072 N 
ATOM     22  H13 UNL     1      11.658 -64.803  23.040  1.00  0.00     0.274 HD
ATOM     23  H12 UNL     1      11.252 -64.222  21.662  1.00  0.00     0.274 HD
ATOM     24  H11 UNL     1      12.062 -65.700  21.672  1.00  0.00     0.274 HD
ENDBRANCH  20  21
BRANCH  20  25
HETATM   25  C8  UNL     1      13.041 -62.625  21.671  1.00  0.00     0.094 C 
BRANCH  25  26
HETATM   26  C9  UNL     1      14.166 -61.876  21.122  1.00  0.00     0.027 A 
HETATM   27  C10 UNL     1      14.326 -61.387  19.849  1.00  0.00     0.114 A 
HETATM   28  N2  UNL     1      15.498 -60.745  19.807  1.00  0.00    -0.360 N 
HETATM   29  C11 UNL     1      16.073 -60.819  21.014  1.00  0.00     0.180 A 
ATOM     30  H2  UNL     1      15.890 -60.276  18.991  1.00  0.00     0.166 HD
HETATM   31  N3  UNL     1      15.266 -61.511  21.836  1.00  0.00    -0.355 N 
ATOM     32  H3  UNL     1      15.445 -61.724  22.817  1.00  0.00     0.166 HD
ENDBRANCH  25  26
ENDBRANCH  20  25
ENDBRANCH  17  20
ENDBRANCH   1  17
TORSDOF 14
ENDMDL
MODEL 4
REMARK VINA RESULT: -4.818205269      2.729      5.808
REMARK  14 active torsions:
REMARK  status: ('A' for Active; 'I' for Inactive)
REMARK    1  A    between atoms: S1_2  and  C2_3 
REMARK    2  A    between atoms: C2_3  and  C3_4 
REMARK    3  A    between atoms: C2_3  and  C12_26 
REMARK    4  A    between atoms: C3_4  and  O1_5 
REMARK    5  A    between atoms: O1_5  and  C4_6 
REMARK    6  A    between atoms: C4_6  and  C5_7 
REMARK    7  A    between atoms: C5_7  and  O2_8 
REMARK    8  A    between atoms: C5_7  and  C6_10 
REMARK    9  A    between atoms: C6_10  and  O3_11 
REMARK   10  A    between atoms: C6_10  and  C7_13 
REMARK   11  A    between atoms: C7_13  and  N1_14 
REMARK   12  A    between atoms: C7_13  and  C8_18 
REMARK   13  A    between atoms: C8_18  and  C9_19 
REMARK   14  A    between atoms: C12_26  and  N4_27 
ROOT
HETATM    1  C5  UNL     1      12.337 -61.696  21.926  1.00  0.00     0.172 C 
ENDROOT
BRANCH   1   2
HETATM    2  C4  UNL     1      11.837 -63.031  22.486  1.00  0.00     0.201 C 
BRANCH   2   3
HETATM    3  O1  UNL     1      12.509 -63.559  23.400  1.00  0.00    -0.387 OA
BRANCH   3   4
HETATM    4  C3  UNL     1      13.177 -64.082  24.299  1.00  0.00     0.184 C 
BRANCH   4   5
HETATM    5  C2  UNL     1      12.905 -65.606  24.462  1.00  0.00     0.089 C 
BRANCH   5   6
HETATM    6  S1  UNL     1      13.891 -66.058  25.945  1.00  0.00    -0.165 SA
HETATM    7  C1  UNL     1      14.806 -64.574  26.434  1.00  0.00     0.090 C 
ENDBRANCH   5   6
BRANCH   5   8
HETATM    8  C12 UNL     1      11.486 -65.887  24.815  1.00  0.00     0.146 C 
BRANCH   8   9
HETATM    9  N4  UNL     1      10.632 -66.237  23.704  1.00  0.00    -0.350 N 
HETATM   10  C13 UNL     1       9.278 -66.145  23.678  1.00  0.00     0.108 A 
HETATM   11  C14 UNL     1       8.839 -66.557  22.460  1.00  0.00     0.106 A 
HETATM   12  N5  UNL     1       9.901 -66.906  21.723  1.00  0.00    -0.361 N 
HETATM   13  C15 UNL     1      10.981 -66.698  22.516  1.00  0.00     0.182 A 
ATOM     14  H5  UNL     1       9.898 -67.254  20.765  1.00  0.00     0.166 HD
ENDBRANCH   8   9
ENDBRANCH   5   8
ENDBRANCH   4   5
ENDBRANCH   3   4
ENDBRANCH   2   3
ENDBRANCH   1   2
BRANCH   1  15
HETATM   15  O2  UNL     1      11.265 -60.774  21.977  1.00  0.00    -0.391 OA
ATOM     16  H2  UNL     1      11.622 -59.924  22.207  1.00  0.00     0.210 HD
ENDBRANCH   1  15
BRANCH   1  17
HETATM   17  C6  UNL     1      12.737 -61.788  20.481  1.00  0.00     0.179 C 
BRANCH  17  18
HETATM   18  O3  UNL     1      12.740 -60.476  19.927  1.00  0.00    -0.391 OA
ATOM     19  H3  UNL     1      11.931 -60.350  19.444  1.00  0.00     0.210 HD
ENDBRANCH  17  18
BRANCH  17  20
HETATM   20  C7  UNL     1      14.105 -62.367  20.348  1.00  0.00     0.220 C 
BRANCH  20  21
HETATM   21  N1  UNL     1      14.950 -61.552  19.483  1.00  0.00    -0.072 N 
ATOM     22  H13 UNL     1      14.474 -61.313  18.614  1.00  0.00     0.274 HD
ATOM     23  H12 UNL     1      15.072 -60.612  19.860  1.00  0.00     0.274 HD
ATOM     24  H11 UNL     1      15.848 -62.001  19.305  1.00  0.00     0.274 HD
ENDBRANCH  20  21
BRANCH  20  25
HETATM   25  C8  UNL     1      14.165 -63.796  19.906  1.00  0.00     0.094 C 
BRANCH  25  26
HETATM   26  C9  UNL     1      14.722 -64.758  20.852  1.00  0.00     0.027 A 
HETATM   27  C10 UNL     1      14.395 -66.082  21.016  1.00  0.00     0.114 A 
HETATM   28  N2  UNL     1      15.179 -66.575  21.980  1.00  0.00    -0.360 N 
HETATM   29  C11 UNL     1      15.984 -65.601  22.422  1.00  0.00     0.180 A 
ATOM     30  H2  UNL     1      15.167 -67.536  22.322  1.00  0.00     0.166 HD
HETATM   31  N3  UNL     1      15.717 -64.476  21.738  1.00  0.00    -0.355 N 
ATOM     32  H3  UNL     1      16.175 -63.573  21.860  1.00  0.00     0.166 HD
ENDBRANCH  25  26
ENDBRANCH  20  25
ENDBRANCH  17  20
ENDBRANCH   1  17
TORSDOF 14
ENDMDL
MODEL 5
REMARK VINA RESULT: -4.790685017      4.096      8.297
REMARK  14 active torsions:
REMARK  status: ('A' for Active; 'I' for Inactive)
REMARK    1  A    between atoms: S1_2  and  C2_3 
REMARK    2  A    between atoms: C2_3  and  C3_4 
REMARK    3  A    between atoms: C2_3  and  C12_26 
REMARK    4  A    between atoms: C3_4  and  O1_5 
REMARK    5  A    between atoms: O1_5  and  C4_6 
REMARK    6  A    between atoms: C4_6  and  C5_7 
REMARK    7  A    between atoms: C5_7  and  O2_8 
REMARK    8  A    between atoms: C5_7  and  C6_10 
REMARK    9  A    between atoms: C6_10  and  O3_11 
REMARK   10  A    between atoms: C6_10  and  C7_13 
REMARK   11  A    between atoms: C7_13  and  N1_14 
REMARK   12  A    between atoms: C7_13  and  C8_18 
REMARK   13  A    between atoms: C8_18  and  C9_19 
REMARK   14  A    between atoms: C12_26  and  N4_27 
ROOT
HETATM    1  C5  UNL     1      12.101 -64.871  23.215  1.00  0.00     0.172 C 
ENDROOT
BRANCH   1   2
HETATM    2  C4  UNL     1      11.118 -65.813  23.916  1.00  0.00     0.201 C 
BRANCH   2   3
HETATM    3  O1  UNL     1      10.321 -66.453  23.195  1.00  0.00    -0.387 OA
BRANCH   3   4
HETATM    4  C3  UNL     1       9.537 -67.086  22.479  1.00  0.00     0.184 C 
BRANCH   4   5
HETATM    5  C2  UNL     1       8.047 -66.699  22.705  1.00  0.00     0.089 C 
BRANCH   5   6
HETATM    6  S1  UNL     1       7.145 -67.757  21.503  1.00  0.00    -0.165 SA
HETATM    7  C1  UNL     1       5.389 -67.339  21.657  1.00  0.00     0.090 C 
ENDBRANCH   5   6
BRANCH   5   8
HETATM    8  C12 UNL     1       7.559 -67.107  24.052  1.00  0.00     0.146 C 
BRANCH   8   9
HETATM    9  N4  UNL     1       7.539 -66.059  25.044  1.00  0.00    -0.350 N 
HETATM   10  C13 UNL     1       8.133 -66.102  26.264  1.00  0.00     0.108 A 
HETATM   11  C14 UNL     1       7.898 -64.927  26.903  1.00  0.00     0.106 A 
HETATM   12  N5  UNL     1       7.165 -64.147  26.098  1.00  0.00    -0.361 N 
HETATM   13  C15 UNL     1       6.963 -64.871  24.970  1.00  0.00     0.182 A 
ATOM     14  H5  UNL     1       6.828 -63.205  26.292  1.00  0.00     0.166 HD
ENDBRANCH   8   9
ENDBRANCH   5   8
ENDBRANCH   4   5
ENDBRANCH   3   4
ENDBRANCH   2   3
ENDBRANCH   1   2
BRANCH   1  15
HETATM   15  O2  UNL     1      11.375 -64.110  22.269  1.00  0.00    -0.391 OA
ATOM     16  H2  UNL     1      10.721 -63.606  22.739  1.00  0.00     0.210 HD
ENDBRANCH   1  15
BRANCH   1  17
HETATM   17  C6  UNL     1      13.153 -65.609  22.435  1.00  0.00     0.179 C 
BRANCH  17  18
HETATM   18  O3  UNL     1      12.642 -65.886  21.135  1.00  0.00    -0.391 OA
ATOM     19  H3  UNL     1      13.279 -66.412  20.666  1.00  0.00     0.210 HD
ENDBRANCH  17  18
BRANCH  17  20
HETATM   20  C7  UNL     1      14.386 -64.781  22.298  1.00  0.00     0.220 C 
BRANCH  20  21
HETATM   21  N1  UNL     1      14.359 -63.627  23.189  1.00  0.00    -0.072 N 
ATOM     22  H13 UNL     1      14.719 -62.791  22.728  1.00  0.00     0.274 HD
ATOM     23  H12 UNL     1      13.405 -63.312  23.363  1.00  0.00     0.274 HD
ATOM     24  H11 UNL     1      14.854 -63.814  24.061  1.00  0.00     0.274 HD
ENDBRANCH  20  21
BRANCH  20  25
HETATM   25  C8  UNL     1      14.716 -64.334  20.907  1.00  0.00     0.094 C 
BRANCH  25  26
HETATM   26  C9  UNL     1      14.192 -63.038  20.488  1.00  0.00     0.027 A 
HETATM   27  C10 UNL     1      14.881 -61.873  20.258  1.00  0.00     0.114 A 
HETATM   28  N2  UNL     1      13.996 -60.951  19.865  1.00  0.00    -0.360 N 
HETATM   29  C11 UNL     1      12.777 -61.504  19.844  1.00  0.00     0.180 A 
ATOM     30  H2  UNL     1      14.213 -59.984  19.622  1.00  0.00     0.166 HD
HETATM   31  N3  UNL     1      12.880 -62.789  20.224  1.00  0.00    -0.355 N 
ATOM     32  H3  UNL     1      12.114 -63.458  20.300  1.00  0.00     0.166 HD
ENDBRANCH  25  26
ENDBRANCH  20  25
ENDBRANCH  17  20
ENDBRANCH   1  17
TORSDOF 14
ENDMDL
