MODEL 1
REMARK VINA RESULT: -4.053132551      0.000      0.000
REMARK  1 active torsions:
REMARK  status: ('A' for Active; 'I' for Inactive)
REMARK    1  A    between atoms: N3_9  and  C6_11 
ROOT
HETATM    1  C1  UNL     1      20.823  16.038  54.669  1.00  0.00     0.229 C 
HETATM    2  N1  UNL     1      19.838  15.663  55.149  1.00  0.00    -0.429 NA
HETATM    3  C2  UNL     1      18.651  15.209  55.712  1.00  0.00     0.110 A 
HETATM    4  C3  UNL     1      18.104  13.999  55.374  1.00  0.00     0.062 A 
HETATM    5  C4  UNL     1      16.932  13.583  55.951  1.00  0.00     0.093 A 
HETATM    6  N2  UNL     1      16.313  14.346  56.843  1.00  0.00    -0.352 N 
ATOM      7  H2  UNL     1      15.442  14.013  57.255  1.00  0.00     0.166 HD
HETATM    8  C5  UNL     1      16.794  15.544  57.221  1.00  0.00     0.103 A 
HETATM    9  N3  UNL     1      16.187  16.264  58.079  1.00  0.00    -0.377 N 
ATOM     10  H3  UNL     1      15.316  15.934  58.494  1.00  0.00     0.161 HD
HETATM   11  C8  UNL     1      17.970  15.973  56.650  1.00  0.00     0.092 A 
ENDROOT
BRANCH   9  12
HETATM   12  C6  UNL     1      16.722  17.532  58.460  1.00  0.00     0.116 C 
HETATM   13  C7  UNL     1      15.861  18.667  57.928  1.00  0.00     0.026 C 
ENDBRANCH   9  12
TORSDOF 1
ENDMDL
MODEL 2
REMARK VINA RESULT: -3.736981105      1.294      1.347
REMARK  1 active torsions:
REMARK  status: ('A' for Active; 'I' for Inactive)
REMARK    1  A    between atoms: N3_9  and  C6_11 
ROOT
HETATM    1  C1  UNL     1      21.107  16.187  55.640  1.00  0.00     0.229 C 
HETATM    2  N1  UNL     1      20.050  15.997  56.073  1.00  0.00    -0.429 NA
HETATM    3  C2  UNL     1      18.777  15.765  56.580  1.00  0.00     0.110 A 
HETATM    4  C3  UNL     1      18.026  14.687  56.191  1.00  0.00     0.062 A 
HETATM    5  C4  UNL     1      16.774  14.490  56.713  1.00  0.00     0.093 A 
HETATM    6  N2  UNL     1      16.274  15.340  57.600  1.00  0.00    -0.352 N 
ATOM      7  H2  UNL     1      15.339  15.170  57.972  1.00  0.00     0.166 HD
HETATM    8  C5  UNL     1      16.956  16.418  58.027  1.00  0.00     0.103 A 
HETATM    9  N3  UNL     1      16.460  17.225  58.879  1.00  0.00    -0.377 N 
ATOM     10  H3  UNL     1      15.526  17.059  59.253  1.00  0.00     0.161 HD
HETATM   11  C8  UNL     1      18.214  16.628  57.511  1.00  0.00     0.092 A 
ENDROOT
BRANCH   9  12
HETATM   12  C6  UNL     1      17.208  18.362  59.312  1.00  0.00     0.116 C 
HETATM   13  C7  UNL     1      16.469  19.111  60.410  1.00  0.00     0.026 C 
ENDBRANCH   9  12
TORSDOF 1
ENDMDL
MODEL 3
REMARK VINA RESULT: -3.633551885      2.062      4.381
REMARK  1 active torsions:
REMARK  status: ('A' for Active; 'I' for Inactive)
REMARK    1  A    between atoms: N3_9  and  C6_11 
ROOT
HETATM    1  C1  UNL     1      16.124  17.387  57.376  1.00  0.00     0.229 C 
HETATM    2  N1  UNL     1      16.663  16.610  56.709  1.00  0.00    -0.429 NA
HETATM    3  C2  UNL     1      17.315  15.669  55.919  1.00  0.00     0.110 A 
HETATM    4  C3  UNL     1      17.306  14.333  56.225  1.00  0.00     0.062 A 
HETATM    5  C4  UNL     1      17.959  13.435  55.422  1.00  0.00     0.093 A 
HETATM    6  N2  UNL     1      18.608  13.847  54.341  1.00  0.00    -0.352 N 
ATOM      7  H2  UNL     1      19.087  13.157  53.762  1.00  0.00     0.166 HD
HETATM    8  C5  UNL     1      18.657  15.142  53.981  1.00  0.00     0.103 A 
HETATM    9  N3  UNL     1      19.285  15.521  52.939  1.00  0.00    -0.377 N 
ATOM     10  H3  UNL     1      19.764  14.834  52.357  1.00  0.00     0.161 HD
HETATM   11  C8  UNL     1      18.005  16.055  54.778  1.00  0.00     0.092 A 
ENDROOT
BRANCH   9  12
HETATM   12  C6  UNL     1      19.320  16.903  52.583  1.00  0.00     0.116 C 
HETATM   13  C7  UNL     1      18.579  17.146  51.278  1.00  0.00     0.026 C 
ENDBRANCH   9  12
TORSDOF 1
ENDMDL
MODEL 4
REMARK VINA RESULT: -3.616611736      1.256      1.279
REMARK  1 active torsions:
REMARK  status: ('A' for Active; 'I' for Inactive)
REMARK    1  A    between atoms: N3_9  and  C6_11 
ROOT
HETATM    1  C1  UNL     1      19.420  16.889  53.835  1.00  0.00     0.229 C 
HETATM    2  N1  UNL     1      18.764  16.457  54.686  1.00  0.00    -0.429 NA
HETATM    3  C2  UNL     1      17.969  15.931  55.698  1.00  0.00     0.110 A 
HETATM    4  C3  UNL     1      17.536  14.631  55.679  1.00  0.00     0.062 A 
HETATM    5  C4  UNL     1      16.754  14.147  56.696  1.00  0.00     0.093 A 
HETATM    6  N2  UNL     1      16.406  14.931  57.709  1.00  0.00    -0.352 N 
ATOM      7  H2  UNL     1      15.822  14.545  58.451  1.00  0.00     0.166 HD
HETATM    8  C5  UNL     1      16.796  16.216  57.791  1.00  0.00     0.103 A 
HETATM    9  N3  UNL     1      16.453  16.955  58.770  1.00  0.00    -0.377 N 
ATOM     10  H3  UNL     1      15.870  16.573  59.514  1.00  0.00     0.161 HD
HETATM   11  C8  UNL     1      17.582  16.714  56.777  1.00  0.00     0.092 A 
ENDROOT
BRANCH   9  12
HETATM   12  C6  UNL     1      16.882  18.315  58.829  1.00  0.00     0.116 C 
HETATM   13  C7  UNL     1      16.519  18.941  60.166  1.00  0.00     0.026 C 
ENDBRANCH   9  12
TORSDOF 1
ENDMDL
MODEL 5
REMARK VINA RESULT: -3.580928452      4.323      5.764
REMARK  1 active torsions:
REMARK  status: ('A' for Active; 'I' for Inactive)
REMARK    1  A    between atoms: N3_9  and  C6_11 
ROOT
HETATM    1  C1  UNL     1      14.899  19.436  53.480  1.00  0.00     0.229 C 
HETATM    2  N1  UNL     1      15.548  18.667  52.907  1.00  0.00    -0.429 NA
HETATM    3  C2  UNL     1      16.316  17.741  52.210  1.00  0.00     0.110 A 
HETATM    4  C3  UNL     1      16.278  17.648  50.844  1.00  0.00     0.062 A 
HETATM    5  C4  UNL     1      17.051  16.723  50.191  1.00  0.00     0.093 A 
HETATM    6  N2  UNL     1      17.843  15.906  50.873  1.00  0.00    -0.352 N 
ATOM      7  H2  UNL     1      18.406  15.226  50.362  1.00  0.00     0.166 HD
HETATM    8  C5  UNL     1      17.930  15.943  52.215  1.00  0.00     0.103 A 
HETATM    9  N3  UNL     1      18.696  15.152  52.855  1.00  0.00    -0.377 N 
ATOM     10  H3  UNL     1      19.261  14.471  52.348  1.00  0.00     0.161 HD
HETATM   11  C8  UNL     1      17.160  16.867  52.883  1.00  0.00     0.092 A 
ENDROOT
BRANCH   9  12
HETATM   12  C6  UNL     1      18.766  15.214  54.280  1.00  0.00     0.116 C 
HETATM   13  C7  UNL     1      18.130  13.985  54.909  1.00  0.00     0.026 C 
ENDBRANCH   9  12
TORSDOF 1
ENDMDL
