MODEL 1
REMARK VINA RESULT: -6.831410112      0.000      0.000
REMARK  12 active torsions:
REMARK  status: ('A' for Active; 'I' for Inactive)
REMARK    1  A    between atoms: C2_2  and  C4_4 
REMARK    2  A    between atoms: C4_4  and  C5_5 
REMARK    3  A    between atoms: C7_10  and  C8_11 
REMARK    4  A    between atoms: C8_11  and  N2_12 
REMARK    5  A    between atoms: C14_21  and  C15_22 
REMARK    6  A    between atoms: C15_22  and  C16_23 
REMARK    7  A    between atoms: C16_23  and  C17_24 
REMARK    8  A    between atoms: C17_24  and  N4_25 
REMARK    9  A    between atoms: N7_32  and  C20_33 
REMARK   10  A    between atoms: C20_33  and  C21_34 
REMARK   11  A    between atoms: C24_37  and  C25_38 
REMARK   12  A    between atoms: C28_43  and  O4_44 
ROOT
HETATM    1  C5  UNL     1      12.930 -16.294  19.124  1.00  0.00     0.159 C 
HETATM    2  N1  UNL     1      14.124 -16.786  18.536  1.00  0.00    -0.349 N 
ATOM      3  H1  UNL     1      14.263 -16.521  17.561  1.00  0.00     0.163 HD
HETATM    4  C6  UNL     1      15.133 -17.573  19.078  1.00  0.00     0.224 C 
HETATM    5  O1  UNL     1      16.268 -17.634  18.526  1.00  0.00    -0.273 OA
HETATM    6  C7  UNL     1      15.018 -18.415  20.333  1.00  0.00     0.112 C 
HETATM    7  C12 UNL     1      16.042 -17.754  21.276  1.00  0.00     0.118 C 
HETATM    8  C13 UNL     1      15.396 -16.669  22.059  1.00  0.00     0.219 C 
HETATM    9  O2  UNL     1      14.658 -17.119  23.020  1.00  0.00    -0.274 OA
HETATM   10  N3  UNL     1      15.479 -15.297  21.895  1.00  0.00    -0.348 N 
ATOM     11  H3  UNL     1      14.584 -14.839  21.720  1.00  0.00     0.163 HD
HETATM   12  C14 UNL     1      16.603 -14.405  21.928  1.00  0.00     0.176 C 
HETATM   13  C19 UNL     1      16.264 -13.072  21.379  1.00  0.00     0.244 C 
HETATM   14  O3  UNL     1      16.980 -12.090  21.807  1.00  0.00    -0.271 OA
HETATM   15  N7  UNL     1      15.239 -12.779  20.442  1.00  0.00    -0.328 N 
HETATM   16  C24 UNL     1      14.958 -13.608  19.271  1.00  0.00     0.191 C 
HETATM   17  N8  UNL     1      13.577 -13.781  18.982  1.00  0.00    -0.351 N 
ATOM     18  H8  UNL     1      13.136 -12.967  18.555  1.00  0.00     0.163 HD
HETATM   19  C28 UNL     1      12.717 -14.858  19.173  1.00  0.00     0.136 C 
ENDROOT
BRANCH  12  20
HETATM   20  C15 UNL     1      17.845 -15.011  21.306  1.00  0.00     0.036 C 
BRANCH  20  21
HETATM   21  C16 UNL     1      18.914 -15.273  22.342  1.00  0.00     0.022 C 
BRANCH  21  22
HETATM   22  C17 UNL     1      19.690 -13.961  22.528  1.00  0.00     0.122 C 
BRANCH  22  23
HETATM   23  N4  UNL     1      21.105 -14.151  22.592  1.00  0.00    -0.367 N 
HETATM   24  C18 UNL     1      21.765 -13.989  23.680  1.00  0.00     0.196 C 
HETATM   25  N5  UNL     1      21.091 -13.612  24.858  1.00  0.00    -0.067 NA
HETATM   26  N6  UNL     1      23.165 -14.187  23.697  1.00  0.00    -0.067 NA
ATOM     27  H4  UNL     1      21.605 -14.425  21.746  1.00  0.00     0.161 HD
ENDBRANCH  22  23
ENDBRANCH  21  22
ENDBRANCH  20  21
ENDBRANCH  12  20
BRANCH  15  28
HETATM   28  C20 UNL     1      14.462 -11.583  20.631  1.00  0.00     0.132 C 
BRANCH  28  29
HETATM   29  C21 UNL     1      13.819 -11.401  21.954  1.00  0.00    -0.005 C 
HETATM   30  C22 UNL     1      12.681 -12.427  22.134  1.00  0.00     0.011 C 
HETATM   31  C23 UNL     1      13.162 -10.061  22.175  1.00  0.00     0.011 C 
ENDBRANCH  28  29
ENDBRANCH  15  28
BRANCH  16  32
HETATM   32  C25 UNL     1      15.557 -12.870  18.047  1.00  0.00     0.020 C 
HETATM   33  C26 UNL     1      15.438 -13.719  16.820  1.00  0.00     0.013 C 
HETATM   34  C27 UNL     1      16.977 -12.477  18.259  1.00  0.00     0.013 C 
ENDBRANCH  16  32
BRANCH   6  35
HETATM   35  C8  UNL     1      15.539 -19.759  19.910  1.00  0.00     0.250 C 
BRANCH  35  36
HETATM   36  N2  UNL     1      15.022 -20.905  20.567  1.00  0.00    -0.078 N 
HETATM   37  C9  UNL     1      16.108 -21.640  21.200  1.00  0.00     0.271 C 
HETATM   38  C10 UNL     1      14.470 -21.862  19.572  1.00  0.00     0.271 C 
HETATM   39  C11 UNL     1      14.002 -20.705  21.536  1.00  0.00     0.271 C 
ENDBRANCH  35  36
ENDBRANCH   6  35
BRANCH  19  40
HETATM   40  O4  UNL     1      11.489 -14.535  19.453  1.00  0.00    -0.348 OA
ATOM     41  H4  UNL     1      11.397 -14.123  20.304  1.00  0.00     0.219 HD
ENDBRANCH  19  40
BRANCH   1  42
HETATM   42  C4  UNL     1      11.731 -16.986  18.528  1.00  0.00     0.037 C 
BRANCH  42  43
HETATM   43  C2  UNL     1      11.142 -18.101  19.290  1.00  0.00    -0.020 C 
HETATM   44  C1  UNL     1      11.683 -19.395  18.633  1.00  0.00     0.009 C 
HETATM   45  C3  UNL     1      11.530 -18.226  20.733  1.00  0.00     0.009 C 
ENDBRANCH  42  43
ENDBRANCH   1  42
TORSDOF 12
ENDMDL
MODEL 2
REMARK VINA RESULT: -6.651361748      1.207      1.531
REMARK  12 active torsions:
REMARK  status: ('A' for Active; 'I' for Inactive)
REMARK    1  A    between atoms: C2_2  and  C4_4 
REMARK    2  A    between atoms: C4_4  and  C5_5 
REMARK    3  A    between atoms: C7_10  and  C8_11 
REMARK    4  A    between atoms: C8_11  and  N2_12 
REMARK    5  A    between atoms: C14_21  and  C15_22 
REMARK    6  A    between atoms: C15_22  and  C16_23 
REMARK    7  A    between atoms: C16_23  and  C17_24 
REMARK    8  A    between atoms: C17_24  and  N4_25 
REMARK    9  A    between atoms: N7_32  and  C20_33 
REMARK   10  A    between atoms: C20_33  and  C21_34 
REMARK   11  A    between atoms: C24_37  and  C25_38 
REMARK   12  A    between atoms: C28_43  and  O4_44 
ROOT
HETATM    1  C5  UNL     1      12.915 -16.308  19.113  1.00  0.00     0.159 C 
HETATM    2  N1  UNL     1      14.104 -16.809  18.524  1.00  0.00    -0.349 N 
ATOM      3  H1  UNL     1      14.245 -16.545  17.549  1.00  0.00     0.163 HD
HETATM    4  C6  UNL     1      15.108 -17.604  19.064  1.00  0.00     0.224 C 
HETATM    5  O1  UNL     1      16.242 -17.674  18.511  1.00  0.00    -0.273 OA
HETATM    6  C7  UNL     1      14.987 -18.446  20.318  1.00  0.00     0.112 C 
HETATM    7  C12 UNL     1      16.018 -17.793  21.260  1.00  0.00     0.118 C 
HETATM    8  C13 UNL     1      15.381 -16.704  22.045  1.00  0.00     0.219 C 
HETATM    9  O2  UNL     1      14.640 -17.149  23.007  1.00  0.00    -0.274 OA
HETATM   10  N3  UNL     1      15.474 -15.332  21.882  1.00  0.00    -0.348 N 
ATOM     11  H3  UNL     1      14.583 -14.868  21.708  1.00  0.00     0.163 HD
HETATM   12  C14 UNL     1      16.606 -14.449  21.914  1.00  0.00     0.176 C 
HETATM   13  C19 UNL     1      16.276 -13.114  21.366  1.00  0.00     0.244 C 
HETATM   14  O3  UNL     1      17.001 -12.137  21.794  1.00  0.00    -0.271 OA
HETATM   15  N7  UNL     1      15.253 -12.812  20.430  1.00  0.00    -0.328 N 
HETATM   16  C24 UNL     1      14.964 -13.638  19.260  1.00  0.00     0.191 C 
HETATM   17  N8  UNL     1      13.581 -13.801  18.971  1.00  0.00    -0.351 N 
ATOM     18  H8  UNL     1      13.146 -12.982  18.545  1.00  0.00     0.163 HD
HETATM   19  C28 UNL     1      12.713 -14.871  19.163  1.00  0.00     0.136 C 
ENDROOT
BRANCH  12  20
HETATM   20  C15 UNL     1      17.842 -15.065  21.290  1.00  0.00     0.036 C 
BRANCH  20  21
HETATM   21  C16 UNL     1      19.088 -14.725  22.075  1.00  0.00     0.022 C 
BRANCH  21  22
HETATM   22  C17 UNL     1      19.732 -16.055  22.494  1.00  0.00     0.122 C 
BRANCH  22  23
HETATM   23  N4  UNL     1      20.911 -16.366  21.749  1.00  0.00    -0.367 N 
HETATM   24  C18 UNL     1      20.983 -17.398  20.990  1.00  0.00     0.196 C 
HETATM   25  N5  UNL     1      19.877 -18.262  20.876  1.00  0.00    -0.067 NA
HETATM   26  N6  UNL     1      22.171 -17.668  20.271  1.00  0.00    -0.067 NA
ATOM     27  H4  UNL     1      21.719 -15.748  21.822  1.00  0.00     0.161 HD
ENDBRANCH  22  23
ENDBRANCH  21  22
ENDBRANCH  20  21
ENDBRANCH  12  20
BRANCH  15  28
HETATM   28  C20 UNL     1      14.485 -11.610  20.620  1.00  0.00     0.132 C 
BRANCH  28  29
HETATM   29  C21 UNL     1      13.840 -11.427  21.942  1.00  0.00    -0.005 C 
HETATM   30  C22 UNL     1      12.706 -12.457  22.124  1.00  0.00     0.011 C 
HETATM   31  C23 UNL     1      13.176 -10.089  22.159  1.00  0.00     0.011 C 
ENDBRANCH  28  29
ENDBRANCH  15  28
BRANCH  16  32
HETATM   32  C25 UNL     1      15.567 -12.905  18.035  1.00  0.00     0.020 C 
HETATM   33  C26 UNL     1      15.440 -13.751  16.807  1.00  0.00     0.013 C 
HETATM   34  C27 UNL     1      16.991 -12.523  18.245  1.00  0.00     0.013 C 
ENDBRANCH  16  32
BRANCH   6  35
HETATM   35  C8  UNL     1      15.498 -19.794  19.894  1.00  0.00     0.250 C 
BRANCH  35  36
HETATM   36  N2  UNL     1      14.972 -20.936  20.551  1.00  0.00    -0.078 N 
HETATM   37  C9  UNL     1      16.056 -21.698  21.155  1.00  0.00     0.271 C 
HETATM   38  C10 UNL     1      14.382 -21.873  19.559  1.00  0.00     0.271 C 
HETATM   39  C11 UNL     1      13.977 -20.726  21.543  1.00  0.00     0.271 C 
ENDBRANCH  35  36
ENDBRANCH   6  35
BRANCH  19  40
HETATM   40  O4  UNL     1      11.488 -14.538  19.444  1.00  0.00    -0.348 OA
ATOM     41  H4  UNL     1      11.006 -14.220  18.690  1.00  0.00     0.219 HD
ENDBRANCH  19  40
BRANCH   1  42
HETATM   42  C4  UNL     1      11.709 -16.991  18.518  1.00  0.00     0.037 C 
BRANCH  42  43
HETATM   43  C2  UNL     1      11.109 -18.096  19.283  1.00  0.00    -0.020 C 
HETATM   44  C1  UNL     1      11.619 -19.399  18.619  1.00  0.00     0.009 C 
HETATM   45  C3  UNL     1      11.508 -18.231  20.722  1.00  0.00     0.009 C 
ENDBRANCH  42  43
ENDBRANCH   1  42
TORSDOF 12
ENDMDL
MODEL 3
REMARK VINA RESULT: -6.638028224      1.921      2.569
REMARK  12 active torsions:
REMARK  status: ('A' for Active; 'I' for Inactive)
REMARK    1  A    between atoms: C2_2  and  C4_4 
REMARK    2  A    between atoms: C4_4  and  C5_5 
REMARK    3  A    between atoms: C7_10  and  C8_11 
REMARK    4  A    between atoms: C8_11  and  N2_12 
REMARK    5  A    between atoms: C14_21  and  C15_22 
REMARK    6  A    between atoms: C15_22  and  C16_23 
REMARK    7  A    between atoms: C16_23  and  C17_24 
REMARK    8  A    between atoms: C17_24  and  N4_25 
REMARK    9  A    between atoms: N7_32  and  C20_33 
REMARK   10  A    between atoms: C20_33  and  C21_34 
REMARK   11  A    between atoms: C24_37  and  C25_38 
REMARK   12  A    between atoms: C28_43  and  O4_44 
ROOT
HETATM    1  C5  UNL     1      14.383 -16.710  21.567  1.00  0.00     0.159 C 
HETATM    2  N1  UNL     1      15.412 -17.183  20.712  1.00  0.00    -0.349 N 
ATOM      3  H1  UNL     1      15.102 -17.463  19.782  1.00  0.00     0.163 HD
HETATM    4  C6  UNL     1      16.775 -17.326  20.941  1.00  0.00     0.224 C 
HETATM    5  O1  UNL     1      17.582 -17.439  19.975  1.00  0.00    -0.273 OA
HETATM    6  C7  UNL     1      17.441 -17.361  22.302  1.00  0.00     0.112 C 
HETATM    7  C12 UNL     1      18.330 -16.103  22.272  1.00  0.00     0.118 C 
HETATM    8  C13 UNL     1      17.575 -14.927  22.779  1.00  0.00     0.219 C 
HETATM    9  O2  UNL     1      17.453 -14.929  24.066  1.00  0.00    -0.274 OA
HETATM   10  N3  UNL     1      17.007 -13.878  22.078  1.00  0.00    -0.348 N 
ATOM     11  H3  UNL     1      16.000 -13.782  22.205  1.00  0.00     0.163 HD
HETATM   12  C14 UNL     1      17.588 -12.900  21.202  1.00  0.00     0.176 C 
HETATM   13  C19 UNL     1      16.555 -12.177  20.424  1.00  0.00     0.244 C 
HETATM   14  O3  UNL     1      16.881 -10.996  20.022  1.00  0.00    -0.271 OA
HETATM   15  N7  UNL     1      15.262 -12.653  20.087  1.00  0.00    -0.328 N 
HETATM   16  C24 UNL     1      15.000 -14.019  19.637  1.00  0.00     0.191 C 
HETATM   17  N8  UNL     1      13.813 -14.601  20.160  1.00  0.00    -0.351 N 
ATOM     18  H8  UNL     1      12.955 -14.256  19.729  1.00  0.00     0.163 HD
HETATM   19  C28 UNL     1      13.607 -15.555  21.153  1.00  0.00     0.136 C 
ENDROOT
BRANCH  12  20
HETATM   20  C15 UNL     1      18.694 -13.474  20.341  1.00  0.00     0.036 C 
BRANCH  20  21
HETATM   21  C16 UNL     1      19.979 -12.691  20.491  1.00  0.00     0.022 C 
BRANCH  21  22
HETATM   22  C17 UNL     1      20.408 -12.811  21.961  1.00  0.00     0.122 C 
BRANCH  22  23
HETATM   23  N4  UNL     1      21.179 -13.985  22.226  1.00  0.00    -0.367 N 
HETATM   24  C18 UNL     1      21.354 -14.429  23.417  1.00  0.00     0.196 C 
HETATM   25  N5  UNL     1      20.776 -13.752  24.508  1.00  0.00    -0.067 NA
HETATM   26  N6  UNL     1      22.125 -15.594  23.633  1.00  0.00    -0.067 NA
ATOM     27  H4  UNL     1      21.602 -14.485  21.444  1.00  0.00     0.161 HD
ENDBRANCH  22  23
ENDBRANCH  21  22
ENDBRANCH  20  21
ENDBRANCH  12  20
BRANCH  15  28
HETATM   28  C20 UNL     1      14.157 -11.735  20.152  1.00  0.00     0.132 C 
BRANCH  28  29
HETATM   29  C21 UNL     1      13.644 -11.396  21.501  1.00  0.00    -0.005 C 
HETATM   30  C22 UNL     1      12.161 -11.806  21.621  1.00  0.00     0.011 C 
HETATM   31  C23 UNL     1      13.662  -9.928  21.850  1.00  0.00     0.011 C 
ENDBRANCH  28  29
ENDBRANCH  15  28
BRANCH  16  32
HETATM   32  C25 UNL     1      14.796 -13.953  18.102  1.00  0.00     0.020 C 
HETATM   33  C26 UNL     1      14.786 -15.331  17.519  1.00  0.00     0.013 C 
HETATM   34  C27 UNL     1      15.829 -13.121  17.426  1.00  0.00     0.013 C 
ENDBRANCH  16  32
BRANCH   6  35
HETATM   35  C8  UNL     1      18.318 -18.580  22.238  1.00  0.00     0.250 C 
BRANCH  35  36
HETATM   36  N2  UNL     1      18.018 -19.656  23.111  1.00  0.00    -0.078 N 
HETATM   37  C9  UNL     1      17.359 -20.722  22.369  1.00  0.00     0.271 C 
HETATM   38  C10 UNL     1      17.004 -19.236  24.115  1.00  0.00     0.271 C 
HETATM   39  C11 UNL     1      19.090 -20.230  23.845  1.00  0.00     0.271 C 
ENDBRANCH  35  36
ENDBRANCH   6  35
BRANCH  19  40
HETATM   40  O4  UNL     1      12.522 -15.393  21.850  1.00  0.00    -0.348 OA
ATOM     41  H4  UNL     1      12.315 -14.480  22.011  1.00  0.00     0.219 HD
ENDBRANCH  19  40
BRANCH   1  42
HETATM   42  C4  UNL     1      13.472 -17.844  21.965  1.00  0.00     0.037 C 
BRANCH  42  43
HETATM   43  C2  UNL     1      13.170 -18.861  20.944  1.00  0.00    -0.020 C 
HETATM   44  C1  UNL     1      13.288 -20.229  21.661  1.00  0.00     0.009 C 
HETATM   45  C3  UNL     1      11.786 -18.863  20.365  1.00  0.00     0.009 C 
ENDBRANCH  42  43
ENDBRANCH   1  42
TORSDOF 12
ENDMDL
MODEL 4
REMARK VINA RESULT: -6.591876430      2.377      6.027
REMARK  12 active torsions:
REMARK  status: ('A' for Active; 'I' for Inactive)
REMARK    1  A    between atoms: C2_2  and  C4_4 
REMARK    2  A    between atoms: C4_4  and  C5_5 
REMARK    3  A    between atoms: C7_10  and  C8_11 
REMARK    4  A    between atoms: C8_11  and  N2_12 
REMARK    5  A    between atoms: C14_21  and  C15_22 
REMARK    6  A    between atoms: C15_22  and  C16_23 
REMARK    7  A    between atoms: C16_23  and  C17_24 
REMARK    8  A    between atoms: C17_24  and  N4_25 
REMARK    9  A    between atoms: N7_32  and  C20_33 
REMARK   10  A    between atoms: C20_33  and  C21_34 
REMARK   11  A    between atoms: C24_37  and  C25_38 
REMARK   12  A    between atoms: C28_43  and  O4_44 
ROOT
HETATM    1  C5  UNL     1      17.685 -17.716  21.621  1.00  0.00     0.159 C 
HETATM    2  N1  UNL     1      16.643 -17.752  22.584  1.00  0.00    -0.349 N 
ATOM      3  H1  UNL     1      16.956 -17.780  23.554  1.00  0.00     0.163 HD
HETATM    4  C6  UNL     1      15.264 -17.756  22.414  1.00  0.00     0.224 C 
HETATM    5  O1  UNL     1      14.497 -17.452  23.370  1.00  0.00    -0.273 OA
HETATM    6  C7  UNL     1      14.535 -18.104  21.132  1.00  0.00     0.112 C 
HETATM    7  C12 UNL     1      13.831 -16.779  20.776  1.00  0.00     0.118 C 
HETATM    8  C13 UNL     1      14.717 -15.937  19.931  1.00  0.00     0.219 C 
HETATM    9  O2  UNL     1      14.775 -16.347  18.707  1.00  0.00    -0.274 OA
HETATM   10  N3  UNL     1      15.457 -14.819  20.275  1.00  0.00    -0.348 N 
ATOM     11  H3  UNL     1      16.461 -14.916  20.121  1.00  0.00     0.163 HD
HETATM   12  C14 UNL     1      15.061 -13.548  20.811  1.00  0.00     0.176 C 
HETATM   13  C19 UNL     1      16.219 -12.783  21.326  1.00  0.00     0.244 C 
HETATM   14  O3  UNL     1      16.080 -11.502  21.348  1.00  0.00    -0.271 OA
HETATM   15  N7  UNL     1      17.449 -13.319  21.789  1.00  0.00    -0.328 N 
HETATM   16  C24 UNL     1      17.541 -14.507  22.635  1.00  0.00     0.191 C 
HETATM   17  N8  UNL     1      18.609 -15.388  22.312  1.00  0.00    -0.351 N 
ATOM     18  H8  UNL     1      19.526 -15.058  22.614  1.00  0.00     0.163 HD
HETATM   19  C28 UNL     1      18.633 -16.617  21.659  1.00  0.00     0.136 C 
ENDROOT
BRANCH  12  20
HETATM   20  C15 UNL     1      13.928 -13.666  21.810  1.00  0.00     0.036 C 
BRANCH  20  21
HETATM   21  C16 UNL     1      12.588 -13.386  21.168  1.00  0.00     0.022 C 
BRANCH  21  22
HETATM   22  C17 UNL     1      12.412 -11.860  21.144  1.00  0.00     0.122 C 
BRANCH  22  23
HETATM   23  N4  UNL     1      11.697 -11.361  22.275  1.00  0.00    -0.367 N 
HETATM   24  C18 UNL     1      12.077 -10.314  22.913  1.00  0.00     0.196 C 
HETATM   25  N5  UNL     1      13.230  -9.623  22.498  1.00  0.00    -0.067 NA
HETATM   26  N6  UNL     1      11.338  -9.856  24.029  1.00  0.00    -0.067 NA
ATOM     27  H4  UNL     1      10.859 -11.853  22.586  1.00  0.00     0.161 HD
ENDBRANCH  22  23
ENDBRANCH  21  22
ENDBRANCH  20  21
ENDBRANCH  12  20
BRANCH  15  28
HETATM   28  C20 UNL     1      18.666 -12.636  21.441  1.00  0.00     0.132 C 
BRANCH  28  29
HETATM   29  C21 UNL     1      19.281 -12.980  20.137  1.00  0.00    -0.005 C 
HETATM   30  C22 UNL     1      20.682 -12.344  20.029  1.00  0.00     0.011 C 
HETATM   31  C23 UNL     1      18.541 -12.478  18.921  1.00  0.00     0.011 C 
ENDBRANCH  28  29
ENDBRANCH  15  28
BRANCH  16  32
HETATM   32  C25 UNL     1      17.825 -14.010  24.075  1.00  0.00     0.020 C 
HETATM   33  C26 UNL     1      19.286 -13.731  24.249  1.00  0.00     0.013 C 
HETATM   34  C27 UNL     1      17.365 -14.975  25.111  1.00  0.00     0.013 C 
ENDBRANCH  16  32
BRANCH   6  35
HETATM   35  C8  UNL     1      13.501 -19.104  21.569  1.00  0.00     0.250 C 
BRANCH  35  36
HETATM   36  N2  UNL     1      13.017 -20.020  20.601  1.00  0.00    -0.078 N 
HETATM   37  C9  UNL     1      11.659 -19.657  20.218  1.00  0.00     0.271 C 
HETATM   38  C10 UNL     1      12.874 -21.373  21.200  1.00  0.00     0.271 C 
HETATM   39  C11 UNL     1      13.779 -20.188  19.413  1.00  0.00     0.271 C 
ENDBRANCH  35  36
ENDBRANCH   6  35
BRANCH  19  40
HETATM   40  O4  UNL     1      19.695 -16.835  20.942  1.00  0.00    -0.348 OA
ATOM     41  H4  UNL     1      20.024 -16.052  20.516  1.00  0.00     0.219 HD
ENDBRANCH  19  40
BRANCH   1  42
HETATM   42  C4  UNL     1      18.410 -19.038  21.588  1.00  0.00     0.037 C 
BRANCH  42  43
HETATM   43  C2  UNL     1      18.081 -19.965  20.492  1.00  0.00    -0.020 C 
HETATM   44  C1  UNL     1      17.039 -20.954  21.071  1.00  0.00     0.009 C 
HETATM   45  C3  UNL     1      17.412 -19.386  19.281  1.00  0.00     0.009 C 
ENDBRANCH  42  43
ENDBRANCH   1  42
TORSDOF 12
ENDMDL
MODEL 5
REMARK VINA RESULT: -6.544419772      2.749      7.540
REMARK  12 active torsions:
REMARK  status: ('A' for Active; 'I' for Inactive)
REMARK    1  A    between atoms: C2_2  and  C4_4 
REMARK    2  A    between atoms: C4_4  and  C5_5 
REMARK    3  A    between atoms: C7_10  and  C8_11 
REMARK    4  A    between atoms: C8_11  and  N2_12 
REMARK    5  A    between atoms: C14_21  and  C15_22 
REMARK    6  A    between atoms: C15_22  and  C16_23 
REMARK    7  A    between atoms: C16_23  and  C17_24 
REMARK    8  A    between atoms: C17_24  and  N4_25 
REMARK    9  A    between atoms: N7_32  and  C20_33 
REMARK   10  A    between atoms: C20_33  and  C21_34 
REMARK   11  A    between atoms: C24_37  and  C25_38 
REMARK   12  A    between atoms: C28_43  and  O4_44 
ROOT
HETATM    1  C5  UNL     1      18.397 -17.768  24.550  1.00  0.00     0.159 C 
HETATM    2  N1  UNL     1      19.318 -17.500  23.505  1.00  0.00    -0.349 N 
ATOM      3  H1  UNL     1      19.633 -18.321  22.989  1.00  0.00     0.163 HD
HETATM    4  C6  UNL     1      19.861 -16.295  23.074  1.00  0.00     0.224 C 
HETATM    5  O1  UNL     1      20.394 -16.201  21.932  1.00  0.00    -0.273 OA
HETATM    6  C7  UNL     1      19.885 -15.005  23.868  1.00  0.00     0.112 C 
HETATM    7  C12 UNL     1      19.012 -14.068  23.010  1.00  0.00     0.118 C 
HETATM    8  C13 UNL     1      17.586 -14.178  23.414  1.00  0.00     0.219 C 
HETATM    9  O2  UNL     1      17.333 -13.560  24.521  1.00  0.00    -0.274 OA
HETATM   10  N3  UNL     1      16.542 -14.833  22.785  1.00  0.00    -0.348 N 
ATOM     11  H3  UNL     1      16.101 -15.559  23.349  1.00  0.00     0.163 HD
HETATM   12  C14 UNL     1      15.972 -14.669  21.478  1.00  0.00     0.176 C 
HETATM   13  C19 UNL     1      15.091 -15.803  21.117  1.00  0.00     0.244 C 
HETATM   14  O3  UNL     1      14.168 -15.544  20.255  1.00  0.00    -0.271 OA
HETATM   15  N7  UNL     1      15.165 -17.126  21.624  1.00  0.00    -0.328 N 
HETATM   16  C24 UNL     1      16.423 -17.844  21.821  1.00  0.00     0.191 C 
HETATM   17  N8  UNL     1      16.485 -18.621  23.010  1.00  0.00    -0.351 N 
ATOM     18  H8  UNL     1      15.955 -19.491  22.967  1.00  0.00     0.163 HD
HETATM   19  C28 UNL     1      17.137 -18.412  24.222  1.00  0.00     0.136 C 
ENDROOT
BRANCH  12  20
HETATM   20  C15 UNL     1      17.014 -14.360  20.423  1.00  0.00     0.036 C 
BRANCH  20  21
HETATM   21  C16 UNL     1      16.751 -13.029  19.755  1.00  0.00     0.022 C 
BRANCH  21  22
HETATM   22  C17 UNL     1      16.781 -11.960  20.857  1.00  0.00     0.122 C 
BRANCH  22  23
HETATM   23  N4  UNL     1      15.760 -10.972  20.708  1.00  0.00    -0.367 N 
HETATM   24  C18 UNL     1      14.656 -11.032  21.358  1.00  0.00     0.196 C 
HETATM   25  N5  UNL     1      14.426 -12.095  22.251  1.00  0.00    -0.067 NA
HETATM   26  N6  UNL     1      13.672 -10.032  21.178  1.00  0.00    -0.067 NA
ATOM     27  H4  UNL     1      15.914 -10.196  20.064  1.00  0.00     0.161 HD
ENDBRANCH  22  23
ENDBRANCH  21  22
ENDBRANCH  20  21
ENDBRANCH  12  20
BRANCH  15  28
HETATM   28  C20 UNL     1      13.936 -17.814  21.922  1.00  0.00     0.132 C 
BRANCH  28  29
HETATM   29  C21 UNL     1      13.308 -18.577  20.817  1.00  0.00    -0.005 C 
HETATM   30  C22 UNL     1      11.854 -18.107  20.611  1.00  0.00     0.011 C 
HETATM   31  C23 UNL     1      13.199 -20.066  21.039  1.00  0.00     0.011 C 
ENDBRANCH  28  29
ENDBRANCH  15  28
BRANCH  16  32
HETATM   32  C25 UNL     1      16.551 -18.851  20.651  1.00  0.00     0.020 C 
HETATM   33  C26 UNL     1      17.772 -19.700  20.828  1.00  0.00     0.013 C 
HETATM   34  C27 UNL     1      16.587 -18.179  19.323  1.00  0.00     0.013 C 
ENDBRANCH  16  32
BRANCH   6  35
HETATM   35  C8  UNL     1      21.317 -14.557  23.778  1.00  0.00     0.250 C 
BRANCH  35  36
HETATM   36  N2  UNL     1      22.055 -14.462  24.985  1.00  0.00    -0.078 N 
HETATM   37  C9  UNL     1      21.318 -13.658  25.950  1.00  0.00     0.271 C 
HETATM   38  C10 UNL     1      23.310 -13.696  24.760  1.00  0.00     0.271 C 
HETATM   39  C11 UNL     1      22.437 -15.673  25.623  1.00  0.00     0.271 C 
ENDBRANCH  35  36
ENDBRANCH   6  35
BRANCH  19  40
HETATM   40  O4  UNL     1      16.512 -18.872  25.266  1.00  0.00    -0.348 OA
ATOM     41  H4  UNL     1      15.593 -19.045  25.103  1.00  0.00     0.219 HD
ENDBRANCH  19  40
BRANCH   1  42
HETATM   42  C4  UNL     1      19.084 -18.495  25.678  1.00  0.00     0.037 C 
BRANCH  42  43
HETATM   43  C2  UNL     1      19.272 -17.763  26.942  1.00  0.00    -0.020 C 
HETATM   44  C1  UNL     1      18.566 -16.398  26.751  1.00  0.00     0.009 C 
HETATM   45  C3  UNL     1      18.636 -18.342  28.171  1.00  0.00     0.009 C 
ENDBRANCH  42  43
ENDBRANCH   1  42
TORSDOF 12
ENDMDL
