MODEL 1
REMARK VINA RESULT: -7.757212165      0.000      0.000
REMARK  11 active torsions:
REMARK  status: ('A' for Active; 'I' for Inactive)
REMARK    1  A    between atoms: C2_2  and  C4_4 
REMARK    2  A    between atoms: C4_4  and  C5_5 
REMARK    3  A    between atoms: C7_10  and  C8_11 
REMARK    4  A    between atoms: C8_11  and  N2_12 
REMARK    5  A    between atoms: C11_19  and  C12_20 
REMARK    6  A    between atoms: C12_20  and  C13_21 
REMARK    7  A    between atoms: C15_27  and  N7_28 
REMARK    8  A    between atoms: N8_33  and  C17_34 
REMARK    9  A    between atoms: C17_34  and  C18_35 
REMARK   10  A    between atoms: C21_38  and  C22_39 
REMARK   11  A    between atoms: C22_39  and  C23_40 
ROOT
HETATM    1  C5  UNL     1      16.186 -17.771  21.759  1.00  0.00     0.179 C 
HETATM    2  C6  UNL     1      14.957 -17.308  22.443  1.00  0.00     0.241 C 
HETATM    3  O1  UNL     1      14.485 -18.053  23.370  1.00  0.00    -0.271 OA
HETATM    4  N1  UNL     1      14.324 -16.089  22.089  1.00  0.00    -0.346 N 
ATOM      5  H1  UNL     1      13.910 -15.561  22.857  1.00  0.00     0.163 HD
HETATM    6  C7  UNL     1      14.197 -15.519  20.807  1.00  0.00     0.172 C 
HETATM    7  C10 UNL     1      15.308 -14.837  20.185  1.00  0.00     0.164 C 
HETATM    8  O2  UNL     1      15.385 -15.021  18.937  1.00  0.00    -0.295 OA
HETATM    9  C11 UNL     1      16.369 -13.976  20.691  1.00  0.00     0.154 C 
HETATM   10  C16 UNL     1      16.595 -13.950  22.132  1.00  0.00     0.236 C 
HETATM   11  O3  UNL     1      15.666 -13.352  22.791  1.00  0.00    -0.272 OA
HETATM   12  N8  UNL     1      17.714 -14.503  22.869  1.00  0.00    -0.316 N 
HETATM   13  C21 UNL     1      18.501 -15.506  22.292  1.00  0.00     0.083 C 
HETATM   14  C26 UNL     1      18.367 -16.904  22.765  1.00  0.00     0.266 C 
HETATM   15  O4  UNL     1      19.399 -17.344  23.355  1.00  0.00    -0.266 OA
HETATM   16  N9  UNL     1      17.315 -17.827  22.681  1.00  0.00    -0.338 N 
HETATM   17  C27 UNL     1      17.243 -18.999  23.575  1.00  0.00     0.154 C 
ENDROOT
BRANCH   9  18
HETATM   18  C12 UNL     1      16.003 -12.513  20.332  1.00  0.00     0.065 C 
BRANCH  18  19
HETATM   19  C13 UNL     1      16.389 -12.121  18.992  1.00  0.00     0.005 A 
HETATM   20  C14 UNL     1      17.663 -12.152  18.475  1.00  0.00     0.118 A 
HETATM   21  N5  UNL     1      17.588 -11.721  17.211  1.00  0.00    -0.310 N 
HETATM   22  N6  UNL     1      16.344 -11.416  16.886  1.00  0.00    -0.286 N 
ATOM     23  H5  UNL     1      18.385 -11.638  16.581  1.00  0.00     0.186 HD
HETATM   24  C15 UNL     1      15.576 -11.661  17.992  1.00  0.00     0.121 A 
ATOM     25  H6  UNL     1      16.019 -11.066  15.986  1.00  0.00     0.188 HD
BRANCH  24  26
HETATM   26  N7  UNL     1      14.306 -11.448  17.960  1.00  0.00    -0.384 N 
ATOM     27  H72 UNL     1      13.653 -12.201  18.174  1.00  0.00     0.157 HD
ATOM     28  H71 UNL     1      13.771 -10.608  17.743  1.00  0.00     0.157 HD
ENDBRANCH  24  26
ENDBRANCH  18  19
ENDBRANCH   9  18
BRANCH   6  29
HETATM   29  C8  UNL     1      12.981 -14.576  20.755  1.00  0.00     0.154 C 
BRANCH  29  30
HETATM   30  N2  UNL     1      12.919 -13.775  21.961  1.00  0.00    -0.365 N 
HETATM   31  C9  UNL     1      12.622 -12.527  21.835  1.00  0.00     0.197 C 
HETATM   32  N3  UNL     1      12.576 -11.781  23.066  1.00  0.00    -0.067 NA
HETATM   33  N4  UNL     1      12.362 -11.938  20.588  1.00  0.00    -0.067 NA
ATOM     34  H2  UNL     1      13.105 -14.185  22.876  1.00  0.00     0.161 HD
ENDBRANCH  29  30
ENDBRANCH   6  29
BRANCH  12  35
HETATM   35  C17 UNL     1      17.899 -13.883  24.166  1.00  0.00     0.136 C 
BRANCH  35  36
HETATM   36  C18 UNL     1      18.630 -14.603  25.215  1.00  0.00    -0.004 C 
HETATM   37  C19 UNL     1      19.619 -13.946  26.064  1.00  0.00     0.011 C 
HETATM   38  C20 UNL     1      17.559 -15.200  26.158  1.00  0.00     0.011 C 
ENDBRANCH  35  36
ENDBRANCH  12  35
BRANCH  13  39
HETATM   39  C22 UNL     1      19.970 -15.271  22.104  1.00  0.00     0.067 C 
BRANCH  39  40
HETATM   40  C23 UNL     1      20.515 -13.910  22.341  1.00  0.00    -0.017 C 
HETATM   41  C24 UNL     1      20.695 -13.237  20.945  1.00  0.00     0.010 C 
HETATM   42  C25 UNL     1      21.858 -13.790  22.981  1.00  0.00     0.010 C 
ENDBRANCH  39  40
ENDBRANCH  13  39
BRANCH   1  43
HETATM   43  C4  UNL     1      15.861 -19.105  21.119  1.00  0.00     0.039 C 
BRANCH  43  44
HETATM   44  C2  UNL     1      15.087 -18.935  19.845  1.00  0.00    -0.020 C 
HETATM   45  C1  UNL     1      16.035 -18.486  18.743  1.00  0.00     0.009 C 
HETATM   46  C3  UNL     1      14.556 -20.296  19.372  1.00  0.00     0.009 C 
ENDBRANCH  43  44
ENDBRANCH   1  43
TORSDOF 11
ENDMDL
MODEL 2
REMARK VINA RESULT: -7.607707994      1.192      1.369
REMARK  11 active torsions:
REMARK  status: ('A' for Active; 'I' for Inactive)
REMARK    1  A    between atoms: C2_2  and  C4_4 
REMARK    2  A    between atoms: C4_4  and  C5_5 
REMARK    3  A    between atoms: C7_10  and  C8_11 
REMARK    4  A    between atoms: C8_11  and  N2_12 
REMARK    5  A    between atoms: C11_19  and  C12_20 
REMARK    6  A    between atoms: C12_20  and  C13_21 
REMARK    7  A    between atoms: C15_27  and  N7_28 
REMARK    8  A    between atoms: N8_33  and  C17_34 
REMARK    9  A    between atoms: C17_34  and  C18_35 
REMARK   10  A    between atoms: C21_38  and  C22_39 
REMARK   11  A    between atoms: C22_39  and  C23_40 
ROOT
HETATM    1  C5  UNL     1      17.102 -17.523  21.249  1.00  0.00     0.179 C 
HETATM    2  C6  UNL     1      16.059 -17.318  22.281  1.00  0.00     0.241 C 
HETATM    3  O1  UNL     1      16.071 -18.102  23.291  1.00  0.00    -0.271 OA
HETATM    4  N1  UNL     1      15.084 -16.296  22.158  1.00  0.00    -0.346 N 
ATOM      5  H1  UNL     1      14.805 -15.836  23.025  1.00  0.00     0.163 HD
HETATM    6  C7  UNL     1      14.453 -15.836  20.985  1.00  0.00     0.172 C 
HETATM    7  C10 UNL     1      15.138 -14.952  20.072  1.00  0.00     0.164 C 
HETATM    8  O2  UNL     1      14.883 -15.177  18.855  1.00  0.00    -0.295 OA
HETATM    9  C11 UNL     1      16.070 -13.846  20.252  1.00  0.00     0.154 C 
HETATM   10  C16 UNL     1      16.702 -13.695  21.558  1.00  0.00     0.236 C 
HETATM   11  O3  UNL     1      15.898 -13.292  22.478  1.00  0.00    -0.272 OA
HETATM   12  N8  UNL     1      18.085 -13.940  21.914  1.00  0.00    -0.316 N 
HETATM   13  C21 UNL     1      18.877 -14.765  21.107  1.00  0.00     0.083 C 
HETATM   14  C26 UNL     1      19.219 -16.131  21.571  1.00  0.00     0.266 C 
HETATM   15  O4  UNL     1      20.452 -16.293  21.813  1.00  0.00    -0.266 OA
HETATM   16  N9  UNL     1      18.434 -17.272  21.789  1.00  0.00    -0.338 N 
HETATM   17  C27 UNL     1      18.906 -18.383  22.639  1.00  0.00     0.154 C 
ENDROOT
BRANCH   9  18
HETATM   18  C12 UNL     1      15.285 -12.525  20.049  1.00  0.00     0.065 C 
BRANCH  18  19
HETATM   19  C13 UNL     1      15.333 -12.014  18.695  1.00  0.00     0.005 A 
HETATM   20  C14 UNL     1      16.356 -12.201  17.795  1.00  0.00     0.118 A 
HETATM   21  N5  UNL     1      16.008 -11.577  16.664  1.00  0.00    -0.310 N 
HETATM   22  N6  UNL     1      14.826 -11.001  16.784  1.00  0.00    -0.286 N 
ATOM     23  H5  UNL     1      16.581 -11.549  15.821  1.00  0.00     0.186 HD
HETATM   24  C15 UNL     1      14.385 -11.264  18.052  1.00  0.00     0.121 A 
ATOM     25  H6  UNL     1      14.335 -10.464  16.070  1.00  0.00     0.188 HD
BRANCH  24  26
HETATM   26  N7  UNL     1      13.244 -10.816  18.449  1.00  0.00    -0.384 N 
ATOM     27  H72 UNL     1      12.446 -11.446  18.535  1.00  0.00     0.157 HD
ATOM     28  H71 UNL     1      12.946  -9.878  18.717  1.00  0.00     0.157 HD
ENDBRANCH  24  26
ENDBRANCH  18  19
ENDBRANCH   9  18
BRANCH   6  29
HETATM   29  C8  UNL     1      13.092 -15.199  21.320  1.00  0.00     0.154 C 
BRANCH  29  30
HETATM   30  N2  UNL     1      13.271 -14.092  22.237  1.00  0.00    -0.365 N 
HETATM   31  C9  UNL     1      12.696 -12.976  21.946  1.00  0.00     0.197 C 
HETATM   32  N3  UNL     1      12.910 -11.911  22.892  1.00  0.00    -0.067 NA
HETATM   33  N4  UNL     1      11.918 -12.810  20.790  1.00  0.00    -0.067 NA
ATOM     34  H2  UNL     1      13.833 -14.193  23.082  1.00  0.00     0.161 HD
ENDBRANCH  29  30
ENDBRANCH   6  29
BRANCH  12  35
HETATM   35  C17 UNL     1      18.498 -13.228  23.107  1.00  0.00     0.136 C 
BRANCH  35  36
HETATM   36  C18 UNL     1      19.138 -13.962  24.204  1.00  0.00    -0.004 C 
HETATM   37  C19 UNL     1      20.033 -13.312  25.156  1.00  0.00     0.011 C 
HETATM   38  C20 UNL     1      17.993 -14.595  25.029  1.00  0.00     0.011 C 
ENDBRANCH  35  36
ENDBRANCH  12  35
BRANCH  13  39
HETATM   39  C22 UNL     1      20.126 -14.212  20.491  1.00  0.00     0.067 C 
BRANCH  39  40
HETATM   40  C23 UNL     1      20.144 -12.791  20.056  1.00  0.00    -0.017 C 
HETATM   41  C24 UNL     1      20.360 -12.786  18.512  1.00  0.00     0.010 C 
HETATM   42  C25 UNL     1      21.227 -11.907  20.580  1.00  0.00     0.010 C 
ENDBRANCH  39  40
ENDBRANCH  13  39
BRANCH   1  43
HETATM   43  C4  UNL     1      16.921 -18.927  20.710  1.00  0.00     0.039 C 
BRANCH  43  44
HETATM   44  C2  UNL     1      15.750 -19.017  19.778  1.00  0.00    -0.020 C 
HETATM   45  C1  UNL     1      16.139 -18.429  18.430  1.00  0.00     0.009 C 
HETATM   46  C3  UNL     1      15.430 -20.490  19.483  1.00  0.00     0.009 C 
ENDBRANCH  43  44
ENDBRANCH   1  43
TORSDOF 11
ENDMDL
MODEL 3
REMARK VINA RESULT: -7.448388688      2.354      3.858
REMARK  11 active torsions:
REMARK  status: ('A' for Active; 'I' for Inactive)
REMARK    1  A    between atoms: C2_2  and  C4_4 
REMARK    2  A    between atoms: C4_4  and  C5_5 
REMARK    3  A    between atoms: C7_10  and  C8_11 
REMARK    4  A    between atoms: C8_11  and  N2_12 
REMARK    5  A    between atoms: C11_19  and  C12_20 
REMARK    6  A    between atoms: C12_20  and  C13_21 
REMARK    7  A    between atoms: C15_27  and  N7_28 
REMARK    8  A    between atoms: N8_33  and  C17_34 
REMARK    9  A    between atoms: C17_34  and  C18_35 
REMARK   10  A    between atoms: C21_38  and  C22_39 
REMARK   11  A    between atoms: C22_39  and  C23_40 
ROOT
HETATM    1  C5  UNL     1      19.718 -17.899  22.710  1.00  0.00     0.179 C 
HETATM    2  C6  UNL     1      18.775 -18.190  23.814  1.00  0.00     0.241 C 
HETATM    3  O1  UNL     1      19.207 -18.908  24.781  1.00  0.00    -0.271 OA
HETATM    4  N1  UNL     1      17.446 -17.695  23.806  1.00  0.00    -0.346 N 
ATOM      5  H1  UNL     1      17.066 -17.420  24.712  1.00  0.00     0.163 HD
HETATM    6  C7  UNL     1      16.587 -17.537  22.701  1.00  0.00     0.172 C 
HETATM    7  C10 UNL     1      16.745 -16.425  21.792  1.00  0.00     0.164 C 
HETATM    8  O2  UNL     1      16.517 -16.718  20.584  1.00  0.00    -0.295 OA
HETATM    9  C11 UNL     1      17.115 -15.026  21.969  1.00  0.00     0.154 C 
HETATM   10  C16 UNL     1      17.719 -14.639  23.239  1.00  0.00     0.236 C 
HETATM   11  O3  UNL     1      16.896 -14.644  24.227  1.00  0.00    -0.272 OA
HETATM   12  N8  UNL     1      19.095 -14.260  23.493  1.00  0.00    -0.316 N 
HETATM   13  C21 UNL     1      20.100 -14.641  22.596  1.00  0.00     0.083 C 
HETATM   14  C26 UNL     1      21.038 -15.728  22.967  1.00  0.00     0.266 C 
HETATM   15  O4  UNL     1      22.233 -15.338  23.122  1.00  0.00    -0.266 OA
HETATM   16  N9  UNL     1      20.847 -17.101  23.175  1.00  0.00    -0.338 N 
HETATM   17  C27 UNL     1      21.821 -17.908  23.936  1.00  0.00     0.154 C 
ENDROOT
BRANCH   9  18
HETATM   18  C12 UNL     1      15.819 -14.179  21.885  1.00  0.00     0.065 C 
BRANCH  18  19
HETATM   19  C13 UNL     1      15.936 -13.009  21.038  1.00  0.00     0.005 A 
HETATM   20  C14 UNL     1      16.051 -11.708  21.467  1.00  0.00     0.118 A 
HETATM   21  N5  UNL     1      16.142 -10.938  20.377  1.00  0.00    -0.310 N 
HETATM   22  N6  UNL     1      16.093 -11.666  19.276  1.00  0.00    -0.286 N 
ATOM     23  H5  UNL     1      16.237  -9.923  20.393  1.00  0.00     0.186 HD
HETATM   24  C15 UNL     1      15.964 -12.970  19.670  1.00  0.00     0.121 A 
ATOM     25  H6  UNL     1      16.141 -11.324  18.317  1.00  0.00     0.188 HD
BRANCH  24  26
HETATM   26  N7  UNL     1      15.889 -13.909  18.792  1.00  0.00    -0.384 N 
ATOM     27  H72 UNL     1      15.407 -14.781  19.010  1.00  0.00     0.157 HD
ATOM     28  H71 UNL     1      16.246 -13.968  17.838  1.00  0.00     0.157 HD
ENDBRANCH  24  26
ENDBRANCH  18  19
ENDBRANCH   9  18
BRANCH   6  29
HETATM   29  C8  UNL     1      15.116 -17.565  23.154  1.00  0.00     0.154 C 
BRANCH  29  30
HETATM   30  N2  UNL     1      14.367 -18.513  22.354  1.00  0.00    -0.365 N 
HETATM   31  C9  UNL     1      13.679 -19.408  22.976  1.00  0.00     0.197 C 
HETATM   32  N3  UNL     1      12.955 -20.322  22.131  1.00  0.00    -0.067 NA
HETATM   33  N4  UNL     1      13.640 -19.487  24.377  1.00  0.00    -0.067 NA
ATOM     34  H2  UNL     1      14.383 -18.472  21.335  1.00  0.00     0.161 HD
ENDBRANCH  29  30
ENDBRANCH   6  29
BRANCH  12  35
HETATM   35  C17 UNL     1      19.250 -13.461  24.692  1.00  0.00     0.136 C 
BRANCH  35  36
HETATM   36  C18 UNL     1      20.173 -13.904  25.743  1.00  0.00    -0.004 C 
HETATM   37  C19 UNL     1      20.717 -12.984  26.738  1.00  0.00     0.011 C 
HETATM   38  C20 UNL     1      19.441 -15.021  26.523  1.00  0.00     0.011 C 
ENDBRANCH  35  36
ENDBRANCH  12  35
BRANCH  13  39
HETATM   39  C22 UNL     1      20.931 -13.586  21.931  1.00  0.00     0.067 C 
BRANCH  39  40
HETATM   40  C23 UNL     1      20.305 -12.727  20.892  1.00  0.00    -0.017 C 
HETATM   41  C24 UNL     1      19.701 -13.678  19.813  1.00  0.00     0.010 C 
HETATM   42  C25 UNL     1      21.185 -11.805  20.116  1.00  0.00     0.010 C 
ENDBRANCH  39  40
ENDBRANCH  13  39
BRANCH   1  43
HETATM   43  C4  UNL     1      20.124 -19.231  22.112  1.00  0.00     0.039 C 
BRANCH  43  44
HETATM   44  C2  UNL     1      20.159 -19.179  20.614  1.00  0.00    -0.020 C 
HETATM   45  C1  UNL     1      20.988 -20.343  20.094  1.00  0.00     0.009 C 
HETATM   46  C3  UNL     1      18.750 -19.422  20.051  1.00  0.00     0.009 C 
ENDBRANCH  43  44
ENDBRANCH   1  43
TORSDOF 11
ENDMDL
MODEL 4
REMARK VINA RESULT: -7.423683891      2.200      4.383
REMARK  11 active torsions:
REMARK  status: ('A' for Active; 'I' for Inactive)
REMARK    1  A    between atoms: C2_2  and  C4_4 
REMARK    2  A    between atoms: C4_4  and  C5_5 
REMARK    3  A    between atoms: C7_10  and  C8_11 
REMARK    4  A    between atoms: C8_11  and  N2_12 
REMARK    5  A    between atoms: C11_19  and  C12_20 
REMARK    6  A    between atoms: C12_20  and  C13_21 
REMARK    7  A    between atoms: C15_27  and  N7_28 
REMARK    8  A    between atoms: N8_33  and  C17_34 
REMARK    9  A    between atoms: C17_34  and  C18_35 
REMARK   10  A    between atoms: C21_38  and  C22_39 
REMARK   11  A    between atoms: C22_39  and  C23_40 
ROOT
HETATM    1  C5  UNL     1      14.904 -16.355  20.737  1.00  0.00     0.179 C 
HETATM    2  C6  UNL     1      14.198 -15.278  21.468  1.00  0.00     0.241 C 
HETATM    3  O1  UNL     1      12.963 -15.466  21.743  1.00  0.00    -0.271 OA
HETATM    4  N1  UNL     1      14.859 -14.083  21.851  1.00  0.00    -0.346 N 
ATOM      5  H1  UNL     1      14.583 -13.686  22.749  1.00  0.00     0.163 HD
HETATM    6  C7  UNL     1      15.851 -13.377  21.142  1.00  0.00     0.172 C 
HETATM    7  C10 UNL     1      17.220 -13.837  21.125  1.00  0.00     0.164 C 
HETATM    8  O2  UNL     1      17.802 -13.664  20.017  1.00  0.00    -0.295 OA
HETATM    9  C11 UNL     1      18.082 -14.465  22.118  1.00  0.00     0.154 C 
HETATM   10  C16 UNL     1      17.453 -15.020  23.312  1.00  0.00     0.236 C 
HETATM   11  O3  UNL     1      17.008 -14.127  24.124  1.00  0.00    -0.272 OA
HETATM   12  N8  UNL     1      17.285 -16.415  23.665  1.00  0.00    -0.316 N 
HETATM   13  C21 UNL     1      17.343 -17.398  22.670  1.00  0.00     0.083 C 
HETATM   14  C26 UNL     1      16.094 -18.059  22.221  1.00  0.00     0.266 C 
HETATM   15  O4  UNL     1      16.035 -19.290  22.516  1.00  0.00    -0.266 OA
HETATM   16  N9  UNL     1      14.972 -17.576  21.533  1.00  0.00    -0.338 N 
HETATM   17  C27 UNL     1      13.682 -18.293  21.560  1.00  0.00     0.154 C 
ENDROOT
BRANCH   9  18
HETATM   18  C12 UNL     1      19.049 -13.382  22.660  1.00  0.00     0.065 C 
BRANCH  18  19
HETATM   19  C13 UNL     1      20.236 -13.917  23.294  1.00  0.00     0.005 A 
HETATM   20  C14 UNL     1      21.225 -14.646  22.676  1.00  0.00     0.118 A 
HETATM   21  N5  UNL     1      22.141 -14.941  23.606  1.00  0.00    -0.310 N 
HETATM   22  N6  UNL     1      21.799 -14.444  24.781  1.00  0.00    -0.286 N 
ATOM     23  H5  UNL     1      22.990 -15.477  23.430  1.00  0.00     0.186 HD
HETATM   24  C15 UNL     1      20.606 -13.798  24.607  1.00  0.00     0.121 A 
ATOM     25  H6  UNL     1      22.324 -14.527  25.652  1.00  0.00     0.188 HD
BRANCH  24  26
HETATM   26  N7  UNL     1      20.032 -13.215  25.601  1.00  0.00    -0.384 N 
ATOM     27  H72 UNL     1      19.064 -12.902  25.525  1.00  0.00     0.157 HD
ATOM     28  H71 UNL     1      20.376 -12.978  26.532  1.00  0.00     0.157 HD
ENDBRANCH  24  26
ENDBRANCH  18  19
ENDBRANCH   9  18
BRANCH   6  29
HETATM   29  C8  UNL     1      15.862 -11.895  21.563  1.00  0.00     0.154 C 
BRANCH  29  30
HETATM   30  N2  UNL     1      14.925 -11.141  20.756  1.00  0.00    -0.365 N 
HETATM   31  C9  UNL     1      13.756 -10.915  21.250  1.00  0.00     0.197 C 
HETATM   32  N3  UNL     1      12.867 -10.162  20.404  1.00  0.00    -0.067 NA
HETATM   33  N4  UNL     1      13.377 -11.372  22.522  1.00  0.00    -0.067 NA
ATOM     34  H2  UNL     1      15.181 -10.801  19.829  1.00  0.00     0.161 HD
ENDBRANCH  29  30
ENDBRANCH   6  29
BRANCH  12  35
HETATM   35  C17 UNL     1      17.104 -16.621  25.088  1.00  0.00     0.136 C 
BRANCH  35  36
HETATM   36  C18 UNL     1      18.273 -16.616  25.975  1.00  0.00    -0.004 C 
HETATM   37  C19 UNL     1      18.357 -15.751  27.147  1.00  0.00     0.011 C 
HETATM   38  C20 UNL     1      18.441 -18.069  26.480  1.00  0.00     0.011 C 
ENDBRANCH  35  36
ENDBRANCH  12  35
BRANCH  13  39
HETATM   39  C22 UNL     1      18.373 -18.482  22.767  1.00  0.00     0.067 C 
BRANCH  39  40
HETATM   40  C23 UNL     1      19.810 -18.106  22.811  1.00  0.00    -0.017 C 
HETATM   41  C24 UNL     1      20.292 -17.959  21.335  1.00  0.00     0.010 C 
HETATM   42  C25 UNL     1      20.773 -19.071  23.417  1.00  0.00     0.010 C 
ENDBRANCH  39  40
ENDBRANCH  13  39
BRANCH   1  43
HETATM   43  C4  UNL     1      14.189 -16.534  19.414  1.00  0.00     0.039 C 
BRANCH  43  44
HETATM   44  C2  UNL     1      15.069 -16.174  18.254  1.00  0.00    -0.020 C 
HETATM   45  C1  UNL     1      14.798 -17.134  17.106  1.00  0.00     0.009 C 
HETATM   46  C3  UNL     1      14.674 -14.793  17.709  1.00  0.00     0.009 C 
ENDBRANCH  43  44
ENDBRANCH   1  43
TORSDOF 11
ENDMDL
MODEL 5
REMARK VINA RESULT: -7.413390756      2.861      6.798
REMARK  11 active torsions:
REMARK  status: ('A' for Active; 'I' for Inactive)
REMARK    1  A    between atoms: C2_2  and  C4_4 
REMARK    2  A    between atoms: C4_4  and  C5_5 
REMARK    3  A    between atoms: C7_10  and  C8_11 
REMARK    4  A    between atoms: C8_11  and  N2_12 
REMARK    5  A    between atoms: C11_19  and  C12_20 
REMARK    6  A    between atoms: C12_20  and  C13_21 
REMARK    7  A    between atoms: C15_27  and  N7_28 
REMARK    8  A    between atoms: N8_33  and  C17_34 
REMARK    9  A    between atoms: C17_34  and  C18_35 
REMARK   10  A    between atoms: C21_38  and  C22_39 
REMARK   11  A    between atoms: C22_39  and  C23_40 
ROOT
HETATM    1  C5  UNL     1      21.916 -14.570  24.580  1.00  0.00     0.179 C 
HETATM    2  C6  UNL     1      22.401 -13.882  23.361  1.00  0.00     0.241 C 
HETATM    3  O1  UNL     1      23.631 -13.530  23.335  1.00  0.00    -0.271 OA
HETATM    4  N1  UNL     1      21.542 -13.622  22.263  1.00  0.00    -0.346 N 
ATOM      5  H1  UNL     1      21.963 -13.700  21.337  1.00  0.00     0.163 HD
HETATM    6  C7  UNL     1      20.179 -13.269  22.295  1.00  0.00     0.172 C 
HETATM    7  C10 UNL     1      19.161 -14.264  22.539  1.00  0.00     0.164 C 
HETATM    8  O2  UNL     1      18.196 -13.845  23.240  1.00  0.00    -0.295 OA
HETATM    9  C11 UNL     1      19.004 -15.659  22.148  1.00  0.00     0.154 C 
HETATM   10  C16 UNL     1      20.177 -16.356  21.631  1.00  0.00     0.236 C 
HETATM   11  O3  UNL     1      20.533 -15.969  20.457  1.00  0.00    -0.272 OA
HETATM   12  N8  UNL     1      20.951 -17.399  22.275  1.00  0.00    -0.316 N 
HETATM   13  C21 UNL     1      20.893 -17.552  23.665  1.00  0.00     0.083 C 
HETATM   14  C26 UNL     1      22.042 -17.119  24.497  1.00  0.00     0.266 C 
HETATM   15  O4  UNL     1      22.642 -18.075  25.073  1.00  0.00    -0.266 OA
HETATM   16  N9  UNL     1      22.584 -15.854  24.762  1.00  0.00    -0.338 N 
HETATM   17  C27 UNL     1      23.961 -15.696  25.271  1.00  0.00     0.154 C 
ENDROOT
BRANCH   9  18
HETATM   18  C12 UNL     1      17.980 -15.715  20.986  1.00  0.00     0.065 C 
BRANCH  18  19
HETATM   19  C13 UNL     1      16.652 -16.129  21.391  1.00  0.00     0.005 A 
HETATM   20  C14 UNL     1      16.197 -17.424  21.469  1.00  0.00     0.118 A 
HETATM   21  N5  UNL     1      14.927 -17.373  21.889  1.00  0.00    -0.310 N 
HETATM   22  N6  UNL     1      14.542 -16.125  22.085  1.00  0.00    -0.286 N 
ATOM     23  H5  UNL     1      14.336 -18.190  22.038  1.00  0.00     0.186 HD
HETATM   24  C15 UNL     1      15.611 -15.329  21.779  1.00  0.00     0.121 A 
ATOM     25  H6  UNL     1      13.625 -15.815  22.404  1.00  0.00     0.188 HD
BRANCH  24  26
HETATM   26  N7  UNL     1      15.517 -14.048  21.880  1.00  0.00    -0.384 N 
ATOM     27  H72 UNL     1      16.235 -13.446  21.478  1.00  0.00     0.157 HD
ATOM     28  H71 UNL     1      14.810 -13.459  22.319  1.00  0.00     0.157 HD
ENDBRANCH  24  26
ENDBRANCH  18  19
ENDBRANCH   9  18
BRANCH   6  29
HETATM   29  C8  UNL     1      19.790 -12.506  21.015  1.00  0.00     0.154 C 
BRANCH  29  30
HETATM   30  N2  UNL     1      18.518 -11.837  21.200  1.00  0.00    -0.365 N 
HETATM   31  C9  UNL     1      17.685 -11.853  20.216  1.00  0.00     0.197 C 
HETATM   32  N3  UNL     1      16.439 -11.173  20.456  1.00  0.00    -0.067 NA
HETATM   33  N4  UNL     1      17.974 -12.489  18.997  1.00  0.00    -0.067 NA
ATOM     34  H2  UNL     1      18.290 -11.370  22.077  1.00  0.00     0.161 HD
ENDBRANCH  29  30
ENDBRANCH   6  29
BRANCH  12  35
HETATM   35  C17 UNL     1      21.695 -18.213  21.336  1.00  0.00     0.136 C 
BRANCH  35  36
HETATM   36  C18 UNL     1      21.139 -19.495  20.888  1.00  0.00    -0.004 C 
HETATM   37  C19 UNL     1      19.981 -19.573  20.002  1.00  0.00     0.011 C 
HETATM   38  C20 UNL     1      22.292 -20.246  20.182  1.00  0.00     0.011 C 
ENDBRANCH  35  36
ENDBRANCH  12  35
BRANCH  13  39
HETATM   39  C22 UNL     1      20.432 -18.855  24.243  1.00  0.00     0.067 C 
BRANCH  39  40
HETATM   40  C23 UNL     1      18.996 -19.019  24.590  1.00  0.00    -0.017 C 
HETATM   41  C24 UNL     1      18.302 -19.695  23.369  1.00  0.00     0.010 C 
HETATM   42  C25 UNL     1      18.186 -17.789  24.837  1.00  0.00     0.010 C 
ENDBRANCH  39  40
ENDBRANCH  13  39
BRANCH   1  43
HETATM   43  C4  UNL     1      22.116 -13.613  25.737  1.00  0.00     0.039 C 
BRANCH  43  44
HETATM   44  C2  UNL     1      20.823 -12.995  26.176  1.00  0.00    -0.020 C 
HETATM   45  C1  UNL     1      19.777 -14.088  26.337  1.00  0.00     0.009 C 
HETATM   46  C3  UNL     1      20.981 -12.397  27.582  1.00  0.00     0.009 C 
ENDBRANCH  43  44
ENDBRANCH   1  43
TORSDOF 11
ENDMDL
