MODEL 1
REMARK VINA RESULT: -8.458577700      0.000      0.000
REMARK  16 active torsions:
REMARK  status: ('A' for Active; 'I' for Inactive)
REMARK    1  A    between atoms: N1_1  and  C1_4 
REMARK    2  A    between atoms: C2_7  and  O1_8 
REMARK    3  A    between atoms: C3_10  and  C4_11 
REMARK    4  A    between atoms: N5_15  and  C5_16 
REMARK    5  A    between atoms: C5_16  and  C6_17 
REMARK    6  A    between atoms: C5_16  and  N6_23 
REMARK    7  A    between atoms: C6_17  and  O2_18 
REMARK    8  A    between atoms: C6_17  and  C7_20 
REMARK    9  A    between atoms: C7_20  and  O3_21 
REMARK   10  A    between atoms: C8_27  and  C9_28 
REMARK   11  A    between atoms: C9_28  and  O4_29 
REMARK   12  A    between atoms: O4_29  and  C10_30 
REMARK   13  A    between atoms: C12_34  and  N10_35 
REMARK   14  A    between atoms: C13_40  and  N12_41 
REMARK   15  A    between atoms: C14_46  and  O5_47 
REMARK   16  A    between atoms: O5_47  and  N14_48 
ROOT
HETATM    1  C5  UNL     1     -25.480   0.561 -19.143  1.00  0.00     0.277 C 
ENDROOT
BRANCH   1   2
HETATM    2  N5  UNL     1     -24.146   1.100 -18.969  1.00  0.00    -0.221 N 
HETATM    3  N4  UNL     1     -22.999   0.606 -19.417  1.00  0.00    -0.015 NA
HETATM    4  N3  UNL     1     -21.986   1.406 -19.043  1.00  0.00    -0.279 N 
HETATM    5  C4  UNL     1     -22.473   2.435 -18.343  1.00  0.00     0.118 A 
ATOM      6  H3  UNL     1     -21.000   1.252 -19.259  1.00  0.00     0.184 HD
HETATM    7  C14 UNL     1     -23.830   2.248 -18.294  1.00  0.00     0.216 A 
BRANCH   5   8
HETATM    8  C3  UNL     1     -21.742   3.534 -17.749  1.00  0.00     0.089 A 
HETATM    9  C2  UNL     1     -21.764   3.783 -16.380  1.00  0.00     0.171 A 
HETATM   10  N2  UNL     1     -21.080   4.807 -15.845  1.00  0.00    -0.170 N 
HETATM   11  C1  UNL     1     -20.345   5.627 -16.648  1.00  0.00     0.679 A 
ATOM     12  H2  UNL     1     -21.111   4.972 -14.838  1.00  0.00     0.186 HD
HETATM   13  N16 UNL     1     -20.326   5.383 -17.966  1.00  0.00    -0.178 N 
HETATM   14  C15 UNL     1     -20.990   4.377 -18.544  1.00  0.00     0.148 A 
ATOM     15  H16 UNL     1     -19.773   5.999 -18.562  1.00  0.00     0.185 HD
HETATM   16  N15 UNL     1     -20.955   4.138 -19.950  1.00  0.00    -0.081 NA
BRANCH   9  17
HETATM   17  O1  UNL     1     -22.525   2.931 -15.564  1.00  0.00    -0.345 OA
ATOM     18  H1  UNL     1     -23.430   3.139 -15.362  1.00  0.00     0.219 HD
ENDBRANCH   9  17
BRANCH  11  19
HETATM   19  N1  UNL     1     -19.680   6.621 -16.132  1.00  0.00    -0.234 N 
ATOM     20  H12 UNL     1     -19.061   6.488 -15.333  1.00  0.00     0.174 HD
ATOM     21  H11 UNL     1     -19.773   7.557 -16.526  1.00  0.00     0.174 HD
ENDBRANCH  11  19
ENDBRANCH   5   8
BRANCH   7  22
HETATM   22  O5  UNL     1     -24.735   3.087 -17.662  1.00  0.00    -0.223 OA
BRANCH  22  23
HETATM   23  N14 UNL     1     -25.208   2.817 -16.378  1.00  0.00    -0.303 N 
ATOM     24 2H14 UNL     1     -25.125   1.864 -16.025  1.00  0.00     0.184 HD
ATOM     25 1H14 UNL     1     -25.628   3.544 -15.799  1.00  0.00     0.184 HD
ENDBRANCH  22  23
ENDBRANCH   7  22
ENDBRANCH   1   2
BRANCH   1  26
HETATM   26  C6  UNL     1     -25.709  -0.660 -18.279  1.00  0.00     0.188 C 
BRANCH  26  27
HETATM   27  O2  UNL     1     -26.267  -1.704 -18.995  1.00  0.00    -0.389 OA
ATOM     28  H2  UNL     1     -26.402  -2.474 -18.454  1.00  0.00     0.210 HD
ENDBRANCH  26  27
BRANCH  26  29
HETATM   29  C7  UNL     1     -26.604  -0.370 -17.107  1.00  0.00     0.199 C 
BRANCH  29  30
HETATM   30  O3  UNL     1     -27.139   0.918 -17.322  1.00  0.00    -0.398 OA
ATOM     31  H3  UNL     1     -28.042   0.792 -17.589  1.00  0.00     0.209 HD
ENDBRANCH  29  30
ENDBRANCH  26  29
ENDBRANCH   1  26
BRANCH   1  32
HETATM   32  N6  UNL     1     -25.790   0.277 -20.528  1.00  0.00    -0.188 N 
HETATM   33  N7  UNL     1     -26.961   0.520 -21.106  1.00  0.00    -0.001 NA
HETATM   34  N8  UNL     1     -26.924   0.148 -22.374  1.00  0.00    -0.268 N 
HETATM   35  C8  UNL     1     -25.693  -0.353 -22.631  1.00  0.00     0.135 A 
ATOM     36  H8  UNL     1     -27.690   0.224 -23.043  1.00  0.00     0.185 HD
HETATM   37  N13 UNL     1     -25.030  -0.252 -21.466  1.00  0.00    -0.269 N 
ATOM     38  H13 UNL     1     -24.065  -0.548 -21.326  1.00  0.00     0.190 HD
BRANCH  35  39
HETATM   39  C9  UNL     1     -25.215  -0.886 -23.933  1.00  0.00     0.255 C 
BRANCH  39  40
HETATM   40  O4  UNL     1     -24.493   0.039 -24.688  1.00  0.00    -0.339 OA
BRANCH  40  41
HETATM   41  C10 UNL     1     -23.370  -0.232 -25.419  1.00  0.00     0.129 A 
HETATM   42  C11 UNL     1     -23.408  -0.801 -26.670  1.00  0.00     0.146 A 
HETATM   43  N9  UNL     1     -22.223  -1.025 -27.310  1.00  0.00    -0.199 N 
HETATM   44  C12 UNL     1     -21.048  -0.704 -26.750  1.00  0.00     0.677 A 
ATOM     45  H9  UNL     1     -22.232  -1.449 -28.239  1.00  0.00     0.183 HD
HETATM   46  N11 UNL     1     -21.036  -0.142 -25.516  1.00  0.00    -0.175 N 
HETATM   47  C13 UNL     1     -22.151   0.110 -24.822  1.00  0.00     0.149 A 
ATOM     48  H11 UNL     1     -20.137   0.099 -25.099  1.00  0.00     0.186 HD
BRANCH  44  49
HETATM   49  N10 UNL     1     -19.981  -0.949 -27.421  1.00  0.00    -0.234 N 
ATOM     50 2H10 UNL     1     -19.983  -1.456 -28.306  1.00  0.00     0.174 HD
ATOM     51 1H10 UNL     1     -19.095  -0.615 -27.042  1.00  0.00     0.174 HD
ENDBRANCH  44  49
BRANCH  47  52
HETATM   52  N12 UNL     1     -22.083   0.643 -23.655  1.00  0.00    -0.383 N 
ATOM     53 2H12 UNL     1     -22.263   0.084 -22.821  1.00  0.00     0.157 HD
ATOM     54 1H12 UNL     1     -21.850   1.627 -23.517  1.00  0.00     0.157 HD
ENDBRANCH  47  52
ENDBRANCH  40  41
ENDBRANCH  39  40
ENDBRANCH  35  39
ENDBRANCH   1  32
TORSDOF 16
ENDMDL
MODEL 2
REMARK VINA RESULT: -8.430195432      0.673      1.233
REMARK  16 active torsions:
REMARK  status: ('A' for Active; 'I' for Inactive)
REMARK    1  A    between atoms: N1_1  and  C1_4 
REMARK    2  A    between atoms: C2_7  and  O1_8 
REMARK    3  A    between atoms: C3_10  and  C4_11 
REMARK    4  A    between atoms: N5_15  and  C5_16 
REMARK    5  A    between atoms: C5_16  and  C6_17 
REMARK    6  A    between atoms: C5_16  and  N6_23 
REMARK    7  A    between atoms: C6_17  and  O2_18 
REMARK    8  A    between atoms: C6_17  and  C7_20 
REMARK    9  A    between atoms: C7_20  and  O3_21 
REMARK   10  A    between atoms: C8_27  and  C9_28 
REMARK   11  A    between atoms: C9_28  and  O4_29 
REMARK   12  A    between atoms: O4_29  and  C10_30 
REMARK   13  A    between atoms: C12_34  and  N10_35 
REMARK   14  A    between atoms: C13_40  and  N12_41 
REMARK   15  A    between atoms: C14_46  and  O5_47 
REMARK   16  A    between atoms: O5_47  and  N14_48 
ROOT
HETATM    1  C5  UNL     1     -25.569   0.519 -19.088  1.00  0.00     0.277 C 
ENDROOT
BRANCH   1   2
HETATM    2  N5  UNL     1     -24.229   1.051 -18.950  1.00  0.00    -0.221 N 
HETATM    3  N4  UNL     1     -23.098   0.554 -19.432  1.00  0.00    -0.015 NA
HETATM    4  N3  UNL     1     -22.070   1.349 -19.084  1.00  0.00    -0.279 N 
HETATM    5  C4  UNL     1     -22.534   2.377 -18.367  1.00  0.00     0.118 A 
ATOM      6  H3  UNL     1     -21.092   1.192 -19.328  1.00  0.00     0.184 HD
HETATM    7  C14 UNL     1     -23.889   2.196 -18.280  1.00  0.00     0.216 A 
BRANCH   5   8
HETATM    8  C3  UNL     1     -21.782   3.471 -17.789  1.00  0.00     0.089 A 
HETATM    9  C2  UNL     1     -21.773   3.722 -16.421  1.00  0.00     0.171 A 
HETATM   10  N2  UNL     1     -21.070   4.742 -15.902  1.00  0.00    -0.170 N 
HETATM   11  C1  UNL     1     -20.345   5.554 -16.721  1.00  0.00     0.679 A 
ATOM     12  H2  UNL     1     -21.079   4.909 -14.895  1.00  0.00     0.186 HD
HETATM   13  N16 UNL     1     -20.355   5.308 -18.039  1.00  0.00    -0.178 N 
HETATM   14  C15 UNL     1     -21.039   4.307 -18.602  1.00  0.00     0.148 A 
ATOM     15  H16 UNL     1     -19.810   5.919 -18.647  1.00  0.00     0.185 HD
HETATM   16  N15 UNL     1     -21.035   4.065 -20.007  1.00  0.00    -0.081 NA
BRANCH   9  17
HETATM   17  O1  UNL     1     -22.525   2.878 -15.588  1.00  0.00    -0.345 OA
ATOM     18  H1  UNL     1     -22.955   2.109 -15.943  1.00  0.00     0.219 HD
ENDBRANCH   9  17
BRANCH  11  19
HETATM   19  N1  UNL     1     -19.662   6.543 -16.220  1.00  0.00    -0.234 N 
ATOM     20  H12 UNL     1     -19.189   6.461 -15.320  1.00  0.00     0.174 HD
ATOM     21  H11 UNL     1     -19.590   7.424 -16.729  1.00  0.00     0.174 HD
ENDBRANCH  11  19
ENDBRANCH   5   8
BRANCH   7  22
HETATM   22  O5  UNL     1     -24.772   3.035 -17.619  1.00  0.00    -0.223 OA
BRANCH  22  23
HETATM   23  N14 UNL     1     -25.226   2.752 -16.331  1.00  0.00    -0.303 N 
ATOM     24 2H14 UNL     1     -26.067   3.226 -16.001  1.00  0.00     0.184 HD
ATOM     25 1H14 UNL     1     -24.740   2.090 -15.727  1.00  0.00     0.184 HD
ENDBRANCH  22  23
ENDBRANCH   7  22
ENDBRANCH   1   2
BRANCH   1  26
HETATM   26  C6  UNL     1     -25.792  -0.680 -18.192  1.00  0.00     0.188 C 
BRANCH  26  27
HETATM   27  O2  UNL     1     -26.348  -1.745 -18.878  1.00  0.00    -0.389 OA
ATOM     28  H2  UNL     1     -26.027  -2.581 -18.560  1.00  0.00     0.210 HD
ENDBRANCH  26  27
BRANCH  26  29
HETATM   29  C7  UNL     1     -26.685  -0.363 -17.025  1.00  0.00     0.199 C 
BRANCH  29  30
HETATM   30  O3  UNL     1     -27.187   0.936 -17.248  1.00  0.00    -0.398 OA
ATOM     31  H3  UNL     1     -27.670   1.176 -16.466  1.00  0.00     0.209 HD
ENDBRANCH  29  30
ENDBRANCH  26  29
ENDBRANCH   1  26
BRANCH   1  32
HETATM   32  N6  UNL     1     -25.906   0.205 -20.460  1.00  0.00    -0.188 N 
HETATM   33  N7  UNL     1     -27.001   0.623 -21.085  1.00  0.00    -0.001 NA
HETATM   34  N8  UNL     1     -27.015   0.165 -22.325  1.00  0.00    -0.268 N 
HETATM   35  C8  UNL     1     -25.897  -0.573 -22.515  1.00  0.00     0.135 A 
ATOM     36  H8  UNL     1     -27.742   0.339 -23.019  1.00  0.00     0.185 HD
HETATM   37  N13 UNL     1     -25.246  -0.521 -21.341  1.00  0.00    -0.269 N 
ATOM     38  H13 UNL     1     -24.356  -0.982 -21.155  1.00  0.00     0.190 HD
BRANCH  35  39
HETATM   39  C9  UNL     1     -25.508  -1.274 -23.766  1.00  0.00     0.255 C 
BRANCH  39  40
HETATM   40  O4  UNL     1     -25.116  -0.415 -24.793  1.00  0.00    -0.339 OA
BRANCH  40  41
HETATM   41  C10 UNL     1     -23.828  -0.080 -25.104  1.00  0.00     0.129 A 
HETATM   42  C11 UNL     1     -22.866   0.171 -24.154  1.00  0.00     0.146 A 
HETATM   43  N9  UNL     1     -21.611   0.495 -24.581  1.00  0.00    -0.199 N 
HETATM   44  C12 UNL     1     -21.306   0.569 -25.884  1.00  0.00     0.677 A 
ATOM     45  H9  UNL     1     -20.885   0.686 -23.889  1.00  0.00     0.183 HD
HETATM   46  N11 UNL     1     -22.270   0.316 -26.803  1.00  0.00    -0.175 N 
HETATM   47  C13 UNL     1     -23.525  -0.007 -26.469  1.00  0.00     0.149 A 
ATOM     48  H11 UNL     1     -22.029   0.374 -27.792  1.00  0.00     0.186 HD
BRANCH  44  49
HETATM   49  N10 UNL     1     -20.100   0.880 -26.198  1.00  0.00    -0.234 N 
ATOM     50 2H10 UNL     1     -19.827   1.815 -26.500  1.00  0.00     0.174 HD
ATOM     51 1H10 UNL     1     -19.391   0.150 -26.140  1.00  0.00     0.174 HD
ENDBRANCH  44  49
BRANCH  47  52
HETATM   52  N12 UNL     1     -24.400  -0.237 -27.381  1.00  0.00    -0.383 N 
ATOM     53 2H12 UNL     1     -25.394  -0.257 -27.149  1.00  0.00     0.157 HD
ATOM     54 1H12 UNL     1     -24.144  -0.405 -28.354  1.00  0.00     0.157 HD
ENDBRANCH  47  52
ENDBRANCH  40  41
ENDBRANCH  39  40
ENDBRANCH  35  39
ENDBRANCH   1  32
TORSDOF 16
ENDMDL
MODEL 3
REMARK VINA RESULT: -8.297554033      2.447      8.299
REMARK  16 active torsions:
REMARK  status: ('A' for Active; 'I' for Inactive)
REMARK    1  A    between atoms: N1_1  and  C1_4 
REMARK    2  A    between atoms: C2_7  and  O1_8 
REMARK    3  A    between atoms: C3_10  and  C4_11 
REMARK    4  A    between atoms: N5_15  and  C5_16 
REMARK    5  A    between atoms: C5_16  and  C6_17 
REMARK    6  A    between atoms: C5_16  and  N6_23 
REMARK    7  A    between atoms: C6_17  and  O2_18 
REMARK    8  A    between atoms: C6_17  and  C7_20 
REMARK    9  A    between atoms: C7_20  and  O3_21 
REMARK   10  A    between atoms: C8_27  and  C9_28 
REMARK   11  A    between atoms: C9_28  and  O4_29 
REMARK   12  A    between atoms: O4_29  and  C10_30 
REMARK   13  A    between atoms: C12_34  and  N10_35 
REMARK   14  A    between atoms: C13_40  and  N12_41 
REMARK   15  A    between atoms: C14_46  and  O5_47 
REMARK   16  A    between atoms: O5_47  and  N14_48 
ROOT
HETATM    1  C5  UNL     1     -23.212   2.243 -17.096  1.00  0.00     0.277 C 
ENDROOT
BRANCH   1   2
HETATM    2  N5  UNL     1     -22.676   2.381 -18.435  1.00  0.00    -0.221 N 
HETATM    3  N4  UNL     1     -21.983   3.395 -18.938  1.00  0.00    -0.015 NA
HETATM    4  N3  UNL     1     -21.668   3.135 -20.219  1.00  0.00    -0.279 N 
HETATM    5  C4  UNL     1     -22.160   1.940 -20.558  1.00  0.00     0.118 A 
ATOM      6  H3  UNL     1     -21.138   3.753 -20.834  1.00  0.00     0.184 HD
HETATM    7  C14 UNL     1     -22.793   1.461 -19.441  1.00  0.00     0.216 A 
BRANCH   5   8
HETATM    8  C3  UNL     1     -22.058   1.265 -21.835  1.00  0.00     0.089 A 
HETATM    9  C2  UNL     1     -23.150   1.120 -22.684  1.00  0.00     0.171 A 
HETATM   10  N2  UNL     1     -23.039   0.490 -23.866  1.00  0.00    -0.170 N 
HETATM   11  C1  UNL     1     -21.836  -0.020 -24.252  1.00  0.00     0.679 A 
ATOM     12  H2  UNL     1     -23.853   0.394 -24.473  1.00  0.00     0.186 HD
HETATM   13  N16 UNL     1     -20.786   0.123 -23.431  1.00  0.00    -0.178 N 
HETATM   14  C15 UNL     1     -20.848   0.739 -22.247  1.00  0.00     0.148 A 
ATOM     15  H16 UNL     1     -19.888  -0.261 -23.727  1.00  0.00     0.185 HD
HETATM   16  N15 UNL     1     -19.717   0.879 -21.390  1.00  0.00    -0.081 NA
BRANCH   9  17
HETATM   17  O1  UNL     1     -24.384   1.650 -22.274  1.00  0.00    -0.345 OA
ATOM     18  H1  UNL     1     -24.556   1.815 -21.354  1.00  0.00     0.219 HD
ENDBRANCH   9  17
BRANCH  11  19
HETATM   19  N1  UNL     1     -21.725  -0.630 -25.398  1.00  0.00    -0.234 N 
ATOM     20  H12 UNL     1     -22.051  -1.588 -25.524  1.00  0.00     0.174 HD
ATOM     21  H11 UNL     1     -21.304  -0.150 -26.193  1.00  0.00     0.174 HD
ENDBRANCH  11  19
ENDBRANCH   5   8
BRANCH   7  22
HETATM   22  O5  UNL     1     -23.448   0.242 -19.348  1.00  0.00    -0.223 OA
BRANCH  22  23
HETATM   23  N14 UNL     1     -24.759   0.081 -19.794  1.00  0.00    -0.303 N 
ATOM     24 2H14 UNL     1     -24.930   0.092 -20.799  1.00  0.00     0.184 HD
ATOM     25 1H14 UNL     1     -25.534  -0.046 -19.143  1.00  0.00     0.184 HD
ENDBRANCH  22  23
ENDBRANCH   7  22
ENDBRANCH   1   2
BRANCH   1  26
HETATM   26  C6  UNL     1     -24.725   2.283 -17.090  1.00  0.00     0.188 C 
BRANCH  26  27
HETATM   27  O2  UNL     1     -25.212   3.434 -16.496  1.00  0.00    -0.389 OA
ATOM     28  H2  UNL     1     -26.009   3.741 -16.913  1.00  0.00     0.210 HD
ENDBRANCH  26  27
BRANCH  26  29
HETATM   29  C7  UNL     1     -25.325   1.104 -16.378  1.00  0.00     0.199 C 
BRANCH  29  30
HETATM   30  O3  UNL     1     -24.537  -0.015 -16.723  1.00  0.00    -0.398 OA
ATOM     31  H3  UNL     1     -23.835  -0.057 -16.084  1.00  0.00     0.209 HD
ENDBRANCH  29  30
ENDBRANCH  26  29
ENDBRANCH   1  26
BRANCH   1  32
HETATM   32  N6  UNL     1     -22.668   3.218 -16.174  1.00  0.00    -0.188 N 
HETATM   33  N7  UNL     1     -22.707   3.110 -14.851  1.00  0.00    -0.001 NA
HETATM   34  N8  UNL     1     -22.128   4.162 -14.296  1.00  0.00    -0.268 N 
HETATM   35  C8  UNL     1     -21.700   4.979 -15.287  1.00  0.00     0.135 A 
ATOM     36  H8  UNL     1     -22.022   4.329 -13.295  1.00  0.00     0.185 HD
HETATM   37  N13 UNL     1     -22.054   4.357 -16.423  1.00  0.00    -0.269 N 
ATOM     38  H13 UNL     1     -21.871   4.719 -17.359  1.00  0.00     0.190 HD
BRANCH  35  39
HETATM   39  C9  UNL     1     -20.993   6.274 -15.114  1.00  0.00     0.255 C 
BRANCH  39  40
HETATM   40  O4  UNL     1     -19.799   6.362 -15.831  1.00  0.00    -0.339 OA
BRANCH  40  41
HETATM   41  C10 UNL     1     -19.520   7.280 -16.805  1.00  0.00     0.129 A 
HETATM   42  C11 UNL     1     -19.339   8.618 -16.546  1.00  0.00     0.146 A 
HETATM   43  N9  UNL     1     -19.062   9.444 -17.598  1.00  0.00    -0.199 N 
HETATM   44  C12 UNL     1     -18.966   8.980 -18.852  1.00  0.00     0.677 A 
ATOM     45  H9  UNL     1     -18.926  10.441 -17.424  1.00  0.00     0.183 HD
HETATM   46  N11 UNL     1     -19.147   7.657 -19.082  1.00  0.00    -0.175 N 
HETATM   47  C13 UNL     1     -19.422   6.781 -18.109  1.00  0.00     0.149 A 
ATOM     48  H11 UNL     1     -19.072   7.314 -20.040  1.00  0.00     0.186 HD
BRANCH  44  49
HETATM   49  N10 UNL     1     -18.703   9.826 -19.782  1.00  0.00    -0.234 N 
ATOM     50 2H10 UNL     1     -18.844  10.830 -19.678  1.00  0.00     0.174 HD
ATOM     51 1H10 UNL     1     -18.336   9.464 -20.662  1.00  0.00     0.174 HD
ENDBRANCH  44  49
BRANCH  47  52
HETATM   52  N12 UNL     1     -19.585   5.536 -18.383  1.00  0.00    -0.383 N 
ATOM     53 2H12 UNL     1     -20.409   5.225 -18.899  1.00  0.00     0.157 HD
ATOM     54 1H12 UNL     1     -18.913   4.822 -18.102  1.00  0.00     0.157 HD
ENDBRANCH  47  52
ENDBRANCH  40  41
ENDBRANCH  39  40
ENDBRANCH  35  39
ENDBRANCH   1  32
TORSDOF 16
ENDMDL
MODEL 4
REMARK VINA RESULT: -8.163835858      2.353      3.328
REMARK  16 active torsions:
REMARK  status: ('A' for Active; 'I' for Inactive)
REMARK    1  A    between atoms: N1_1  and  C1_4 
REMARK    2  A    between atoms: C2_7  and  O1_8 
REMARK    3  A    between atoms: C3_10  and  C4_11 
REMARK    4  A    between atoms: N5_15  and  C5_16 
REMARK    5  A    between atoms: C5_16  and  C6_17 
REMARK    6  A    between atoms: C5_16  and  N6_23 
REMARK    7  A    between atoms: C6_17  and  O2_18 
REMARK    8  A    between atoms: C6_17  and  C7_20 
REMARK    9  A    between atoms: C7_20  and  O3_21 
REMARK   10  A    between atoms: C8_27  and  C9_28 
REMARK   11  A    between atoms: C9_28  and  O4_29 
REMARK   12  A    between atoms: O4_29  and  C10_30 
REMARK   13  A    between atoms: C12_34  and  N10_35 
REMARK   14  A    between atoms: C13_40  and  N12_41 
REMARK   15  A    between atoms: C14_46  and  O5_47 
REMARK   16  A    between atoms: O5_47  and  N14_48 
ROOT
HETATM    1  C5  UNL     1     -25.460   0.615 -19.133  1.00  0.00     0.277 C 
ENDROOT
BRANCH   1   2
HETATM    2  N5  UNL     1     -24.136   1.162 -18.916  1.00  0.00    -0.221 N 
HETATM    3  N4  UNL     1     -22.977   0.700 -19.364  1.00  0.00    -0.015 NA
HETATM    4  N3  UNL     1     -21.979   1.497 -18.941  1.00  0.00    -0.279 N 
HETATM    5  C4  UNL     1     -22.491   2.490 -18.209  1.00  0.00     0.118 A 
ATOM      6  H3  UNL     1     -20.989   1.363 -19.147  1.00  0.00     0.184 HD
HETATM    7  C14 UNL     1     -23.846   2.286 -18.189  1.00  0.00     0.216 A 
BRANCH   5   8
HETATM    8  C3  UNL     1     -21.783   3.573 -17.558  1.00  0.00     0.089 A 
HETATM    9  C2  UNL     1     -21.823   3.761 -16.181  1.00  0.00     0.171 A 
HETATM   10  N2  UNL     1     -21.161   4.771 -15.593  1.00  0.00    -0.170 N 
HETATM   11  C1  UNL     1     -20.431   5.636 -16.352  1.00  0.00     0.679 A 
ATOM     12  H2  UNL     1     -21.205   4.891 -14.581  1.00  0.00     0.186 HD
HETATM   13  N16 UNL     1     -20.394   5.451 -17.679  1.00  0.00    -0.178 N 
HETATM   14  C15 UNL     1     -21.037   4.462 -18.308  1.00  0.00     0.148 A 
ATOM     15  H16 UNL     1     -19.845   6.102 -18.241  1.00  0.00     0.185 HD
HETATM   16  N15 UNL     1     -20.983   4.285 -19.722  1.00  0.00    -0.081 NA
BRANCH   9  17
HETATM   17  O1  UNL     1     -22.579   2.862 -15.411  1.00  0.00    -0.345 OA
ATOM     18  H1  UNL     1     -22.580   1.934 -15.615  1.00  0.00     0.219 HD
ENDBRANCH   9  17
BRANCH  11  19
HETATM   19  N1  UNL     1     -19.787   6.616 -15.784  1.00  0.00    -0.234 N 
ATOM     20  H12 UNL     1     -20.141   7.069 -14.943  1.00  0.00     0.174 HD
ATOM     21  H11 UNL     1     -18.907   6.947 -16.182  1.00  0.00     0.174 HD
ENDBRANCH  11  19
ENDBRANCH   5   8
BRANCH   7  22
HETATM   22  O5  UNL     1     -24.771   3.087 -17.539  1.00  0.00    -0.223 OA
BRANCH  22  23
HETATM   23  N14 UNL     1     -25.247   2.770 -16.267  1.00  0.00    -0.303 N 
ATOM     24 2H14 UNL     1     -24.697   3.066 -15.460  1.00  0.00     0.184 HD
ATOM     25 1H14 UNL     1     -26.118   2.257 -16.134  1.00  0.00     0.184 HD
ENDBRANCH  22  23
ENDBRANCH   7  22
ENDBRANCH   1   2
BRANCH   1  26
HETATM   26  C6  UNL     1     -25.694  -0.634 -18.312  1.00  0.00     0.188 C 
BRANCH  26  27
HETATM   27  O2  UNL     1     -26.258  -1.651 -19.062  1.00  0.00    -0.389 OA
ATOM     28  H2  UNL     1     -26.355  -2.452 -18.561  1.00  0.00     0.210 HD
ENDBRANCH  26  27
BRANCH  26  29
HETATM   29  C7  UNL     1     -26.584  -0.381 -17.128  1.00  0.00     0.199 C 
BRANCH  29  30
HETATM   30  O3  UNL     1     -27.148   0.898 -17.319  1.00  0.00    -0.398 OA
ATOM     31  H3  UNL     1     -26.893   1.176 -18.191  1.00  0.00     0.209 HD
ENDBRANCH  29  30
ENDBRANCH  26  29
ENDBRANCH   1  26
BRANCH   1  32
HETATM   32  N6  UNL     1     -25.739   0.371 -20.532  1.00  0.00    -0.188 N 
HETATM   33  N7  UNL     1     -26.917   0.568 -21.114  1.00  0.00    -0.001 NA
HETATM   34  N8  UNL     1     -26.845   0.251 -22.396  1.00  0.00    -0.268 N 
HETATM   35  C8  UNL     1     -25.585  -0.166 -22.657  1.00  0.00     0.135 A 
ATOM     36  H8  UNL     1     -27.608   0.310 -23.071  1.00  0.00     0.185 HD
HETATM   37  N13 UNL     1     -24.941  -0.075 -21.482  1.00  0.00    -0.269 N 
ATOM     38  H13 UNL     1     -23.961  -0.319 -21.341  1.00  0.00     0.190 HD
BRANCH  35  39
HETATM   39  C9  UNL     1     -25.063  -0.617 -23.973  1.00  0.00     0.255 C 
BRANCH  39  40
HETATM   40  O4  UNL     1     -25.199  -1.989 -24.191  1.00  0.00    -0.339 OA
BRANCH  40  41
HETATM   41  C10 UNL     1     -26.337  -2.620 -24.609  1.00  0.00     0.129 A 
HETATM   42  C11 UNL     1     -26.868  -2.459 -25.867  1.00  0.00     0.146 A 
HETATM   43  N9  UNL     1     -28.009  -3.142 -26.175  1.00  0.00    -0.199 N 
HETATM   44  C12 UNL     1     -28.608  -3.950 -25.290  1.00  0.00     0.677 A 
ATOM     45  H9  UNL     1     -28.417  -3.033 -27.104  1.00  0.00     0.183 HD
HETATM   46  N11 UNL     1     -28.066  -4.094 -24.055  1.00  0.00    -0.175 N 
HETATM   47  C13 UNL     1     -26.951  -3.462 -23.673  1.00  0.00     0.149 A 
ATOM     48  H11 UNL     1     -28.529  -4.712 -23.389  1.00  0.00     0.186 HD
BRANCH  44  49
HETATM   49  N10 UNL     1     -29.678  -4.555 -25.662  1.00  0.00    -0.234 N 
ATOM     50 2H10 UNL     1     -30.613  -4.239 -25.406  1.00  0.00     0.174 HD
ATOM     51 1H10 UNL     1     -29.575  -5.388 -26.240  1.00  0.00     0.174 HD
ENDBRANCH  44  49
BRANCH  47  52
HETATM   52  N12 UNL     1     -26.480  -3.634 -22.490  1.00  0.00    -0.383 N 
ATOM     53 2H12 UNL     1     -26.419  -2.849 -21.840  1.00  0.00     0.157 HD
ATOM     54 1H12 UNL     1     -26.155  -4.542 -22.158  1.00  0.00     0.157 HD
ENDBRANCH  47  52
ENDBRANCH  40  41
ENDBRANCH  39  40
ENDBRANCH  35  39
ENDBRANCH   1  32
TORSDOF 16
ENDMDL
MODEL 5
REMARK VINA RESULT: -8.146876642      2.593      8.329
REMARK  16 active torsions:
REMARK  status: ('A' for Active; 'I' for Inactive)
REMARK    1  A    between atoms: N1_1  and  C1_4 
REMARK    2  A    between atoms: C2_7  and  O1_8 
REMARK    3  A    between atoms: C3_10  and  C4_11 
REMARK    4  A    between atoms: N5_15  and  C5_16 
REMARK    5  A    between atoms: C5_16  and  C6_17 
REMARK    6  A    between atoms: C5_16  and  N6_23 
REMARK    7  A    between atoms: C6_17  and  O2_18 
REMARK    8  A    between atoms: C6_17  and  C7_20 
REMARK    9  A    between atoms: C7_20  and  O3_21 
REMARK   10  A    between atoms: C8_27  and  C9_28 
REMARK   11  A    between atoms: C9_28  and  O4_29 
REMARK   12  A    between atoms: O4_29  and  C10_30 
REMARK   13  A    between atoms: C12_34  and  N10_35 
REMARK   14  A    between atoms: C13_40  and  N12_41 
REMARK   15  A    between atoms: C14_46  and  O5_47 
REMARK   16  A    between atoms: O5_47  and  N14_48 
ROOT
HETATM    1  C5  UNL     1     -23.202   2.299 -16.932  1.00  0.00     0.277 C 
ENDROOT
BRANCH   1   2
HETATM    2  N5  UNL     1     -22.677   2.455 -18.273  1.00  0.00    -0.221 N 
HETATM    3  N4  UNL     1     -22.062   3.508 -18.794  1.00  0.00    -0.015 NA
HETATM    4  N3  UNL     1     -21.728   3.250 -20.071  1.00  0.00    -0.279 N 
HETATM    5  C4  UNL     1     -22.129   2.016 -20.389  1.00  0.00     0.118 A 
ATOM      6  H3  UNL     1     -21.245   3.895 -20.697  1.00  0.00     0.184 HD
HETATM    7  C14 UNL     1     -22.726   1.511 -19.264  1.00  0.00     0.216 A 
BRANCH   5   8
HETATM    8  C3  UNL     1     -21.977   1.329 -21.654  1.00  0.00     0.089 A 
HETATM    9  C2  UNL     1     -20.754   0.816 -22.076  1.00  0.00     0.171 A 
HETATM   10  N2  UNL     1     -20.630   0.182 -23.253  1.00  0.00    -0.170 N 
HETATM   11  C1  UNL     1     -21.718   0.029 -24.060  1.00  0.00     0.679 A 
ATOM     12  H2  UNL     1     -19.724  -0.186 -23.543  1.00  0.00     0.186 HD
HETATM   13  N16 UNL     1     -22.895   0.524 -23.650  1.00  0.00    -0.178 N 
HETATM   14  C15 UNL     1     -23.066   1.163 -22.489  1.00  0.00     0.148 A 
ATOM     15  H16 UNL     1     -23.705   0.406 -24.258  1.00  0.00     0.185 HD
HETATM   16  N15 UNL     1     -24.328   1.681 -22.073  1.00  0.00    -0.081 NA
BRANCH   9  17
HETATM   17  O1  UNL     1     -19.641   0.981 -21.235  1.00  0.00    -0.345 OA
ATOM     18  H1  UNL     1     -19.380   0.287 -20.641  1.00  0.00     0.219 HD
ENDBRANCH   9  17
BRANCH  11  19
HETATM   19  N1  UNL     1     -21.601  -0.587 -25.202  1.00  0.00    -0.234 N 
ATOM     20  H12 UNL     1     -20.695  -0.903 -25.545  1.00  0.00     0.174 HD
ATOM     21  H11 UNL     1     -22.427  -0.762 -25.775  1.00  0.00     0.174 HD
ENDBRANCH  11  19
ENDBRANCH   5   8
BRANCH   7  22
HETATM   22  O5  UNL     1     -23.287   0.249 -19.149  1.00  0.00    -0.223 OA
BRANCH  22  23
HETATM   23  N14 UNL     1     -24.582  -0.018 -19.592  1.00  0.00    -0.303 N 
ATOM     24 2H14 UNL     1     -24.999  -0.917 -19.348  1.00  0.00     0.184 HD
ATOM     25 1H14 UNL     1     -25.108   0.659 -20.145  1.00  0.00     0.184 HD
ENDBRANCH  22  23
ENDBRANCH   7  22
ENDBRANCH   1   2
BRANCH   1  26
HETATM   26  C6  UNL     1     -24.715   2.302 -16.917  1.00  0.00     0.188 C 
BRANCH  26  27
HETATM   27  O2  UNL     1     -25.228   3.461 -16.362  1.00  0.00    -0.389 OA
ATOM     28  H2  UNL     1     -26.042   3.724 -16.775  1.00  0.00     0.210 HD
ENDBRANCH  26  27
BRANCH  26  29
HETATM   29  C7  UNL     1     -25.281   1.135 -16.158  1.00  0.00     0.199 C 
BRANCH  29  30
HETATM   30  O3  UNL     1     -24.568  -0.004 -16.588  1.00  0.00    -0.398 OA
ATOM     31  H3  UNL     1     -23.662   0.136 -16.337  1.00  0.00     0.209 HD
ENDBRANCH  29  30
ENDBRANCH  26  29
ENDBRANCH   1  26
BRANCH   1  32
HETATM   32  N6  UNL     1     -22.677   3.285 -16.011  1.00  0.00    -0.188 N 
HETATM   33  N7  UNL     1     -22.719   3.180 -14.687  1.00  0.00    -0.001 NA
HETATM   34  N8  UNL     1     -22.159   4.243 -14.133  1.00  0.00    -0.268 N 
HETATM   35  C8  UNL     1     -21.741   5.064 -15.124  1.00  0.00     0.135 A 
ATOM     36  H8  UNL     1     -22.059   4.413 -13.132  1.00  0.00     0.185 HD
HETATM   37  N13 UNL     1     -22.081   4.433 -16.261  1.00  0.00    -0.269 N 
ATOM     38  H13 UNL     1     -21.901   4.796 -17.196  1.00  0.00     0.190 HD
BRANCH  35  39
HETATM   39  C9  UNL     1     -21.055   6.371 -14.952  1.00  0.00     0.255 C 
BRANCH  39  40
HETATM   40  O4  UNL     1     -19.837   6.459 -15.627  1.00  0.00    -0.339 OA
BRANCH  40  41
HETATM   41  C10 UNL     1     -19.549   7.329 -16.642  1.00  0.00     0.129 A 
HETATM   42  C11 UNL     1     -19.374   8.679 -16.447  1.00  0.00     0.146 A 
HETATM   43  N9  UNL     1     -19.088   9.453 -17.534  1.00  0.00    -0.199 N 
HETATM   44  C12 UNL     1     -18.976   8.929 -18.762  1.00  0.00     0.677 A 
ATOM     45  H9  UNL     1     -18.957  10.458 -17.408  1.00  0.00     0.183 HD
HETATM   46  N11 UNL     1     -19.152   7.595 -18.930  1.00  0.00    -0.175 N 
HETATM   47  C13 UNL     1     -19.435   6.767 -17.919  1.00  0.00     0.149 A 
ATOM     48  H11 UNL     1     -19.064   7.206 -19.869  1.00  0.00     0.186 HD
BRANCH  44  49
HETATM   49  N10 UNL     1     -18.705   9.729 -19.730  1.00  0.00    -0.234 N 
ATOM     50 2H10 UNL     1     -19.414  10.283 -20.210  1.00  0.00     0.174 HD
ATOM     51 1H10 UNL     1     -17.731   9.806 -20.023  1.00  0.00     0.174 HD
ENDBRANCH  44  49
BRANCH  47  52
HETATM   52  N12 UNL     1     -19.592   5.510 -18.133  1.00  0.00    -0.383 N 
ATOM     53 2H12 UNL     1     -19.909   4.895 -17.384  1.00  0.00     0.157 HD
ATOM     54 1H12 UNL     1     -19.410   5.085 -19.043  1.00  0.00     0.157 HD
ENDBRANCH  47  52
ENDBRANCH  40  41
ENDBRANCH  39  40
ENDBRANCH  35  39
ENDBRANCH   1  32
TORSDOF 16
ENDMDL
