MODEL 1
REMARK VINA RESULT: -9.191870741      0.000      0.000
REMARK  14 active torsions:
REMARK  status: ('A' for Active; 'I' for Inactive)
REMARK    1  A    between atoms: C2_2  and  O1_3 
REMARK    2  A    between atoms: C2_2  and  O2_5 
REMARK    3  A    between atoms: C2_2  and  C3_7 
REMARK    4  A    between atoms: N3_14  and  N4_15 
REMARK    5  A    between atoms: N4_15  and  N5_16 
REMARK    6  A    between atoms: N6_19  and  C6_20 
REMARK    7  A    between atoms: C6_20  and  C7_21 
REMARK    8  A    between atoms: C9_26  and  C10_27 
REMARK    9  A    between atoms: C10_27  and  O3_28 
REMARK   10  A    between atoms: C10_27  and  C11_30 
REMARK   11  A    between atoms: C10_27  and  C12_33 
REMARK   12  A    between atoms: C11_30  and  O4_31 
REMARK       I    between atoms: C12_33  and  N8_35 
REMARK   13  A    between atoms: N8_35  and  C13_37 
REMARK   14  A    between atoms: C13_37  and  C14_38 
ROOT
HETATM    1  C6  UNL     1     -21.041   4.242 -15.652  1.00  0.00     0.251 C 
ENDROOT
BRANCH   1   2
HETATM    2  N6  UNL     1     -22.174   3.554 -16.233  1.00  0.00    -0.191 N 
HETATM    3  N3  UNL     1     -23.346   3.527 -15.484  1.00  0.00    -0.144 N 
HETATM    4  C5  UNL     1     -24.550   2.887 -15.885  1.00  0.00     0.165 C 
HETATM    5  C4  UNL     1     -24.794   1.946 -17.001  1.00  0.00     0.122 C 
HETATM    6  N2  UNL     1     -25.609   3.137 -15.203  1.00  0.00    -0.381 N 
HETATM    7  C3  UNL     1     -23.953   1.699 -17.978  1.00  0.00     0.116 C 
HETATM    8  N1  UNL     1     -26.042   1.283 -16.972  1.00  0.00    -0.096 NA
HETATM    9  N12 UNL     1     -22.655   2.240 -18.216  1.00  0.00    -0.282 N 
HETATM   10  N11 UNL     1     -21.936   2.995 -17.502  1.00  0.00    -0.224 N 
ATOM     11  H12 UNL     1     -22.239   1.975 -19.110  1.00  0.00     0.188 HD
ATOM     12  H11 UNL     1     -21.035   3.238 -17.912  1.00  0.00     0.210 HD
ATOM     13  H22 UNL     1     -26.473   2.678 -15.490  1.00  0.00     0.157 HD
ATOM     14  H21 UNL     1     -25.440   3.785 -14.434  1.00  0.00     0.157 HD
BRANCH   3  15
HETATM   15  N4  UNL     1     -23.351   4.174 -14.243  1.00  0.00    -0.003 NA
BRANCH  15  16
HETATM   16  N5  UNL     1     -22.960   3.306 -13.241  1.00  0.00    -0.327 N 
ATOM     17  H52 UNL     1     -23.550   2.562 -12.870  1.00  0.00     0.174 HD
ATOM     18  H51 UNL     1     -22.010   3.517 -12.935  1.00  0.00     0.174 HD
ENDBRANCH  15  16
ENDBRANCH   3  15
BRANCH   7  19
HETATM   19  C2  UNL     1     -24.378   0.722 -19.006  1.00  0.00     0.203 C 
HETATM   20  C1  UNL     1     -23.269   0.599 -20.061  1.00  0.00     0.086 C 
BRANCH  19  21
HETATM   21  O1  UNL     1     -24.586  -0.554 -18.420  1.00  0.00    -0.361 OA
ATOM     22  H1  UNL     1     -23.743  -0.918 -18.180  1.00  0.00     0.213 HD
ENDBRANCH  19  21
BRANCH  19  23
HETATM   23  O2  UNL     1     -25.549   1.027 -19.658  1.00  0.00    -0.361 OA
ATOM     24  H2  UNL     1     -26.270   0.746 -19.109  1.00  0.00     0.213 HD
ENDBRANCH  19  23
ENDBRANCH   7  19
ENDBRANCH   1   2
BRANCH   1  25
HETATM   25  C7  UNL     1     -20.404   5.215 -16.576  1.00  0.00     0.120 A 
HETATM   26  N7  UNL     1     -20.170   6.505 -16.272  1.00  0.00    -0.322 N 
HETATM   27  C8  UNL     1     -19.576   7.046 -17.385  1.00  0.00     0.171 A 
ATOM     28  H7  UNL     1     -20.387   6.981 -15.396  1.00  0.00     0.169 HD
HETATM   29  S1  UNL     1     -18.908   8.450 -18.088  1.00  0.00    -0.051 SA
HETATM   30  N9  UNL     1     -19.443   6.137 -18.344  1.00  0.00    -0.242 N 
HETATM   31  C9  UNL     1     -18.482   7.798 -19.604  1.00  0.00     0.049 A 
HETATM   32  C15 UNL     1     -18.891   6.496 -19.478  1.00  0.00     0.137 A 
HETATM   33  N10 UNL     1     -19.970   5.007 -17.805  1.00  0.00    -0.279 N 
ATOM     34  H10 UNL     1     -20.023   4.110 -18.288  1.00  0.00     0.189 HD
BRANCH  31  35
HETATM   35  C10 UNL     1     -17.826   8.452 -20.792  1.00  0.00     0.194 C 
BRANCH  35  36
HETATM   36  O3  UNL     1     -18.863   8.781 -21.678  1.00  0.00    -0.373 OA
ATOM     37  H3  UNL     1     -19.175   7.958 -22.036  1.00  0.00     0.211 HD
ENDBRANCH  35  36
BRANCH  35  38
HETATM   38  C11 UNL     1     -17.134   9.716 -20.399  1.00  0.00     0.217 C 
BRANCH  38  39
HETATM   39  O4  UNL     1     -17.995  10.774 -20.569  1.00  0.00    -0.397 OA
ATOM     40  H4  UNL     1     -18.057  11.260 -19.754  1.00  0.00     0.209 HD
ENDBRANCH  38  39
ENDBRANCH  35  38
BRANCH  35  41
HETATM   41  C12 UNL     1     -16.921   7.531 -21.484  1.00  0.00     0.260 C 
HETATM   42  O5  UNL     1     -17.390   6.630 -22.245  1.00  0.00    -0.270 OA
HETATM   43  N8  UNL     1     -15.506   7.588 -21.354  1.00  0.00    -0.357 N 
ATOM     44  H8  UNL     1     -15.099   8.303 -20.750  1.00  0.00     0.162 HD
BRANCH  43  45
HETATM   45  C13 UNL     1     -14.621   6.674 -22.040  1.00  0.00     0.133 C 
BRANCH  45  46
HETATM   46  C14 UNL     1     -13.325   6.590 -21.270  1.00  0.00     0.105 C 
HETATM   47  S2  UNL     1     -12.853   4.906 -20.881  1.00  0.00    -0.096 SA
ENDBRANCH  45  46
ENDBRANCH  43  45
ENDBRANCH  35  41
ENDBRANCH  31  35
ENDBRANCH   1  25
TORSDOF 14
ENDMDL
MODEL 2
REMARK VINA RESULT: -9.131033678      1.108      1.231
REMARK  14 active torsions:
REMARK  status: ('A' for Active; 'I' for Inactive)
REMARK    1  A    between atoms: C2_2  and  O1_3 
REMARK    2  A    between atoms: C2_2  and  O2_5 
REMARK    3  A    between atoms: C2_2  and  C3_7 
REMARK    4  A    between atoms: N3_14  and  N4_15 
REMARK    5  A    between atoms: N4_15  and  N5_16 
REMARK    6  A    between atoms: N6_19  and  C6_20 
REMARK    7  A    between atoms: C6_20  and  C7_21 
REMARK    8  A    between atoms: C9_26  and  C10_27 
REMARK    9  A    between atoms: C10_27  and  O3_28 
REMARK   10  A    between atoms: C10_27  and  C11_30 
REMARK   11  A    between atoms: C10_27  and  C12_33 
REMARK   12  A    between atoms: C11_30  and  O4_31 
REMARK       I    between atoms: C12_33  and  N8_35 
REMARK   13  A    between atoms: N8_35  and  C13_37 
REMARK   14  A    between atoms: C13_37  and  C14_38 
ROOT
HETATM    1  C6  UNL     1     -21.164   4.579 -14.783  1.00  0.00     0.251 C 
ENDROOT
BRANCH   1   2
HETATM    2  N6  UNL     1     -22.297   3.835 -15.288  1.00  0.00    -0.191 N 
HETATM    3  N3  UNL     1     -23.333   3.583 -14.395  1.00  0.00    -0.144 N 
HETATM    4  C5  UNL     1     -24.514   2.857 -14.706  1.00  0.00     0.165 C 
HETATM    5  C4  UNL     1     -24.830   2.029 -15.892  1.00  0.00     0.122 C 
HETATM    6  N2  UNL     1     -25.477   2.899 -13.857  1.00  0.00    -0.381 N 
HETATM    7  C3  UNL     1     -24.126   1.998 -16.999  1.00  0.00     0.116 C 
HETATM    8  N1  UNL     1     -25.987   1.225 -15.778  1.00  0.00    -0.096 NA
HETATM    9  N12 UNL     1     -22.940   2.712 -17.341  1.00  0.00    -0.282 N 
HETATM   10  N11 UNL     1     -22.200   3.458 -16.640  1.00  0.00    -0.224 N 
ATOM     11  H12 UNL     1     -22.640   2.603 -18.310  1.00  0.00     0.188 HD
ATOM     12  H11 UNL     1     -21.400   3.852 -17.134  1.00  0.00     0.210 HD
ATOM     13  H22 UNL     1     -26.325   2.379 -14.081  1.00  0.00     0.157 HD
ATOM     14  H21 UNL     1     -25.260   3.470 -13.040  1.00  0.00     0.157 HD
BRANCH   3  15
HETATM   15  N4  UNL     1     -23.214   4.077 -13.090  1.00  0.00    -0.003 NA
BRANCH  15  16
HETATM   16  N5  UNL     1     -23.665   5.381 -13.021  1.00  0.00    -0.327 N 
ATOM     17  H52 UNL     1     -24.633   5.640 -12.833  1.00  0.00     0.174 HD
ATOM     18  H51 UNL     1     -22.899   6.035 -13.184  1.00  0.00     0.174 HD
ENDBRANCH  15  16
ENDBRANCH   3  15
BRANCH   7  19
HETATM   19  C2  UNL     1     -24.603   1.103 -18.078  1.00  0.00     0.203 C 
HETATM   20  C1  UNL     1     -23.706   1.292 -19.311  1.00  0.00     0.086 C 
BRANCH  19  21
HETATM   21  O1  UNL     1     -24.525  -0.253 -17.667  1.00  0.00    -0.361 OA
ATOM     22  H1  UNL     1     -23.779  -0.352 -17.088  1.00  0.00     0.213 HD
ENDBRANCH  19  21
BRANCH  19  23
HETATM   23  O2  UNL     1     -25.906   1.298 -18.471  1.00  0.00    -0.361 OA
ATOM     24  H2  UNL     1     -26.368   1.711 -17.751  1.00  0.00     0.213 HD
ENDBRANCH  19  23
ENDBRANCH   7  19
ENDBRANCH   1   2
BRANCH   1  25
HETATM   25  C7  UNL     1     -20.547   5.475 -15.796  1.00  0.00     0.120 A 
HETATM   26  N7  UNL     1     -20.403   6.804 -15.642  1.00  0.00    -0.322 N 
HETATM   27  C8  UNL     1     -19.797   7.246 -16.792  1.00  0.00     0.171 A 
ATOM     28  H7  UNL     1     -20.685   7.366 -14.838  1.00  0.00     0.169 HD
HETATM   29  S1  UNL     1     -19.184   8.597 -17.636  1.00  0.00    -0.051 SA
HETATM   30  N9  UNL     1     -19.571   6.240 -17.628  1.00  0.00    -0.242 N 
HETATM   31  C9  UNL     1     -18.658   7.798 -19.046  1.00  0.00     0.049 A 
HETATM   32  C15 UNL     1     -18.993   6.496 -18.778  1.00  0.00     0.137 A 
HETATM   33  N10 UNL     1     -20.051   5.150 -16.975  1.00  0.00    -0.279 N 
ATOM     34  H10 UNL     1     -20.030   4.202 -17.348  1.00  0.00     0.189 HD
BRANCH  31  35
HETATM   35  C10 UNL     1     -17.993   8.347 -20.282  1.00  0.00     0.194 C 
BRANCH  35  36
HETATM   36  O3  UNL     1     -18.450   7.563 -21.351  1.00  0.00    -0.373 OA
ATOM     37  H3  UNL     1     -18.408   8.118 -22.122  1.00  0.00     0.211 HD
ENDBRANCH  35  36
BRANCH  35  38
HETATM   38  C11 UNL     1     -18.406   9.760 -20.534  1.00  0.00     0.217 C 
BRANCH  38  39
HETATM   39  O4  UNL     1     -17.284  10.545 -20.651  1.00  0.00    -0.397 OA
ATOM     40  H4  UNL     1     -17.312  11.231 -19.993  1.00  0.00     0.209 HD
ENDBRANCH  38  39
ENDBRANCH  35  38
BRANCH  35  41
HETATM   41  C12 UNL     1     -16.536   8.211 -20.217  1.00  0.00     0.260 C 
HETATM   42  O5  UNL     1     -15.921   8.471 -19.138  1.00  0.00    -0.270 OA
HETATM   43  N8  UNL     1     -15.745   7.791 -21.321  1.00  0.00    -0.357 N 
ATOM     44  H8  UNL     1     -16.211   7.573 -22.202  1.00  0.00     0.162 HD
BRANCH  43  45
HETATM   45  C13 UNL     1     -14.307   7.661 -21.248  1.00  0.00     0.133 C 
BRANCH  45  46
HETATM   46  C14 UNL     1     -13.904   6.378 -21.933  1.00  0.00     0.105 C 
HETATM   47  S2  UNL     1     -12.853   5.344 -20.916  1.00  0.00    -0.096 SA
ENDBRANCH  45  46
ENDBRANCH  43  45
ENDBRANCH  35  41
ENDBRANCH  31  35
ENDBRANCH   1  25
TORSDOF 14
ENDMDL
MODEL 3
REMARK VINA RESULT: -8.433203976      5.434      8.543
REMARK  14 active torsions:
REMARK  status: ('A' for Active; 'I' for Inactive)
REMARK    1  A    between atoms: C2_2  and  O1_3 
REMARK    2  A    between atoms: C2_2  and  O2_5 
REMARK    3  A    between atoms: C2_2  and  C3_7 
REMARK    4  A    between atoms: N3_14  and  N4_15 
REMARK    5  A    between atoms: N4_15  and  N5_16 
REMARK    6  A    between atoms: N6_19  and  C6_20 
REMARK    7  A    between atoms: C6_20  and  C7_21 
REMARK    8  A    between atoms: C9_26  and  C10_27 
REMARK    9  A    between atoms: C10_27  and  O3_28 
REMARK   10  A    between atoms: C10_27  and  C11_30 
REMARK   11  A    between atoms: C10_27  and  C12_33 
REMARK   12  A    between atoms: C11_30  and  O4_31 
REMARK       I    between atoms: C12_33  and  N8_35 
REMARK   13  A    between atoms: N8_35  and  C13_37 
REMARK   14  A    between atoms: C13_37  and  C14_38 
ROOT
HETATM    1  C6  UNL     1     -20.736   3.085 -18.432  1.00  0.00     0.251 C 
ENDROOT
BRANCH   1   2
HETATM    2  N6  UNL     1     -21.232   3.797 -17.275  1.00  0.00    -0.191 N 
HETATM    3  N3  UNL     1     -20.536   4.940 -16.893  1.00  0.00    -0.144 N 
HETATM    4  C5  UNL     1     -20.865   5.755 -15.777  1.00  0.00     0.165 C 
HETATM    5  C4  UNL     1     -21.809   5.499 -14.665  1.00  0.00     0.122 C 
HETATM    6  N2  UNL     1     -20.279   6.894 -15.681  1.00  0.00    -0.381 N 
HETATM    7  C3  UNL     1     -22.693   4.530 -14.634  1.00  0.00     0.116 C 
HETATM    8  N1  UNL     1     -21.713   6.391 -13.573  1.00  0.00    -0.096 NA
HETATM    9  N12 UNL     1     -22.972   3.524 -15.606  1.00  0.00    -0.282 N 
HETATM   10  N11 UNL     1     -22.372   3.231 -16.678  1.00  0.00    -0.224 N 
ATOM     11  H12 UNL     1     -23.788   2.947 -15.401  1.00  0.00     0.188 HD
ATOM     12  H11 UNL     1     -22.783   2.455 -17.198  1.00  0.00     0.210 HD
ATOM     13  H22 UNL     1     -20.516   7.479 -14.880  1.00  0.00     0.157 HD
ATOM     14  H21 UNL     1     -19.630   7.070 -16.447  1.00  0.00     0.157 HD
BRANCH   3  15
HETATM   15  N4  UNL     1     -19.428   5.324 -17.658  1.00  0.00    -0.003 NA
BRANCH  15  16
HETATM   16  N5  UNL     1     -19.828   6.049 -18.764  1.00  0.00    -0.327 N 
ATOM     17  H52 UNL     1     -20.761   5.993 -19.173  1.00  0.00     0.174 HD
ATOM     18  H51 UNL     1     -19.067   6.637 -19.102  1.00  0.00     0.174 HD
ENDBRANCH  15  16
ENDBRANCH   3  15
BRANCH   7  19
HETATM   19  C2  UNL     1     -23.550   4.435 -13.430  1.00  0.00     0.203 C 
HETATM   20  C1  UNL     1     -24.761   3.547 -13.753  1.00  0.00     0.086 C 
BRANCH  19  21
HETATM   21  O1  UNL     1     -22.832   3.848 -12.356  1.00  0.00    -0.361 OA
ATOM     22  H1  UNL     1     -22.074   4.388 -12.168  1.00  0.00     0.213 HD
ENDBRANCH  19  21
BRANCH  19  23
HETATM   23  O2  UNL     1     -24.023   5.634 -12.949  1.00  0.00    -0.361 OA
ATOM     24  H2  UNL     1     -23.721   6.321 -13.532  1.00  0.00     0.213 HD
ENDBRANCH  19  23
ENDBRANCH   7  19
ENDBRANCH   1   2
BRANCH   1  25
HETATM   25  C7  UNL     1     -21.815   2.561 -19.310  1.00  0.00     0.120 A 
HETATM   26  N7  UNL     1     -22.575   3.328 -20.112  1.00  0.00    -0.322 N 
HETATM   27  C8  UNL     1     -23.437   2.464 -20.742  1.00  0.00     0.171 A 
ATOM     28  H7  UNL     1     -22.523   4.340 -20.229  1.00  0.00     0.169 HD
HETATM   29  S1  UNL     1     -24.717   2.310 -21.860  1.00  0.00    -0.051 SA
HETATM   30  N9  UNL     1     -23.226   1.212 -20.352  1.00  0.00    -0.242 N 
HETATM   31  C9  UNL     1     -24.927   0.620 -21.775  1.00  0.00     0.049 A 
HETATM   32  C15 UNL     1     -23.969   0.260 -20.864  1.00  0.00     0.137 A 
HETATM   33  N10 UNL     1     -22.206   1.310 -19.459  1.00  0.00    -0.279 N 
ATOM     34  H10 UNL     1     -21.796   0.517 -18.967  1.00  0.00     0.189 HD
BRANCH  31  35
HETATM   35  C10 UNL     1     -25.899  -0.274 -22.500  1.00  0.00     0.194 C 
BRANCH  35  36
HETATM   36  O3  UNL     1     -25.898  -1.493 -21.807  1.00  0.00    -0.373 OA
ATOM     37  H3  UNL     1     -26.709  -1.930 -22.039  1.00  0.00     0.211 HD
ENDBRANCH  35  36
BRANCH  35  38
HETATM   38  C11 UNL     1     -27.284   0.284 -22.452  1.00  0.00     0.217 C 
BRANCH  38  39
HETATM   39  O4  UNL     1     -28.188  -0.732 -22.650  1.00  0.00    -0.397 OA
ATOM     40  H4  UNL     1     -28.005  -1.437 -22.039  1.00  0.00     0.209 HD
ENDBRANCH  38  39
ENDBRANCH  35  38
BRANCH  35  41
HETATM   41  C12 UNL     1     -25.468  -0.539 -23.875  1.00  0.00     0.260 C 
HETATM   42  O5  UNL     1     -26.281  -1.040 -24.710  1.00  0.00    -0.270 OA
HETATM   43  N8  UNL     1     -24.156  -0.257 -24.345  1.00  0.00    -0.357 N 
ATOM     44  H8  UNL     1     -23.481   0.149 -23.697  1.00  0.00     0.162 HD
BRANCH  43  45
HETATM   45  C13 UNL     1     -23.740  -0.523 -25.704  1.00  0.00     0.133 C 
BRANCH  45  46
HETATM   46  C14 UNL     1     -22.399   0.133 -25.933  1.00  0.00     0.105 C 
HETATM   47  S2  UNL     1     -21.357   0.116 -24.477  1.00  0.00    -0.096 SA
ENDBRANCH  45  46
ENDBRANCH  43  45
ENDBRANCH  35  41
ENDBRANCH  31  35
ENDBRANCH   1  25
TORSDOF 14
ENDMDL
MODEL 4
REMARK VINA RESULT: -8.414020857      0.942      1.167
REMARK  14 active torsions:
REMARK  status: ('A' for Active; 'I' for Inactive)
REMARK    1  A    between atoms: C2_2  and  O1_3 
REMARK    2  A    between atoms: C2_2  and  O2_5 
REMARK    3  A    between atoms: C2_2  and  C3_7 
REMARK    4  A    between atoms: N3_14  and  N4_15 
REMARK    5  A    between atoms: N4_15  and  N5_16 
REMARK    6  A    between atoms: N6_19  and  C6_20 
REMARK    7  A    between atoms: C6_20  and  C7_21 
REMARK    8  A    between atoms: C9_26  and  C10_27 
REMARK    9  A    between atoms: C10_27  and  O3_28 
REMARK   10  A    between atoms: C10_27  and  C11_30 
REMARK   11  A    between atoms: C10_27  and  C12_33 
REMARK   12  A    between atoms: C11_30  and  O4_31 
REMARK       I    between atoms: C12_33  and  N8_35 
REMARK   13  A    between atoms: N8_35  and  C13_37 
REMARK   14  A    between atoms: C13_37  and  C14_38 
ROOT
HETATM    1  C6  UNL     1     -21.199   4.164 -15.420  1.00  0.00     0.251 C 
ENDROOT
BRANCH   1   2
HETATM    2  N6  UNL     1     -22.275   3.515 -16.138  1.00  0.00    -0.191 N 
HETATM    3  N3  UNL     1     -23.504   3.436 -15.493  1.00  0.00    -0.144 N 
HETATM    4  C5  UNL     1     -24.666   2.822 -16.034  1.00  0.00     0.165 C 
HETATM    5  C4  UNL     1     -24.811   1.957 -17.226  1.00  0.00     0.122 C 
HETATM    6  N2  UNL     1     -25.780   3.024 -15.427  1.00  0.00    -0.381 N 
HETATM    7  C3  UNL     1     -23.890   1.777 -18.143  1.00  0.00     0.116 C 
HETATM    8  N1  UNL     1     -26.053   1.292 -17.344  1.00  0.00    -0.096 NA
HETATM    9  N12 UNL     1     -22.580   2.335 -18.237  1.00  0.00    -0.282 N 
HETATM   10  N11 UNL     1     -21.929   3.041 -17.417  1.00  0.00    -0.224 N 
ATOM     11  H12 UNL     1     -22.090   2.130 -19.108  1.00  0.00     0.188 HD
ATOM     12  H11 UNL     1     -20.998   3.312 -17.733  1.00  0.00     0.210 HD
ATOM     13  H22 UNL     1     -26.614   2.584 -15.815  1.00  0.00     0.157 HD
ATOM     14  H21 UNL     1     -25.681   3.621 -14.605  1.00  0.00     0.157 HD
BRANCH   3  15
HETATM   15  N4  UNL     1     -23.617   3.999 -14.216  1.00  0.00    -0.003 NA
BRANCH  15  16
HETATM   16  N5  UNL     1     -23.184   3.109 -13.252  1.00  0.00    -0.327 N 
ATOM     17  H52 UNL     1     -22.602   2.295 -13.450  1.00  0.00     0.174 HD
ATOM     18  H51 UNL     1     -23.525   3.383 -12.331  1.00  0.00     0.174 HD
ENDBRANCH  15  16
ENDBRANCH   3  15
BRANCH   7  19
HETATM   19  C2  UNL     1     -24.221   0.869 -19.265  1.00  0.00     0.203 C 
HETATM   20  C1  UNL     1     -23.039   0.841 -20.245  1.00  0.00     0.086 C 
BRANCH  19  21
HETATM   21  O1  UNL     1     -24.443  -0.448 -18.787  1.00  0.00    -0.361 OA
ATOM     22  H1  UNL     1     -24.370  -0.443 -17.841  1.00  0.00     0.213 HD
ENDBRANCH  19  21
BRANCH  19  23
HETATM   23  O2  UNL     1     -25.350   1.202 -19.976  1.00  0.00    -0.361 OA
ATOM     24  H2  UNL     1     -25.147   1.120 -20.900  1.00  0.00     0.213 HD
ENDBRANCH  19  23
ENDBRANCH   7  19
ENDBRANCH   1   2
BRANCH   1  25
HETATM   25  C7  UNL     1     -20.522   5.228 -16.207  1.00  0.00     0.120 A 
HETATM   26  N7  UNL     1     -20.554   6.536 -15.894  1.00  0.00    -0.322 N 
HETATM   27  C8  UNL     1     -19.814   7.166 -16.863  1.00  0.00     0.171 A 
ATOM     28  H7  UNL     1     -21.028   6.968 -15.101  1.00  0.00     0.169 HD
HETATM   29  S1  UNL     1     -19.220   8.659 -17.438  1.00  0.00    -0.051 SA
HETATM   30  N9  UNL     1     -19.339   6.294 -17.744  1.00  0.00    -0.242 N 
HETATM   31  C9  UNL     1     -18.376   8.087 -18.805  1.00  0.00     0.049 A 
HETATM   32  C15 UNL     1     -18.607   6.738 -18.737  1.00  0.00     0.137 A 
HETATM   33  N10 UNL     1     -19.800   5.094 -17.304  1.00  0.00    -0.279 N 
ATOM     34  H10 UNL     1     -19.612   4.203 -17.762  1.00  0.00     0.189 HD
BRANCH  31  35
HETATM   35  C10 UNL     1     -17.576   8.839 -19.836  1.00  0.00     0.194 C 
BRANCH  35  36
HETATM   36  O3  UNL     1     -18.204  10.084 -19.985  1.00  0.00    -0.373 OA
ATOM     37  H3  UNL     1     -18.254  10.245 -20.920  1.00  0.00     0.211 HD
ENDBRANCH  35  36
BRANCH  35  38
HETATM   38  C11 UNL     1     -16.179   9.079 -19.366  1.00  0.00     0.217 C 
BRANCH  38  39
HETATM   39  O4  UNL     1     -15.455   9.664 -20.378  1.00  0.00    -0.397 OA
ATOM     40  H4  UNL     1     -14.656  10.033 -20.019  1.00  0.00     0.209 HD
ENDBRANCH  38  39
ENDBRANCH  35  38
BRANCH  35  41
HETATM   41  C12 UNL     1     -17.602   8.165 -21.137  1.00  0.00     0.260 C 
HETATM   42  O5  UNL     1     -18.559   8.375 -21.943  1.00  0.00    -0.270 OA
HETATM   43  N8  UNL     1     -16.589   7.264 -21.565  1.00  0.00    -0.357 N 
ATOM     44  H8  UNL     1     -15.805   7.076 -20.939  1.00  0.00     0.162 HD
BRANCH  43  45
HETATM   45  C13 UNL     1     -16.624   6.603 -22.850  1.00  0.00     0.133 C 
BRANCH  45  46
HETATM   46  C14 UNL     1     -15.206   6.420 -23.336  1.00  0.00     0.105 C 
HETATM   47  S2  UNL     1     -13.987   6.724 -22.059  1.00  0.00    -0.096 SA
ENDBRANCH  45  46
ENDBRANCH  43  45
ENDBRANCH  35  41
ENDBRANCH  31  35
ENDBRANCH   1  25
TORSDOF 14
ENDMDL
MODEL 5
REMARK VINA RESULT: -8.377642629      5.494      9.241
REMARK  14 active torsions:
REMARK  status: ('A' for Active; 'I' for Inactive)
REMARK    1  A    between atoms: C2_2  and  O1_3 
REMARK    2  A    between atoms: C2_2  and  O2_5 
REMARK    3  A    between atoms: C2_2  and  C3_7 
REMARK    4  A    between atoms: N3_14  and  N4_15 
REMARK    5  A    between atoms: N4_15  and  N5_16 
REMARK    6  A    between atoms: N6_19  and  C6_20 
REMARK    7  A    between atoms: C6_20  and  C7_21 
REMARK    8  A    between atoms: C9_26  and  C10_27 
REMARK    9  A    between atoms: C10_27  and  O3_28 
REMARK   10  A    between atoms: C10_27  and  C11_30 
REMARK   11  A    between atoms: C10_27  and  C12_33 
REMARK   12  A    between atoms: C11_30  and  O4_31 
REMARK       I    between atoms: C12_33  and  N8_35 
REMARK   13  A    between atoms: N8_35  and  C13_37 
REMARK   14  A    between atoms: C13_37  and  C14_38 
ROOT
HETATM    1  C6  UNL     1     -20.844   3.090 -18.475  1.00  0.00     0.251 C 
ENDROOT
BRANCH   1   2
HETATM    2  N6  UNL     1     -21.304   3.799 -17.302  1.00  0.00    -0.191 N 
HETATM    3  N3  UNL     1     -20.563   4.907 -16.905  1.00  0.00    -0.144 N 
HETATM    4  C5  UNL     1     -20.854   5.713 -15.771  1.00  0.00     0.165 C 
HETATM    5  C4  UNL     1     -21.798   5.473 -14.656  1.00  0.00     0.122 C 
HETATM    6  N2  UNL     1     -20.225   6.827 -15.659  1.00  0.00    -0.381 N 
HETATM    7  C3  UNL     1     -22.718   4.537 -14.636  1.00  0.00     0.116 C 
HETATM    8  N1  UNL     1     -21.661   6.341 -13.549  1.00  0.00    -0.096 NA
HETATM    9  N12 UNL     1     -23.041   3.560 -15.624  1.00  0.00    -0.282 N 
HETATM   10  N11 UNL     1     -22.461   3.264 -16.706  1.00  0.00    -0.224 N 
ATOM     11  H12 UNL     1     -23.877   3.011 -15.423  1.00  0.00     0.188 HD
ATOM     12  H11 UNL     1     -22.904   2.514 -17.236  1.00  0.00     0.210 HD
ATOM     13  H22 UNL     1     -20.433   7.406 -14.846  1.00  0.00     0.157 HD
ATOM     14  H21 UNL     1     -19.574   6.993 -16.427  1.00  0.00     0.157 HD
BRANCH   3  15
HETATM   15  N4  UNL     1     -19.447   5.263 -17.671  1.00  0.00    -0.003 NA
BRANCH  15  16
HETATM   16  N5  UNL     1     -19.819   6.083 -18.719  1.00  0.00    -0.327 N 
ATOM     17  H52 UNL     1     -20.738   6.060 -19.161  1.00  0.00     0.174 HD
ATOM     18  H51 UNL     1     -19.051   6.702 -18.980  1.00  0.00     0.174 HD
ENDBRANCH  15  16
ENDBRANCH   3  15
BRANCH   7  19
HETATM   19  C2  UNL     1     -23.570   4.452 -13.428  1.00  0.00     0.203 C 
HETATM   20  C1  UNL     1     -24.785   3.567 -13.739  1.00  0.00     0.086 C 
BRANCH  19  21
HETATM   21  O1  UNL     1     -22.849   3.869 -12.354  1.00  0.00    -0.361 OA
ATOM     22  H1  UNL     1     -23.463   3.421 -11.785  1.00  0.00     0.213 HD
ENDBRANCH  19  21
BRANCH  19  23
HETATM   23  O2  UNL     1     -24.035   5.656 -12.951  1.00  0.00    -0.361 OA
ATOM     24  H2  UNL     1     -24.023   5.618 -12.003  1.00  0.00     0.213 HD
ENDBRANCH  19  23
ENDBRANCH   7  19
ENDBRANCH   1   2
BRANCH   1  25
HETATM   25  C7  UNL     1     -21.948   2.547 -19.309  1.00  0.00     0.120 A 
HETATM   26  N7  UNL     1     -22.675   3.281 -20.171  1.00  0.00    -0.322 N 
HETATM   27  C8  UNL     1     -23.577   2.409 -20.729  1.00  0.00     0.171 A 
ATOM     28  H7  UNL     1     -22.575   4.277 -20.370  1.00  0.00     0.169 HD
HETATM   29  S1  UNL     1     -24.867   2.226 -21.832  1.00  0.00    -0.051 SA
HETATM   30  N9  UNL     1     -23.424   1.185 -20.239  1.00  0.00    -0.242 N 
HETATM   31  C9  UNL     1     -25.155   0.560 -21.611  1.00  0.00     0.049 A 
HETATM   32  C15 UNL     1     -24.213   0.231 -20.672  1.00  0.00     0.137 A 
HETATM   33  N10 UNL     1     -22.398   1.308 -19.356  1.00  0.00    -0.279 N 
ATOM     34  H10 UNL     1     -22.024   0.539 -18.801  1.00  0.00     0.189 HD
BRANCH  31  35
HETATM   35  C10 UNL     1     -26.170  -0.343 -22.261  1.00  0.00     0.194 C 
BRANCH  35  36
HETATM   36  O3  UNL     1     -26.369  -1.410 -21.372  1.00  0.00    -0.373 OA
ATOM     37  H3  UNL     1     -26.209  -1.062 -20.502  1.00  0.00     0.211 HD
ENDBRANCH  35  36
BRANCH  35  38
HETATM   38  C11 UNL     1     -27.477   0.356 -22.443  1.00  0.00     0.217 C 
BRANCH  38  39
HETATM   39  O4  UNL     1     -28.432  -0.559 -22.819  1.00  0.00    -0.397 OA
ATOM     40  H4  UNL     1     -29.283  -0.136 -22.829  1.00  0.00     0.209 HD
ENDBRANCH  38  39
ENDBRANCH  35  38
BRANCH  35  41
HETATM   41  C12 UNL     1     -25.671  -0.897 -23.522  1.00  0.00     0.260 C 
HETATM   42  O5  UNL     1     -24.981  -0.175 -24.304  1.00  0.00    -0.270 OA
HETATM   43  N8  UNL     1     -25.918  -2.236 -23.934  1.00  0.00    -0.357 N 
ATOM     44  H8  UNL     1     -26.468  -2.841 -23.325  1.00  0.00     0.162 HD
BRANCH  43  45
HETATM   45  C13 UNL     1     -25.422  -2.773 -25.181  1.00  0.00     0.133 C 
BRANCH  45  46
HETATM   46  C14 UNL     1     -25.172  -4.251 -25.002  1.00  0.00     0.105 C 
HETATM   47  S2  UNL     1     -25.805  -4.883 -23.450  1.00  0.00    -0.096 SA
ENDBRANCH  45  46
ENDBRANCH  43  45
ENDBRANCH  35  41
ENDBRANCH  31  35
ENDBRANCH   1  25
TORSDOF 14
ENDMDL
