MODEL 1
REMARK VINA RESULT: -7.791451866      0.000      0.000
REMARK  9 active torsions:
REMARK  status: ('A' for Active; 'I' for Inactive)
REMARK    1  A    between atoms: N1_1  and  N2_4 
REMARK       I    between atoms: N2_4  and  C1_6 
REMARK    2  A    between atoms: C1_6  and  C2_8 
REMARK    3  A    between atoms: C4_12  and  C5_13 
REMARK       I    between atoms: C5_13  and  N4_15 
REMARK    4  A    between atoms: N4_15  and  C6_17 
REMARK    5  A    between atoms: C6_17  and  C7_18 
REMARK    6  A    between atoms: C6_17  and  C8_20 
REMARK    7  A    between atoms: C8_20  and  N5_21 
REMARK    8  A    between atoms: C8_20  and  O4_25 
REMARK    9  A    between atoms: N6_28  and  C10_29 
ROOT
HETATM    1  C2  UNL     1     -29.817 -15.269 -13.005  1.00  0.00     0.178 A 
HETATM    2  N3  UNL     1     -30.150 -15.167 -11.706  1.00  0.00    -0.334 N 
ATOM      3  H3  UNL     1     -30.644 -15.859 -11.143  1.00  0.00     0.168 HD
HETATM    4  C3  UNL     1     -29.696 -13.961 -11.298  1.00  0.00     0.096 A 
HETATM    5  C4  UNL     1     -29.602 -13.127 -10.216  1.00  0.00     0.078 A 
HETATM    6  C9  UNL     1     -28.924 -11.992 -10.643  1.00  0.00     0.120 A 
HETATM    7  N6  UNL     1     -28.625 -12.147 -11.944  1.00  0.00    -0.285 N 
HETATM    8  C12 UNL     1     -29.085 -13.331 -12.357  1.00  0.00     0.143 A 
HETATM    9  N9  UNL     1     -29.164 -14.137 -13.401  1.00  0.00    -0.322 N 
ATOM     10  H9  UNL     1     -28.803 -13.947 -14.337  1.00  0.00     0.169 HD
ENDROOT
BRANCH   5  11
HETATM   11  C5  UNL     1     -30.129 -13.258  -8.854  1.00  0.00     0.256 C 
HETATM   12  O2  UNL     1     -30.620 -14.355  -8.496  1.00  0.00    -0.268 OA
HETATM   13  N4  UNL     1     -30.065 -12.162  -7.979  1.00  0.00    -0.342 N 
ATOM     14  H4  UNL     1     -29.649 -11.294  -8.317  1.00  0.00     0.163 HD
BRANCH  13  15
HETATM   15  C6  UNL     1     -30.565 -12.207  -6.613  1.00  0.00     0.202 C 
BRANCH  15  16
HETATM   16  C7  UNL     1     -31.880 -11.574  -6.556  1.00  0.00     0.260 C 
HETATM   17  O3  UNL     1     -32.150 -10.842  -5.606  1.00  0.00    -0.304 OA
ENDBRANCH  15  16
BRANCH  15  18
HETATM   18  C8  UNL     1     -29.566 -11.466  -5.691  1.00  0.00     0.346 C 
BRANCH  18  19
HETATM   19  N5  UNL     1     -29.109 -10.282  -6.391  1.00  0.00    -0.051 N 
ATOM     20  H53 UNL     1     -29.560 -10.160  -7.297  1.00  0.00     0.277 HD
ATOM     21  H52 UNL     1     -29.435  -9.417  -5.960  1.00  0.00     0.277 HD
ATOM     22  H51 UNL     1     -28.092 -10.332  -6.459  1.00  0.00     0.277 HD
ENDBRANCH  18  19
BRANCH  18  23
HETATM   23  O4  UNL     1     -28.463 -12.263  -5.424  1.00  0.00    -0.368 OA
ATOM     24  H4  UNL     1     -27.898 -11.849  -4.783  1.00  0.00     0.212 HD
ENDBRANCH  18  23
ENDBRANCH  15  18
ENDBRANCH  13  15
ENDBRANCH   5  11
BRANCH   7  25
HETATM   25  C10 UNL     1     -27.934 -11.143 -12.707  1.00  0.00     0.206 A 
HETATM   26  N7  UNL     1     -26.928 -10.362 -12.298  1.00  0.00    -0.220 N 
HETATM   27  O5  UNL     1     -26.571  -9.549 -13.283  1.00  0.00    -0.152 OA
ATOM     28  H7  UNL     1     -26.501 -10.388 -11.372  1.00  0.00     0.198 HD
HETATM   29  N8  UNL     1     -27.297  -9.755 -14.334  1.00  0.00    -0.203 N 
HETATM   30  C11 UNL     1     -28.171 -10.747 -14.026  1.00  0.00     0.313 A 
ATOM     31  H8  UNL     1     -27.226  -9.265 -15.226  1.00  0.00     0.200 HD
HETATM   32  O6  UNL     1     -29.011 -11.192 -14.803  1.00  0.00    -0.262 OA
ENDBRANCH   7  25
BRANCH   1  33
HETATM   33  C1  UNL     1     -30.045 -16.393 -13.892  1.00  0.00     0.303 C 
HETATM   34  N2  UNL     1     -29.069 -17.410 -13.992  1.00  0.00    -0.270 N 
ATOM     35  H2  UNL     1     -28.214 -17.353 -13.437  1.00  0.00     0.189 HD
HETATM   36  O1  UNL     1     -31.086 -16.478 -14.572  1.00  0.00    -0.263 OA
BRANCH  34  37
HETATM   37  N1  UNL     1     -29.270 -18.487 -14.848  1.00  0.00    -0.342 N 
ATOM     38  H12 UNL     1     -30.152 -18.557 -15.355  1.00  0.00     0.176 HD
ATOM     39  H11 UNL     1     -28.543 -19.193 -14.960  1.00  0.00     0.176 HD
ENDBRANCH  34  37
ENDBRANCH   1  33
TORSDOF 9
ENDMDL
MODEL 2
REMARK VINA RESULT: -7.755766748      3.026      7.050
REMARK  9 active torsions:
REMARK  status: ('A' for Active; 'I' for Inactive)
REMARK    1  A    between atoms: N1_1  and  N2_4 
REMARK       I    between atoms: N2_4  and  C1_6 
REMARK    2  A    between atoms: C1_6  and  C2_8 
REMARK    3  A    between atoms: C4_12  and  C5_13 
REMARK       I    between atoms: C5_13  and  N4_15 
REMARK    4  A    between atoms: N4_15  and  C6_17 
REMARK    5  A    between atoms: C6_17  and  C7_18 
REMARK    6  A    between atoms: C6_17  and  C8_20 
REMARK    7  A    between atoms: C8_20  and  N5_21 
REMARK    8  A    between atoms: C8_20  and  O4_25 
REMARK    9  A    between atoms: N6_28  and  C10_29 
ROOT
HETATM    1  C2  UNL     1     -29.604 -13.131  -8.598  1.00  0.00     0.178 A 
HETATM    2  N3  UNL     1     -29.191 -12.896  -9.856  1.00  0.00    -0.334 N 
ATOM      3  H3  UNL     1     -28.717 -13.551 -10.479  1.00  0.00     0.168 HD
HETATM    4  C3  UNL     1     -29.531 -11.617 -10.128  1.00  0.00     0.096 A 
HETATM    5  C4  UNL     1     -29.502 -10.650 -11.098  1.00  0.00     0.078 A 
HETATM    6  C9  UNL     1     -30.118  -9.526 -10.562  1.00  0.00     0.120 A 
HETATM    7  N6  UNL     1     -30.501  -9.816  -9.308  1.00  0.00    -0.285 N 
HETATM    8  C12 UNL     1     -30.153 -11.075  -9.027  1.00  0.00     0.143 A 
HETATM    9  N9  UNL     1     -30.193 -12.007  -8.092  1.00  0.00    -0.322 N 
ATOM     10  H9  UNL     1     -30.593 -11.906  -7.158  1.00  0.00     0.169 HD
ENDROOT
BRANCH   5  11
HETATM   11  C5  UNL     1     -28.909 -10.654 -12.439  1.00  0.00     0.256 C 
HETATM   12  O2  UNL     1     -27.812 -10.073 -12.619  1.00  0.00    -0.268 OA
HETATM   13  N4  UNL     1     -29.571 -11.311 -13.487  1.00  0.00    -0.342 N 
ATOM     14  H4  UNL     1     -30.457 -11.775 -13.287  1.00  0.00     0.163 HD
BRANCH  13  15
HETATM   15  C6  UNL     1     -29.053 -11.362 -14.847  1.00  0.00     0.202 C 
BRANCH  15  16
HETATM   16  C7  UNL     1     -30.110 -10.991 -15.784  1.00  0.00     0.260 C 
HETATM   17  O3  UNL     1     -31.196 -10.619 -15.342  1.00  0.00    -0.304 OA
ENDBRANCH  15  16
BRANCH  15  18
HETATM   18  C8  UNL     1     -28.549 -12.797 -15.136  1.00  0.00     0.346 C 
BRANCH  18  19
HETATM   19  N5  UNL     1     -27.130 -12.721 -15.417  1.00  0.00    -0.051 N 
ATOM     20  H53 UNL     1     -26.911 -12.078 -16.177  1.00  0.00     0.277 HD
ATOM     21  H52 UNL     1     -26.606 -12.245 -14.682  1.00  0.00     0.277 HD
ATOM     22  H51 UNL     1     -26.794 -13.669 -15.592  1.00  0.00     0.277 HD
ENDBRANCH  18  19
BRANCH  18  23
HETATM   23  O4  UNL     1     -29.183 -13.322 -16.252  1.00  0.00    -0.368 OA
ATOM     24  H4  UNL     1     -28.831 -14.178 -16.465  1.00  0.00     0.212 HD
ENDBRANCH  18  23
ENDBRANCH  15  18
ENDBRANCH  13  15
ENDBRANCH   5  11
BRANCH   7  25
HETATM   25  C10 UNL     1     -31.159  -8.862  -8.456  1.00  0.00     0.206 A 
HETATM   26  N7  UNL     1     -30.608  -8.121  -7.488  1.00  0.00    -0.220 N 
HETATM   27  O5  UNL     1     -31.543  -7.376  -6.915  1.00  0.00    -0.152 OA
ATOM     28  H7  UNL     1     -29.621  -8.128  -7.232  1.00  0.00     0.198 HD
HETATM   29  N8  UNL     1     -32.697  -7.587  -7.461  1.00  0.00    -0.203 N 
HETATM   30  C11 UNL     1     -32.512  -8.514  -8.436  1.00  0.00     0.313 A 
ATOM     31  H8  UNL     1     -33.579  -7.142  -7.206  1.00  0.00     0.200 HD
HETATM   32  O6  UNL     1     -33.409  -8.946  -9.154  1.00  0.00    -0.262 OA
ENDBRANCH   7  25
BRANCH   1  33
HETATM   33  C1  UNL     1     -29.510 -14.370  -7.852  1.00  0.00     0.303 C 
HETATM   34  N2  UNL     1     -28.517 -14.509  -6.856  1.00  0.00    -0.270 N 
ATOM     35  H2  UNL     1     -27.878 -13.737  -6.662  1.00  0.00     0.189 HD
HETATM   36  O1  UNL     1     -30.288 -15.318  -8.074  1.00  0.00    -0.263 OA
BRANCH  34  37
HETATM   37  N1  UNL     1     -28.409 -15.697  -6.141  1.00  0.00    -0.342 N 
ATOM     38  H12 UNL     1     -28.090 -16.537  -6.623  1.00  0.00     0.176 HD
ATOM     39  H11 UNL     1     -28.648 -15.720  -5.150  1.00  0.00     0.176 HD
ENDBRANCH  34  37
ENDBRANCH   1  33
TORSDOF 9
ENDMDL
MODEL 3
REMARK VINA RESULT: -7.654948583      1.294      1.486
REMARK  9 active torsions:
REMARK  status: ('A' for Active; 'I' for Inactive)
REMARK    1  A    between atoms: N1_1  and  N2_4 
REMARK       I    between atoms: N2_4  and  C1_6 
REMARK    2  A    between atoms: C1_6  and  C2_8 
REMARK    3  A    between atoms: C4_12  and  C5_13 
REMARK       I    between atoms: C5_13  and  N4_15 
REMARK    4  A    between atoms: N4_15  and  C6_17 
REMARK    5  A    between atoms: C6_17  and  C7_18 
REMARK    6  A    between atoms: C6_17  and  C8_20 
REMARK    7  A    between atoms: C8_20  and  N5_21 
REMARK    8  A    between atoms: C8_20  and  O4_25 
REMARK    9  A    between atoms: N6_28  and  C10_29 
ROOT
HETATM    1  C2  UNL     1     -29.973 -15.338 -13.150  1.00  0.00     0.178 A 
HETATM    2  N3  UNL     1     -30.464 -15.259 -11.901  1.00  0.00    -0.334 N 
ATOM      3  H3  UNL     1     -31.032 -15.956 -11.419  1.00  0.00     0.168 HD
HETATM    4  C3  UNL     1     -30.052 -14.067 -11.413  1.00  0.00     0.096 A 
HETATM    5  C4  UNL     1     -30.085 -13.257 -10.310  1.00  0.00     0.078 A 
HETATM    6  C9  UNL     1     -29.348 -12.122 -10.624  1.00  0.00     0.120 A 
HETATM    7  N6  UNL     1     -28.892 -12.253 -11.881  1.00  0.00    -0.285 N 
HETATM    8  C12 UNL     1     -29.308 -13.423 -12.374  1.00  0.00     0.143 A 
HETATM    9  N9  UNL     1     -29.264 -14.206 -13.437  1.00  0.00    -0.322 N 
ATOM     10  H9  UNL     1     -28.787 -14.002 -14.316  1.00  0.00     0.169 HD
ENDROOT
BRANCH   5  11
HETATM   11  C5  UNL     1     -30.780 -13.409  -9.027  1.00  0.00     0.256 C 
HETATM   12  O2  UNL     1     -30.668 -14.490  -8.401  1.00  0.00    -0.268 OA
HETATM   13  N4  UNL     1     -31.542 -12.344  -8.523  1.00  0.00    -0.342 N 
ATOM     14  H4  UNL     1     -31.595 -11.483  -9.067  1.00  0.00     0.163 HD
BRANCH  13  15
HETATM   15  C6  UNL     1     -32.263 -12.412  -7.259  1.00  0.00     0.202 C 
BRANCH  15  16
HETATM   16  C7  UNL     1     -33.698 -12.311  -7.512  1.00  0.00     0.260 C 
HETATM   17  O3  UNL     1     -34.467 -13.037  -6.885  1.00  0.00    -0.304 OA
ENDBRANCH  15  16
BRANCH  15  18
HETATM   18  C8  UNL     1     -31.789 -11.251  -6.351  1.00  0.00     0.346 C 
BRANCH  18  19
HETATM   19  N5  UNL     1     -32.959 -10.669  -5.726  1.00  0.00    -0.051 N 
ATOM     20  H53 UNL     1     -32.794 -10.392  -4.759  1.00  0.00     0.277 HD
ATOM     21  H52 UNL     1     -33.186  -9.745  -6.094  1.00  0.00     0.277 HD
ATOM     22  H51 UNL     1     -33.728 -11.332  -5.822  1.00  0.00     0.277 HD
ENDBRANCH  18  19
BRANCH  18  23
HETATM   23  O4  UNL     1     -31.165 -10.266  -7.102  1.00  0.00    -0.368 OA
ATOM     24  H4  UNL     1     -31.588 -10.170  -7.947  1.00  0.00     0.212 HD
ENDBRANCH  18  23
ENDBRANCH  15  18
ENDBRANCH  13  15
ENDBRANCH   5  11
BRANCH   7  25
HETATM   25  C10 UNL     1     -28.101 -11.243 -12.530  1.00  0.00     0.206 A 
HETATM   26  N7  UNL     1     -27.128 -10.501 -11.988  1.00  0.00    -0.220 N 
HETATM   27  O5  UNL     1     -26.650  -9.665 -12.900  1.00  0.00    -0.152 OA
ATOM     28  H7  UNL     1     -26.805 -10.568 -11.023  1.00  0.00     0.198 HD
HETATM   29  N8  UNL     1     -27.262  -9.819 -14.030  1.00  0.00    -0.203 N 
HETATM   30  C11 UNL     1     -28.186 -10.799 -13.852  1.00  0.00     0.313 A 
ATOM     31  H8  UNL     1     -27.085  -9.302 -14.891  1.00  0.00     0.200 HD
HETATM   32  O6  UNL     1     -28.946 -11.196 -14.729  1.00  0.00    -0.262 OA
ENDBRANCH   7  25
BRANCH   1  33
HETATM   33  C1  UNL     1     -30.099 -16.441 -14.083  1.00  0.00     0.303 C 
HETATM   34  N2  UNL     1     -29.036 -17.361 -14.222  1.00  0.00    -0.270 N 
ATOM     35  H2  UNL     1     -28.190 -17.250 -13.661  1.00  0.00     0.189 HD
HETATM   36  O1  UNL     1     -31.129 -16.591 -14.769  1.00  0.00    -0.263 OA
BRANCH  34  37
HETATM   37  N1  UNL     1     -29.140 -18.416 -15.121  1.00  0.00    -0.342 N 
ATOM     38  H12 UNL     1     -28.810 -18.285 -16.077  1.00  0.00     0.176 HD
ATOM     39  H11 UNL     1     -29.542 -19.305 -14.822  1.00  0.00     0.176 HD
ENDBRANCH  34  37
ENDBRANCH   1  33
TORSDOF 9
ENDMDL
MODEL 4
REMARK VINA RESULT: -7.554038372      3.030      7.974
REMARK  9 active torsions:
REMARK  status: ('A' for Active; 'I' for Inactive)
REMARK    1  A    between atoms: N1_1  and  N2_4 
REMARK       I    between atoms: N2_4  and  C1_6 
REMARK    2  A    between atoms: C1_6  and  C2_8 
REMARK    3  A    between atoms: C4_12  and  C5_13 
REMARK       I    between atoms: C5_13  and  N4_15 
REMARK    4  A    between atoms: N4_15  and  C6_17 
REMARK    5  A    between atoms: C6_17  and  C7_18 
REMARK    6  A    between atoms: C6_17  and  C8_20 
REMARK    7  A    between atoms: C8_20  and  N5_21 
REMARK    8  A    between atoms: C8_20  and  O4_25 
REMARK    9  A    between atoms: N6_28  and  C10_29 
ROOT
HETATM    1  C2  UNL     1     -30.334  -8.593 -10.385  1.00  0.00     0.178 A 
HETATM    2  N3  UNL     1     -30.134  -9.636 -11.208  1.00  0.00    -0.334 N 
ATOM      3  H3  UNL     1     -30.117  -9.619 -12.228  1.00  0.00     0.168 HD
HETATM    4  C3  UNL     1     -29.961 -10.713 -10.410  1.00  0.00     0.096 A 
HETATM    5  C4  UNL     1     -29.711 -12.060 -10.414  1.00  0.00     0.078 A 
HETATM    6  C9  UNL     1     -29.656 -12.461  -9.085  1.00  0.00     0.120 A 
HETATM    7  N6  UNL     1     -29.869 -11.383  -8.313  1.00  0.00    -0.285 N 
HETATM    8  C12 UNL     1     -30.057 -10.317  -9.096  1.00  0.00     0.143 A 
HETATM    9  N9  UNL     1     -30.288  -9.016  -9.087  1.00  0.00    -0.322 N 
ATOM     10  H9  UNL     1     -30.409  -8.433  -8.259  1.00  0.00     0.169 HD
ENDROOT
BRANCH   5  11
HETATM   11  C5  UNL     1     -29.580 -13.009 -11.524  1.00  0.00     0.256 C 
HETATM   12  O2  UNL     1     -30.126 -14.134 -11.428  1.00  0.00    -0.268 OA
HETATM   13  N4  UNL     1     -28.860 -12.638 -12.670  1.00  0.00    -0.342 N 
ATOM     14  H4  UNL     1     -28.442 -11.709 -12.702  1.00  0.00     0.163 HD
BRANCH  13  15
HETATM   15  C6  UNL     1     -28.681 -13.519 -13.816  1.00  0.00     0.202 C 
BRANCH  15  16
HETATM   16  C7  UNL     1     -27.591 -14.453 -13.545  1.00  0.00     0.260 C 
HETATM   17  O3  UNL     1     -27.642 -15.584 -14.024  1.00  0.00    -0.304 OA
ENDBRANCH  15  16
BRANCH  15  18
HETATM   18  C8  UNL     1     -28.361 -12.659 -15.062  1.00  0.00     0.346 C 
BRANCH  18  19
HETATM   19  N5  UNL     1     -29.276 -13.046 -16.117  1.00  0.00    -0.051 N 
ATOM     20  H53 UNL     1     -29.888 -13.815 -15.846  1.00  0.00     0.277 HD
ATOM     21  H52 UNL     1     -30.002 -12.349 -16.287  1.00  0.00     0.277 HD
ATOM     22  H51 UNL     1     -28.725 -13.254 -16.949  1.00  0.00     0.277 HD
ENDBRANCH  18  19
BRANCH  18  23
HETATM   23  O4  UNL     1     -27.068 -12.898 -15.503  1.00  0.00    -0.368 OA
ATOM     24  H4  UNL     1     -27.077 -13.379 -16.322  1.00  0.00     0.212 HD
ENDBRANCH  18  23
ENDBRANCH  15  18
ENDBRANCH  13  15
ENDBRANCH   5  11
BRANCH   7  25
HETATM   25  C10 UNL     1     -29.895 -11.450  -6.876  1.00  0.00     0.206 A 
HETATM   26  N7  UNL     1     -30.925 -11.170  -6.069  1.00  0.00    -0.220 N 
HETATM   27  O5  UNL     1     -30.552 -11.331  -4.806  1.00  0.00    -0.152 OA
ATOM     28  H7  UNL     1     -31.852 -10.879  -6.377  1.00  0.00     0.198 HD
HETATM   29  N8  UNL     1     -29.316 -11.707  -4.736  1.00  0.00    -0.203 N 
HETATM   30  C11 UNL     1     -28.855 -11.797  -6.010  1.00  0.00     0.313 A 
ATOM     31  H8  UNL     1     -28.788 -11.899  -3.885  1.00  0.00     0.200 HD
HETATM   32  O6  UNL     1     -27.711 -12.129  -6.307  1.00  0.00    -0.262 OA
ENDBRANCH   7  25
BRANCH   1  33
HETATM   33  C1  UNL     1     -30.530  -7.202 -10.748  1.00  0.00     0.303 C 
HETATM   34  N2  UNL     1     -31.748  -6.804 -11.343  1.00  0.00    -0.270 N 
ATOM     35  H2  UNL     1     -32.485  -7.491 -11.507  1.00  0.00     0.189 HD
HETATM   36  O1  UNL     1     -29.642  -6.352 -10.548  1.00  0.00    -0.263 OA
BRANCH  34  37
HETATM   37  N1  UNL     1     -31.945  -5.476 -11.706  1.00  0.00    -0.342 N 
ATOM     38  H12 UNL     1     -31.153  -4.834 -11.678  1.00  0.00     0.176 HD
ATOM     39  H11 UNL     1     -32.869  -5.157 -11.995  1.00  0.00     0.176 HD
ENDBRANCH  34  37
ENDBRANCH   1  33
TORSDOF 9
ENDMDL
MODEL 5
REMARK VINA RESULT: -7.549333840      3.070      5.182
REMARK  9 active torsions:
REMARK  status: ('A' for Active; 'I' for Inactive)
REMARK    1  A    between atoms: N1_1  and  N2_4 
REMARK       I    between atoms: N2_4  and  C1_6 
REMARK    2  A    between atoms: C1_6  and  C2_8 
REMARK    3  A    between atoms: C4_12  and  C5_13 
REMARK       I    between atoms: C5_13  and  N4_15 
REMARK    4  A    between atoms: N4_15  and  C6_17 
REMARK    5  A    between atoms: C6_17  and  C7_18 
REMARK    6  A    between atoms: C6_17  and  C8_20 
REMARK    7  A    between atoms: C8_20  and  N5_21 
REMARK    8  A    between atoms: C8_20  and  O4_25 
REMARK    9  A    between atoms: N6_28  and  C10_29 
ROOT
HETATM    1  C2  UNL     1     -29.630 -14.411 -12.702  1.00  0.00     0.178 A 
HETATM    2  N3  UNL     1     -29.772 -13.074 -12.714  1.00  0.00    -0.334 N 
ATOM      3  H3  UNL     1     -29.936 -12.481 -13.529  1.00  0.00     0.168 HD
HETATM    4  C3  UNL     1     -29.655 -12.674 -11.428  1.00  0.00     0.096 A 
HETATM    5  C4  UNL     1     -29.681 -11.578 -10.608  1.00  0.00     0.078 A 
HETATM    6  C9  UNL     1     -29.483 -12.042  -9.314  1.00  0.00     0.120 A 
HETATM    7  N6  UNL     1     -29.340 -13.376  -9.364  1.00  0.00    -0.285 N 
HETATM    8  C12 UNL     1     -29.439 -13.777 -10.634  1.00  0.00     0.143 A 
HETATM    9  N9  UNL     1     -29.423 -14.838 -11.421  1.00  0.00    -0.322 N 
ATOM     10  H9  UNL     1     -29.282 -15.804 -11.125  1.00  0.00     0.169 HD
ENDROOT
BRANCH   5  11
HETATM   11  C5  UNL     1     -29.812 -10.151 -10.916  1.00  0.00     0.256 C 
HETATM   12  O2  UNL     1     -29.963  -9.799 -12.111  1.00  0.00    -0.268 OA
HETATM   13  N4  UNL     1     -29.776  -9.211  -9.874  1.00  0.00    -0.342 N 
ATOM     14  H4  UNL     1     -29.659  -9.549  -8.919  1.00  0.00     0.163 HD
BRANCH  13  15
HETATM   15  C6  UNL     1     -29.898  -7.777 -10.093  1.00  0.00     0.202 C 
BRANCH  15  16
HETATM   16  C7  UNL     1     -29.189  -7.062  -9.035  1.00  0.00     0.260 C 
HETATM   17  O3  UNL     1     -29.455  -7.315  -7.862  1.00  0.00    -0.304 OA
ENDBRANCH  15  16
BRANCH  15  18
HETATM   18  C8  UNL     1     -31.399  -7.397 -10.093  1.00  0.00     0.346 C 
BRANCH  18  19
HETATM   19  N5  UNL     1     -32.104  -8.374  -9.288  1.00  0.00    -0.051 N 
ATOM     20  H53 UNL     1     -31.871  -9.335  -9.537  1.00  0.00     0.277 HD
ATOM     21  H52 UNL     1     -31.777  -8.401  -8.322  1.00  0.00     0.277 HD
ATOM     22  H51 UNL     1     -33.103  -8.178  -9.361  1.00  0.00     0.277 HD
ENDBRANCH  18  19
BRANCH  18  23
HETATM   23  O4  UNL     1     -31.915  -7.444 -11.379  1.00  0.00    -0.368 OA
ATOM     24  H4  UNL     1     -32.727  -7.936 -11.396  1.00  0.00     0.212 HD
ENDBRANCH  18  23
ENDBRANCH  15  18
ENDBRANCH  13  15
ENDBRANCH   5  11
BRANCH   7  25
HETATM   25  C10 UNL     1     -29.101 -14.177  -8.193  1.00  0.00     0.206 A 
HETATM   26  N7  UNL     1     -29.336 -15.485  -8.042  1.00  0.00    -0.220 N 
HETATM   27  O5  UNL     1     -29.003 -15.855  -6.813  1.00  0.00    -0.152 OA
ATOM     28  H7  UNL     1     -29.713 -16.102  -8.761  1.00  0.00     0.198 HD
HETATM   29  N8  UNL     1     -28.554 -14.848  -6.136  1.00  0.00    -0.203 N 
HETATM   30  C11 UNL     1     -28.595 -13.767  -6.957  1.00  0.00     0.313 A 
ATOM     31  H8  UNL     1     -28.231 -14.862  -5.168  1.00  0.00     0.200 HD
HETATM   32  O6  UNL     1     -28.238 -12.639  -6.629  1.00  0.00    -0.262 OA
ENDBRANCH   7  25
BRANCH   1  33
HETATM   33  C1  UNL     1     -29.715 -15.321 -13.827  1.00  0.00     0.303 C 
HETATM   34  N2  UNL     1     -30.983 -15.701 -14.321  1.00  0.00    -0.270 N 
ATOM     35  H2  UNL     1     -31.830 -15.328 -13.891  1.00  0.00     0.189 HD
HETATM   36  O1  UNL     1     -28.688 -15.779 -14.366  1.00  0.00    -0.263 OA
BRANCH  34  37
HETATM   37  N1  UNL     1     -31.078 -16.582 -15.393  1.00  0.00    -0.342 N 
ATOM     38  H12 UNL     1     -31.950 -17.091 -15.537  1.00  0.00     0.176 HD
ATOM     39  H11 UNL     1     -30.285 -16.711 -16.020  1.00  0.00     0.176 HD
ENDBRANCH  34  37
ENDBRANCH   1  33
TORSDOF 9
ENDMDL
