MODEL 1
REMARK VINA RESULT: -7.711124682      0.000      0.000
REMARK  10 active torsions:
REMARK  status: ('A' for Active; 'I' for Inactive)
REMARK    1  A    between atoms: C2_2  and  N1_3 
REMARK    2  A    between atoms: N1_3  and  C4_5 
REMARK    3  A    between atoms: C5_8  and  N3_9 
REMARK    4  A    between atoms: C6_14  and  N5_15 
REMARK    5  A    between atoms: N5_15  and  C7_17 
REMARK    6  A    between atoms: C7_17  and  C8_18 
REMARK    7  A    between atoms: C8_18  and  N6_19 
REMARK    8  A    between atoms: N6_19  and  C9_21 
REMARK    9  A    between atoms: N8_26  and  N9_27 
REMARK   10  A    between atoms: C12_33  and  N11_34 
ROOT
HETATM    1  N6  UNL     1     -30.702 -10.326  -9.342  1.00  0.00    -0.222 N 
ATOM      2  H6  UNL     1     -31.704 -10.394  -9.522  1.00  0.00     0.177 HD
ENDROOT
BRANCH   1   3
HETATM    3  C8  UNL     1     -29.969  -9.259  -9.936  1.00  0.00     0.158 C 
BRANCH   3   4
HETATM    4  C7  UNL     1     -29.576  -9.513 -11.369  1.00  0.00     0.158 C 
BRANCH   4   5
HETATM    5  N5  UNL     1     -28.773 -10.679 -11.566  1.00  0.00    -0.224 N 
ATOM      6  H5  UNL     1     -28.015 -10.893 -10.919  1.00  0.00     0.177 HD
BRANCH   5   7
HETATM    7  C6  UNL     1     -29.007 -11.453 -12.557  1.00  0.00     0.707 A 
HETATM    8  N4  UNL     1     -29.304 -10.904 -13.743  1.00  0.00    -0.022 N 
HETATM    9  C5  UNL     1     -29.560 -11.721 -14.799  1.00  0.00     0.705 A 
ATOM     10  H4  UNL     1     -29.338  -9.890 -13.851  1.00  0.00     0.203 HD
HETATM   11  N2  UNL     1     -29.515 -13.060 -14.653  1.00  0.00    -0.022 N 
HETATM   12  C4  UNL     1     -29.219 -13.627 -13.470  1.00  0.00     0.709 A 
ATOM     13  H2  UNL     1     -29.710 -13.655 -15.457  1.00  0.00     0.203 HD
HETATM   14  N14 UNL     1     -28.970 -12.798 -12.436  1.00  0.00    -0.021 N 
ATOM     15  H14 UNL     1     -28.744 -13.202 -11.526  1.00  0.00     0.203 HD
BRANCH   9  16
HETATM   16  N3  UNL     1     -29.843 -11.169 -15.929  1.00  0.00    -0.234 N 
ATOM     17  H32 UNL     1     -29.271 -11.418 -16.736  1.00  0.00     0.174 HD
ATOM     18  H31 UNL     1     -30.611 -10.504 -16.025  1.00  0.00     0.174 HD
ENDBRANCH   9  16
BRANCH  12  19
HETATM   19  N1  UNL     1     -29.192 -15.038 -13.363  1.00  0.00    -0.221 N 
HETATM   20  C3  UNL     1     -28.217 -15.679 -12.526  1.00  0.00     0.168 C 
BRANCH  19  21
HETATM   21  C2  UNL     1     -30.142 -15.827 -14.106  1.00  0.00     0.136 C 
HETATM   22  C1  UNL     1     -29.609 -17.202 -14.476  1.00  0.00     0.027 C 
ENDBRANCH  19  21
ENDBRANCH  12  19
ENDBRANCH   5   7
ENDBRANCH   4   5
ENDBRANCH   3   4
ENDBRANCH   1   3
BRANCH   1  23
HETATM   23  C9  UNL     1     -30.148 -11.208  -8.588  1.00  0.00     0.719 A 
HETATM   24  N7  UNL     1     -29.420 -10.878  -7.498  1.00  0.00    -0.137 N 
HETATM   25  C10 UNL     1     -28.866 -11.841  -6.745  1.00  0.00     0.374 A 
ATOM     26  H7  UNL     1     -29.291  -9.898  -7.248  1.00  0.00     0.189 HD
HETATM   27  O1  UNL     1     -28.196 -11.552  -5.743  1.00  0.00    -0.244 OA
HETATM   28  N8  UNL     1     -29.040 -13.135  -7.084  1.00  0.00    -0.035 N 
HETATM   29  C11 UNL     1     -29.766 -13.465  -8.171  1.00  0.00     0.758 A 
HETATM   30  N10 UNL     1     -30.091 -14.651  -8.721  1.00  0.00    -0.017 N 
HETATM   31  N13 UNL     1     -30.329 -12.513  -8.937  1.00  0.00     0.107 N 
HETATM   32  C12 UNL     1     -30.847 -14.448  -9.822  1.00  0.00     0.706 A 
ATOM     33  H10 UNL     1     -29.809 -15.563  -8.362  1.00  0.00     0.203 HD
HETATM   34  N12 UNL     1     -30.974 -13.113  -9.922  1.00  0.00    -0.096 N 
ATOM     35  H12 UNL     1     -31.495 -12.632 -10.655  1.00  0.00     0.207 HD
BRANCH  28  36
HETATM   36  N9  UNL     1     -28.489 -14.197  -6.340  1.00  0.00    -0.320 N 
ATOM     37  H92 UNL     1     -28.926 -14.406  -5.443  1.00  0.00     0.178 HD
ATOM     38  H91 UNL     1     -27.692 -14.743  -6.667  1.00  0.00     0.178 HD
ENDBRANCH  28  36
BRANCH  32  39
HETATM   39  N11 UNL     1     -31.342 -15.375 -10.608  1.00  0.00    -0.233 N 
ATOM     40 2H11 UNL     1     -31.880 -16.203 -10.351  1.00  0.00     0.174 HD
ATOM     41 1H11 UNL     1     -31.261 -15.412 -11.624  1.00  0.00     0.174 HD
ENDBRANCH  32  39
ENDBRANCH   1  23
TORSDOF 10
ENDMDL
MODEL 2
REMARK VINA RESULT: -7.696596325      2.598      5.942
REMARK  10 active torsions:
REMARK  status: ('A' for Active; 'I' for Inactive)
REMARK    1  A    between atoms: C2_2  and  N1_3 
REMARK    2  A    between atoms: N1_3  and  C4_5 
REMARK    3  A    between atoms: C5_8  and  N3_9 
REMARK    4  A    between atoms: C6_14  and  N5_15 
REMARK    5  A    between atoms: N5_15  and  C7_17 
REMARK    6  A    between atoms: C7_17  and  C8_18 
REMARK    7  A    between atoms: C8_18  and  N6_19 
REMARK    8  A    between atoms: N6_19  and  C9_21 
REMARK    9  A    between atoms: N8_26  and  N9_27 
REMARK   10  A    between atoms: C12_33  and  N11_34 
ROOT
HETATM    1  N6  UNL     1     -27.701 -11.852 -11.955  1.00  0.00    -0.222 N 
ATOM      2  H6  UNL     1     -27.028 -12.204 -11.273  1.00  0.00     0.177 HD
ENDROOT
BRANCH   1   3
HETATM    3  C8  UNL     1     -27.907 -10.446 -12.053  1.00  0.00     0.158 C 
BRANCH   3   4
HETATM    4  C7  UNL     1     -29.344 -10.027 -11.882  1.00  0.00     0.158 C 
BRANCH   4   5
HETATM    5  N5  UNL     1     -29.686  -9.606 -10.559  1.00  0.00    -0.224 N 
ATOM      6  H5  UNL     1     -29.550  -8.634 -10.280  1.00  0.00     0.177 HD
BRANCH   5   7
HETATM    7  C6  UNL     1     -30.163 -10.451  -9.725  1.00  0.00     0.707 A 
HETATM    8  N4  UNL     1     -31.347 -11.017  -9.993  1.00  0.00    -0.022 N 
HETATM    9  C5  UNL     1     -31.862 -11.912  -9.109  1.00  0.00     0.705 A 
ATOM     10  H4  UNL     1     -31.854 -10.780 -10.846  1.00  0.00     0.203 HD
HETATM   11  N2  UNL     1     -31.190 -12.222  -7.982  1.00  0.00    -0.022 N 
HETATM   12  C4  UNL     1     -30.000 -11.662  -7.698  1.00  0.00     0.709 A 
ATOM     13  H2  UNL     1     -31.593 -12.895  -7.332  1.00  0.00     0.203 HD
HETATM   14  N14 UNL     1     -29.509 -10.777  -8.589  1.00  0.00    -0.021 N 
ATOM     15  H14 UNL     1     -28.609 -10.336  -8.397  1.00  0.00     0.203 HD
BRANCH   9  16
HETATM   16  N3  UNL     1     -33.002 -12.442  -9.388  1.00  0.00    -0.234 N 
ATOM     17  H32 UNL     1     -33.090 -12.941 -10.274  1.00  0.00     0.174 HD
ATOM     18  H31 UNL     1     -33.798 -12.373  -8.754  1.00  0.00     0.174 HD
ENDBRANCH   9  16
BRANCH  12  19
HETATM   19  N1  UNL     1     -29.336 -12.014  -6.499  1.00  0.00    -0.221 N 
HETATM   20  C3  UNL     1     -29.799 -11.497  -5.240  1.00  0.00     0.168 C 
BRANCH  19  21
HETATM   21  C2  UNL     1     -28.188 -12.884  -6.548  1.00  0.00     0.136 C 
HETATM   22  C1  UNL     1     -28.553 -14.326  -6.858  1.00  0.00     0.027 C 
ENDBRANCH  19  21
ENDBRANCH  12  19
ENDBRANCH   5   7
ENDBRANCH   4   5
ENDBRANCH   3   4
ENDBRANCH   1   3
BRANCH   1  23
HETATM   23  C9  UNL     1     -28.331 -12.695 -12.693  1.00  0.00     0.719 A 
HETATM   24  N7  UNL     1     -28.282 -12.659 -14.043  1.00  0.00    -0.137 N 
HETATM   25  C10 UNL     1     -28.958 -13.567 -14.764  1.00  0.00     0.374 A 
ATOM     26  H7  UNL     1     -27.731 -11.941 -14.514  1.00  0.00     0.189 HD
HETATM   27  O1  UNL     1     -28.922 -13.544 -16.003  1.00  0.00    -0.244 OA
HETATM   28  N8  UNL     1     -29.685 -14.511 -14.132  1.00  0.00    -0.035 N 
HETATM   29  C11 UNL     1     -29.736 -14.548 -12.786  1.00  0.00     0.758 A 
HETATM   30  N10 UNL     1     -30.368 -15.365 -11.922  1.00  0.00    -0.017 N 
HETATM   31  N13 UNL     1     -29.063 -13.646 -12.047  1.00  0.00     0.107 N 
HETATM   32  C12 UNL     1     -30.099 -14.982 -10.654  1.00  0.00     0.706 A 
ATOM     33  H10 UNL     1     -30.960 -16.153 -12.184  1.00  0.00     0.203 HD
HETATM   34  N12 UNL     1     -29.288 -13.916 -10.773  1.00  0.00    -0.096 N 
ATOM     35  H12 UNL     1     -28.901 -13.391  -9.989  1.00  0.00     0.207 HD
BRANCH  28  36
HETATM   36  N9  UNL     1     -30.420 -15.495 -14.823  1.00  0.00    -0.320 N 
ATOM     37  H92 UNL     1     -29.892 -16.279 -15.205  1.00  0.00     0.178 HD
ATOM     38  H91 UNL     1     -31.430 -15.442 -14.948  1.00  0.00     0.178 HD
ENDBRANCH  28  36
BRANCH  32  39
HETATM   39  N11 UNL     1     -30.547 -15.548  -9.558  1.00  0.00    -0.233 N 
ATOM     40 2H11 UNL     1     -30.652 -16.542  -9.356  1.00  0.00     0.174 HD
ATOM     41 1H11 UNL     1     -30.869 -15.067  -8.718  1.00  0.00     0.174 HD
ENDBRANCH  32  39
ENDBRANCH   1  23
TORSDOF 10
ENDMDL
MODEL 3
REMARK VINA RESULT: -7.665014807      1.874      4.512
REMARK  10 active torsions:
REMARK  status: ('A' for Active; 'I' for Inactive)
REMARK    1  A    between atoms: C2_2  and  N1_3 
REMARK    2  A    between atoms: N1_3  and  C4_5 
REMARK    3  A    between atoms: C5_8  and  N3_9 
REMARK    4  A    between atoms: C6_14  and  N5_15 
REMARK    5  A    between atoms: N5_15  and  C7_17 
REMARK    6  A    between atoms: C7_17  and  C8_18 
REMARK    7  A    between atoms: C8_18  and  N6_19 
REMARK    8  A    between atoms: N6_19  and  C9_21 
REMARK    9  A    between atoms: N8_26  and  N9_27 
REMARK   10  A    between atoms: C12_33  and  N11_34 
ROOT
HETATM    1  N6  UNL     1     -31.280 -14.232  -8.871  1.00  0.00    -0.222 N 
ATOM      2  H6  UNL     1     -32.012 -14.415  -8.185  1.00  0.00     0.177 HD
ENDROOT
BRANCH   1   3
HETATM    3  C8  UNL     1     -30.707 -15.332  -9.573  1.00  0.00     0.158 C 
BRANCH   3   4
HETATM    4  C7  UNL     1     -29.217 -15.222  -9.768  1.00  0.00     0.158 C 
BRANCH   4   5
HETATM    5  N5  UNL     1     -28.745 -15.709 -11.027  1.00  0.00    -0.224 N 
ATOM      6  H5  UNL     1     -28.064 -16.467 -11.059  1.00  0.00     0.177 HD
BRANCH   5   7
HETATM    7  C6  UNL     1     -29.180 -15.191 -12.112  1.00  0.00     0.707 A 
HETATM    8  N4  UNL     1     -29.974 -15.927 -12.901  1.00  0.00    -0.022 N 
HETATM    9  C5  UNL     1     -30.435 -15.385 -14.059  1.00  0.00     0.705 A 
ATOM     10  H4  UNL     1     -30.228 -16.880 -12.637  1.00  0.00     0.203 HD
HETATM   11  N2  UNL     1     -30.097 -14.128 -14.405  1.00  0.00    -0.022 N 
HETATM   12  C4  UNL     1     -29.300 -13.375 -13.626  1.00  0.00     0.709 A 
ATOM     13  H2  UNL     1     -30.453 -13.738 -15.278  1.00  0.00     0.203 HD
HETATM   14  N14 UNL     1     -28.854 -13.933 -12.482  1.00  0.00    -0.021 N 
ATOM     15  H14 UNL     1     -28.247 -13.385 -11.873  1.00  0.00     0.203 HD
BRANCH   9  16
HETATM   16  N3  UNL     1     -31.197 -16.113 -14.800  1.00  0.00    -0.234 N 
ATOM     17  H32 UNL     1     -31.126 -15.998 -15.812  1.00  0.00     0.174 HD
ATOM     18  H31 UNL     1     -31.852 -16.785 -14.402  1.00  0.00     0.174 HD
ENDBRANCH   9  16
BRANCH  12  19
HETATM   19  N1  UNL     1     -28.966 -12.062 -14.035  1.00  0.00    -0.221 N 
HETATM   20  C3  UNL     1     -29.931 -11.256 -14.730  1.00  0.00     0.168 C 
BRANCH  19  21
HETATM   21  C2  UNL     1     -27.650 -11.542 -13.760  1.00  0.00     0.136 C 
HETATM   22  C1  UNL     1     -27.647 -10.485 -12.669  1.00  0.00     0.027 C 
ENDBRANCH  19  21
ENDBRANCH  12  19
ENDBRANCH   5   7
ENDBRANCH   4   5
ENDBRANCH   3   4
ENDBRANCH   1   3
BRANCH   1  23
HETATM   23  C9  UNL     1     -30.907 -13.018  -9.070  1.00  0.00     0.719 A 
HETATM   24  N7  UNL     1     -31.080 -12.389 -10.253  1.00  0.00    -0.137 N 
HETATM   25  C10 UNL     1     -30.674 -11.118 -10.403  1.00  0.00     0.374 A 
ATOM     26  H7  UNL     1     -31.518 -12.880 -11.033  1.00  0.00     0.189 HD
HETATM   27  O1  UNL     1     -30.826 -10.530 -11.484  1.00  0.00    -0.244 OA
HETATM   28  N8  UNL     1     -30.094 -10.478  -9.368  1.00  0.00    -0.035 N 
HETATM   29  C11 UNL     1     -29.921 -11.104  -8.187  1.00  0.00     0.758 A 
HETATM   30  N10 UNL     1     -29.385 -10.706  -7.017  1.00  0.00    -0.017 N 
HETATM   31  N13 UNL     1     -30.322 -12.377  -8.019  1.00  0.00     0.107 N 
HETATM   32  C12 UNL     1     -29.446 -11.718  -6.123  1.00  0.00     0.706 A 
ATOM     33  H10 UNL     1     -28.992  -9.783  -6.834  1.00  0.00     0.203 HD
HETATM   34  N12 UNL     1     -30.033 -12.734  -6.779  1.00  0.00    -0.096 N 
ATOM     35  H12 UNL     1     -30.227 -13.650  -6.376  1.00  0.00     0.207 HD
BRANCH  28  36
HETATM   36  N9  UNL     1     -29.645  -9.145  -9.453  1.00  0.00    -0.320 N 
ATOM     37  H92 UNL     1     -28.683  -8.965  -9.164  1.00  0.00     0.178 HD
ATOM     38  H91 UNL     1     -30.237  -8.384  -9.784  1.00  0.00     0.178 HD
ENDBRANCH  28  36
BRANCH  32  39
HETATM   39  N11 UNL     1     -29.016 -11.688  -4.884  1.00  0.00    -0.233 N 
ATOM     40 2H11 UNL     1     -28.057 -11.590  -4.548  1.00  0.00     0.174 HD
ATOM     41 1H11 UNL     1     -29.589 -11.760  -4.043  1.00  0.00     0.174 HD
ENDBRANCH  32  39
ENDBRANCH   1  23
TORSDOF 10
ENDMDL
MODEL 4
REMARK VINA RESULT: -7.525977343      2.756      6.948
REMARK  10 active torsions:
REMARK  status: ('A' for Active; 'I' for Inactive)
REMARK    1  A    between atoms: C2_2  and  N1_3 
REMARK    2  A    between atoms: N1_3  and  C4_5 
REMARK    3  A    between atoms: C5_8  and  N3_9 
REMARK    4  A    between atoms: C6_14  and  N5_15 
REMARK    5  A    between atoms: N5_15  and  C7_17 
REMARK    6  A    between atoms: C7_17  and  C8_18 
REMARK    7  A    between atoms: C8_18  and  N6_19 
REMARK    8  A    between atoms: N6_19  and  C9_21 
REMARK    9  A    between atoms: N8_26  and  N9_27 
REMARK   10  A    between atoms: C12_33  and  N11_34 
ROOT
HETATM    1  N6  UNL     1     -29.831 -14.994 -10.045  1.00  0.00    -0.222 N 
ATOM      2  H6  UNL     1     -30.772 -14.613  -9.951  1.00  0.00     0.177 HD
ENDROOT
BRANCH   1   3
HETATM    3  C8  UNL     1     -29.250 -15.669  -8.933  1.00  0.00     0.158 C 
BRANCH   3   4
HETATM    4  C7  UNL     1     -29.420 -14.944  -7.622  1.00  0.00     0.158 C 
BRANCH   4   5
HETATM    5  N5  UNL     1     -28.695 -13.715  -7.525  1.00  0.00    -0.224 N 
ATOM      6  H5  UNL     1     -27.693 -13.697  -7.714  1.00  0.00     0.177 HD
BRANCH   5   7
HETATM    7  C6  UNL     1     -29.305 -12.640  -7.201  1.00  0.00     0.707 A 
HETATM    8  N4  UNL     1     -28.578 -11.567  -6.862  1.00  0.00    -0.022 N 
HETATM    9  C5  UNL     1     -29.221 -10.422  -6.511  1.00  0.00     0.705 A 
ATOM     10  H4  UNL     1     -27.559 -11.609  -6.866  1.00  0.00     0.203 HD
HETATM   11  N2  UNL     1     -30.567 -10.370  -6.504  1.00  0.00    -0.022 N 
HETATM   12  C4  UNL     1     -31.313 -11.438  -6.841  1.00  0.00     0.709 A 
ATOM     13  H2  UNL     1     -31.031  -9.502  -6.238  1.00  0.00     0.203 HD
HETATM   14  N14 UNL     1     -30.654 -12.563  -7.186  1.00  0.00    -0.021 N 
ATOM     15  H14 UNL     1     -31.195 -13.388  -7.444  1.00  0.00     0.203 HD
BRANCH   9  16
HETATM   16  N3  UNL     1     -28.500  -9.404  -6.188  1.00  0.00    -0.234 N 
ATOM     17  H32 UNL     1     -28.801  -8.842  -5.392  1.00  0.00     0.174 HD
ATOM     18  H31 UNL     1     -27.655  -9.158  -6.704  1.00  0.00     0.174 HD
ENDBRANCH   9  16
BRANCH  12  19
HETATM   19  N1  UNL     1     -32.724 -11.337  -6.812  1.00  0.00    -0.221 N 
HETATM   20  C3  UNL     1     -33.354 -10.205  -6.192  1.00  0.00     0.168 C 
BRANCH  19  21
HETATM   21  C2  UNL     1     -33.526 -12.382  -7.399  1.00  0.00     0.136 C 
HETATM   22  C1  UNL     1     -33.910 -12.093  -8.840  1.00  0.00     0.027 C 
ENDBRANCH  19  21
ENDBRANCH  12  19
ENDBRANCH   5   7
ENDBRANCH   4   5
ENDBRANCH   3   4
ENDBRANCH   1   3
BRANCH   1  23
HETATM   23  C9  UNL     1     -29.213 -14.847 -11.162  1.00  0.00     0.719 A 
HETATM   24  N7  UNL     1     -28.980 -15.877 -12.005  1.00  0.00    -0.137 N 
HETATM   25  C10 UNL     1     -28.332 -15.665 -13.162  1.00  0.00     0.374 A 
ATOM     26  H7  UNL     1     -29.297 -16.816 -11.764  1.00  0.00     0.189 HD
HETATM   27  O1  UNL     1     -28.112 -16.601 -13.944  1.00  0.00    -0.244 OA
HETATM   28  N8  UNL     1     -27.915 -14.421 -13.472  1.00  0.00    -0.035 N 
HETATM   29  C11 UNL     1     -28.146 -13.392 -12.632  1.00  0.00     0.758 A 
HETATM   30  N10 UNL     1     -27.846 -12.081 -12.696  1.00  0.00    -0.017 N 
HETATM   31  N13 UNL     1     -28.794 -13.587 -11.470  1.00  0.00     0.107 N 
HETATM   32  C12 UNL     1     -28.298 -11.457 -11.586  1.00  0.00     0.706 A 
ATOM     33  H10 UNL     1     -27.352 -11.628 -13.465  1.00  0.00     0.203 HD
HETATM   34  N12 UNL     1     -28.881 -12.421 -10.852  1.00  0.00    -0.096 N 
ATOM     35  H12 UNL     1     -29.326 -12.273  -9.947  1.00  0.00     0.207 HD
BRANCH  28  36
HETATM   36  N9  UNL     1     -27.229 -14.124 -14.667  1.00  0.00    -0.320 N 
ATOM     37  H92 UNL     1     -26.365 -13.589 -14.581  1.00  0.00     0.178 HD
ATOM     38  H91 UNL     1     -27.566 -14.420 -15.583  1.00  0.00     0.178 HD
ENDBRANCH  28  36
BRANCH  32  39
HETATM   39  N11 UNL     1     -28.182 -10.179 -11.310  1.00  0.00    -0.233 N 
ATOM     40 2H11 UNL     1     -28.501  -9.381 -11.858  1.00  0.00     0.174 HD
ATOM     41 1H11 UNL     1     -27.742  -9.778 -10.482  1.00  0.00     0.174 HD
ENDBRANCH  32  39
ENDBRANCH   1  23
TORSDOF 10
ENDMDL
MODEL 5
REMARK VINA RESULT: -7.510222113      1.454      2.711
REMARK  10 active torsions:
REMARK  status: ('A' for Active; 'I' for Inactive)
REMARK    1  A    between atoms: C2_2  and  N1_3 
REMARK    2  A    between atoms: N1_3  and  C4_5 
REMARK    3  A    between atoms: C5_8  and  N3_9 
REMARK    4  A    between atoms: C6_14  and  N5_15 
REMARK    5  A    between atoms: N5_15  and  C7_17 
REMARK    6  A    between atoms: C7_17  and  C8_18 
REMARK    7  A    between atoms: C8_18  and  N6_19 
REMARK    8  A    between atoms: N6_19  and  C9_21 
REMARK    9  A    between atoms: N8_26  and  N9_27 
REMARK   10  A    between atoms: C12_33  and  N11_34 
ROOT
HETATM    1  N6  UNL     1     -30.746 -11.091  -9.329  1.00  0.00    -0.222 N 
ATOM      2  H6  UNL     1     -31.346 -10.455  -8.804  1.00  0.00     0.177 HD
ENDROOT
BRANCH   1   3
HETATM    3  C8  UNL     1     -30.575 -10.877 -10.726  1.00  0.00     0.158 C 
BRANCH   3   4
HETATM    4  C7  UNL     1     -29.240 -10.281 -11.093  1.00  0.00     0.158 C 
BRANCH   4   5
HETATM    5  N5  UNL     1     -28.340 -11.190 -11.731  1.00  0.00    -0.224 N 
ATOM      6  H5  UNL     1     -27.387 -11.295 -11.382  1.00  0.00     0.177 HD
BRANCH   5   7
HETATM    7  C6  UNL     1     -28.731 -11.870 -12.741  1.00  0.00     0.707 A 
HETATM    8  N4  UNL     1     -29.052 -11.219 -13.867  1.00  0.00    -0.022 N 
HETATM    9  C5  UNL     1     -29.473 -11.936 -14.943  1.00  0.00     0.705 A 
ATOM     10  H4  UNL     1     -28.981 -10.202 -13.917  1.00  0.00     0.203 HD
HETATM   11  N2  UNL     1     -29.567 -13.278 -14.874  1.00  0.00    -0.022 N 
HETATM   12  C4  UNL     1     -29.250 -13.947 -13.751  1.00  0.00     0.709 A 
ATOM     13  H2  UNL     1     -29.885 -13.797 -15.692  1.00  0.00     0.203 HD
HETATM   14  N14 UNL     1     -28.834 -13.217 -12.697  1.00  0.00    -0.021 N 
ATOM     15  H14 UNL     1     -28.589 -13.698 -11.832  1.00  0.00     0.203 HD
BRANCH   9  16
HETATM   16  N3  UNL     1     -29.776 -11.286 -16.014  1.00  0.00    -0.234 N 
ATOM     17  H32 UNL     1     -30.495 -11.681 -16.621  1.00  0.00     0.174 HD
ATOM     18  H31 UNL     1     -29.320 -10.407 -16.258  1.00  0.00     0.174 HD
ENDBRANCH   9  16
BRANCH  12  19
HETATM   19  N1  UNL     1     -29.372 -15.357 -13.724  1.00  0.00    -0.221 N 
HETATM   20  C3  UNL     1     -28.451 -16.146 -12.954  1.00  0.00     0.168 C 
BRANCH  19  21
HETATM   21  C2  UNL     1     -30.419 -15.996 -14.481  1.00  0.00     0.136 C 
HETATM   22  C1  UNL     1     -30.090 -17.434 -14.849  1.00  0.00     0.027 C 
ENDBRANCH  19  21
ENDBRANCH  12  19
ENDBRANCH   5   7
ENDBRANCH   4   5
ENDBRANCH   3   4
ENDBRANCH   1   3
BRANCH   1  23
HETATM   23  C9  UNL     1     -30.173 -12.057  -8.704  1.00  0.00     0.719 A 
HETATM   24  N7  UNL     1     -29.945 -13.260  -9.276  1.00  0.00    -0.137 N 
HETATM   25  C10 UNL     1     -29.339 -14.232  -8.576  1.00  0.00     0.374 A 
ATOM     26  H7  UNL     1     -30.233 -13.430 -10.240  1.00  0.00     0.189 HD
HETATM   27  O1  UNL     1     -29.124 -15.340  -9.089  1.00  0.00    -0.244 OA
HETATM   28  N8  UNL     1     -28.962 -14.000  -7.302  1.00  0.00    -0.035 N 
HETATM   29  C11 UNL     1     -29.189 -12.801  -6.729  1.00  0.00     0.758 A 
HETATM   30  N10 UNL     1     -28.921 -12.313  -5.503  1.00  0.00    -0.017 N 
HETATM   31  N13 UNL     1     -29.795 -11.815  -7.416  1.00  0.00     0.107 N 
HETATM   32  C12 UNL     1     -29.354 -11.036  -5.418  1.00  0.00     0.706 A 
ATOM     33  H10 UNL     1     -28.461 -12.830  -4.753  1.00  0.00     0.203 HD
HETATM   34  N12 UNL     1     -29.887 -10.763  -6.621  1.00  0.00    -0.096 N 
ATOM     35  H12 UNL     1     -30.304  -9.870  -6.882  1.00  0.00     0.207 HD
BRANCH  28  36
HETATM   36  N9  UNL     1     -28.322 -14.972  -6.508  1.00  0.00    -0.320 N 
ATOM     37  H92 UNL     1     -27.662 -15.590  -6.981  1.00  0.00     0.178 HD
ATOM     38  H91 UNL     1     -28.498 -15.070  -5.509  1.00  0.00     0.178 HD
ENDBRANCH  28  36
BRANCH  32  39
HETATM   39  N11 UNL     1     -29.260 -10.251  -4.370  1.00  0.00    -0.233 N 
ATOM     40 2H11 UNL     1     -28.512 -10.205  -3.678  1.00  0.00     0.174 HD
ATOM     41 1H11 UNL     1     -29.939  -9.548  -4.079  1.00  0.00     0.174 HD
ENDBRANCH  32  39
ENDBRANCH   1  23
TORSDOF 10
ENDMDL
