MODEL 1
REMARK VINA RESULT: -6.572548438      0.000      0.000
REMARK  2 active torsions:
REMARK  status: ('A' for Active; 'I' for Inactive)
REMARK    1  A    between atoms: O1_2  and  C2_3 
REMARK    2  A    between atoms: C2_3  and  C3_5 
ROOT
HETATM    1  C3  UNL     1       2.013 -31.019 -20.030  1.00  0.00     0.124 A 
HETATM    2  C4  UNL     1       2.619 -31.275 -21.260  1.00  0.00     0.142 A 
HETATM    3  N1  UNL     1       1.976 -32.169 -22.137  1.00  0.00    -0.081 NA
HETATM    4  N2  UNL     1       3.785 -30.701 -21.630  1.00  0.00    -0.291 N 
HETATM    5  C5  UNL     1       4.358 -31.018 -22.933  1.00  0.00     0.162 C 
HETATM    6  C6  UNL     1       4.383 -29.852 -20.782  1.00  0.00     0.329 A 
HETATM    7  O3  UNL     1       5.467 -29.332 -21.153  1.00  0.00    -0.246 OA
HETATM    8  N3  UNL     1       3.815 -29.600 -19.607  1.00  0.00    -0.294 N 
ATOM      9  H3  UNL     1       4.289 -28.951 -18.978  1.00  0.00     0.172 HD
HETATM   10  C7  UNL     1       2.628 -30.158 -19.181  1.00  0.00     0.122 A 
HETATM   11  N4  UNL     1       2.199 -29.832 -18.039  1.00  0.00    -0.384 N 
ATOM     12  H41 UNL     1       2.661 -29.185 -17.401  1.00  0.00     0.157 HD
ATOM     13  H42 UNL     1       1.321 -30.245 -17.724  1.00  0.00     0.157 HD
ENDROOT
BRANCH   1  14
HETATM   14  C2  UNL     1       0.773 -31.674 -19.721  1.00  0.00     0.300 C 
HETATM   15  O2  UNL     1      -0.296 -31.299 -20.341  1.00  0.00    -0.259 OA
BRANCH  14  16
HETATM   16  O1  UNL     1       0.534 -32.690 -18.825  1.00  0.00    -0.322 OA
HETATM   17  C1  UNL     1       1.453 -33.712 -18.514  1.00  0.00     0.213 C 
ENDBRANCH  14  16
ENDBRANCH   1  14
TORSDOF 2
ENDMDL
MODEL 2
REMARK VINA RESULT: -6.411577801      1.151      1.220
REMARK  2 active torsions:
REMARK  status: ('A' for Active; 'I' for Inactive)
REMARK    1  A    between atoms: O1_2  and  C2_3 
REMARK    2  A    between atoms: C2_3  and  C3_5 
ROOT
HETATM    1  C3  UNL     1       2.623 -31.581 -19.374  1.00  0.00     0.124 A 
HETATM    2  C4  UNL     1       3.464 -32.047 -20.385  1.00  0.00     0.142 A 
HETATM    3  N1  UNL     1       3.254 -33.352 -20.866  1.00  0.00    -0.081 NA
HETATM    4  N2  UNL     1       4.457 -31.295 -20.909  1.00  0.00    -0.291 N 
HETATM    5  C5  UNL     1       5.295 -31.850 -21.965  1.00  0.00     0.162 C 
HETATM    6  C6  UNL     1       4.642 -30.053 -20.438  1.00  0.00     0.329 A 
HETATM    7  O3  UNL     1       5.574 -29.375 -20.945  1.00  0.00    -0.246 OA
HETATM    8  N3  UNL     1       3.847 -29.599 -19.474  1.00  0.00    -0.294 N 
ATOM      9  H3  UNL     1       4.008 -28.651 -19.132  1.00  0.00     0.172 HD
HETATM   10  C7  UNL     1       2.820 -30.323 -18.906  1.00  0.00     0.122 A 
HETATM   11  N4  UNL     1       2.141 -29.771 -17.997  1.00  0.00    -0.384 N 
ATOM     12  H41 UNL     1       2.289 -28.826 -17.646  1.00  0.00     0.157 HD
ATOM     13  H42 UNL     1       1.381 -30.307 -17.577  1.00  0.00     0.157 HD
ENDROOT
BRANCH   1  14
HETATM   14  C2  UNL     1       1.593 -32.450 -18.878  1.00  0.00     0.300 C 
HETATM   15  O2  UNL     1       0.371 -32.226 -19.229  1.00  0.00    -0.259 OA
BRANCH  14  16
HETATM   16  O1  UNL     1       1.711 -33.540 -18.047  1.00  0.00    -0.322 OA
HETATM   17  C1  UNL     1       0.822 -34.633 -18.034  1.00  0.00     0.213 C 
ENDBRANCH  14  16
ENDBRANCH   1  14
TORSDOF 2
ENDMDL
MODEL 3
REMARK VINA RESULT: -6.017981753      1.681      3.669
REMARK  2 active torsions:
REMARK  status: ('A' for Active; 'I' for Inactive)
REMARK    1  A    between atoms: O1_2  and  C2_3 
REMARK    2  A    between atoms: C2_3  and  C3_5 
ROOT
HETATM    1  C3  UNL     1       3.376 -30.603 -19.795  1.00  0.00     0.124 A 
HETATM    2  C4  UNL     1       3.095 -31.213 -21.018  1.00  0.00     0.142 A 
HETATM    3  N1  UNL     1       4.176 -31.513 -21.868  1.00  0.00    -0.081 NA
HETATM    4  N2  UNL     1       1.837 -31.521 -21.405  1.00  0.00    -0.291 N 
HETATM    5  C5  UNL     1       1.622 -32.159 -22.699  1.00  0.00     0.162 C 
HETATM    6  C6  UNL     1       0.820 -31.227 -20.583  1.00  0.00     0.329 A 
HETATM    7  O3  UNL     1      -0.341 -31.526 -20.969  1.00  0.00    -0.246 OA
HETATM    8  N3  UNL     1       1.075 -30.646 -19.415  1.00  0.00    -0.294 N 
ATOM      9  H3  UNL     1       0.285 -30.433 -18.806  1.00  0.00     0.172 HD
HETATM   10  C7  UNL     1       2.338 -30.312 -18.972  1.00  0.00     0.122 A 
HETATM   11  N4  UNL     1       2.440 -29.763 -17.840  1.00  0.00    -0.384 N 
ATOM     12  H41 UNL     1       1.660 -29.544 -17.221  1.00  0.00     0.157 HD
ATOM     13  H42 UNL     1       3.374 -29.515 -17.512  1.00  0.00     0.157 HD
ENDROOT
BRANCH   1  14
HETATM   14  C2  UNL     1       4.743 -30.313 -19.467  1.00  0.00     0.300 C 
HETATM   15  O2  UNL     1       5.170 -29.102 -19.605  1.00  0.00    -0.259 OA
BRANCH  14  16
HETATM   16  O1  UNL     1       5.719 -31.166 -19.004  1.00  0.00    -0.322 OA
HETATM   17  C1  UNL     1       5.750 -31.713 -17.706  1.00  0.00     0.213 C 
ENDBRANCH  14  16
ENDBRANCH   1  14
TORSDOF 2
ENDMDL
MODEL 4
REMARK VINA RESULT: -5.908787732      1.196      1.700
REMARK  2 active torsions:
REMARK  status: ('A' for Active; 'I' for Inactive)
REMARK    1  A    between atoms: O1_2  and  C2_3 
REMARK    2  A    between atoms: C2_3  and  C3_5 
ROOT
HETATM    1  C3  UNL     1       2.872 -31.473 -19.517  1.00  0.00     0.124 A 
HETATM    2  C4  UNL     1       3.620 -31.987 -20.577  1.00  0.00     0.142 A 
HETATM    3  N1  UNL     1       3.207 -33.208 -21.142  1.00  0.00    -0.081 NA
HETATM    4  N2  UNL     1       4.710 -31.359 -21.070  1.00  0.00    -0.291 N 
HETATM    5  C5  UNL     1       5.441 -31.957 -22.181  1.00  0.00     0.162 C 
HETATM    6  C6  UNL     1       5.088 -30.196 -20.518  1.00  0.00     0.329 A 
HETATM    7  O3  UNL     1       6.106 -29.633 -20.998  1.00  0.00    -0.246 OA
HETATM    8  N3  UNL     1       4.384 -29.697 -19.508  1.00  0.00    -0.294 N 
ATOM      9  H3  UNL     1       4.691 -28.812 -19.105  1.00  0.00     0.172 HD
HETATM   10  C7  UNL     1       3.265 -30.296 -18.968  1.00  0.00     0.122 A 
HETATM   11  N4  UNL     1       2.688 -29.714 -18.008  1.00  0.00    -0.384 N 
ATOM     12  H41 UNL     1       2.983 -28.830 -17.596  1.00  0.00     0.157 HD
ATOM     13  H42 UNL     1       1.861 -30.158 -17.609  1.00  0.00     0.157 HD
ENDROOT
BRANCH   1  14
HETATM   14  C2  UNL     1       1.728 -32.210 -19.059  1.00  0.00     0.300 C 
HETATM   15  O2  UNL     1       1.903 -33.146 -18.188  1.00  0.00    -0.259 OA
BRANCH  14  16
HETATM   16  O1  UNL     1       0.408 -32.066 -19.420  1.00  0.00    -0.322 OA
HETATM   17  C1  UNL     1      -0.036 -31.352 -20.552  1.00  0.00     0.213 C 
ENDBRANCH  14  16
ENDBRANCH   1  14
TORSDOF 2
ENDMDL
MODEL 5
REMARK VINA RESULT: -5.904980147      0.722      2.488
REMARK  2 active torsions:
REMARK  status: ('A' for Active; 'I' for Inactive)
REMARK    1  A    between atoms: O1_2  and  C2_3 
REMARK    2  A    between atoms: C2_3  and  C3_5 
ROOT
HETATM    1  C3  UNL     1       2.007 -31.329 -20.488  1.00  0.00     0.124 A 
HETATM    2  C4  UNL     1       2.842 -30.485 -19.755  1.00  0.00     0.142 A 
HETATM    3  N1  UNL     1       2.435 -30.122 -18.457  1.00  0.00    -0.081 NA
HETATM    4  N2  UNL     1       4.011 -30.013 -20.243  1.00  0.00    -0.291 N 
HETATM    5  C5  UNL     1       4.830 -29.136 -19.416  1.00  0.00     0.162 C 
HETATM    6  C6  UNL     1       4.382 -30.369 -21.481  1.00  0.00     0.329 A 
HETATM    7  O3  UNL     1       5.475 -29.916 -21.910  1.00  0.00    -0.246 OA
HETATM    8  N3  UNL     1       3.595 -31.173 -22.190  1.00  0.00    -0.294 N 
ATOM      9  H3  UNL     1       3.899 -31.429 -23.129  1.00  0.00     0.172 HD
HETATM   10  C7  UNL     1       2.395 -31.682 -21.740  1.00  0.00     0.122 A 
HETATM   11  N4  UNL     1       1.745 -32.434 -22.516  1.00  0.00    -0.384 N 
ATOM     12  H41 UNL     1       2.036 -32.700 -23.456  1.00  0.00     0.157 HD
ATOM     13  H42 UNL     1       0.857 -32.811 -22.184  1.00  0.00     0.157 HD
ENDROOT
BRANCH   1  14
HETATM   14  C2  UNL     1       0.784 -31.782 -19.888  1.00  0.00     0.300 C 
HETATM   15  O2  UNL     1      -0.335 -31.329 -20.347  1.00  0.00    -0.259 OA
BRANCH  14  16
HETATM   16  O1  UNL     1       0.609 -32.667 -18.850  1.00  0.00    -0.322 OA
HETATM   17  C1  UNL     1       1.493 -33.719 -18.541  1.00  0.00     0.213 C 
ENDBRANCH  14  16
ENDBRANCH   1  14
TORSDOF 2
ENDMDL
