MODEL 1
REMARK VINA RESULT: -8.086482755      0.000      0.000
REMARK  5 active torsions:
REMARK  status: ('A' for Active; 'I' for Inactive)
REMARK    1  A    between atoms: C5_8  and  C6_9 
REMARK    2  A    between atoms: C6_9  and  N3_10 
REMARK    3  A    between atoms: C10_17  and  C11_18 
REMARK    4  A    between atoms: C11_18  and  N5_19 
REMARK    5  A    between atoms: C14_27  and  N8_28 
ROOT
HETATM    1  N1  UNL     1      19.034  34.223  56.620  1.00  0.00    -0.191 NA
HETATM    2  C1  UNL     1      19.635  34.599  55.705  1.00  0.00     0.099 C 
HETATM    3  C2  UNL     1      20.392  35.084  54.584  1.00  0.00     0.048 A 
HETATM    4  C3  UNL     1      19.754  35.902  53.677  1.00  0.00     0.039 A 
HETATM    5  C4  UNL     1      20.477  36.368  52.601  1.00  0.00     0.090 A 
HETATM    6  N2  UNL     1      21.749  36.015  52.478  1.00  0.00    -0.365 N 
ATOM      7  H2  UNL     1      22.250  36.379  51.668  1.00  0.00     0.165 HD
HETATM    8  C5  UNL     1      22.436  35.234  53.304  1.00  0.00     0.049 A 
HETATM    9  C17 UNL     1      21.714  34.749  54.407  1.00  0.00     0.053 A 
ENDROOT
BRANCH   8  10
HETATM   10  C6  UNL     1      23.861  34.869  53.121  1.00  0.00     0.120 C 
BRANCH  10  11
HETATM   11  N3  UNL     1      24.651  35.502  54.088  1.00  0.00    -0.358 N 
HETATM   12  C7  UNL     1      25.339  36.683  53.800  1.00  0.00     0.091 C 
HETATM   13  C8  UNL     1      25.412  37.519  55.076  1.00  0.00     0.277 C 
HETATM   14  N4  UNL     1      25.968  36.791  56.162  1.00  0.00    -0.069 N 
HETATM   15  C9  UNL     1      25.451  35.482  56.316  1.00  0.00     0.259 C 
ATOM     16  H42 UNL     1      26.985  36.765  56.088  1.00  0.00     0.277 HD
ATOM     17  H41 UNL     1      25.870  37.317  57.030  1.00  0.00     0.277 HD
HETATM   18  C10 UNL     1      25.270  34.676  55.063  1.00  0.00     0.133 C 
BRANCH  18  19
HETATM   19  C11 UNL     1      26.524  34.045  54.520  1.00  0.00     0.176 C 
BRANCH  19  20
HETATM   20  N5  UNL     1      26.323  32.891  53.689  1.00  0.00    -0.164 N 
HETATM   21  C12 UNL     1      26.729  32.712  52.429  1.00  0.00     0.680 A 
HETATM   22  N6  UNL     1      27.352  33.514  51.645  1.00  0.00    -0.234 N 
HETATM   23  N7  UNL     1      26.353  31.465  52.008  1.00  0.00    -0.184 N 
ATOM     24  H62 UNL     1      27.632  34.443  51.958  1.00  0.00     0.174 HD
ATOM     25  H61 UNL     1      27.662  33.377  50.683  1.00  0.00     0.174 HD
HETATM   26  C13 UNL     1      25.708  30.849  53.002  1.00  0.00     0.137 A 
ATOM     27  H7  UNL     1      26.536  31.070  51.086  1.00  0.00     0.184 HD
HETATM   28  C14 UNL     1      25.127  29.601  53.115  1.00  0.00     0.131 A 
HETATM   29  C16 UNL     1      25.693  31.746  54.048  1.00  0.00     0.155 A 
HETATM   30  N9  UNL     1      24.551  29.303  54.284  1.00  0.00    -0.337 N 
HETATM   31  C15 UNL     1      24.533  30.180  55.317  1.00  0.00     0.183 A 
ATOM     32  H9  UNL     1      24.113  28.389  54.402  1.00  0.00     0.168 HD
HETATM   33  N10 UNL     1      25.098  31.382  55.191  1.00  0.00    -0.336 N 
ATOM     34  H10 UNL     1      25.077  32.032  55.977  1.00  0.00     0.168 HD
BRANCH  28  35
HETATM   35  N8  UNL     1      25.126  28.746  52.159  1.00  0.00    -0.383 N 
ATOM     36  H82 UNL     1      25.769  28.854  51.374  1.00  0.00     0.157 HD
ATOM     37  H81 UNL     1      24.500  27.941  52.138  1.00  0.00     0.157 HD
ENDBRANCH  28  35
ENDBRANCH  19  20
ENDBRANCH  18  19
ENDBRANCH  10  11
ENDBRANCH   8  10
TORSDOF 5
ENDMDL
MODEL 2
REMARK VINA RESULT: -7.923314389      1.934      6.536
REMARK  5 active torsions:
REMARK  status: ('A' for Active; 'I' for Inactive)
REMARK    1  A    between atoms: C5_8  and  C6_9 
REMARK    2  A    between atoms: C6_9  and  N3_10 
REMARK    3  A    between atoms: C10_17  and  C11_18 
REMARK    4  A    between atoms: C11_18  and  N5_19 
REMARK    5  A    between atoms: C14_27  and  N8_28 
ROOT
HETATM    1  N1  UNL     1      25.314  27.608  57.490  1.00  0.00    -0.191 NA
HETATM    2  C1  UNL     1      25.313  28.323  56.579  1.00  0.00     0.099 C 
HETATM    3  C2  UNL     1      25.288  29.205  55.445  1.00  0.00     0.048 A 
HETATM    4  C3  UNL     1      25.780  28.734  54.247  1.00  0.00     0.039 A 
HETATM    5  C4  UNL     1      25.758  29.577  53.158  1.00  0.00     0.090 A 
HETATM    6  N2  UNL     1      25.268  30.800  53.301  1.00  0.00    -0.365 N 
ATOM      7  H2  UNL     1      25.269  31.395  52.473  1.00  0.00     0.165 HD
HETATM    8  C5  UNL     1      24.776  31.330  54.416  1.00  0.00     0.049 A 
HETATM    9  C17 UNL     1      24.792  30.484  55.536  1.00  0.00     0.053 A 
ENDROOT
BRANCH   8  10
HETATM   10  C6  UNL     1      24.239  32.707  54.523  1.00  0.00     0.120 C 
BRANCH  10  11
HETATM   11  N3  UNL     1      25.177  33.631  54.046  1.00  0.00    -0.358 N 
HETATM   12  C7  UNL     1      26.430  33.764  54.645  1.00  0.00     0.091 C 
HETATM   13  C8  UNL     1      27.439  34.154  53.567  1.00  0.00     0.277 C 
HETATM   14  N4  UNL     1      27.032  35.309  52.846  1.00  0.00    -0.069 N 
HETATM   15  C9  UNL     1      25.676  35.298  52.440  1.00  0.00     0.259 C 
ATOM     16  H42 UNL     1      27.236  36.153  53.381  1.00  0.00     0.277 HD
ATOM     17  H41 UNL     1      27.642  35.460  52.043  1.00  0.00     0.277 HD
HETATM   18  C10 UNL     1      24.674  34.817  53.449  1.00  0.00     0.133 C 
BRANCH  18  19
HETATM   19  C11 UNL     1      24.284  35.825  54.497  1.00  0.00     0.176 C 
BRANCH  19  20
HETATM   20  N5  UNL     1      22.995  36.432  54.318  1.00  0.00    -0.164 N 
HETATM   21  C12 UNL     1      22.700  37.530  53.615  1.00  0.00     0.680 A 
HETATM   22  N6  UNL     1      23.473  38.321  52.966  1.00  0.00    -0.234 N 
HETATM   23  N7  UNL     1      21.352  37.758  53.682  1.00  0.00    -0.184 N 
ATOM     24  H62 UNL     1      24.477  38.151  52.916  1.00  0.00     0.174 HD
ATOM     25  H61 UNL     1      23.247  39.159  52.429  1.00  0.00     0.174 HD
HETATM   26  C13 UNL     1      20.788  36.805  54.429  1.00  0.00     0.137 A 
ATOM     27  H7  UNL     1      20.859  38.530  53.235  1.00  0.00     0.184 HD
HETATM   28  C14 UNL     1      19.485  36.561  54.814  1.00  0.00     0.131 A 
HETATM   29  C16 UNL     1      21.820  35.982  54.822  1.00  0.00     0.155 A 
HETATM   30  N9  UNL     1      19.270  35.489  55.585  1.00  0.00    -0.337 N 
HETATM   31  C15 UNL     1      20.280  34.675  55.975  1.00  0.00     0.183 A 
ATOM     32  H9  UNL     1      18.318  35.279  55.887  1.00  0.00     0.168 HD
HETATM   33  N10 UNL     1      21.534  34.925  55.595  1.00  0.00    -0.336 N 
ATOM     34  H10 UNL     1      22.285  34.304  55.895  1.00  0.00     0.168 HD
BRANCH  28  35
HETATM   35  N8  UNL     1      18.504  37.310  54.463  1.00  0.00    -0.383 N 
ATOM     36  H82 UNL     1      18.368  37.549  53.481  1.00  0.00     0.157 HD
ATOM     37  H81 UNL     1      17.834  37.691  55.130  1.00  0.00     0.157 HD
ENDBRANCH  28  35
ENDBRANCH  19  20
ENDBRANCH  18  19
ENDBRANCH  10  11
ENDBRANCH   8  10
TORSDOF 5
ENDMDL
MODEL 3
REMARK VINA RESULT: -7.822452450      1.787      6.953
REMARK  5 active torsions:
REMARK  status: ('A' for Active; 'I' for Inactive)
REMARK    1  A    between atoms: C5_8  and  C6_9 
REMARK    2  A    between atoms: C6_9  and  N3_10 
REMARK    3  A    between atoms: C10_17  and  C11_18 
REMARK    4  A    between atoms: C11_18  and  N5_19 
REMARK    5  A    between atoms: C14_27  and  N8_28 
ROOT
HETATM    1  N1  UNL     1      26.446  27.609  51.764  1.00  0.00    -0.191 NA
HETATM    2  C1  UNL     1      26.103  28.115  52.748  1.00  0.00     0.099 C 
HETATM    3  C2  UNL     1      25.700  28.756  53.968  1.00  0.00     0.048 A 
HETATM    4  C3  UNL     1      25.856  28.060  55.148  1.00  0.00     0.039 A 
HETATM    5  C4  UNL     1      25.469  28.672  56.320  1.00  0.00     0.090 A 
HETATM    6  N2  UNL     1      24.966  29.897  56.271  1.00  0.00    -0.365 N 
ATOM      7  H2  UNL     1      24.692  30.316  57.159  1.00  0.00     0.165 HD
HETATM    8  C5  UNL     1      24.784  30.635  55.181  1.00  0.00     0.049 A 
HETATM    9  C17 UNL     1      25.172  30.025  53.977  1.00  0.00     0.053 A 
ENDROOT
BRANCH   8  10
HETATM   10  C6  UNL     1      24.216  32.003  55.181  1.00  0.00     0.120 C 
BRANCH  10  11
HETATM   11  N3  UNL     1      24.919  32.819  54.286  1.00  0.00    -0.358 N 
HETATM   12  C7  UNL     1      26.282  33.070  54.452  1.00  0.00     0.091 C 
HETATM   13  C8  UNL     1      26.910  33.245  53.071  1.00  0.00     0.277 C 
HETATM   14  N4  UNL     1      26.242  34.236  52.301  1.00  0.00    -0.069 N 
HETATM   15  C9  UNL     1      24.830  34.142  52.324  1.00  0.00     0.259 C 
ATOM     16  H42 UNL     1      26.541  35.168  52.586  1.00  0.00     0.277 HD
ATOM     17  H41 UNL     1      26.583  34.229  51.340  1.00  0.00     0.277 HD
HETATM   18  C10 UNL     1      24.194  33.865  53.655  1.00  0.00     0.133 C 
BRANCH  18  19
HETATM   19  C11 UNL     1      24.064  35.056  54.565  1.00  0.00     0.176 C 
BRANCH  19  20
HETATM   20  N5  UNL     1      22.891  35.860  54.365  1.00  0.00    -0.164 N 
HETATM   21  C12 UNL     1      22.782  36.981  53.646  1.00  0.00     0.680 A 
HETATM   22  N6  UNL     1      23.678  37.631  52.999  1.00  0.00    -0.234 N 
HETATM   23  N7  UNL     1      21.488  37.423  53.695  1.00  0.00    -0.184 N 
ATOM     24  H62 UNL     1      24.643  37.302  52.962  1.00  0.00     0.174 HD
ATOM     25  H61 UNL     1      23.595  38.487  52.450  1.00  0.00     0.174 HD
HETATM   26  C13 UNL     1      20.771  36.582  54.445  1.00  0.00     0.137 A 
ATOM     27  H7  UNL     1      21.129  38.258  53.234  1.00  0.00     0.184 HD
HETATM   28  C14 UNL     1      19.442  36.554  54.817  1.00  0.00     0.131 A 
HETATM   29  C16 UNL     1      21.654  35.609  54.859  1.00  0.00     0.155 A 
HETATM   30  N9  UNL     1      19.050  35.540  55.597  1.00  0.00    -0.337 N 
HETATM   31  C15 UNL     1      19.913  34.580  56.008  1.00  0.00     0.183 A 
ATOM     32  H9  UNL     1      18.074  35.489  55.889  1.00  0.00     0.168 HD
HETATM   33  N10 UNL     1      21.195  34.622  55.640  1.00  0.00    -0.336 N 
ATOM     34  H10 UNL     1      21.833  33.892  55.956  1.00  0.00     0.168 HD
BRANCH  28  35
HETATM   35  N8  UNL     1      18.597  37.446  54.446  1.00  0.00    -0.383 N 
ATOM     36  H82 UNL     1      18.916  38.280  53.954  1.00  0.00     0.157 HD
ATOM     37  H81 UNL     1      17.596  37.365  54.622  1.00  0.00     0.157 HD
ENDBRANCH  28  35
ENDBRANCH  19  20
ENDBRANCH  18  19
ENDBRANCH  10  11
ENDBRANCH   8  10
TORSDOF 5
ENDMDL
MODEL 4
REMARK VINA RESULT: -7.707231898      1.620      2.132
REMARK  5 active torsions:
REMARK  status: ('A' for Active; 'I' for Inactive)
REMARK    1  A    between atoms: C5_8  and  C6_9 
REMARK    2  A    between atoms: C6_9  and  N3_10 
REMARK    3  A    between atoms: C10_17  and  C11_18 
REMARK    4  A    between atoms: C11_18  and  N5_19 
REMARK    5  A    between atoms: C14_27  and  N8_28 
ROOT
HETATM    1  N1  UNL     1      18.303  34.264  57.388  1.00  0.00    -0.191 NA
HETATM    2  C1  UNL     1      18.811  34.693  56.440  1.00  0.00     0.099 C 
HETATM    3  C2  UNL     1      19.460  35.235  55.278  1.00  0.00     0.048 A 
HETATM    4  C3  UNL     1      18.990  36.427  54.770  1.00  0.00     0.039 A 
HETATM    5  C4  UNL     1      19.609  36.947  53.655  1.00  0.00     0.090 A 
HETATM    6  N2  UNL     1      20.626  36.290  53.117  1.00  0.00    -0.365 N 
ATOM      7  H2  UNL     1      21.058  36.707  52.293  1.00  0.00     0.165 HD
HETATM    8  C5  UNL     1      21.139  35.141  53.543  1.00  0.00     0.049 A 
HETATM    9  C17 UNL     1      20.518  34.594  54.678  1.00  0.00     0.053 A 
ENDROOT
BRANCH   8  10
HETATM   10  C6  UNL     1      22.280  34.444  52.903  1.00  0.00     0.120 C 
BRANCH  10  11
HETATM   11  N3  UNL     1      23.365  34.380  53.786  1.00  0.00    -0.358 N 
HETATM   12  C7  UNL     1      24.101  35.521  54.111  1.00  0.00     0.091 C 
HETATM   13  C8  UNL     1      24.603  35.375  55.547  1.00  0.00     0.277 C 
HETATM   14  N4  UNL     1      25.321  34.164  55.741  1.00  0.00    -0.069 N 
HETATM   15  C9  UNL     1      24.697  33.018  55.191  1.00  0.00     0.259 C 
ATOM     16  H42 UNL     1      26.273  34.254  55.388  1.00  0.00     0.277 HD
ATOM     17  H41 UNL     1      25.515  34.021  56.732  1.00  0.00     0.277 HD
HETATM   18  C10 UNL     1      24.101  33.167  53.822  1.00  0.00     0.133 C 
BRANCH  18  19
HETATM   19  C11 UNL     1      25.084  33.097  52.684  1.00  0.00     0.176 C 
BRANCH  19  20
HETATM   20  N5  UNL     1      26.177  32.185  52.868  1.00  0.00    -0.164 N 
HETATM   21  C12 UNL     1      27.423  32.472  53.256  1.00  0.00     0.680 A 
HETATM   22  N6  UNL     1      27.960  33.606  53.521  1.00  0.00    -0.234 N 
HETATM   23  N7  UNL     1      28.150  31.314  53.328  1.00  0.00    -0.184 N 
ATOM     24  H62 UNL     1      27.418  34.469  53.468  1.00  0.00     0.174 HD
ATOM     25  H61 UNL     1      28.911  33.825  53.818  1.00  0.00     0.174 HD
HETATM   26  C13 UNL     1      27.365  30.289  52.986  1.00  0.00     0.137 A 
ATOM     27  H7  UNL     1      29.130  31.245  53.599  1.00  0.00     0.184 HD
HETATM   28  C14 UNL     1      27.585  28.929  52.889  1.00  0.00     0.131 A 
HETATM   29  C16 UNL     1      26.136  30.840  52.700  1.00  0.00     0.155 A 
HETATM   30  N9  UNL     1      26.551  28.172  52.507  1.00  0.00    -0.337 N 
HETATM   31  C15 UNL     1      25.339  28.708  52.224  1.00  0.00     0.183 A 
ATOM     32  H9  UNL     1      26.678  27.163  52.426  1.00  0.00     0.168 HD
HETATM   33  N10 UNL     1      25.143  30.024  52.322  1.00  0.00    -0.336 N 
ATOM     34  H10 UNL     1      24.226  30.414  52.107  1.00  0.00     0.168 HD
BRANCH  28  35
HETATM   35  N8  UNL     1      28.718  28.387  53.149  1.00  0.00    -0.383 N 
ATOM     36  H82 UNL     1      29.378  28.854  53.771  1.00  0.00     0.157 HD
ATOM     37  H81 UNL     1      29.005  27.491  52.757  1.00  0.00     0.157 HD
ENDBRANCH  28  35
ENDBRANCH  19  20
ENDBRANCH  18  19
ENDBRANCH  10  11
ENDBRANCH   8  10
TORSDOF 5
ENDMDL
MODEL 5
REMARK VINA RESULT: -7.703522103      1.242      1.634
REMARK  5 active torsions:
REMARK  status: ('A' for Active; 'I' for Inactive)
REMARK    1  A    between atoms: C5_8  and  C6_9 
REMARK    2  A    between atoms: C6_9  and  N3_10 
REMARK    3  A    between atoms: C10_17  and  C11_18 
REMARK    4  A    between atoms: C11_18  and  N5_19 
REMARK    5  A    between atoms: C14_27  and  N8_28 
ROOT
HETATM    1  N1  UNL     1      18.159  38.031  53.715  1.00  0.00    -0.191 NA
HETATM    2  C1  UNL     1      18.982  37.290  54.053  1.00  0.00     0.099 C 
HETATM    3  C2  UNL     1      19.998  36.356  54.454  1.00  0.00     0.048 A 
HETATM    4  C3  UNL     1      19.703  35.477  55.475  1.00  0.00     0.039 A 
HETATM    5  C4  UNL     1      20.675  34.581  55.861  1.00  0.00     0.090 A 
HETATM    6  N2  UNL     1      21.848  34.597  55.244  1.00  0.00    -0.365 N 
ATOM      7  H2  UNL     1      22.541  33.919  55.559  1.00  0.00     0.165 HD
HETATM    8  C5  UNL     1      22.211  35.407  54.255  1.00  0.00     0.049 A 
HETATM    9  C17 UNL     1      21.232  36.328  53.849  1.00  0.00     0.053 A 
ENDROOT
BRANCH   8  10
HETATM   10  C6  UNL     1      23.538  35.383  53.597  1.00  0.00     0.120 C 
BRANCH  10  11
HETATM   11  N3  UNL     1      24.547  35.647  54.532  1.00  0.00    -0.358 N 
HETATM   12  C7  UNL     1      25.225  36.867  54.539  1.00  0.00     0.091 C 
HETATM   13  C8  UNL     1      25.609  37.196  55.980  1.00  0.00     0.277 C 
HETATM   14  N4  UNL     1      26.337  36.141  56.594  1.00  0.00    -0.069 N 
HETATM   15  C9  UNL     1      25.789  34.852  56.384  1.00  0.00     0.259 C 
ATOM     16  H42 UNL     1      27.313  36.165  56.300  1.00  0.00     0.277 HD
ATOM     17  H41 UNL     1      26.451  36.320  57.591  1.00  0.00     0.277 HD
HETATM   18  C10 UNL     1      25.307  34.542  54.997  1.00  0.00     0.133 C 
BRANCH  18  19
HETATM   19  C11 UNL     1      26.383  34.173  54.011  1.00  0.00     0.176 C 
BRANCH  19  20
HETATM   20  N5  UNL     1      26.163  32.953  53.287  1.00  0.00    -0.164 N 
HETATM   21  C12 UNL     1      26.466  32.696  52.011  1.00  0.00     0.680 A 
HETATM   22  N6  UNL     1      26.982  33.460  51.119  1.00  0.00    -0.234 N 
HETATM   23  N7  UNL     1      26.112  31.407  51.716  1.00  0.00    -0.184 N 
ATOM     24  H62 UNL     1      27.246  34.420  51.339  1.00  0.00     0.174 HD
ATOM     25  H61 UNL     1      27.213  33.263  50.145  1.00  0.00     0.174 HD
HETATM   26  C13 UNL     1      25.584  30.843  52.805  1.00  0.00     0.137 A 
ATOM     27  H7  UNL     1      26.232  30.952  50.811  1.00  0.00     0.184 HD
HETATM   28  C14 UNL     1      25.072  29.586  53.058  1.00  0.00     0.131 A 
HETATM   29  C16 UNL     1      25.619  31.814  53.781  1.00  0.00     0.155 A 
HETATM   30  N9  UNL     1      24.613  29.353  54.292  1.00  0.00    -0.337 N 
HETATM   31  C15 UNL     1      24.645  30.304  55.257  1.00  0.00     0.183 A 
ATOM     32  H9  UNL     1      24.229  28.434  54.514  1.00  0.00     0.168 HD
HETATM   33  N10 UNL     1      25.143  31.514  54.996  1.00  0.00    -0.336 N 
ATOM     34  H10 UNL     1      25.161  32.220  55.732  1.00  0.00     0.168 HD
BRANCH  28  35
HETATM   35  N8  UNL     1      25.027  28.662  52.169  1.00  0.00    -0.383 N 
ATOM     36  H82 UNL     1      25.838  28.065  52.009  1.00  0.00     0.157 HD
ATOM     37  H81 UNL     1      24.201  28.486  51.596  1.00  0.00     0.157 HD
ENDBRANCH  28  35
ENDBRANCH  19  20
ENDBRANCH  18  19
ENDBRANCH  10  11
ENDBRANCH   8  10
TORSDOF 5
ENDMDL
