MODEL 1
REMARK VINA RESULT: -6.948440891      0.000      0.000
REMARK  6 active torsions:
REMARK  status: ('A' for Active; 'I' for Inactive)
REMARK    1  A    between atoms: N2_5  and  C4_6 
REMARK    2  A    between atoms: C5_9  and  N4_10 
REMARK    3  A    between atoms: C7_19  and  C8_20 
REMARK    4  A    between atoms: C8_20  and  C9_21 
REMARK    5  A    between atoms: C10_24  and  N8_25 
REMARK    6  A    between atoms: C13_28  and  O1_29 
ROOT
HETATM    1  C4  UNL     1     -19.354  36.035 -12.060  1.00  0.00     0.129 A 
HETATM    2  N3  UNL     1     -20.377  35.829 -12.967  1.00  0.00    -0.176 N 
ATOM      3  H3  UNL     1     -20.172  35.940 -13.960  1.00  0.00     0.186 HD
HETATM    4  C5  UNL     1     -21.610  35.496 -12.615  1.00  0.00     0.679 A 
HETATM    5  N5  UNL     1     -21.933  35.339 -11.325  1.00  0.00    -0.177 N 
ATOM      6  H5  UNL     1     -22.884  35.082 -11.058  1.00  0.00     0.185 HD
HETATM    7  C6  UNL     1     -20.998  35.523 -10.396  1.00  0.00     0.125 A 
HETATM    8  N6  UNL     1     -21.322  35.387  -9.170  1.00  0.00    -0.384 N 
ATOM      9  H61 UNL     1     -20.606  35.528  -8.458  1.00  0.00     0.157 HD
ATOM     10  H62 UNL     1     -22.276  35.128  -8.918  1.00  0.00     0.157 HD
HETATM   11  C7  UNL     1     -19.690  35.877 -10.742  1.00  0.00     0.038 A 
ENDROOT
BRANCH  11  12
HETATM   12  C8  UNL     1     -18.826  36.218  -9.619  1.00  0.00     0.131 C 
BRANCH  12  13
HETATM   13  C9  UNL     1     -18.140  35.013  -8.996  1.00  0.00     0.132 A 
HETATM   14  N7  UNL     1     -17.294  34.129  -9.461  1.00  0.00    -0.322 N 
HETATM   15  C10 UNL     1     -16.996  33.259  -8.484  1.00  0.00     0.165 A 
ATOM     16  H7  UNL     1     -16.923  34.106 -10.410  1.00  0.00     0.169 HD
HETATM   17  C13 UNL     1     -17.721  33.659  -7.357  1.00  0.00     0.230 A 
HETATM   18  O2  UNL     1     -18.373  34.699  -7.721  1.00  0.00    -0.272 OA
BRANCH  15  19
HETATM   19  N8  UNL     1     -16.118  32.138  -8.492  1.00  0.00    -0.360 N 
HETATM   20  C11 UNL     1     -14.805  31.506  -8.166  1.00  0.00     0.144 A 
HETATM   21  C12 UNL     1     -15.815  30.750  -8.856  1.00  0.00     0.144 A 
ENDBRANCH  15  19
BRANCH  17  22
HETATM   22  O1  UNL     1     -17.695  33.022  -6.137  1.00  0.00    -0.338 OA
ATOM     23  H1  UNL     1     -18.194  33.289  -5.374  1.00  0.00     0.220 HD
ENDBRANCH  17  22
ENDBRANCH  12  13
ENDBRANCH  11  12
BRANCH   1  24
HETATM   24  N2  UNL     1     -18.069  36.308 -12.556  1.00  0.00    -0.363 N 
HETATM   25  C3  UNL     1     -17.561  37.704 -12.470  1.00  0.00     0.154 C 
HETATM   26  C2  UNL     1     -17.616  38.289 -13.905  1.00  0.00     0.291 C 
HETATM   27  N1  UNL     1     -17.652  37.155 -14.816  1.00  0.00     0.087 N 
HETATM   28  C1  UNL     1     -17.714  37.457 -16.196  1.00  0.00     0.310 C 
HETATM   29  C15 UNL     1     -16.567  36.275 -14.416  1.00  0.00     0.291 C 
HETATM   30  C14 UNL     1     -17.178  35.434 -13.264  1.00  0.00     0.154 C 
ENDBRANCH   1  24
BRANCH   4  31
HETATM   31  N4  UNL     1     -22.566  35.311 -13.475  1.00  0.00    -0.234 N 
ATOM     32  H42 UNL     1     -23.048  34.412 -13.430  1.00  0.00     0.174 HD
ATOM     33  H41 UNL     1     -22.840  36.012 -14.163  1.00  0.00     0.174 HD
ENDBRANCH   4  31
TORSDOF 6
ENDMDL
MODEL 2
REMARK VINA RESULT: -6.860205147      2.526      4.760
REMARK  6 active torsions:
REMARK  status: ('A' for Active; 'I' for Inactive)
REMARK    1  A    between atoms: N2_5  and  C4_6 
REMARK    2  A    between atoms: C5_9  and  N4_10 
REMARK    3  A    between atoms: C7_19  and  C8_20 
REMARK    4  A    between atoms: C8_20  and  C9_21 
REMARK    5  A    between atoms: C10_24  and  N8_25 
REMARK    6  A    between atoms: C13_28  and  O1_29 
ROOT
HETATM    1  C4  UNL     1     -20.851  36.976 -10.731  1.00  0.00     0.129 A 
HETATM    2  N3  UNL     1     -21.531  38.180 -10.777  1.00  0.00    -0.176 N 
ATOM      3  H3  UNL     1     -22.547  38.165 -10.684  1.00  0.00     0.186 HD
HETATM    4  C5  UNL     1     -20.934  39.351 -10.938  1.00  0.00     0.679 A 
HETATM    5  N5  UNL     1     -19.603  39.427 -11.068  1.00  0.00    -0.177 N 
ATOM      6  H5  UNL     1     -19.147  40.331 -11.191  1.00  0.00     0.185 HD
HETATM    7  C6  UNL     1     -18.884  38.308 -11.035  1.00  0.00     0.125 A 
HETATM    8  N6  UNL     1     -17.619  38.391 -11.176  1.00  0.00    -0.384 N 
ATOM      9  H61 UNL     1     -17.068  37.534 -11.151  1.00  0.00     0.157 HD
ATOM     10  H62 UNL     1     -17.177  39.302 -11.297  1.00  0.00     0.157 HD
HETATM   11  C7  UNL     1     -19.492  37.058 -10.869  1.00  0.00     0.038 A 
ENDROOT
BRANCH  11  12
HETATM   12  C8  UNL     1     -18.603  35.915 -11.031  1.00  0.00     0.131 C 
BRANCH  12  13
HETATM   13  C9  UNL     1     -18.132  35.323  -9.712  1.00  0.00     0.132 A 
HETATM   14  N7  UNL     1     -18.389  34.196  -9.099  1.00  0.00    -0.322 N 
HETATM   15  C10 UNL     1     -17.706  34.165  -7.945  1.00  0.00     0.165 A 
ATOM     16  H7  UNL     1     -19.007  33.461  -9.442  1.00  0.00     0.169 HD
HETATM   17  C13 UNL     1     -16.991  35.365  -7.871  1.00  0.00     0.230 A 
HETATM   18  O2  UNL     1     -17.282  36.003  -8.942  1.00  0.00    -0.272 OA
BRANCH  15  19
HETATM   19  N8  UNL     1     -17.641  33.153  -6.945  1.00  0.00    -0.360 N 
HETATM   20  C11 UNL     1     -17.524  31.719  -6.543  1.00  0.00     0.144 A 
HETATM   21  C12 UNL     1     -17.670  32.738  -5.538  1.00  0.00     0.144 A 
ENDBRANCH  15  19
BRANCH  17  22
HETATM   22  O1  UNL     1     -16.163  35.726  -6.832  1.00  0.00    -0.338 OA
ATOM     23  H1  UNL     1     -16.079  36.606  -6.485  1.00  0.00     0.220 HD
ENDBRANCH  17  22
ENDBRANCH  12  13
ENDBRANCH  11  12
BRANCH   1  24
HETATM   24  N2  UNL     1     -21.585  35.806 -10.479  1.00  0.00    -0.363 N 
HETATM   25  C3  UNL     1     -22.237  35.120 -11.627  1.00  0.00     0.154 C 
HETATM   26  C2  UNL     1     -23.755  35.411 -11.519  1.00  0.00     0.291 C 
HETATM   27  N1  UNL     1     -24.010  35.788 -10.136  1.00  0.00     0.087 N 
HETATM   28  C1  UNL     1     -25.346  36.109  -9.806  1.00  0.00     0.310 C 
HETATM   29  C15 UNL     1     -23.392  34.761  -9.314  1.00  0.00     0.291 C 
HETATM   30  C14 UNL     1     -21.909  35.208  -9.216  1.00  0.00     0.154 C 
ENDBRANCH   1  24
BRANCH   4  31
HETATM   31  N4  UNL     1     -21.582  40.477 -10.986  1.00  0.00    -0.234 N 
ATOM     32  H42 UNL     1     -21.576  41.040 -10.135  1.00  0.00     0.174 HD
ATOM     33  H41 UNL     1     -22.073  40.801 -11.819  1.00  0.00     0.174 HD
ENDBRANCH   4  31
TORSDOF 6
ENDMDL
MODEL 3
REMARK VINA RESULT: -6.760972533      2.967      5.157
REMARK  6 active torsions:
REMARK  status: ('A' for Active; 'I' for Inactive)
REMARK    1  A    between atoms: N2_5  and  C4_6 
REMARK    2  A    between atoms: C5_9  and  N4_10 
REMARK    3  A    between atoms: C7_19  and  C8_20 
REMARK    4  A    between atoms: C8_20  and  C9_21 
REMARK    5  A    between atoms: C10_24  and  N8_25 
REMARK    6  A    between atoms: C13_28  and  O1_29 
ROOT
HETATM    1  C4  UNL     1     -21.264  37.737 -11.087  1.00  0.00     0.129 A 
HETATM    2  N3  UNL     1     -21.703  39.044 -11.187  1.00  0.00    -0.176 N 
ATOM      3  H3  UNL     1     -22.708  39.213 -11.245  1.00  0.00     0.186 HD
HETATM    4  C5  UNL     1     -20.890  40.090 -11.212  1.00  0.00     0.679 A 
HETATM    5  N5  UNL     1     -19.564  39.924 -11.141  1.00  0.00    -0.177 N 
ATOM      6  H5  UNL     1     -18.940  40.732 -11.160  1.00  0.00     0.185 HD
HETATM    7  C6  UNL     1     -19.068  38.693 -11.045  1.00  0.00     0.125 A 
HETATM    8  N6  UNL     1     -17.802  38.547 -10.994  1.00  0.00    -0.384 N 
ATOM      9  H61 UNL     1     -17.422  37.604 -10.921  1.00  0.00     0.157 HD
ATOM     10  H62 UNL     1     -17.192  39.364 -11.013  1.00  0.00     0.157 HD
HETATM   11  C7  UNL     1     -19.906  37.573 -11.019  1.00  0.00     0.038 A 
ENDROOT
BRANCH  11  12
HETATM   12  C8  UNL     1     -19.221  36.289 -11.092  1.00  0.00     0.131 C 
BRANCH  12  13
HETATM   13  C9  UNL     1     -18.823  35.737  -9.732  1.00  0.00     0.132 A 
HETATM   14  N7  UNL     1     -18.689  36.286  -8.551  1.00  0.00    -0.322 N 
HETATM   15  C10 UNL     1     -18.310  35.343  -7.675  1.00  0.00     0.165 A 
ATOM     16  H7  UNL     1     -18.846  37.270  -8.333  1.00  0.00     0.169 HD
HETATM   17  C13 UNL     1     -18.215  34.146  -8.393  1.00  0.00     0.230 A 
HETATM   18  O2  UNL     1     -18.531  34.444  -9.597  1.00  0.00    -0.272 OA
BRANCH  15  19
HETATM   19  N8  UNL     1     -18.055  35.440  -6.278  1.00  0.00    -0.360 N 
HETATM   20  C11 UNL     1     -17.661  36.232  -5.074  1.00  0.00     0.144 A 
HETATM   21  C12 UNL     1     -17.955  34.829  -4.948  1.00  0.00     0.144 A 
ENDBRANCH  15  19
BRANCH  17  22
HETATM   22  O1  UNL     1     -17.849  32.933  -7.855  1.00  0.00    -0.338 OA
ATOM     23  H1  UNL     1     -17.200  32.815  -7.172  1.00  0.00     0.220 HD
ENDBRANCH  17  22
ENDBRANCH  12  13
ENDBRANCH  11  12
BRANCH   1  24
HETATM   24  N2  UNL     1     -22.223  36.717 -10.992  1.00  0.00    -0.363 N 
HETATM   25  C3  UNL     1     -22.858  36.224 -12.244  1.00  0.00     0.154 C 
HETATM   26  C2  UNL     1     -24.299  36.794 -12.269  1.00  0.00     0.291 C 
HETATM   27  N1  UNL     1     -24.634  37.143 -10.896  1.00  0.00     0.087 N 
HETATM   28  C1  UNL     1     -25.916  37.696 -10.681  1.00  0.00     0.310 C 
HETATM   29  C15 UNL     1     -24.310  35.978 -10.089  1.00  0.00     0.291 C 
HETATM   30  C14 UNL     1     -22.791  36.130  -9.812  1.00  0.00     0.154 C 
ENDBRANCH   1  24
BRANCH   4  31
HETATM   31  N4  UNL     1     -21.314  41.315 -11.312  1.00  0.00    -0.234 N 
ATOM     32  H42 UNL     1     -22.070  41.585 -10.683  1.00  0.00     0.174 HD
ATOM     33  H41 UNL     1     -20.922  41.986 -11.972  1.00  0.00     0.174 HD
ENDBRANCH   4  31
TORSDOF 6
ENDMDL
MODEL 4
REMARK VINA RESULT: -6.742834204      3.695      6.691
REMARK  6 active torsions:
REMARK  status: ('A' for Active; 'I' for Inactive)
REMARK    1  A    between atoms: N2_5  and  C4_6 
REMARK    2  A    between atoms: C5_9  and  N4_10 
REMARK    3  A    between atoms: C7_19  and  C8_20 
REMARK    4  A    between atoms: C8_20  and  C9_21 
REMARK    5  A    between atoms: C10_24  and  N8_25 
REMARK    6  A    between atoms: C13_28  and  O1_29 
ROOT
HETATM    1  C4  UNL     1     -19.153  37.204 -10.210  1.00  0.00     0.129 A 
HETATM    2  N3  UNL     1     -18.450  38.221  -9.589  1.00  0.00    -0.176 N 
ATOM      3  H3  UNL     1     -17.714  37.967  -8.930  1.00  0.00     0.186 HD
HETATM    4  C5  UNL     1     -18.681  39.507  -9.804  1.00  0.00     0.679 A 
HETATM    5  N5  UNL     1     -19.637  39.895 -10.658  1.00  0.00    -0.177 N 
ATOM      6  H5  UNL     1     -19.813  40.887 -10.821  1.00  0.00     0.185 HD
HETATM    7  C6  UNL     1     -20.355  38.971 -11.290  1.00  0.00     0.125 A 
HETATM    8  N6  UNL     1     -21.274  39.353 -12.089  1.00  0.00    -0.384 N 
ATOM      9  H61 UNL     1     -21.825  38.644 -12.574  1.00  0.00     0.157 HD
ATOM     10  H62 UNL     1     -21.437  40.348 -12.243  1.00  0.00     0.157 HD
HETATM   11  C7  UNL     1     -20.131  37.606 -11.079  1.00  0.00     0.038 A 
ENDROOT
BRANCH  11  12
HETATM   12  C8  UNL     1     -21.106  36.718 -11.699  1.00  0.00     0.131 C 
BRANCH  12  13
HETATM   13  C9  UNL     1     -22.403  36.601 -10.914  1.00  0.00     0.132 A 
HETATM   14  N7  UNL     1     -22.833  35.741 -10.025  1.00  0.00    -0.322 N 
HETATM   15  C10 UNL     1     -24.068  36.098  -9.639  1.00  0.00     0.165 A 
ATOM     16  H7  UNL     1     -22.314  34.933  -9.683  1.00  0.00     0.169 HD
HETATM   17  C13 UNL     1     -24.391  37.256 -10.354  1.00  0.00     0.230 A 
HETATM   18  O2  UNL     1     -23.370  37.502 -11.086  1.00  0.00    -0.272 OA
BRANCH  15  19
HETATM   19  N8  UNL     1     -24.940  35.496  -8.688  1.00  0.00    -0.360 N 
HETATM   20  C11 UNL     1     -26.221  34.811  -8.341  1.00  0.00     0.144 A 
HETATM   21  C12 UNL     1     -25.263  35.111  -7.310  1.00  0.00     0.144 A 
ENDBRANCH  15  19
BRANCH  17  22
HETATM   22  O1  UNL     1     -25.581  37.940 -10.248  1.00  0.00    -0.338 OA
ATOM     23  H1  UNL     1     -26.017  38.148  -9.430  1.00  0.00     0.220 HD
ENDBRANCH  17  22
ENDBRANCH  12  13
ENDBRANCH  11  12
BRANCH   1  24
HETATM   24  N2  UNL     1     -18.765  35.878  -9.960  1.00  0.00    -0.363 N 
HETATM   25  C3  UNL     1     -19.403  35.156  -8.827  1.00  0.00     0.154 C 
HETATM   26  C2  UNL     1     -18.346  35.074  -7.697  1.00  0.00     0.291 C 
HETATM   27  N1  UNL     1     -17.047  35.264  -8.326  1.00  0.00     0.087 N 
HETATM   28  C1  UNL     1     -15.922  35.235  -7.471  1.00  0.00     0.310 C 
HETATM   29  C15 UNL     1     -17.002  34.345  -9.452  1.00  0.00     0.291 C 
HETATM   30  C14 UNL     1     -17.723  35.117 -10.588  1.00  0.00     0.154 C 
ENDBRANCH   1  24
BRANCH   4  31
HETATM   31  N4  UNL     1     -18.019  40.455  -9.211  1.00  0.00    -0.234 N 
ATOM     32  H42 UNL     1     -17.619  40.227  -8.300  1.00  0.00     0.174 HD
ATOM     33  H41 UNL     1     -17.890  41.382  -9.617  1.00  0.00     0.174 HD
ENDBRANCH   4  31
TORSDOF 6
ENDMDL
MODEL 5
REMARK VINA RESULT: -6.657494049      2.246      2.985
REMARK  6 active torsions:
REMARK  status: ('A' for Active; 'I' for Inactive)
REMARK    1  A    between atoms: N2_5  and  C4_6 
REMARK    2  A    between atoms: C5_9  and  N4_10 
REMARK    3  A    between atoms: C7_19  and  C8_20 
REMARK    4  A    between atoms: C8_20  and  C9_21 
REMARK    5  A    between atoms: C10_24  and  N8_25 
REMARK    6  A    between atoms: C13_28  and  O1_29 
ROOT
HETATM    1  C4  UNL     1     -19.756  37.064 -11.642  1.00  0.00     0.129 A 
HETATM    2  N3  UNL     1     -20.073  38.370 -11.969  1.00  0.00    -0.176 N 
ATOM      3  H3  UNL     1     -19.397  38.910 -12.508  1.00  0.00     0.186 HD
HETATM    4  C5  UNL     1     -21.207  38.958 -11.618  1.00  0.00     0.679 A 
HETATM    5  N5  UNL     1     -22.128  38.294 -10.907  1.00  0.00    -0.177 N 
ATOM      6  H5  UNL     1     -23.001  38.750 -10.639  1.00  0.00     0.185 HD
HETATM    7  C6  UNL     1     -21.891  37.033 -10.556  1.00  0.00     0.125 A 
HETATM    8  N6  UNL     1     -22.768  36.417  -9.865  1.00  0.00    -0.384 N 
ATOM      9  H61 UNL     1     -22.586  35.450  -9.595  1.00  0.00     0.157 HD
ATOM     10  H62 UNL     1     -23.636  36.885  -9.605  1.00  0.00     0.157 HD
HETATM   11  C7  UNL     1     -20.699  36.391 -10.912  1.00  0.00     0.038 A 
ENDROOT
BRANCH  11  12
HETATM   12  C8  UNL     1     -20.502  35.080 -10.309  1.00  0.00     0.131 C 
BRANCH  12  13
HETATM   13  C9  UNL     1     -19.531  35.092  -9.139  1.00  0.00     0.132 A 
HETATM   14  N7  UNL     1     -19.174  36.019  -8.286  1.00  0.00    -0.322 N 
HETATM   15  C10 UNL     1     -18.269  35.503  -7.440  1.00  0.00     0.165 A 
ATOM     16  H7  UNL     1     -19.526  36.976  -8.268  1.00  0.00     0.169 HD
HETATM   17  C13 UNL     1     -18.077  34.172  -7.822  1.00  0.00     0.230 A 
HETATM   18  O2  UNL     1     -18.849  33.990  -8.827  1.00  0.00    -0.272 OA
BRANCH  15  19
HETATM   19  N8  UNL     1     -17.601  36.105  -6.336  1.00  0.00    -0.360 N 
HETATM   20  C11 UNL     1     -17.627  36.850  -5.041  1.00  0.00     0.144 A 
HETATM   21  C12 UNL     1     -16.369  36.482  -5.634  1.00  0.00     0.144 A 
ENDBRANCH  15  19
BRANCH  17  22
HETATM   22  O1  UNL     1     -17.219  33.291  -7.204  1.00  0.00    -0.338 OA
ATOM     23  H1  UNL     1     -17.132  32.371  -7.424  1.00  0.00     0.220 HD
ENDBRANCH  17  22
ENDBRANCH  12  13
ENDBRANCH  11  12
BRANCH   1  24
HETATM   24  N2  UNL     1     -18.558  36.526 -12.137  1.00  0.00    -0.363 N 
HETATM   25  C3  UNL     1     -17.301  36.793 -11.387  1.00  0.00     0.154 C 
HETATM   26  C2  UNL     1     -16.503  37.837 -12.209  1.00  0.00     0.291 C 
HETATM   27  N1  UNL     1     -17.013  37.774 -13.570  1.00  0.00     0.087 N 
HETATM   28  C1  UNL     1     -16.428  38.658 -14.505  1.00  0.00     0.310 C 
HETATM   29  C15 UNL     1     -17.002  36.370 -13.945  1.00  0.00     0.291 C 
HETATM   30  C14 UNL     1     -18.333  35.822 -13.366  1.00  0.00     0.154 C 
ENDBRANCH   1  24
BRANCH   4  31
HETATM   31  N4  UNL     1     -21.493  40.188 -11.925  1.00  0.00    -0.234 N 
ATOM     32  H42 UNL     1     -20.873  40.643 -12.596  1.00  0.00     0.174 HD
ATOM     33  H41 UNL     1     -22.290  40.688 -11.532  1.00  0.00     0.174 HD
ENDBRANCH   4  31
TORSDOF 6
ENDMDL
