MODEL 1
REMARK VINA RESULT: -8.135503942      0.000      0.000
REMARK  5 active torsions:
REMARK  status: ('A' for Active; 'I' for Inactive)
REMARK    1  A    between atoms: C3_8  and  N3_9 
REMARK    2  A    between atoms: C10_21  and  N6_22 
REMARK    3  A    between atoms: N6_22  and  C11_24 
REMARK    4  A    between atoms: N7_27  and  C14_28 
REMARK    5  A    between atoms: C14_28  and  O2_29 
ROOT
HETATM    1  O1  UNL     1     -17.848  39.376  -8.623  1.00  0.00    -0.247 OA
HETATM    2  C1  UNL     1     -17.793  38.120  -8.470  1.00  0.00     0.326 A 
HETATM    3  N1  UNL     1     -16.872  37.404  -7.800  1.00  0.00    -0.292 N 
ATOM      4  H1  UNL     1     -16.065  37.789  -7.309  1.00  0.00     0.172 HD
HETATM    5  C2  UNL     1     -17.191  36.078  -7.885  1.00  0.00     0.155 A 
HETATM    6  N2  UNL     1     -16.604  34.971  -7.397  1.00  0.00    -0.174 N 
ATOM      7  H2  UNL     1     -15.750  35.050  -6.846  1.00  0.00     0.186 HD
HETATM    8  C3  UNL     1     -17.146  33.744  -7.636  1.00  0.00     0.683 A 
HETATM    9  N5  UNL     1     -18.271  33.729  -8.370  1.00  0.00    -0.174 N 
ATOM     10  H5  UNL     1     -18.686  32.816  -8.555  1.00  0.00     0.186 HD
HETATM   11  C10 UNL     1     -18.901  34.790  -8.881  1.00  0.00     0.148 A 
HETATM   12  C16 UNL     1     -18.345  36.051  -8.636  1.00  0.00     0.126 A 
HETATM   13  N8  UNL     1     -18.715  37.294  -8.994  1.00  0.00    -0.302 N 
ATOM     14  H8  UNL     1     -19.529  37.556  -9.551  1.00  0.00     0.171 HD
ENDROOT
BRANCH   8  15
HETATM   15  N3  UNL     1     -16.536  32.571  -7.127  1.00  0.00    -0.216 N 
HETATM   16  C4  UNL     1     -15.172  32.439  -7.552  1.00  0.00     0.141 C 
HETATM   17  C5  UNL     1     -14.991  31.263  -8.501  1.00  0.00     0.022 C 
HETATM   18  C6  UNL     1     -14.913  29.947  -7.762  1.00  0.00     0.029 C 
HETATM   19  C7  UNL     1     -16.261  29.271  -7.926  1.00  0.00     0.232 C 
HETATM   20  N4  UNL     1     -17.306  30.240  -8.194  1.00  0.00    -0.074 N 
HETATM   21  C8  UNL     1     -18.028  30.617  -7.019  1.00  0.00     0.252 C 
ATOM     22  H42 UNL     1     -16.931  31.059  -8.671  1.00  0.00     0.277 HD
ATOM     23  H41 UNL     1     -17.940  29.902  -8.919  1.00  0.00     0.277 HD
HETATM   24  C9  UNL     1     -17.427  31.797  -6.312  1.00  0.00     0.168 C 
ENDBRANCH   8  15
BRANCH  11  25
HETATM   25  N6  UNL     1     -20.092  34.710  -9.637  1.00  0.00    -0.367 N 
ATOM     26  H6  UNL     1     -20.116  33.966 -10.335  1.00  0.00     0.161 HD
BRANCH  25  27
HETATM   27  C11 UNL     1     -21.255  35.512  -9.568  1.00  0.00     0.113 C 
HETATM   28  C12 UNL     1     -22.536  34.778  -9.235  1.00  0.00     0.057 C 
HETATM   29  C13 UNL     1     -23.598  35.612  -9.918  1.00  0.00     0.277 C 
HETATM   30  N7  UNL     1     -22.975  36.414 -10.920  1.00  0.00     0.113 N 
HETATM   31  C15 UNL     1     -21.561  36.102 -10.920  1.00  0.00     0.300 C 
BRANCH  30  32
HETATM   32  C14 UNL     1     -23.594  36.266 -12.212  1.00  0.00     0.437 C 
BRANCH  32  33
HETATM   33  O2  UNL     1     -23.622  37.442 -12.939  1.00  0.00    -0.373 OA
ATOM     34  H2  UNL     1     -24.491  37.817 -13.007  1.00  0.00     0.211 HD
ENDBRANCH  32  33
ENDBRANCH  30  32
ENDBRANCH  25  27
ENDBRANCH  11  25
TORSDOF 5
ENDMDL
MODEL 2
REMARK VINA RESULT: -8.131681442      1.693      1.844
REMARK  5 active torsions:
REMARK  status: ('A' for Active; 'I' for Inactive)
REMARK    1  A    between atoms: C3_8  and  N3_9 
REMARK    2  A    between atoms: C10_21  and  N6_22 
REMARK    3  A    between atoms: N6_22  and  C11_24 
REMARK    4  A    between atoms: N7_27  and  C14_28 
REMARK    5  A    between atoms: C14_28  and  O2_29 
ROOT
HETATM    1  O1  UNL     1     -18.812  37.972  -5.313  1.00  0.00    -0.247 OA
HETATM    2  C1  UNL     1     -18.515  36.834  -5.783  1.00  0.00     0.326 A 
HETATM    3  N1  UNL     1     -17.976  35.784  -5.139  1.00  0.00    -0.292 N 
ATOM      4  H1  UNL     1     -17.723  35.761  -4.151  1.00  0.00     0.172 HD
HETATM    5  C2  UNL     1     -17.821  34.752  -6.022  1.00  0.00     0.155 A 
HETATM    6  N2  UNL     1     -17.335  33.506  -5.883  1.00  0.00    -0.174 N 
ATOM      7  H2  UNL     1     -16.995  33.191  -4.975  1.00  0.00     0.186 HD
HETATM    8  C3  UNL     1     -17.294  32.662  -6.953  1.00  0.00     0.683 A 
HETATM    9  N5  UNL     1     -17.761  33.156  -8.111  1.00  0.00    -0.174 N 
ATOM     10  H5  UNL     1     -17.736  32.533  -8.919  1.00  0.00     0.186 HD
HETATM   11  C10 UNL     1     -18.255  34.380  -8.313  1.00  0.00     0.148 A 
HETATM   12  C16 UNL     1     -18.297  35.248  -7.215  1.00  0.00     0.126 A 
HETATM   13  N8  UNL     1     -18.721  36.517  -7.073  1.00  0.00    -0.302 N 
ATOM     14  H8  UNL     1     -19.118  37.116  -7.797  1.00  0.00     0.171 HD
ENDROOT
BRANCH   8  15
HETATM   15  N3  UNL     1     -16.784  31.347  -6.818  1.00  0.00    -0.216 N 
HETATM   16  C4  UNL     1     -15.355  31.303  -6.936  1.00  0.00     0.141 C 
HETATM   17  C5  UNL     1     -14.920  30.576  -8.202  1.00  0.00     0.022 C 
HETATM   18  C6  UNL     1     -14.977  29.075  -8.040  1.00  0.00     0.029 C 
HETATM   19  C7  UNL     1     -16.227  28.604  -8.759  1.00  0.00     0.232 C 
HETATM   20  N4  UNL     1     -17.209  29.665  -8.858  1.00  0.00    -0.074 N 
HETATM   21  C8  UNL     1     -18.198  29.604  -7.828  1.00  0.00     0.252 C 
ATOM     22  H42 UNL     1     -16.758  30.579  -8.876  1.00  0.00     0.277 HD
ATOM     23  H41 UNL     1     -17.643  29.676  -9.781  1.00  0.00     0.277 HD
HETATM   24  C9  UNL     1     -17.818  30.377  -6.598  1.00  0.00     0.168 C 
ENDBRANCH   8  15
BRANCH  11  25
HETATM   25  N6  UNL     1     -18.743  34.838  -9.557  1.00  0.00    -0.367 N 
ATOM     26  H6  UNL     1     -18.098  34.738 -10.341  1.00  0.00     0.161 HD
BRANCH  25  27
HETATM   27  C11 UNL     1     -19.994  35.416  -9.874  1.00  0.00     0.113 C 
HETATM   28  C12 UNL     1     -21.200  34.531  -9.644  1.00  0.00     0.057 C 
HETATM   29  C13 UNL     1     -22.193  35.030 -10.670  1.00  0.00     0.277 C 
HETATM   30  N7  UNL     1     -21.486  35.748 -11.680  1.00  0.00     0.113 N 
HETATM   31  C15 UNL     1     -20.076  35.701 -11.350  1.00  0.00     0.300 C 
BRANCH  30  32
HETATM   32  C14 UNL     1     -21.779  35.271 -13.007  1.00  0.00     0.437 C 
BRANCH  32  33
HETATM   33  O2  UNL     1     -22.996  35.717 -13.488  1.00  0.00    -0.373 OA
ATOM     34  H2  UNL     1     -22.960  36.602 -13.830  1.00  0.00     0.211 HD
ENDBRANCH  32  33
ENDBRANCH  30  32
ENDBRANCH  25  27
ENDBRANCH  11  25
TORSDOF 5
ENDMDL
MODEL 3
REMARK VINA RESULT: -8.099037363      2.162      2.410
REMARK  5 active torsions:
REMARK  status: ('A' for Active; 'I' for Inactive)
REMARK    1  A    between atoms: C3_8  and  N3_9 
REMARK    2  A    between atoms: C10_21  and  N6_22 
REMARK    3  A    between atoms: N6_22  and  C11_24 
REMARK    4  A    between atoms: N7_27  and  C14_28 
REMARK    5  A    between atoms: C14_28  and  O2_29 
ROOT
HETATM    1  O1  UNL     1     -17.966  37.478 -13.573  1.00  0.00    -0.247 OA
HETATM    2  C1  UNL     1     -17.907  36.740 -12.545  1.00  0.00     0.326 A 
HETATM    3  N1  UNL     1     -16.853  36.047 -12.080  1.00  0.00    -0.292 N 
ATOM      4  H1  UNL     1     -15.926  36.020 -12.506  1.00  0.00     0.172 HD
HETATM    5  C2  UNL     1     -17.222  35.383 -10.944  1.00  0.00     0.155 A 
HETATM    6  N2  UNL     1     -16.552  34.567 -10.112  1.00  0.00    -0.174 N 
ATOM      7  H2  UNL     1     -15.572  34.351 -10.292  1.00  0.00     0.186 HD
HETATM    8  C3  UNL     1     -17.177  34.029  -9.027  1.00  0.00     0.683 A 
HETATM    9  N5  UNL     1     -18.467  34.365  -8.862  1.00  0.00    -0.174 N 
ATOM     10  H5  UNL     1     -18.945  33.968  -8.054  1.00  0.00     0.186 HD
HETATM   11  C10 UNL     1     -19.186  35.167  -9.651  1.00  0.00     0.148 A 
HETATM   12  C16 UNL     1     -18.545  35.721 -10.766  1.00  0.00     0.126 A 
HETATM   13  N8  UNL     1     -18.966  36.549 -11.740  1.00  0.00    -0.302 N 
ATOM     14  H8  UNL     1     -19.898  36.949 -11.845  1.00  0.00     0.171 HD
ENDROOT
BRANCH   8  15
HETATM   15  N3  UNL     1     -16.480  33.168  -8.143  1.00  0.00    -0.216 N 
HETATM   16  C4  UNL     1     -15.436  32.439  -8.804  1.00  0.00     0.141 C 
HETATM   17  C5  UNL     1     -15.748  30.950  -8.870  1.00  0.00     0.022 C 
HETATM   18  C6  UNL     1     -15.443  30.250  -7.565  1.00  0.00     0.029 C 
HETATM   19  C7  UNL     1     -16.771  30.022  -6.869  1.00  0.00     0.232 C 
HETATM   20  N4  UNL     1     -17.770  30.972  -7.318  1.00  0.00    -0.074 N 
HETATM   21  C8  UNL     1     -17.900  32.095  -6.443  1.00  0.00     0.252 C 
ATOM     22  H42 UNL     1     -17.584  31.273  -8.274  1.00  0.00     0.277 HD
ATOM     23  H41 UNL     1     -18.671  30.514  -7.461  1.00  0.00     0.277 HD
HETATM   24  C9  UNL     1     -16.985  33.231  -6.802  1.00  0.00     0.168 C 
ENDBRANCH   8  15
BRANCH  11  25
HETATM   25  N6  UNL     1     -20.541  35.494  -9.418  1.00  0.00    -0.367 N 
ATOM     26  H6  UNL     1     -20.696  36.309  -8.824  1.00  0.00     0.161 HD
BRANCH  25  27
HETATM   27  C11 UNL     1     -21.713  34.856  -9.887  1.00  0.00     0.113 C 
HETATM   28  C12 UNL     1     -22.084  35.145 -11.325  1.00  0.00     0.057 C 
HETATM   29  C13 UNL     1     -23.590  35.003 -11.327  1.00  0.00     0.277 C 
HETATM   30  N7  UNL     1     -24.062  35.120  -9.986  1.00  0.00     0.113 N 
HETATM   31  C15 UNL     1     -22.916  35.359  -9.133  1.00  0.00     0.300 C 
BRANCH  30  32
HETATM   32  C14 UNL     1     -25.095  36.114  -9.846  1.00  0.00     0.437 C 
BRANCH  32  33
HETATM   33  O2  UNL     1     -24.599  37.387  -9.636  1.00  0.00    -0.373 OA
ATOM     34  H2  UNL     1     -24.694  37.680  -8.738  1.00  0.00     0.211 HD
ENDBRANCH  32  33
ENDBRANCH  30  32
ENDBRANCH  25  27
ENDBRANCH  11  25
TORSDOF 5
ENDMDL
MODEL 4
REMARK VINA RESULT: -8.075564934      3.396      4.843
REMARK  5 active torsions:
REMARK  status: ('A' for Active; 'I' for Inactive)
REMARK    1  A    between atoms: C3_8  and  N3_9 
REMARK    2  A    between atoms: C10_21  and  N6_22 
REMARK    3  A    between atoms: N6_22  and  C11_24 
REMARK    4  A    between atoms: N7_27  and  C14_28 
REMARK    5  A    between atoms: C14_28  and  O2_29 
ROOT
HETATM    1  O1  UNL     1     -16.439  34.810 -15.105  1.00  0.00    -0.247 OA
HETATM    2  C1  UNL     1     -16.704  35.136 -13.909  1.00  0.00     0.326 A 
HETATM    3  N1  UNL     1     -15.869  35.180 -12.856  1.00  0.00    -0.292 N 
ATOM      4  H1  UNL     1     -14.875  34.949 -12.878  1.00  0.00     0.172 HD
HETATM    5  C2  UNL     1     -16.565  35.583 -11.752  1.00  0.00     0.155 A 
HETATM    6  N2  UNL     1     -16.201  35.784 -10.473  1.00  0.00    -0.174 N 
ATOM      7  H2  UNL     1     -15.234  35.627 -10.190  1.00  0.00     0.186 HD
HETATM    8  C3  UNL     1     -17.119  36.197  -9.555  1.00  0.00     0.683 A 
HETATM    9  N5  UNL     1     -18.369  36.380 -10.011  1.00  0.00    -0.174 N 
ATOM     10  H5  UNL     1     -19.064  36.689  -9.332  1.00  0.00     0.186 HD
HETATM   11  C10 UNL     1     -18.792  36.199 -11.264  1.00  0.00     0.148 A 
HETATM   12  C16 UNL     1     -17.850  35.774 -12.209  1.00  0.00     0.126 A 
HETATM   13  N8  UNL     1     -17.938  35.503 -13.524  1.00  0.00    -0.302 N 
ATOM     14  H8  UNL     1     -18.772  35.563 -14.109  1.00  0.00     0.171 HD
ENDROOT
BRANCH   8  15
HETATM   15  N3  UNL     1     -16.746  36.412  -8.204  1.00  0.00    -0.216 N 
HETATM   16  C4  UNL     1     -16.778  35.203  -7.432  1.00  0.00     0.141 C 
HETATM   17  C5  UNL     1     -17.883  35.235  -6.386  1.00  0.00     0.022 C 
HETATM   18  C6  UNL     1     -17.484  36.032  -5.166  1.00  0.00     0.029 C 
HETATM   19  C7  UNL     1     -18.184  37.374  -5.270  1.00  0.00     0.232 C 
HETATM   20  N4  UNL     1     -18.507  37.693  -6.647  1.00  0.00    -0.074 N 
HETATM   21  C8  UNL     1     -17.536  38.543  -7.262  1.00  0.00     0.252 C 
ATOM     22  H42 UNL     1     -18.648  36.845  -7.195  1.00  0.00     0.277 HD
ATOM     23  H41 UNL     1     -19.442  38.095  -6.719  1.00  0.00     0.277 HD
HETATM   24  C9  UNL     1     -16.428  37.784  -7.934  1.00  0.00     0.168 C 
ENDBRANCH   8  15
BRANCH  11  25
HETATM   25  N6  UNL     1     -20.122  36.420 -11.687  1.00  0.00    -0.367 N 
ATOM     26  H6  UNL     1     -20.237  37.139 -12.402  1.00  0.00     0.161 HD
BRANCH  25  27
HETATM   27  C11 UNL     1     -21.316  35.792 -11.263  1.00  0.00     0.113 C 
HETATM   28  C12 UNL     1     -22.130  35.131 -12.355  1.00  0.00     0.057 C 
HETATM   29  C13 UNL     1     -23.546  35.222 -11.830  1.00  0.00     0.277 C 
HETATM   30  N7  UNL     1     -23.599  36.237 -10.828  1.00  0.00     0.113 N 
HETATM   31  C15 UNL     1     -22.276  36.815 -10.715  1.00  0.00     0.300 C 
BRANCH  30  32
HETATM   32  C14 UNL     1     -24.630  37.211 -11.080  1.00  0.00     0.437 C 
BRANCH  32  33
HETATM   33  O2  UNL     1     -25.015  37.899  -9.945  1.00  0.00    -0.373 OA
ATOM     34  H2  UNL     1     -25.417  37.341  -9.289  1.00  0.00     0.211 HD
ENDBRANCH  32  33
ENDBRANCH  30  32
ENDBRANCH  25  27
ENDBRANCH  11  25
TORSDOF 5
ENDMDL
MODEL 5
REMARK VINA RESULT: -8.018319691      3.315      4.682
REMARK  5 active torsions:
REMARK  status: ('A' for Active; 'I' for Inactive)
REMARK    1  A    between atoms: C3_8  and  N3_9 
REMARK    2  A    between atoms: C10_21  and  N6_22 
REMARK    3  A    between atoms: N6_22  and  C11_24 
REMARK    4  A    between atoms: N7_27  and  C14_28 
REMARK    5  A    between atoms: C14_28  and  O2_29 
ROOT
HETATM    1  O1  UNL     1     -18.144  36.288 -14.584  1.00  0.00    -0.247 OA
HETATM    2  C1  UNL     1     -18.229  36.219 -13.322  1.00  0.00     0.326 A 
HETATM    3  N1  UNL     1     -17.259  35.923 -12.439  1.00  0.00    -0.292 N 
ATOM      4  H1  UNL     1     -16.290  35.706 -12.674  1.00  0.00     0.172 HD
HETATM    5  C2  UNL     1     -17.779  35.960 -11.176  1.00  0.00     0.155 A 
HETATM    6  N2  UNL     1     -17.237  35.743  -9.965  1.00  0.00    -0.174 N 
ATOM      7  H2  UNL     1     -16.250  35.499  -9.886  1.00  0.00     0.186 HD
HETATM    8  C3  UNL     1     -18.002  35.849  -8.842  1.00  0.00     0.683 A 
HETATM    9  N5  UNL     1     -19.290  36.174  -9.034  1.00  0.00    -0.174 N 
ATOM     10  H5  UNL     1     -19.872  36.256  -8.200  1.00  0.00     0.186 HD
HETATM   11  C10 UNL     1     -19.887  36.401 -10.206  1.00  0.00     0.148 A 
HETATM   12  C16 UNL     1     -19.103  36.293 -11.361  1.00  0.00     0.126 A 
HETATM   13  N8  UNL     1     -19.380  36.452 -12.668  1.00  0.00    -0.302 N 
ATOM     14  H8  UNL     1     -20.281  36.699 -13.079  1.00  0.00     0.171 HD
ENDROOT
BRANCH   8  15
HETATM   15  N3  UNL     1     -17.440  35.623  -7.560  1.00  0.00    -0.216 N 
HETATM   16  C4  UNL     1     -18.380  35.867  -6.504  1.00  0.00     0.141 C 
HETATM   17  C5  UNL     1     -17.988  37.083  -5.675  1.00  0.00     0.022 C 
HETATM   18  C6  UNL     1     -16.907  36.758  -4.671  1.00  0.00     0.029 C 
HETATM   19  C7  UNL     1     -15.608  37.304  -5.233  1.00  0.00     0.232 C 
HETATM   20  N4  UNL     1     -15.668  37.424  -6.676  1.00  0.00    -0.074 N 
HETATM   21  C8  UNL     1     -15.085  36.307  -7.350  1.00  0.00     0.252 C 
ATOM     22  H42 UNL     1     -16.625  37.581  -6.990  1.00  0.00     0.277 HD
ATOM     23  H41 UNL     1     -15.246  38.299  -6.988  1.00  0.00     0.277 HD
HETATM   24  C9  UNL     1     -16.069  35.206  -7.626  1.00  0.00     0.168 C 
ENDBRANCH   8  15
BRANCH  11  25
HETATM   25  N6  UNL     1     -21.249  36.753 -10.343  1.00  0.00    -0.367 N 
ATOM     26  H6  UNL     1     -21.447  37.753 -10.299  1.00  0.00     0.161 HD
BRANCH  25  27
HETATM   27  C11 UNL     1     -22.377  35.921 -10.533  1.00  0.00     0.113 C 
HETATM   28  C12 UNL     1     -23.658  36.632 -10.911  1.00  0.00     0.057 C 
HETATM   29  C13 UNL     1     -24.732  35.728 -10.346  1.00  0.00     0.277 C 
HETATM   30  N7  UNL     1     -24.148  34.891  -9.350  1.00  0.00     0.113 N 
HETATM   31  C15 UNL     1     -22.748  35.246  -9.238  1.00  0.00     0.300 C 
BRANCH  30  32
HETATM   32  C14 UNL     1     -24.854  34.948  -8.095  1.00  0.00     0.437 C 
BRANCH  32  33
HETATM   33  O2  UNL     1     -24.448  35.996  -7.292  1.00  0.00    -0.373 OA
ATOM     34  H2  UNL     1     -23.565  36.291  -7.480  1.00  0.00     0.211 HD
ENDBRANCH  32  33
ENDBRANCH  30  32
ENDBRANCH  25  27
ENDBRANCH  11  25
TORSDOF 5
ENDMDL
