MODEL 1
REMARK VINA RESULT: -5.110223525      0.000      0.000
REMARK  3 active torsions:
REMARK  status: ('A' for Active; 'I' for Inactive)
REMARK    1  A    between atoms: C2_2  and  C3_3 
REMARK    2  A    between atoms: C3_3  and  C4_4 
REMARK    3  A    between atoms: N1_10  and  O2_12 
ROOT
HETATM    1  C4  UNL     1      22.837  16.083  11.976  1.00  0.00     0.135 C 
HETATM    2  O1  UNL     1      21.584  15.932  11.338  1.00  0.00    -0.369 OA
HETATM    3  C5  UNL     1      20.687  16.734  11.966  1.00  0.00     0.095 C 
HETATM    4  C6  UNL     1      20.234  17.930  11.216  1.00  0.00     0.052 C 
HETATM    5  C7  UNL     1      19.478  15.871  12.329  1.00  0.00     0.052 C 
HETATM    6  C8  UNL     1      21.309  17.200  13.260  1.00  0.00     0.050 C 
HETATM    7  N1  UNL     1      20.854  18.165  13.927  1.00  0.00    -0.274 N 
ATOM      8  H1  UNL     1      20.029  18.615  13.530  1.00  0.00     0.193 HD
HETATM    9  C9  UNL     1      22.431  16.255  13.390  1.00  0.00     0.061 C 
HETATM   10  C10 UNL     1      23.472  16.574  14.369  1.00  0.00     0.019 C 
ENDROOT
BRANCH   7  11
HETATM   11  O2  UNL     1      21.293  18.693  15.088  1.00  0.00    -0.290 OA
ATOM     12  H2  UNL     1      21.958  19.353  15.240  1.00  0.00     0.244 HD
ENDBRANCH   7  11
BRANCH   1  13
HETATM   13  C3  UNL     1      23.515  17.217  11.307  1.00  0.00     0.059 C 
BRANCH  13  14
HETATM   14  C2  UNL     1      23.688  17.129   9.859  1.00  0.00    -0.034 C 
HETATM   15  C1  UNL     1      23.232  18.021   9.001  1.00  0.00     0.007 C 
ENDBRANCH  13  14
ENDBRANCH   1  13
TORSDOF 3
ENDMDL
MODEL 2
REMARK VINA RESULT: -4.242755994      2.926      4.020
REMARK  3 active torsions:
REMARK  status: ('A' for Active; 'I' for Inactive)
REMARK    1  A    between atoms: C2_2  and  C3_3 
REMARK    2  A    between atoms: C3_3  and  C4_4 
REMARK    3  A    between atoms: N1_10  and  O2_12 
ROOT
HETATM    1  C4  UNL     1      22.082  18.575  14.374  1.00  0.00     0.135 C 
HETATM    2  O1  UNL     1      22.574  17.434  13.697  1.00  0.00    -0.369 OA
HETATM    3  C5  UNL     1      22.554  16.386  14.560  1.00  0.00     0.095 C 
HETATM    4  C6  UNL     1      21.534  15.340  14.301  1.00  0.00     0.052 C 
HETATM    5  C7  UNL     1      23.947  15.755  14.546  1.00  0.00     0.052 C 
HETATM    6  C8  UNL     1      22.323  16.933  15.947  1.00  0.00     0.050 C 
HETATM    7  N1  UNL     1      21.975  16.208  16.916  1.00  0.00    -0.274 N 
ATOM      8  H1  UNL     1      21.859  15.219  16.699  1.00  0.00     0.193 HD
HETATM    9  C9  UNL     1      22.612  18.362  15.740  1.00  0.00     0.061 C 
HETATM   10  C10 UNL     1      22.198  19.293  16.790  1.00  0.00     0.019 C 
ENDROOT
BRANCH   7  11
HETATM   11  O2  UNL     1      21.734  16.545  18.200  1.00  0.00    -0.290 OA
ATOM     12  H2  UNL     1      21.134  16.158  18.826  1.00  0.00     0.244 HD
ENDBRANCH   7  11
BRANCH   1  13
HETATM   13  C3  UNL     1      20.612  18.568  14.192  1.00  0.00     0.059 C 
BRANCH  13  14
HETATM   14  C2  UNL     1      20.102  18.094  12.908  1.00  0.00    -0.034 C 
HETATM   15  C1  UNL     1      18.825  18.088  12.574  1.00  0.00     0.007 C 
ENDBRANCH  13  14
ENDBRANCH   1  13
TORSDOF 3
ENDMDL
MODEL 3
REMARK VINA RESULT: -4.005900130      1.638      2.990
REMARK  3 active torsions:
REMARK  status: ('A' for Active; 'I' for Inactive)
REMARK    1  A    between atoms: C2_2  and  C3_3 
REMARK    2  A    between atoms: C3_3  and  C4_4 
REMARK    3  A    between atoms: N1_10  and  O2_12 
ROOT
HETATM    1  C4  UNL     1      22.698  17.560  11.732  1.00  0.00     0.135 C 
HETATM    2  O1  UNL     1      22.933  17.680  13.121  1.00  0.00    -0.369 OA
HETATM    3  C5  UNL     1      21.991  16.954  13.776  1.00  0.00     0.095 C 
HETATM    4  C6  UNL     1      22.456  15.706  14.429  1.00  0.00     0.052 C 
HETATM    5  C7  UNL     1      21.355  17.870  14.823  1.00  0.00     0.052 C 
HETATM    6  C8  UNL     1      20.913  16.591  12.784  1.00  0.00     0.050 C 
HETATM    7  N1  UNL     1      20.055  15.698  13.006  1.00  0.00    -0.274 N 
ATOM      8  H1  UNL     1      20.138  15.231  13.910  1.00  0.00     0.193 HD
HETATM    9  C9  UNL     1      21.218  17.520  11.683  1.00  0.00     0.061 C 
HETATM   10  C10 UNL     1      20.580  17.267  10.390  1.00  0.00     0.019 C 
ENDROOT
BRANCH   7  11
HETATM   11  O2  UNL     1      19.042  15.265  12.228  1.00  0.00    -0.290 OA
ATOM     12  H2  UNL     1      18.253  14.794  12.468  1.00  0.00     0.244 HD
ENDBRANCH   7  11
BRANCH   1  13
HETATM   13  C3  UNL     1      23.438  16.357  11.284  1.00  0.00     0.059 C 
BRANCH  13  14
HETATM   14  C2  UNL     1      24.242  16.484  10.071  1.00  0.00    -0.034 C 
HETATM   15  C1  UNL     1      24.293  17.570   9.324  1.00  0.00     0.007 C 
ENDBRANCH  13  14
ENDBRANCH   1  13
TORSDOF 3
ENDMDL
MODEL 4
REMARK VINA RESULT: -3.202409054      2.495      3.417
REMARK  3 active torsions:
REMARK  status: ('A' for Active; 'I' for Inactive)
REMARK    1  A    between atoms: C2_2  and  C3_3 
REMARK    2  A    between atoms: C3_3  and  C4_4 
REMARK    3  A    between atoms: N1_10  and  O2_12 
ROOT
HETATM    1  C4  UNL     1      21.577  16.860  13.917  1.00  0.00     0.135 C 
HETATM    2  O1  UNL     1      20.949  18.039  14.382  1.00  0.00    -0.369 OA
HETATM    3  C5  UNL     1      21.558  18.421  15.533  1.00  0.00     0.095 C 
HETATM    4  C6  UNL     1      22.405  19.636  15.458  1.00  0.00     0.052 C 
HETATM    5  C7  UNL     1      20.465  18.624  16.583  1.00  0.00     0.052 C 
HETATM    6  C8  UNL     1      22.422  17.275  16.002  1.00  0.00     0.050 C 
HETATM    7  N1  UNL     1      23.321  17.411  16.872  1.00  0.00    -0.274 N 
ATOM      8  H1  UNL     1      23.427  18.356  17.243  1.00  0.00     0.193 HD
HETATM    9  C9  UNL     1      21.889  16.169  15.190  1.00  0.00     0.061 C 
HETATM   10  C10 UNL     1      22.677  14.937  15.126  1.00  0.00     0.019 C 
ENDROOT
BRANCH   7  11
HETATM   11  O2  UNL     1      24.164  16.494  17.389  1.00  0.00    -0.290 OA
ATOM     12  H2  UNL     1      24.831  16.593  18.058  1.00  0.00     0.244 HD
ENDBRANCH   7  11
BRANCH   1  13
HETATM   13  C3  UNL     1      22.711  17.295  13.070  1.00  0.00     0.059 C 
BRANCH  13  14
HETATM   14  C2  UNL     1      23.048  16.453  11.925  1.00  0.00    -0.034 C 
HETATM   15  C1  UNL     1      23.440  16.916  10.753  1.00  0.00     0.007 C 
ENDBRANCH  13  14
ENDBRANCH   1  13
TORSDOF 3
ENDMDL
MODEL 5
REMARK VINA RESULT: -2.674648314      2.153      4.447
REMARK  3 active torsions:
REMARK  status: ('A' for Active; 'I' for Inactive)
REMARK    1  A    between atoms: C2_2  and  C3_3 
REMARK    2  A    between atoms: C3_3  and  C4_4 
REMARK    3  A    between atoms: N1_10  and  O2_12 
ROOT
HETATM    1  C4  UNL     1      20.710  17.180  13.887  1.00  0.00     0.135 C 
HETATM    2  O1  UNL     1      21.295  16.354  14.874  1.00  0.00    -0.369 OA
HETATM    3  C5  UNL     1      22.558  16.050  14.481  1.00  0.00     0.095 C 
HETATM    4  C6  UNL     1      23.658  16.691  15.242  1.00  0.00     0.052 C 
HETATM    5  C7  UNL     1      22.706  14.530  14.553  1.00  0.00     0.052 C 
HETATM    6  C8  UNL     1      22.699  16.445  13.031  1.00  0.00     0.050 C 
HETATM    7  N1  UNL     1      23.815  16.552  12.459  1.00  0.00    -0.274 N 
ATOM      8  H1  UNL     1      24.625  16.353  13.046  1.00  0.00     0.193 HD
HETATM    9  C9  UNL     1      21.288  16.615  12.646  1.00  0.00     0.061 C 
HETATM   10  C10 UNL     1      21.010  17.303  11.384  1.00  0.00     0.019 C 
ENDROOT
BRANCH   7  11
HETATM   11  O2  UNL     1      24.100  16.891  11.185  1.00  0.00    -0.290 OA
ATOM     12  H2  UNL     1      24.878  16.714  10.670  1.00  0.00     0.244 HD
ENDBRANCH   7  11
BRANCH   1  13
HETATM   13  C3  UNL     1      21.063  18.574  14.243  1.00  0.00     0.059 C 
BRANCH  13  14
HETATM   14  C2  UNL     1      21.000  18.936  15.656  1.00  0.00    -0.034 C 
HETATM   15  C1  UNL     1      22.048  19.273  16.384  1.00  0.00     0.007 C 
ENDBRANCH  13  14
ENDBRANCH   1  13
TORSDOF 3
ENDMDL
