MODEL 1
REMARK VINA RESULT: -6.514486497      0.000      0.000
REMARK  17 active torsions:
REMARK  status: ('A' for Active; 'I' for Inactive)
REMARK    1  A    between atoms: O1_2  and  C2_3 
REMARK    2  A    between atoms: C2_3  and  C3_4 
REMARK    3  A    between atoms: C3_4  and  O2_5 
REMARK    4  A    between atoms: C4_7  and  O3_8 
REMARK    5  A    between atoms: O3_8  and  C5_9 
REMARK    6  A    between atoms: C7_12  and  N1_13 
REMARK    7  A    between atoms: C9_15  and  C10_16 
REMARK    8  A    between atoms: C10_16  and  O6_18 
REMARK    9  A    between atoms: O6_18  and  C11_19 
REMARK   10  A    between atoms: C15_26  and  N4_27 
REMARK   11  A    between atoms: C18_37  and  O9_38 
REMARK   12  A    between atoms: C18_37  and  C19_40 
REMARK   13  A    between atoms: C19_40  and  O10_41 
REMARK   14  A    between atoms: C19_40  and  C20_43 
REMARK   15  A    between atoms: C20_43  and  O11_44 
REMARK   16  A    between atoms: C20_43  and  C21_46 
REMARK   17  A    between atoms: C21_46  and  O12_47 
ROOT
HETATM    1  C2  UNL     1      28.894  -3.257   0.993  1.00  0.00     0.170 C 
HETATM    2  C4  UNL     1      30.180  -3.519   0.302  1.00  0.00     0.223 C 
HETATM    3  C7  UNL     1      31.199  -2.970   1.261  1.00  0.00     0.265 C 
HETATM    4  O8  UNL     1      30.681  -3.422   2.492  1.00  0.00    -0.322 OA
HETATM    5  C18 UNL     1      29.324  -3.326   2.456  1.00  0.00     0.229 C 
ENDROOT
BRANCH   3   6
HETATM    6  N1  UNL     1      32.462  -3.660   1.094  1.00  0.00    -0.311 N 
HETATM    7  C8  UNL     1      32.509  -5.006   1.312  1.00  0.00     0.117 A 
HETATM    8  C9  UNL     1      33.657  -5.754   1.181  1.00  0.00     0.106 A 
HETATM    9  C13 UNL     1      34.812  -5.096   0.810  1.00  0.00     0.207 A 
HETATM   10  O7  UNL     1      35.893  -5.715   0.673  1.00  0.00    -0.286 OA
HETATM   11  C14 UNL     1      34.799  -3.736   0.583  1.00  0.00     0.103 A 
HETATM   12  C15 UNL     1      35.974  -3.082   0.208  1.00  0.00     0.117 A 
HETATM   13  C17 UNL     1      33.603  -3.060   0.737  1.00  0.00     0.128 A 
HETATM   14  N5  UNL     1      35.881  -1.759   0.004  1.00  0.00    -0.338 N 
HETATM   15  C16 UNL     1      34.727  -1.088   0.149  1.00  0.00     0.183 A 
ATOM     16  H5  UNL     1      36.718  -1.244  -0.271  1.00  0.00     0.168 HD
HETATM   17  N6  UNL     1      33.611  -1.752   0.513  1.00  0.00    -0.337 N 
ATOM     18  H6  UNL     1      32.741  -1.230   0.619  1.00  0.00     0.168 HD
BRANCH   8  19
HETATM   19  C10 UNL     1      33.680  -7.192   1.419  1.00  0.00     0.300 C 
HETATM   20  O5  UNL     1      33.299  -7.953   0.498  1.00  0.00    -0.259 OA
BRANCH  19  21
HETATM   21  O6  UNL     1      34.098  -7.755   2.609  1.00  0.00    -0.292 OA
BRANCH  21  22
HETATM   22  C11 UNL     1      35.461  -8.030   2.879  1.00  0.00     0.256 C 
HETATM   23  C12 UNL     1      35.947  -9.378   2.409  1.00  0.00     0.181 C 
HETATM   24  N2  UNL     1      36.635  -9.469   3.688  1.00  0.00    -0.142 NA
HETATM   25  N3  UNL     1      35.688  -8.589   4.208  1.00  0.00    -0.114 NA
ENDBRANCH  21  22
ENDBRANCH  19  21
ENDBRANCH   8  19
BRANCH  12  26
HETATM   26  N4  UNL     1      37.031  -3.777   0.089  1.00  0.00    -0.385 N 
ATOM     27  H42 UNL     1      37.911  -3.607   0.575  1.00  0.00     0.157 HD
ATOM     28  H41 UNL     1      37.010  -4.575  -0.546  1.00  0.00     0.157 HD
ENDBRANCH  12  26
ENDBRANCH   3   6
BRANCH   2  29
HETATM   29  O3  UNL     1      30.286  -3.110  -1.010  1.00  0.00    -0.308 OA
BRANCH  29  30
HETATM   30  C5  UNL     1      31.386  -3.346  -1.838  1.00  0.00     0.255 C 
HETATM   31  C6  UNL     1      31.745  -4.730  -2.260  1.00  0.00     0.126 C 
HETATM   32  O4  UNL     1      32.056  -2.355  -2.213  1.00  0.00    -0.266 OA
ENDBRANCH  29  30
ENDBRANCH   2  29
BRANCH   1  33
HETATM   33  O1  UNL     1      28.261  -2.109   0.791  1.00  0.00    -0.374 OA
HETATM   34  C1  UNL     1      27.093  -2.000   0.141  1.00  0.00     0.203 C 
ENDBRANCH   1  33
BRANCH   1  35
HETATM   35  C3  UNL     1      27.954  -4.410   0.687  1.00  0.00     0.211 C 
BRANCH  35  36
HETATM   36  O2  UNL     1      28.668  -5.410   0.017  1.00  0.00    -0.398 OA
ATOM     37  H2  UNL     1      28.217  -5.621  -0.792  1.00  0.00     0.209 HD
ENDBRANCH  35  36
ENDBRANCH   1  35
BRANCH   5  38
HETATM   38  O9  UNL     1      28.790  -4.483   3.025  1.00  0.00    -0.361 OA
ATOM     39  H9  UNL     1      29.221  -5.238   2.641  1.00  0.00     0.213 HD
ENDBRANCH   5  38
BRANCH   5  40
HETATM   40  C19 UNL     1      28.837  -2.116   3.221  1.00  0.00     0.214 C 
BRANCH  40  41
HETATM   41  O10 UNL     1      29.615  -1.027   2.897  1.00  0.00    -0.387 OA
ATOM     42  H10 UNL     1      29.976  -0.651   3.691  1.00  0.00     0.210 HD
ENDBRANCH  40  41
BRANCH  40  43
HETATM   43  C20 UNL     1      28.791  -2.332   4.695  1.00  0.00     0.175 C 
BRANCH  43  44
HETATM   44  O11 UNL     1      29.636  -3.323   5.129  1.00  0.00    -0.391 OA
ATOM     45  H11 UNL     1      29.409  -4.186   4.803  1.00  0.00     0.210 HD
ENDBRANCH  43  44
BRANCH  43  46
HETATM   46  C21 UNL     1      28.987  -1.089   5.512  1.00  0.00     0.198 C 
BRANCH  46  47
HETATM   47  O12 UNL     1      30.299  -0.848   5.847  1.00  0.00    -0.398 OA
ATOM     48  H12 UNL     1      30.698  -1.545   6.353  1.00  0.00     0.209 HD
ENDBRANCH  46  47
ENDBRANCH  43  46
ENDBRANCH  40  43
ENDBRANCH   5  40
TORSDOF 17
ENDMDL
MODEL 2
REMARK VINA RESULT: -6.492073836      2.127      2.639
REMARK  17 active torsions:
REMARK  status: ('A' for Active; 'I' for Inactive)
REMARK    1  A    between atoms: O1_2  and  C2_3 
REMARK    2  A    between atoms: C2_3  and  C3_4 
REMARK    3  A    between atoms: C3_4  and  O2_5 
REMARK    4  A    between atoms: C4_7  and  O3_8 
REMARK    5  A    between atoms: O3_8  and  C5_9 
REMARK    6  A    between atoms: C7_12  and  N1_13 
REMARK    7  A    between atoms: C9_15  and  C10_16 
REMARK    8  A    between atoms: C10_16  and  O6_18 
REMARK    9  A    between atoms: O6_18  and  C11_19 
REMARK   10  A    between atoms: C15_26  and  N4_27 
REMARK   11  A    between atoms: C18_37  and  O9_38 
REMARK   12  A    between atoms: C18_37  and  C19_40 
REMARK   13  A    between atoms: C19_40  and  O10_41 
REMARK   14  A    between atoms: C19_40  and  C20_43 
REMARK   15  A    between atoms: C20_43  and  O11_44 
REMARK   16  A    between atoms: C20_43  and  C21_46 
REMARK   17  A    between atoms: C21_46  and  O12_47 
ROOT
HETATM    1  C2  UNL     1      29.277  -2.998   0.784  1.00  0.00     0.170 C 
HETATM    2  C4  UNL     1      30.571  -2.709   0.117  1.00  0.00     0.223 C 
HETATM    3  C7  UNL     1      31.310  -1.901   1.147  1.00  0.00     0.265 C 
HETATM    4  O8  UNL     1      30.994  -2.609   2.324  1.00  0.00    -0.322 OA
HETATM    5  C18 UNL     1      29.698  -3.019   2.251  1.00  0.00     0.229 C 
ENDROOT
BRANCH   3   6
HETATM    6  N1  UNL     1      32.739  -2.058   0.971  1.00  0.00    -0.311 N 
HETATM    7  C8  UNL     1      33.257  -3.318   0.888  1.00  0.00     0.117 A 
HETATM    8  C9  UNL     1      34.598  -3.576   0.721  1.00  0.00     0.106 A 
HETATM    9  C13 UNL     1      35.452  -2.495   0.635  1.00  0.00     0.207 A 
HETATM   10  O7  UNL     1      36.686  -2.658   0.483  1.00  0.00    -0.286 OA
HETATM   11  C14 UNL     1      34.963  -1.209   0.715  1.00  0.00     0.103 A 
HETATM   12  C15 UNL     1      35.838  -0.125   0.626  1.00  0.00     0.117 A 
HETATM   13  C17 UNL     1      33.602  -1.039   0.883  1.00  0.00     0.128 A 
HETATM   14  N5  UNL     1      35.285   1.095   0.712  1.00  0.00    -0.338 N 
HETATM   15  C16 UNL     1      33.965   1.278   0.875  1.00  0.00     0.183 A 
ATOM     16  H5  UNL     1      35.891   1.914   0.651  1.00  0.00     0.168 HD
HETATM   17  N6  UNL     1      33.150   0.207   0.957  1.00  0.00    -0.337 N 
ATOM     18  H6  UNL     1      32.149   0.360   1.080  1.00  0.00     0.168 HD
BRANCH   8  19
HETATM   19  C10 UNL     1      35.124  -4.932   0.635  1.00  0.00     0.300 C 
HETATM   20  O5  UNL     1      35.683  -5.418   1.648  1.00  0.00    -0.259 OA
BRANCH  19  21
HETATM   21  O6  UNL     1      35.038  -5.708  -0.504  1.00  0.00    -0.292 OA
BRANCH  21  22
HETATM   22  C11 UNL     1      34.102  -6.764  -0.633  1.00  0.00     0.256 C 
HETATM   23  C12 UNL     1      33.534  -6.950  -2.017  1.00  0.00     0.181 C 
HETATM   24  N2  UNL     1      32.247  -7.129  -1.361  1.00  0.00    -0.142 NA
HETATM   25  N3  UNL     1      32.736  -6.374  -0.297  1.00  0.00    -0.114 NA
ENDBRANCH  21  22
ENDBRANCH  19  21
ENDBRANCH   8  19
BRANCH  12  26
HETATM   26  N4  UNL     1      37.075  -0.368   0.472  1.00  0.00    -0.385 N 
ATOM     27  H42 UNL     1      37.828  -0.012   1.061  1.00  0.00     0.157 HD
ATOM     28  H41 UNL     1      37.352  -0.969  -0.304  1.00  0.00     0.157 HD
ENDBRANCH  12  26
ENDBRANCH   3   6
BRANCH   2  29
HETATM   29  O3  UNL     1      30.521  -2.186  -1.156  1.00  0.00    -0.308 OA
BRANCH  29  30
HETATM   30  C5  UNL     1      31.490  -2.381  -2.143  1.00  0.00     0.255 C 
HETATM   31  C6  UNL     1      32.033  -1.233  -2.924  1.00  0.00     0.126 C 
HETATM   32  O4  UNL     1      31.885  -3.554  -2.347  1.00  0.00    -0.266 OA
ENDBRANCH  29  30
ENDBRANCH   2  29
BRANCH   1  33
HETATM   33  O1  UNL     1      28.263  -2.154   0.646  1.00  0.00    -0.374 OA
HETATM   34  C1  UNL     1      27.202  -2.379  -0.141  1.00  0.00     0.203 C 
ENDBRANCH   1  33
BRANCH   1  35
HETATM   35  C3  UNL     1      28.834  -4.388   0.364  1.00  0.00     0.211 C 
BRANCH  35  36
HETATM   36  O2  UNL     1      29.902  -5.030  -0.274  1.00  0.00    -0.398 OA
ATOM     37  H2  UNL     1      29.700  -5.118  -1.198  1.00  0.00     0.209 HD
ENDBRANCH  35  36
ENDBRANCH   1  35
BRANCH   5  38
HETATM   38  O9  UNL     1      29.632  -4.334   2.716  1.00  0.00    -0.361 OA
ATOM     39  H9  UNL     1      29.368  -4.321   3.628  1.00  0.00     0.213 HD
ENDBRANCH   5  38
BRANCH   5  40
HETATM   40  C19 UNL     1      28.794  -2.141   3.087  1.00  0.00     0.214 C 
BRANCH  40  41
HETATM   41  O10 UNL     1      29.112  -0.819   2.868  1.00  0.00    -0.387 OA
ATOM     42  H10 UNL     1      30.024  -0.674   3.089  1.00  0.00     0.210 HD
ENDBRANCH  40  41
BRANCH  40  43
HETATM   43  C20 UNL     1      28.828  -2.476   4.538  1.00  0.00     0.175 C 
BRANCH  43  44
HETATM   44  O11 UNL     1      29.788  -3.403   4.864  1.00  0.00    -0.391 OA
ATOM     45  H11 UNL     1      29.577  -4.284   4.576  1.00  0.00     0.210 HD
ENDBRANCH  43  44
BRANCH  43  46
HETATM   46  C21 UNL     1      28.928  -1.286   5.449  1.00  0.00     0.198 C 
BRANCH  46  47
HETATM   47  O12 UNL     1      30.219  -0.879   5.688  1.00  0.00    -0.398 OA
ATOM     48  H12 UNL     1      30.598  -0.373   4.978  1.00  0.00     0.209 HD
ENDBRANCH  46  47
ENDBRANCH  43  46
ENDBRANCH  40  43
ENDBRANCH   5  40
TORSDOF 17
ENDMDL
MODEL 3
REMARK VINA RESULT: -6.332987784      4.448      9.519
REMARK  17 active torsions:
REMARK  status: ('A' for Active; 'I' for Inactive)
REMARK    1  A    between atoms: O1_2  and  C2_3 
REMARK    2  A    between atoms: C2_3  and  C3_4 
REMARK    3  A    between atoms: C3_4  and  O2_5 
REMARK    4  A    between atoms: C4_7  and  O3_8 
REMARK    5  A    between atoms: O3_8  and  C5_9 
REMARK    6  A    between atoms: C7_12  and  N1_13 
REMARK    7  A    between atoms: C9_15  and  C10_16 
REMARK    8  A    between atoms: C10_16  and  O6_18 
REMARK    9  A    between atoms: O6_18  and  C11_19 
REMARK   10  A    between atoms: C15_26  and  N4_27 
REMARK   11  A    between atoms: C18_37  and  O9_38 
REMARK   12  A    between atoms: C18_37  and  C19_40 
REMARK   13  A    between atoms: C19_40  and  O10_41 
REMARK   14  A    between atoms: C19_40  and  C20_43 
REMARK   15  A    between atoms: C20_43  and  O11_44 
REMARK   16  A    between atoms: C20_43  and  C21_46 
REMARK   17  A    between atoms: C21_46  and  O12_47 
ROOT
HETATM    1  C2  UNL     1      30.444  -2.886   1.261  1.00  0.00     0.170 C 
HETATM    2  C4  UNL     1      28.980  -2.660   1.346  1.00  0.00     0.223 C 
HETATM    3  C7  UNL     1      28.589  -2.430  -0.087  1.00  0.00     0.265 C 
HETATM    4  O8  UNL     1      29.354  -3.418  -0.738  1.00  0.00    -0.322 OA
HETATM    5  C18 UNL     1      30.569  -3.500  -0.131  1.00  0.00     0.229 C 
ENDROOT
BRANCH   3   6
HETATM    6  N1  UNL     1      27.206  -2.809  -0.293  1.00  0.00    -0.311 N 
HETATM    7  C8  UNL     1      26.313  -1.856  -0.686  1.00  0.00     0.117 A 
HETATM    8  C9  UNL     1      24.980  -2.112  -0.909  1.00  0.00     0.106 A 
HETATM    9  C13 UNL     1      24.536  -3.405  -0.719  1.00  0.00     0.207 A 
HETATM   10  O7  UNL     1      23.334  -3.709  -0.904  1.00  0.00    -0.286 OA
HETATM   11  C14 UNL     1      25.411  -4.393  -0.321  1.00  0.00     0.103 A 
HETATM   12  C15 UNL     1      24.949  -5.697  -0.134  1.00  0.00     0.117 A 
HETATM   13  C17 UNL     1      26.734  -4.050  -0.120  1.00  0.00     0.128 A 
HETATM   14  N5  UNL     1      25.861  -6.603   0.253  1.00  0.00    -0.338 N 
HETATM   15  C16 UNL     1      27.151  -6.286   0.453  1.00  0.00     0.183 A 
ATOM     16  H5  UNL     1      25.564  -7.568   0.401  1.00  0.00     0.168 HD
HETATM   17  N6  UNL     1      27.562  -5.016   0.262  1.00  0.00    -0.337 N 
ATOM     18  H6  UNL     1      28.544  -4.789   0.417  1.00  0.00     0.168 HD
BRANCH   8  19
HETATM   19  C10 UNL     1      24.048  -1.073  -1.329  1.00  0.00     0.300 C 
HETATM   20  O5  UNL     1      24.433  -0.242  -2.186  1.00  0.00    -0.259 OA
BRANCH  19  21
HETATM   21  O6  UNL     1      22.765  -0.960  -0.831  1.00  0.00    -0.292 OA
BRANCH  21  22
HETATM   22  C11 UNL     1      22.249   0.263  -0.337  1.00  0.00     0.256 C 
HETATM   23  C12 UNL     1      20.920   0.158   0.368  1.00  0.00     0.181 C 
HETATM   24  N2  UNL     1      20.549   1.364  -0.357  1.00  0.00    -0.142 NA
HETATM   25  N3  UNL     1      21.485   1.013  -1.328  1.00  0.00    -0.114 NA
ENDBRANCH  21  22
ENDBRANCH  19  21
ENDBRANCH   8  19
BRANCH  12  26
HETATM   26  N4  UNL     1      23.718  -5.929  -0.340  1.00  0.00    -0.385 N 
ATOM     27  H42 UNL     1      23.078  -6.373   0.320  1.00  0.00     0.157 HD
ATOM     28  H41 UNL     1      23.322  -5.654  -1.239  1.00  0.00     0.157 HD
ENDBRANCH  12  26
ENDBRANCH   3   6
BRANCH   2  29
HETATM   29  O3  UNL     1      28.538  -1.731   2.262  1.00  0.00    -0.308 OA
BRANCH  29  30
HETATM   30  C5  UNL     1      28.932  -1.673   3.602  1.00  0.00     0.255 C 
HETATM   31  C6  UNL     1      29.719  -0.519   4.121  1.00  0.00     0.126 C 
HETATM   32  O4  UNL     1      28.600  -2.625   4.347  1.00  0.00    -0.266 OA
ENDBRANCH  29  30
ENDBRANCH   2  29
BRANCH   1  33
HETATM   33  O1  UNL     1      31.274  -1.856   1.347  1.00  0.00    -0.374 OA
HETATM   34  C1  UNL     1      32.598  -1.972   1.527  1.00  0.00     0.203 C 
ENDBRANCH   1  33
BRANCH   1  35
HETATM   35  C3  UNL     1      30.819  -3.922   2.307  1.00  0.00     0.211 C 
BRANCH  35  36
HETATM   36  O2  UNL     1      29.675  -4.652   2.651  1.00  0.00    -0.398 OA
ATOM     37  H2  UNL     1      28.912  -4.095   2.548  1.00  0.00     0.209 HD
ENDBRANCH  35  36
ENDBRANCH   1  35
BRANCH   5  38
HETATM   38  O9  UNL     1      30.898  -4.850   0.004  1.00  0.00    -0.361 OA
ATOM     39  H9  UNL     1      30.191  -5.373  -0.355  1.00  0.00     0.213 HD
ENDBRANCH   5  38
BRANCH   5  40
HETATM   40  C19 UNL     1      31.636  -2.798  -0.939  1.00  0.00     0.214 C 
BRANCH  40  41
HETATM   41  O10 UNL     1      31.050  -1.844  -1.740  1.00  0.00    -0.387 OA
ATOM     42  H10 UNL     1      31.254  -0.980  -1.403  1.00  0.00     0.210 HD
ENDBRANCH  40  41
BRANCH  40  43
HETATM   43  C20 UNL     1      32.481  -3.733  -1.734  1.00  0.00     0.175 C 
BRANCH  43  44
HETATM   44  O11 UNL     1      31.780  -4.423  -2.692  1.00  0.00    -0.391 OA
ATOM     45  H11 UNL     1      32.175  -4.380  -3.555  1.00  0.00     0.210 HD
ENDBRANCH  43  44
BRANCH  43  46
HETATM   46  C21 UNL     1      33.703  -3.104  -2.339  1.00  0.00     0.198 C 
BRANCH  46  47
HETATM   47  O12 UNL     1      33.984  -1.853  -1.844  1.00  0.00    -0.398 OA
ATOM     48  H12 UNL     1      33.797  -1.757  -0.917  1.00  0.00     0.209 HD
ENDBRANCH  46  47
ENDBRANCH  43  46
ENDBRANCH  40  43
ENDBRANCH   5  40
TORSDOF 17
ENDMDL
MODEL 4
REMARK VINA RESULT: -6.189148214      1.759      2.080
REMARK  17 active torsions:
REMARK  status: ('A' for Active; 'I' for Inactive)
REMARK    1  A    between atoms: O1_2  and  C2_3 
REMARK    2  A    between atoms: C2_3  and  C3_4 
REMARK    3  A    between atoms: C3_4  and  O2_5 
REMARK    4  A    between atoms: C4_7  and  O3_8 
REMARK    5  A    between atoms: O3_8  and  C5_9 
REMARK    6  A    between atoms: C7_12  and  N1_13 
REMARK    7  A    between atoms: C9_15  and  C10_16 
REMARK    8  A    between atoms: C10_16  and  O6_18 
REMARK    9  A    between atoms: O6_18  and  C11_19 
REMARK   10  A    between atoms: C15_26  and  N4_27 
REMARK   11  A    between atoms: C18_37  and  O9_38 
REMARK   12  A    between atoms: C18_37  and  C19_40 
REMARK   13  A    between atoms: C19_40  and  O10_41 
REMARK   14  A    between atoms: C19_40  and  C20_43 
REMARK   15  A    between atoms: C20_43  and  O11_44 
REMARK   16  A    between atoms: C20_43  and  C21_46 
REMARK   17  A    between atoms: C21_46  and  O12_47 
ROOT
HETATM    1  C2  UNL     1      28.814  -3.103   1.084  1.00  0.00     0.170 C 
HETATM    2  C4  UNL     1      30.107  -3.191   0.362  1.00  0.00     0.223 C 
HETATM    3  C7  UNL     1      31.080  -2.586   1.334  1.00  0.00     0.265 C 
HETATM    4  O8  UNL     1      30.638  -3.153   2.547  1.00  0.00    -0.322 OA
HETATM    5  C18 UNL     1      29.278  -3.201   2.535  1.00  0.00     0.229 C 
ENDROOT
BRANCH   3   6
HETATM    6  N1  UNL     1      32.406  -3.127   1.112  1.00  0.00    -0.311 N 
HETATM    7  C8  UNL     1      32.588  -4.476   1.198  1.00  0.00     0.117 A 
HETATM    8  C9  UNL     1      33.805  -5.090   1.005  1.00  0.00     0.106 A 
HETATM    9  C13 UNL     1      34.887  -4.286   0.711  1.00  0.00     0.207 A 
HETATM   10  O7  UNL     1      36.025  -4.779   0.524  1.00  0.00    -0.286 OA
HETATM   11  C14 UNL     1      34.739  -2.920   0.617  1.00  0.00     0.103 A 
HETATM   12  C15 UNL     1      35.842  -2.118   0.319  1.00  0.00     0.117 A 
HETATM   13  C17 UNL     1      33.482  -2.384   0.826  1.00  0.00     0.128 A 
HETATM   14  N5  UNL     1      35.617  -0.797   0.244  1.00  0.00    -0.338 N 
HETATM   15  C16 UNL     1      34.402  -0.262   0.444  1.00  0.00     0.183 A 
ATOM     16  H5  UNL     1      36.398  -0.177   0.028  1.00  0.00     0.168 HD
HETATM   17  N6  UNL     1      33.358  -1.066   0.730  1.00  0.00    -0.337 N 
ATOM     18  H6  UNL     1      32.441  -0.646   0.879  1.00  0.00     0.168 HD
BRANCH   8  19
HETATM   19  C10 UNL     1      33.971  -6.535   1.103  1.00  0.00     0.300 C 
HETATM   20  O5  UNL     1      33.484  -7.123   2.098  1.00  0.00    -0.259 OA
BRANCH  19  21
HETATM   21  O6  UNL     1      34.637  -7.286   0.155  1.00  0.00    -0.292 OA
BRANCH  21  22
HETATM   22  C11 UNL     1      33.995  -7.779  -1.008  1.00  0.00     0.256 C 
HETATM   23  C12 UNL     1      34.198  -6.950  -2.251  1.00  0.00     0.181 C 
HETATM   24  N2  UNL     1      32.780  -7.159  -2.506  1.00  0.00    -0.142 NA
HETATM   25  N3  UNL     1      32.608  -7.344  -1.135  1.00  0.00    -0.114 NA
ENDBRANCH  21  22
ENDBRANCH  19  21
ENDBRANCH   8  19
BRANCH  12  26
HETATM   26  N4  UNL     1      36.963  -2.689   0.142  1.00  0.00    -0.385 N 
ATOM     27  H42 UNL     1      37.124  -3.696   0.146  1.00  0.00     0.157 HD
ATOM     28  H41 UNL     1      37.780  -2.100  -0.018  1.00  0.00     0.157 HD
ENDBRANCH  12  26
ENDBRANCH   3   6
BRANCH   2  29
HETATM   29  O3  UNL     1      30.142  -2.705  -0.927  1.00  0.00    -0.308 OA
BRANCH  29  30
HETATM   30  C5  UNL     1      31.295  -2.583  -1.708  1.00  0.00     0.255 C 
HETATM   31  C6  UNL     1      31.951  -3.784  -2.300  1.00  0.00     0.126 C 
HETATM   32  O4  UNL     1      31.754  -1.431  -1.892  1.00  0.00    -0.266 OA
ENDBRANCH  29  30
ENDBRANCH   2  29
BRANCH   1  33
HETATM   33  O1  UNL     1      28.059  -2.021   0.953  1.00  0.00    -0.374 OA
HETATM   34  C1  UNL     1      26.918  -1.983   0.249  1.00  0.00     0.203 C 
ENDBRANCH   1  33
BRANCH   1  35
HETATM   35  C3  UNL     1      27.996  -4.333   0.731  1.00  0.00     0.211 C 
BRANCH  35  36
HETATM   36  O2  UNL     1      28.827  -5.261   0.093  1.00  0.00    -0.398 OA
ATOM     37  H2  UNL     1      28.297  -5.985  -0.219  1.00  0.00     0.209 HD
ENDBRANCH  35  36
ENDBRANCH   1  35
BRANCH   5  38
HETATM   38  O9  UNL     1      28.882  -4.437   3.049  1.00  0.00    -0.361 OA
ATOM     39  H9  UNL     1      29.494  -4.694   3.728  1.00  0.00     0.213 HD
ENDBRANCH   5  38
BRANCH   5  40
HETATM   40  C19 UNL     1      28.681  -2.091   3.371  1.00  0.00     0.214 C 
BRANCH  40  41
HETATM   41  O10 UNL     1      29.307  -0.902   3.067  1.00  0.00    -0.387 OA
ATOM     42  H10 UNL     1      30.040  -0.773   3.656  1.00  0.00     0.210 HD
ENDBRANCH  40  41
BRANCH  40  43
HETATM   43  C20 UNL     1      28.724  -2.370   4.834  1.00  0.00     0.175 C 
BRANCH  43  44
HETATM   44  O11 UNL     1      29.606  -3.365   5.176  1.00  0.00    -0.391 OA
ATOM     45  H11 UNL     1      30.508  -3.163   4.959  1.00  0.00     0.210 HD
ENDBRANCH  43  44
BRANCH  43  46
HETATM   46  C21 UNL     1      28.952  -1.158   5.691  1.00  0.00     0.198 C 
BRANCH  46  47
HETATM   47  O12 UNL     1      30.280  -0.845   5.864  1.00  0.00    -0.398 OA
ATOM     48  H12 UNL     1      30.874  -1.435   5.413  1.00  0.00     0.209 HD
ENDBRANCH  46  47
ENDBRANCH  43  46
ENDBRANCH  40  43
ENDBRANCH   5  40
TORSDOF 17
ENDMDL
MODEL 5
REMARK VINA RESULT: -6.154026885      2.689      7.277
REMARK  17 active torsions:
REMARK  status: ('A' for Active; 'I' for Inactive)
REMARK    1  A    between atoms: O1_2  and  C2_3 
REMARK    2  A    between atoms: C2_3  and  C3_4 
REMARK    3  A    between atoms: C3_4  and  O2_5 
REMARK    4  A    between atoms: C4_7  and  O3_8 
REMARK    5  A    between atoms: O3_8  and  C5_9 
REMARK    6  A    between atoms: C7_12  and  N1_13 
REMARK    7  A    between atoms: C9_15  and  C10_16 
REMARK    8  A    between atoms: C10_16  and  O6_18 
REMARK    9  A    between atoms: O6_18  and  C11_19 
REMARK   10  A    between atoms: C15_26  and  N4_27 
REMARK   11  A    between atoms: C18_37  and  O9_38 
REMARK   12  A    between atoms: C18_37  and  C19_40 
REMARK   13  A    between atoms: C19_40  and  O10_41 
REMARK   14  A    between atoms: C19_40  and  C20_43 
REMARK   15  A    between atoms: C20_43  and  O11_44 
REMARK   16  A    between atoms: C20_43  and  C21_46 
REMARK   17  A    between atoms: C21_46  and  O12_47 
ROOT
HETATM    1  C2  UNL     1      34.259  -7.074  -0.441  1.00  0.00     0.170 C 
HETATM    2  C4  UNL     1      34.155  -5.853   0.395  1.00  0.00     0.223 C 
HETATM    3  C7  UNL     1      33.994  -4.758  -0.623  1.00  0.00     0.265 C 
HETATM    4  O8  UNL     1      33.096  -5.361  -1.527  1.00  0.00    -0.322 OA
HETATM    5  C18 UNL     1      33.421  -6.676  -1.653  1.00  0.00     0.229 C 
ENDROOT
BRANCH   3   6
HETATM    6  N1  UNL     1      33.273  -3.643  -0.044  1.00  0.00    -0.311 N 
HETATM    7  C8  UNL     1      32.141  -3.894   0.675  1.00  0.00     0.117 A 
HETATM    8  C9  UNL     1      31.385  -2.907   1.265  1.00  0.00     0.106 A 
HETATM    9  C13 UNL     1      31.805  -1.601   1.113  1.00  0.00     0.207 A 
HETATM   10  O7  UNL     1      31.163  -0.653   1.623  1.00  0.00    -0.286 OA
HETATM   11  C14 UNL     1      32.943  -1.312   0.392  1.00  0.00     0.103 A 
HETATM   12  C15 UNL     1      33.357   0.013   0.246  1.00  0.00     0.117 A 
HETATM   13  C17 UNL     1      33.645  -2.363  -0.168  1.00  0.00     0.128 A 
HETATM   14  N5  UNL     1      34.476   0.213  -0.468  1.00  0.00    -0.338 N 
HETATM   15  C16 UNL     1      35.169  -0.797  -1.018  1.00  0.00     0.183 A 
ATOM     16  H5  UNL     1      34.812   1.168  -0.598  1.00  0.00     0.168 HD
HETATM   17  N6  UNL     1      34.740  -2.065  -0.857  1.00  0.00    -0.337 N 
ATOM     18  H6  UNL     1      35.276  -2.823  -1.279  1.00  0.00     0.168 HD
BRANCH   8  19
HETATM   19  C10 UNL     1      30.179  -3.203   2.028  1.00  0.00     0.300 C 
HETATM   20  O5  UNL     1      29.110  -3.394   1.400  1.00  0.00    -0.259 OA
BRANCH  19  21
HETATM   21  O6  UNL     1      30.156  -3.284   3.407  1.00  0.00    -0.292 OA
BRANCH  21  22
HETATM   22  C11 UNL     1      29.162  -2.643   4.186  1.00  0.00     0.256 C 
HETATM   23  C12 UNL     1      29.454  -1.207   4.541  1.00  0.00     0.181 C 
HETATM   24  N2  UNL     1      28.969  -1.537   5.873  1.00  0.00    -0.142 NA
HETATM   25  N3  UNL     1      29.318  -2.863   5.621  1.00  0.00    -0.114 NA
ENDBRANCH  21  22
ENDBRANCH  19  21
ENDBRANCH   8  19
BRANCH  12  26
HETATM   26  N4  UNL     1      32.656   0.920   0.792  1.00  0.00    -0.385 N 
ATOM     27  H42 UNL     1      32.723   1.920   0.599  1.00  0.00     0.157 HD
ATOM     28  H41 UNL     1      31.962   0.638   1.485  1.00  0.00     0.157 HD
ENDBRANCH  12  26
ENDBRANCH   3   6
BRANCH   2  29
HETATM   29  O3  UNL     1      35.125  -5.662   1.356  1.00  0.00    -0.308 OA
BRANCH  29  30
HETATM   30  C5  UNL     1      36.205  -4.783   1.242  1.00  0.00     0.255 C 
HETATM   31  C6  UNL     1      36.270  -3.538   2.059  1.00  0.00     0.126 C 
HETATM   32  O4  UNL     1      37.114  -5.080   0.431  1.00  0.00    -0.266 OA
ENDBRANCH  29  30
ENDBRANCH   2  29
BRANCH   1  33
HETATM   33  O1  UNL     1      35.448  -7.483  -0.863  1.00  0.00    -0.374 OA
HETATM   34  C1  UNL     1      36.155  -8.462  -0.281  1.00  0.00     0.203 C 
ENDBRANCH   1  33
BRANCH   1  35
HETATM   35  C3  UNL     1      33.572  -8.208   0.300  1.00  0.00     0.211 C 
BRANCH  35  36
HETATM   36  O2  UNL     1      32.914  -7.684   1.419  1.00  0.00    -0.398 OA
ATOM     37  H2  UNL     1      33.287  -6.836   1.626  1.00  0.00     0.209 HD
ENDBRANCH  35  36
ENDBRANCH   1  35
BRANCH   5  38
HETATM   38  O9  UNL     1      32.239  -7.419  -1.642  1.00  0.00    -0.361 OA
ATOM     39  H9  UNL     1      32.456  -8.337  -1.751  1.00  0.00     0.213 HD
ENDBRANCH   5  38
BRANCH   5  40
HETATM   40  C19 UNL     1      34.171  -6.938  -2.939  1.00  0.00     0.214 C 
BRANCH  40  41
HETATM   41  O10 UNL     1      35.158  -5.991  -3.094  1.00  0.00    -0.387 OA
ATOM     42  H10 UNL     1      35.858  -6.162  -2.476  1.00  0.00     0.210 HD
ENDBRANCH  40  41
BRANCH  40  43
HETATM   43  C20 UNL     1      33.283  -6.999  -4.134  1.00  0.00     0.175 C 
BRANCH  43  44
HETATM   44  O11 UNL     1      32.453  -5.911  -4.256  1.00  0.00    -0.391 OA
ATOM     45  H11 UNL     1      32.832  -5.201  -4.760  1.00  0.00     0.210 HD
ENDBRANCH  43  44
BRANCH  43  46
HETATM   46  C21 UNL     1      34.000  -7.251  -5.429  1.00  0.00     0.198 C 
BRANCH  46  47
HETATM   47  O12 UNL     1      35.133  -8.018  -5.294  1.00  0.00    -0.398 OA
ATOM     48  H12 UNL     1      35.882  -7.680  -5.770  1.00  0.00     0.209 HD
ENDBRANCH  46  47
ENDBRANCH  43  46
ENDBRANCH  40  43
ENDBRANCH   5  40
TORSDOF 17
ENDMDL
