MODEL 1
REMARK VINA RESULT: -8.018010627      0.000      0.000
REMARK  15 active torsions:
REMARK  status: ('A' for Active; 'I' for Inactive)
REMARK    1  A    between atoms: C3_5  and  N2_6 
REMARK    2  A    between atoms: C5_8  and  N3_9 
REMARK    3  A    between atoms: N3_9  and  C6_11 
REMARK    4  A    between atoms: C6_11  and  C7_12 
REMARK    5  A    between atoms: C7_12  and  C8_13 
REMARK    6  A    between atoms: C8_13  and  C9_18 
REMARK    7  A    between atoms: N4_14  and  O2_16 
REMARK    8  A    between atoms: N8_30  and  C13_31 
REMARK    9  A    between atoms: C15_34  and  C16_35 
REMARK   10  A    between atoms: C16_35  and  O7_36 
REMARK   11  A    between atoms: C16_35  and  C17_38 
REMARK   12  A    between atoms: C17_38  and  O8_39 
REMARK   13  A    between atoms: C17_38  and  C18_41 
REMARK   14  A    between atoms: C18_41  and  O9_42 
REMARK   15  A    between atoms: C19_49  and  O10_50 
ROOT
HETATM    1  N1  UNL     1      26.513  -3.531  -0.223  1.00  0.00    -0.194 NA
HETATM    2  C1  UNL     1      27.334  -3.150   0.507  1.00  0.00     0.096 C 
HETATM    3  C2  UNL     1      28.365  -2.648   1.409  1.00  0.00     0.286 C 
HETATM    4  O1  UNL     1      29.428  -2.204   0.579  1.00  0.00    -0.296 OA
HETATM    5  C3  UNL     1      30.492  -2.302   1.504  1.00  0.00     0.245 C 
HETATM    6  N10 UNL     1      30.367  -3.517   2.180  1.00  0.00    -0.325 N 
ATOM      7  H10 UNL     1      31.119  -4.076   2.582  1.00  0.00     0.165 HD
HETATM    8  C19 UNL     1      28.988  -3.813   2.195  1.00  0.00     0.264 C 
ENDROOT
BRANCH   8   9
HETATM    9  O10 UNL     1      28.510  -3.723   3.498  1.00  0.00    -0.373 OA
ATOM     10  H10 UNL     1      27.964  -4.487   3.646  1.00  0.00     0.212 HD
ENDBRANCH   8   9
BRANCH   5  11
HETATM   11  N2  UNL     1      31.739  -1.818   1.074  1.00  0.00    -0.206 N 
HETATM   12  C4  UNL     1      32.264  -0.596   1.349  1.00  0.00     0.137 A 
HETATM   13  C5  UNL     1      31.833   0.516   2.069  1.00  0.00     0.135 A 
HETATM   14  C11 UNL     1      33.509  -0.468   0.767  1.00  0.00     0.138 A 
HETATM   15  N5  UNL     1      32.598   1.633   2.176  1.00  0.00    -0.315 N 
HETATM   16  C10 UNL     1      33.801   1.707   1.592  1.00  0.00     0.194 A 
ATOM     17  H5  UNL     1      32.251   2.429   2.711  1.00  0.00     0.170 HD
HETATM   18  N6  UNL     1      34.550   2.905   1.745  1.00  0.00    -0.063 NA
HETATM   19  N7  UNL     1      34.265   0.663   0.885  1.00  0.00    -0.324 N 
ATOM     20  H7  UNL     1      35.180   0.715   0.438  1.00  0.00     0.169 HD
HETATM   21  C12 UNL     1      33.711  -1.664   0.129  1.00  0.00     0.294 A 
HETATM   22  O5  UNL     1      34.767  -1.910  -0.523  1.00  0.00    -0.264 OA
HETATM   23  N8  UNL     1      32.649  -2.460   0.320  1.00  0.00    -0.211 N 
BRANCH  13  24
HETATM   24  N3  UNL     1      30.702   0.466   2.627  1.00  0.00    -0.374 N 
ATOM     25  H3  UNL     1      29.874   0.428   2.032  1.00  0.00     0.161 HD
BRANCH  24  26
HETATM   26  C6  UNL     1      30.512   0.461   4.056  1.00  0.00     0.127 C 
BRANCH  26  27
HETATM   27  C7  UNL     1      29.090   0.070   4.391  1.00  0.00     0.086 C 
BRANCH  27  28
HETATM   28  C8  UNL     1      29.054  -0.456   5.769  1.00  0.00     0.109 C 
HETATM   29  N4  UNL     1      28.239   0.156   6.583  1.00  0.00    -0.267 N 
ATOM     30  H4  UNL     1      27.682   0.941   6.245  1.00  0.00     0.194 HD
BRANCH  29  31
HETATM   31  O2  UNL     1      28.125  -0.242   7.869  1.00  0.00    -0.290 OA
ATOM     32  H2  UNL     1      28.895  -0.486   8.370  1.00  0.00     0.244 HD
ENDBRANCH  29  31
BRANCH  28  33
HETATM   33  C9  UNL     1      29.831  -1.578   6.257  1.00  0.00     0.224 C 
HETATM   34  O3  UNL     1      30.803  -1.380   7.041  1.00  0.00    -0.643 OA
HETATM   35  O4  UNL     1      29.507  -2.864   5.861  1.00  0.00    -0.643 OA
ENDBRANCH  28  33
ENDBRANCH  27  28
ENDBRANCH  26  27
ENDBRANCH  24  26
ENDBRANCH  13  24
BRANCH  23  36
HETATM   36  C13 UNL     1      32.574  -3.784  -0.231  1.00  0.00     0.337 C 
HETATM   37  C14 UNL     1      33.166  -4.879   0.566  1.00  0.00     0.227 C 
HETATM   38  O6  UNL     1      33.333  -5.883  -0.383  1.00  0.00    -0.353 OA
HETATM   39  C15 UNL     1      33.473  -5.327  -1.617  1.00  0.00     0.355 C 
HETATM   40  N9  UNL     1      33.066  -3.947  -1.568  1.00  0.00    -0.021 N 
ATOM     41  H92 UNL     1      32.405  -3.677  -2.296  1.00  0.00     0.283 HD
ATOM     42  H91 UNL     1      33.795  -3.284  -1.833  1.00  0.00     0.283 HD
BRANCH  39  43
HETATM   43  C16 UNL     1      32.739  -6.093  -2.670  1.00  0.00     0.205 C 
BRANCH  43  44
HETATM   44  O7  UNL     1      31.446  -6.437  -2.265  1.00  0.00    -0.389 OA
ATOM     45  H7  UNL     1      30.994  -6.961  -2.916  1.00  0.00     0.210 HD
ENDBRANCH  43  44
BRANCH  43  46
HETATM   46  C17 UNL     1      33.456  -7.319  -3.166  1.00  0.00     0.174 C 
BRANCH  46  47
HETATM   47  O8  UNL     1      34.684  -7.431  -2.481  1.00  0.00    -0.391 OA
ATOM     48  H8  UNL     1      35.390  -7.375  -3.112  1.00  0.00     0.210 HD
ENDBRANCH  46  47
BRANCH  46  49
HETATM   49  C18 UNL     1      33.794  -7.107  -4.642  1.00  0.00     0.198 C 
BRANCH  49  50
HETATM   50  O9  UNL     1      32.579  -6.800  -5.262  1.00  0.00    -0.398 OA
ATOM     51  H9  UNL     1      32.809  -6.307  -6.041  1.00  0.00     0.209 HD
ENDBRANCH  49  50
ENDBRANCH  46  49
ENDBRANCH  43  46
ENDBRANCH  39  43
ENDBRANCH  23  36
ENDBRANCH   5  11
TORSDOF 15
ENDMDL
MODEL 2
REMARK VINA RESULT: -7.958509382      0.772      1.121
REMARK  15 active torsions:
REMARK  status: ('A' for Active; 'I' for Inactive)
REMARK    1  A    between atoms: C3_5  and  N2_6 
REMARK    2  A    between atoms: C5_8  and  N3_9 
REMARK    3  A    between atoms: N3_9  and  C6_11 
REMARK    4  A    between atoms: C6_11  and  C7_12 
REMARK    5  A    between atoms: C7_12  and  C8_13 
REMARK    6  A    between atoms: C8_13  and  C9_18 
REMARK    7  A    between atoms: N4_14  and  O2_16 
REMARK    8  A    between atoms: N8_30  and  C13_31 
REMARK    9  A    between atoms: C15_34  and  C16_35 
REMARK   10  A    between atoms: C16_35  and  O7_36 
REMARK   11  A    between atoms: C16_35  and  C17_38 
REMARK   12  A    between atoms: C17_38  and  O8_39 
REMARK   13  A    between atoms: C17_38  and  C18_41 
REMARK   14  A    between atoms: C18_41  and  O9_42 
REMARK   15  A    between atoms: C19_49  and  O10_50 
ROOT
HETATM    1  N1  UNL     1      26.475  -2.770  -0.507  1.00  0.00    -0.194 NA
HETATM    2  C1  UNL     1      27.370  -2.717   0.234  1.00  0.00     0.096 C 
HETATM    3  C2  UNL     1      28.496  -2.623   1.156  1.00  0.00     0.286 C 
HETATM    4  O1  UNL     1      29.554  -2.024   0.423  1.00  0.00    -0.296 OA
HETATM    5  C3  UNL     1      30.650  -2.505   1.174  1.00  0.00     0.245 C 
HETATM    6  N10 UNL     1      30.433  -3.859   1.438  1.00  0.00    -0.325 N 
ATOM      7  H10 UNL     1      31.142  -4.580   1.575  1.00  0.00     0.165 HD
HETATM    8  C19 UNL     1      29.033  -4.028   1.475  1.00  0.00     0.264 C 
ENDROOT
BRANCH   8   9
HETATM    9  O10 UNL     1      28.639  -4.326   2.775  1.00  0.00    -0.373 OA
ATOM     10  H10 UNL     1      28.762  -5.261   2.894  1.00  0.00     0.212 HD
ENDBRANCH   8   9
BRANCH   5  11
HETATM   11  N2  UNL     1      31.917  -2.014   0.816  1.00  0.00    -0.206 N 
HETATM   12  C4  UNL     1      32.454  -0.826   1.196  1.00  0.00     0.137 A 
HETATM   13  C5  UNL     1      32.021   0.237   1.985  1.00  0.00     0.135 A 
HETATM   14  C11 UNL     1      33.716  -0.678   0.659  1.00  0.00     0.138 A 
HETATM   15  N5  UNL     1      32.801   1.329   2.196  1.00  0.00    -0.315 N 
HETATM   16  C10 UNL     1      34.021   1.424   1.652  1.00  0.00     0.194 A 
ATOM     17  H5  UNL     1      32.452   2.090   2.779  1.00  0.00     0.170 HD
HETATM   18  N6  UNL     1      34.785   2.593   1.914  1.00  0.00    -0.063 NA
HETATM   19  N7  UNL     1      34.488   0.427   0.882  1.00  0.00    -0.324 N 
ATOM     20  H7  UNL     1      35.416   0.495   0.464  1.00  0.00     0.169 HD
HETATM   21  C12 UNL     1      33.917  -1.827  -0.062  1.00  0.00     0.294 A 
HETATM   22  O5  UNL     1      34.987  -2.044  -0.701  1.00  0.00    -0.264 OA
HETATM   23  N8  UNL     1      32.837  -2.615   0.040  1.00  0.00    -0.211 N 
BRANCH  13  24
HETATM   24  N3  UNL     1      30.874   0.167   2.506  1.00  0.00    -0.374 N 
ATOM     25  H3  UNL     1      30.121  -0.248   1.958  1.00  0.00     0.161 HD
BRANCH  24  26
HETATM   26  C6  UNL     1      30.566   0.641   3.833  1.00  0.00     0.127 C 
BRANCH  26  27
HETATM   27  C7  UNL     1      29.218   0.115   4.275  1.00  0.00     0.086 C 
BRANCH  27  28
HETATM   28  C8  UNL     1      29.428  -1.016   5.198  1.00  0.00     0.109 C 
HETATM   29  N4  UNL     1      29.238  -2.201   4.686  1.00  0.00    -0.267 N 
ATOM     30  H4  UNL     1      28.965  -2.292   3.708  1.00  0.00     0.194 HD
BRANCH  29  31
HETATM   31  O2  UNL     1      29.401  -3.309   5.442  1.00  0.00    -0.290 OA
ATOM     32  H2  UNL     1      28.915  -4.102   5.249  1.00  0.00     0.244 HD
ENDBRANCH  29  31
BRANCH  28  33
HETATM   33  C9  UNL     1      29.828  -0.901   6.586  1.00  0.00     0.224 C 
HETATM   34  O3  UNL     1      30.882  -1.471   6.989  1.00  0.00    -0.643 OA
HETATM   35  O4  UNL     1      29.052  -0.170   7.467  1.00  0.00    -0.643 OA
ENDBRANCH  28  33
ENDBRANCH  27  28
ENDBRANCH  26  27
ENDBRANCH  24  26
ENDBRANCH  13  24
BRANCH  23  36
HETATM   36  C13 UNL     1      32.756  -3.893  -0.610  1.00  0.00     0.337 C 
HETATM   37  C14 UNL     1      33.447  -5.025   0.042  1.00  0.00     0.227 C 
HETATM   38  O6  UNL     1      33.563  -5.944  -0.996  1.00  0.00    -0.353 OA
HETATM   39  C15 UNL     1      33.580  -5.286  -2.187  1.00  0.00     0.355 C 
HETATM   40  N9  UNL     1      33.137  -3.930  -1.992  1.00  0.00    -0.021 N 
ATOM     41  H92 UNL     1      32.408  -3.628  -2.637  1.00  0.00     0.283 HD
ATOM     42  H91 UNL     1      33.820  -3.221  -2.260  1.00  0.00     0.283 HD
BRANCH  39  43
HETATM   43  C16 UNL     1      32.783  -5.993  -3.236  1.00  0.00     0.205 C 
BRANCH  43  44
HETATM   44  O7  UNL     1      31.568  -6.474  -2.738  1.00  0.00    -0.389 OA
ATOM     45  H7  UNL     1      30.965  -5.772  -2.527  1.00  0.00     0.210 HD
ENDBRANCH  43  44
BRANCH  43  46
HETATM   46  C17 UNL     1      33.517  -7.102  -3.938  1.00  0.00     0.174 C 
BRANCH  46  47
HETATM   47  O8  UNL     1      34.845  -7.135  -3.464  1.00  0.00    -0.391 OA
ATOM     48  H8  UNL     1      35.367  -7.659  -4.059  1.00  0.00     0.210 HD
ENDBRANCH  46  47
BRANCH  46  49
HETATM   49  C18 UNL     1      33.589  -6.757  -5.426  1.00  0.00     0.198 C 
BRANCH  49  50
HETATM   50  O9  UNL     1      32.495  -5.921  -5.668  1.00  0.00    -0.398 OA
ATOM     51  H9  UNL     1      32.765  -5.059  -5.375  1.00  0.00     0.209 HD
ENDBRANCH  49  50
ENDBRANCH  46  49
ENDBRANCH  43  46
ENDBRANCH  39  43
ENDBRANCH  23  36
ENDBRANCH   5  11
TORSDOF 15
ENDMDL
MODEL 3
REMARK VINA RESULT: -7.805171082      1.485      2.055
REMARK  15 active torsions:
REMARK  status: ('A' for Active; 'I' for Inactive)
REMARK    1  A    between atoms: C3_5  and  N2_6 
REMARK    2  A    between atoms: C5_8  and  N3_9 
REMARK    3  A    between atoms: N3_9  and  C6_11 
REMARK    4  A    between atoms: C6_11  and  C7_12 
REMARK    5  A    between atoms: C7_12  and  C8_13 
REMARK    6  A    between atoms: C8_13  and  C9_18 
REMARK    7  A    between atoms: N4_14  and  O2_16 
REMARK    8  A    between atoms: N8_30  and  C13_31 
REMARK    9  A    between atoms: C15_34  and  C16_35 
REMARK   10  A    between atoms: C16_35  and  O7_36 
REMARK   11  A    between atoms: C16_35  and  C17_38 
REMARK   12  A    between atoms: C17_38  and  O8_39 
REMARK   13  A    between atoms: C17_38  and  C18_41 
REMARK   14  A    between atoms: C18_41  and  O9_42 
REMARK   15  A    between atoms: C19_49  and  O10_50 
ROOT
HETATM    1  N1  UNL     1      26.811  -3.703  -0.264  1.00  0.00    -0.194 NA
HETATM    2  C1  UNL     1      27.602  -3.286   0.480  1.00  0.00     0.096 C 
HETATM    3  C2  UNL     1      28.596  -2.740   1.398  1.00  0.00     0.286 C 
HETATM    4  O1  UNL     1      29.658  -2.262   0.586  1.00  0.00    -0.296 OA
HETATM    5  C3  UNL     1      30.705  -2.314   1.533  1.00  0.00     0.245 C 
HETATM    6  N10 UNL     1      30.612  -3.528   2.216  1.00  0.00    -0.325 N 
ATOM      7  H10 UNL     1      31.377  -4.056   2.637  1.00  0.00     0.165 HD
HETATM    8  C19 UNL     1      29.245  -3.875   2.206  1.00  0.00     0.264 C 
ENDROOT
BRANCH   8   9
HETATM    9  O10 UNL     1      28.738  -3.794   3.498  1.00  0.00    -0.373 OA
ATOM     10  H10 UNL     1      28.099  -3.090   3.501  1.00  0.00     0.212 HD
ENDBRANCH   8   9
BRANCH   5  11
HETATM   11  N2  UNL     1      31.942  -1.787   1.124  1.00  0.00    -0.206 N 
HETATM   12  C4  UNL     1      32.400  -0.531   1.368  1.00  0.00     0.137 A 
HETATM   13  C5  UNL     1      31.893   0.585   2.029  1.00  0.00     0.135 A 
HETATM   14  C11 UNL     1      33.656  -0.366   0.821  1.00  0.00     0.138 A 
HETATM   15  N5  UNL     1      32.600   1.741   2.116  1.00  0.00    -0.315 N 
HETATM   16  C10 UNL     1      33.818   1.851   1.568  1.00  0.00     0.194 A 
ATOM     17  H5  UNL     1      32.198   2.540   2.607  1.00  0.00     0.170 HD
HETATM   18  N6  UNL     1      34.504   3.089   1.697  1.00  0.00    -0.063 NA
HETATM   19  N7  UNL     1      34.354   0.804   0.919  1.00  0.00    -0.324 N 
ATOM     20  H7  UNL     1      35.280   0.883   0.499  1.00  0.00     0.169 HD
HETATM   21  C12 UNL     1      33.936  -1.574   0.237  1.00  0.00     0.294 A 
HETATM   22  O5  UNL     1      35.024  -1.793  -0.370  1.00  0.00    -0.264 OA
HETATM   23  N8  UNL     1      32.907  -2.412   0.426  1.00  0.00    -0.211 N 
BRANCH  13  24
HETATM   24  N3  UNL     1      30.747   0.502   2.551  1.00  0.00    -0.374 N 
ATOM     25  H3  UNL     1      29.938   0.453   1.931  1.00  0.00     0.161 HD
BRANCH  24  26
HETATM   26  C6  UNL     1      30.515   0.472   3.974  1.00  0.00     0.127 C 
BRANCH  26  27
HETATM   27  C7  UNL     1      29.120  -0.038   4.264  1.00  0.00     0.086 C 
BRANCH  27  28
HETATM   28  C8  UNL     1      29.055  -0.469   5.672  1.00  0.00     0.109 C 
HETATM   29  N4  UNL     1      28.225   0.197   6.426  1.00  0.00    -0.267 N 
ATOM     30  H4  UNL     1      27.677   0.958   6.025  1.00  0.00     0.194 HD
BRANCH  29  31
HETATM   31  O2  UNL     1      28.085  -0.111   7.734  1.00  0.00    -0.290 OA
ATOM     32  H2  UNL     1      27.522  -0.827   8.005  1.00  0.00     0.244 HD
ENDBRANCH  29  31
BRANCH  28  33
HETATM   33  C9  UNL     1      29.820  -1.556   6.252  1.00  0.00     0.224 C 
HETATM   34  O3  UNL     1      30.750  -1.307   7.071  1.00  0.00    -0.643 OA
HETATM   35  O4  UNL     1      29.530  -2.863   5.904  1.00  0.00    -0.643 OA
ENDBRANCH  28  33
ENDBRANCH  27  28
ENDBRANCH  26  27
ENDBRANCH  24  26
ENDBRANCH  13  24
BRANCH  23  36
HETATM   36  C13 UNL     1      32.913  -3.758  -0.074  1.00  0.00     0.337 C 
HETATM   37  C14 UNL     1      31.741  -4.189  -0.865  1.00  0.00     0.227 C 
HETATM   38  O6  UNL     1      31.834  -5.576  -0.808  1.00  0.00    -0.353 OA
HETATM   39  C15 UNL     1      32.494  -5.943   0.325  1.00  0.00     0.355 C 
HETATM   40  N9  UNL     1      33.153  -4.794   0.888  1.00  0.00    -0.021 N 
ATOM     41  H92 UNL     1      34.137  -4.941   1.111  1.00  0.00     0.283 HD
ATOM     42  H91 UNL     1      32.859  -4.564   1.837  1.00  0.00     0.283 HD
BRANCH  39  43
HETATM   43  C16 UNL     1      33.440  -7.076   0.087  1.00  0.00     0.205 C 
BRANCH  43  44
HETATM   44  O7  UNL     1      33.015  -7.907  -0.953  1.00  0.00    -0.389 OA
ATOM     45  H7  UNL     1      32.164  -7.652  -1.290  1.00  0.00     0.210 HD
ENDBRANCH  43  44
BRANCH  43  46
HETATM   46  C17 UNL     1      33.741  -7.905   1.306  1.00  0.00     0.174 C 
BRANCH  46  47
HETATM   47  O8  UNL     1      34.024  -7.039   2.382  1.00  0.00    -0.391 OA
ATOM     48  H8  UNL     1      34.801  -7.354   2.829  1.00  0.00     0.210 HD
ENDBRANCH  46  47
BRANCH  46  49
HETATM   49  C18 UNL     1      35.017  -8.702   1.034  1.00  0.00     0.198 C 
BRANCH  49  50
HETATM   50  O9  UNL     1      34.586  -9.954   0.584  1.00  0.00    -0.398 OA
ATOM     51  H9  UNL     1      34.410  -9.843  -0.342  1.00  0.00     0.209 HD
ENDBRANCH  49  50
ENDBRANCH  46  49
ENDBRANCH  43  46
ENDBRANCH  39  43
ENDBRANCH  23  36
ENDBRANCH   5  11
TORSDOF 15
ENDMDL
MODEL 4
REMARK VINA RESULT: -7.734870382      1.215      1.768
REMARK  15 active torsions:
REMARK  status: ('A' for Active; 'I' for Inactive)
REMARK    1  A    between atoms: C3_5  and  N2_6 
REMARK    2  A    between atoms: C5_8  and  N3_9 
REMARK    3  A    between atoms: N3_9  and  C6_11 
REMARK    4  A    between atoms: C6_11  and  C7_12 
REMARK    5  A    between atoms: C7_12  and  C8_13 
REMARK    6  A    between atoms: C8_13  and  C9_18 
REMARK    7  A    between atoms: N4_14  and  O2_16 
REMARK    8  A    between atoms: N8_30  and  C13_31 
REMARK    9  A    between atoms: C15_34  and  C16_35 
REMARK   10  A    between atoms: C16_35  and  O7_36 
REMARK   11  A    between atoms: C16_35  and  C17_38 
REMARK   12  A    between atoms: C17_38  and  O8_39 
REMARK   13  A    between atoms: C17_38  and  C18_41 
REMARK   14  A    between atoms: C18_41  and  O9_42 
REMARK   15  A    between atoms: C19_49  and  O10_50 
ROOT
HETATM    1  N1  UNL     1      26.908  -3.144  -0.309  1.00  0.00    -0.194 NA
HETATM    2  C1  UNL     1      27.832  -2.985   0.378  1.00  0.00     0.096 C 
HETATM    3  C2  UNL     1      28.989  -2.758   1.237  1.00  0.00     0.286 C 
HETATM    4  O1  UNL     1      29.848  -1.889   0.514  1.00  0.00    -0.296 OA
HETATM    5  C3  UNL     1      31.073  -2.212   1.140  1.00  0.00     0.245 C 
HETATM    6  N10 UNL     1      31.145  -3.601   1.261  1.00  0.00    -0.325 N 
ATOM      7  H10 UNL     1      31.989  -4.174   1.274  1.00  0.00     0.165 HD
HETATM    8  C19 UNL     1      29.812  -4.051   1.363  1.00  0.00     0.264 C 
ENDROOT
BRANCH   8   9
HETATM    9  O10 UNL     1      29.589  -4.549   2.642  1.00  0.00    -0.373 OA
ATOM     10  H10 UNL     1      29.797  -3.850   3.251  1.00  0.00     0.212 HD
ENDBRANCH   8   9
BRANCH   5  11
HETATM   11  N2  UNL     1      32.188  -1.443   0.764  1.00  0.00    -0.206 N 
HETATM   12  C4  UNL     1      32.503  -0.206   1.227  1.00  0.00     0.137 A 
HETATM   13  C5  UNL     1      31.923   0.677   2.136  1.00  0.00     0.135 A 
HETATM   14  C11 UNL     1      33.669   0.242   0.641  1.00  0.00     0.138 A 
HETATM   15  N5  UNL     1      32.482   1.884   2.409  1.00  0.00    -0.315 N 
HETATM   16  C10 UNL     1      33.617   2.272   1.813  1.00  0.00     0.194 A 
ATOM     17  H5  UNL     1      32.030   2.506   3.080  1.00  0.00     0.170 HD
HETATM   18  N6  UNL     1      34.149   3.548   2.146  1.00  0.00    -0.063 NA
HETATM   19  N7  UNL     1      34.218   1.460   0.928  1.00  0.00    -0.324 N 
ATOM     20  H7  UNL     1      35.082   1.751   0.471  1.00  0.00     0.169 HD
HETATM   21  C12 UNL     1      34.044  -0.777  -0.195  1.00  0.00     0.294 A 
HETATM   22  O5  UNL     1      35.087  -0.716  -0.908  1.00  0.00    -0.264 OA
HETATM   23  N8  UNL     1      33.153  -1.776  -0.112  1.00  0.00    -0.211 N 
BRANCH  13  24
HETATM   24  N3  UNL     1      30.853   0.330   2.707  1.00  0.00    -0.374 N 
ATOM     25  H3  UNL     1      30.199  -0.258   2.189  1.00  0.00     0.161 HD
BRANCH  24  26
HETATM   26  C6  UNL     1      30.500   0.715   4.051  1.00  0.00     0.127 C 
BRANCH  26  27
HETATM   27  C7  UNL     1      29.160   0.123   4.429  1.00  0.00     0.086 C 
BRANCH  27  28
HETATM   28  C8  UNL     1      29.386  -1.052   5.291  1.00  0.00     0.109 C 
HETATM   29  N4  UNL     1      29.225  -2.211   4.715  1.00  0.00    -0.267 N 
ATOM     30  H4  UNL     1      28.961  -2.253   3.730  1.00  0.00     0.194 HD
BRANCH  29  31
HETATM   31  O2  UNL     1      29.405  -3.355   5.410  1.00  0.00    -0.290 OA
ATOM     32  H2  UNL     1      30.234  -3.818   5.374  1.00  0.00     0.244 HD
ENDBRANCH  29  31
BRANCH  28  33
HETATM   33  C9  UNL     1      29.772  -1.005   6.688  1.00  0.00     0.224 C 
HETATM   34  O3  UNL     1      30.876  -1.498   7.054  1.00  0.00    -0.643 OA
HETATM   35  O4  UNL     1      28.927  -0.422   7.615  1.00  0.00    -0.643 OA
ENDBRANCH  28  33
ENDBRANCH  27  28
ENDBRANCH  26  27
ENDBRANCH  24  26
ENDBRANCH  13  24
BRANCH  23  36
HETATM   36  C13 UNL     1      33.283  -2.984  -0.876  1.00  0.00     0.337 C 
HETATM   37  C14 UNL     1      34.433  -3.858  -0.563  1.00  0.00     0.227 C 
HETATM   38  O6  UNL     1      34.529  -4.649  -1.705  1.00  0.00    -0.353 OA
HETATM   39  C15 UNL     1      34.018  -3.974  -2.770  1.00  0.00     0.355 C 
HETATM   40  N9  UNL     1      33.261  -2.843  -2.303  1.00  0.00    -0.021 N 
ATOM     41  H92 UNL     1      32.327  -2.766  -2.704  1.00  0.00     0.283 HD
ATOM     42  H91 UNL     1      33.599  -1.941  -2.642  1.00  0.00     0.283 HD
BRANCH  39  43
HETATM   43  C16 UNL     1      33.214  -4.858  -3.668  1.00  0.00     0.205 C 
BRANCH  43  44
HETATM   44  O7  UNL     1      32.100  -4.198  -4.196  1.00  0.00    -0.389 OA
ATOM     45  H7  UNL     1      32.098  -3.272  -3.982  1.00  0.00     0.210 HD
ENDBRANCH  43  44
BRANCH  43  46
HETATM   46  C17 UNL     1      32.782  -6.157  -3.044  1.00  0.00     0.174 C 
BRANCH  46  47
HETATM   47  O8  UNL     1      32.403  -7.047  -4.070  1.00  0.00    -0.391 OA
ATOM     48  H8  UNL     1      33.150  -7.189  -4.640  1.00  0.00     0.210 HD
ENDBRANCH  46  47
BRANCH  46  49
HETATM   49  C18 UNL     1      31.530  -5.889  -2.208  1.00  0.00     0.198 C 
BRANCH  49  50
HETATM   50  O9  UNL     1      31.919  -6.085  -0.880  1.00  0.00    -0.398 OA
ATOM     51  H9  UNL     1      32.139  -5.222  -0.550  1.00  0.00     0.209 HD
ENDBRANCH  49  50
ENDBRANCH  46  49
ENDBRANCH  43  46
ENDBRANCH  39  43
ENDBRANCH  23  36
ENDBRANCH   5  11
TORSDOF 15
ENDMDL
MODEL 5
REMARK VINA RESULT: -7.708409874      1.315      1.945
REMARK  15 active torsions:
REMARK  status: ('A' for Active; 'I' for Inactive)
REMARK    1  A    between atoms: C3_5  and  N2_6 
REMARK    2  A    between atoms: C5_8  and  N3_9 
REMARK    3  A    between atoms: N3_9  and  C6_11 
REMARK    4  A    between atoms: C6_11  and  C7_12 
REMARK    5  A    between atoms: C7_12  and  C8_13 
REMARK    6  A    between atoms: C8_13  and  C9_18 
REMARK    7  A    between atoms: N4_14  and  O2_16 
REMARK    8  A    between atoms: N8_30  and  C13_31 
REMARK    9  A    between atoms: C15_34  and  C16_35 
REMARK   10  A    between atoms: C16_35  and  O7_36 
REMARK   11  A    between atoms: C16_35  and  C17_38 
REMARK   12  A    between atoms: C17_38  and  O8_39 
REMARK   13  A    between atoms: C17_38  and  C18_41 
REMARK   14  A    between atoms: C18_41  and  O9_42 
REMARK   15  A    between atoms: C19_49  and  O10_50 
ROOT
HETATM    1  N1  UNL     1      26.639  -3.574  -0.460  1.00  0.00    -0.194 NA
HETATM    2  C1  UNL     1      27.485  -3.244   0.266  1.00  0.00     0.096 C 
HETATM    3  C2  UNL     1      28.546  -2.804   1.165  1.00  0.00     0.286 C 
HETATM    4  O1  UNL     1      29.533  -2.201   0.341  1.00  0.00    -0.296 OA
HETATM    5  C3  UNL     1      30.656  -2.357   1.184  1.00  0.00     0.245 C 
HETATM    6  N10 UNL     1      30.631  -3.652   1.704  1.00  0.00    -0.325 N 
ATOM      7  H10 UNL     1      31.433  -4.216   1.987  1.00  0.00     0.165 HD
HETATM    8  C19 UNL     1      29.271  -4.022   1.758  1.00  0.00     0.264 C 
ENDROOT
BRANCH   8   9
HETATM    9  O10 UNL     1      28.873  -4.124   3.087  1.00  0.00    -0.373 OA
ATOM     10  H10 UNL     1      28.649  -5.035   3.239  1.00  0.00     0.212 HD
ENDBRANCH   8   9
BRANCH   5  11
HETATM   11  N2  UNL     1      31.849  -1.755   0.750  1.00  0.00    -0.206 N 
HETATM   12  C4  UNL     1      32.344  -0.561   1.168  1.00  0.00     0.137 A 
HETATM   13  C5  UNL     1      31.921   0.414   2.069  1.00  0.00     0.135 A 
HETATM   14  C11 UNL     1      33.538  -0.289   0.532  1.00  0.00     0.138 A 
HETATM   15  N5  UNL     1      32.647   1.541   2.289  1.00  0.00    -0.315 N 
HETATM   16  C10 UNL     1      33.802   1.757   1.646  1.00  0.00     0.194 A 
ATOM     17  H5  UNL     1      32.307   2.234   2.955  1.00  0.00     0.170 HD
HETATM   18  N6  UNL     1      34.512   2.956   1.925  1.00  0.00    -0.063 NA
HETATM   19  N7  UNL     1      34.256   0.849   0.766  1.00  0.00    -0.324 N 
ATOM     20  H7  UNL     1      35.134   1.010   0.273  1.00  0.00     0.169 HD
HETATM   21  C12 UNL     1      33.743  -1.370  -0.286  1.00  0.00     0.294 A 
HETATM   22  O5  UNL     1      34.759  -1.467  -1.034  1.00  0.00    -0.264 OA
HETATM   23  N8  UNL     1      32.729  -2.236  -0.146  1.00  0.00    -0.211 N 
BRANCH  13  24
HETATM   24  N3  UNL     1      30.835   0.229   2.684  1.00  0.00    -0.374 N 
ATOM     25  H3  UNL     1      30.115  -0.333   2.230  1.00  0.00     0.161 HD
BRANCH  24  26
HETATM   26  C6  UNL     1      30.554   0.766   3.992  1.00  0.00     0.127 C 
BRANCH  26  27
HETATM   27  C7  UNL     1      29.211   0.268   4.482  1.00  0.00     0.086 C 
BRANCH  27  28
HETATM   28  C8  UNL     1      29.430  -0.873   5.390  1.00  0.00     0.109 C 
HETATM   29  N4  UNL     1      29.126  -2.044   4.902  1.00  0.00    -0.267 N 
ATOM     30  H4  UNL     1      28.766  -2.118   3.951  1.00  0.00     0.194 HD
BRANCH  29  31
HETATM   31  O2  UNL     1      29.285  -3.161   5.647  1.00  0.00    -0.290 OA
ATOM     32  H2  UNL     1      28.827  -3.962   5.421  1.00  0.00     0.244 HD
ENDBRANCH  29  31
BRANCH  28  33
HETATM   33  C9  UNL     1      29.952  -0.783   6.739  1.00  0.00     0.224 C 
HETATM   34  O3  UNL     1      30.890  -1.548   7.106  1.00  0.00    -0.643 OA
HETATM   35  O4  UNL     1      29.420   0.139   7.622  1.00  0.00    -0.643 OA
ENDBRANCH  28  33
ENDBRANCH  27  28
ENDBRANCH  26  27
ENDBRANCH  24  26
ENDBRANCH  13  24
BRANCH  23  36
HETATM   36  C13 UNL     1      32.668  -3.470  -0.879  1.00  0.00     0.337 C 
HETATM   37  C14 UNL     1      31.471  -3.698  -1.716  1.00  0.00     0.227 C 
HETATM   38  O6  UNL     1      31.499  -5.076  -1.909  1.00  0.00    -0.353 OA
HETATM   39  C15 UNL     1      32.148  -5.669  -0.871  1.00  0.00     0.355 C 
HETATM   40  N9  UNL     1      32.865  -4.671  -0.122  1.00  0.00    -0.021 N 
ATOM     41  H92 UNL     1      33.843  -4.901   0.056  1.00  0.00     0.283 HD
ATOM     42  H91 UNL     1      32.589  -4.602   0.858  1.00  0.00     0.283 HD
BRANCH  39  43
HETATM   43  C16 UNL     1      33.038  -6.783  -1.322  1.00  0.00     0.205 C 
BRANCH  43  44
HETATM   44  O7  UNL     1      32.315  -7.931  -1.655  1.00  0.00    -0.389 OA
ATOM     45  H7  UNL     1      32.342  -8.584  -0.965  1.00  0.00     0.210 HD
ENDBRANCH  43  44
BRANCH  43  46
HETATM   46  C17 UNL     1      34.134  -7.138  -0.355  1.00  0.00     0.174 C 
BRANCH  46  47
HETATM   47  O8  UNL     1      35.124  -7.869  -1.044  1.00  0.00    -0.391 OA
ATOM     48  H8  UNL     1      35.192  -7.530  -1.928  1.00  0.00     0.210 HD
ENDBRANCH  46  47
BRANCH  46  49
HETATM   49  C18 UNL     1      33.549  -8.075   0.702  1.00  0.00     0.198 C 
BRANCH  49  50
HETATM   50  O9  UNL     1      33.986  -9.355   0.348  1.00  0.00    -0.398 OA
ATOM     51  H9  UNL     1      33.240  -9.926   0.488  1.00  0.00     0.209 HD
ENDBRANCH  49  50
ENDBRANCH  46  49
ENDBRANCH  43  46
ENDBRANCH  39  43
ENDBRANCH  23  36
ENDBRANCH   5  11
TORSDOF 15
ENDMDL
