MODEL 1
REMARK VINA RESULT: -5.091640177      0.000      0.000
REMARK  4 active torsions:
REMARK  status: ('A' for Active; 'I' for Inactive)
REMARK    1  A    between atoms: N1_2  and  N2_3 
REMARK    2  A    between atoms: N1_2  and  S1_6 
REMARK    3  A    between atoms: S1_6  and  N3_7 
REMARK    4  A    between atoms: N3_7  and  N4_9 
ROOT
HETATM    1  N4  UNL     1      12.488  -4.004   4.824  1.00  0.00    -0.143 N 
HETATM    2  C2  UNL     1      11.848  -4.780   5.716  1.00  0.00     0.365 A 
HETATM    3  O1  UNL     1      12.417  -5.561   6.532  1.00  0.00    -0.243 OA
HETATM    4  N5  UNL     1      10.510  -4.619   5.635  1.00  0.00    -0.246 N 
ATOM      5  H5  UNL     1       9.795  -5.086   6.194  1.00  0.00     0.192 HD
HETATM    6  N6  UNL     1      10.323  -3.722   4.674  1.00  0.00    -0.246 N 
ATOM      7  H6  UNL     1       9.416  -3.375   4.361  1.00  0.00     0.192 HD
HETATM    8  C3  UNL     1      11.513  -3.342   4.177  1.00  0.00     0.365 A 
HETATM    9  O2  UNL     1      11.730  -2.511   3.259  1.00  0.00    -0.243 OA
ENDROOT
BRANCH   1  10
HETATM   10  N3  UNL     1      13.883  -3.909   4.619  1.00  0.00    -0.244 N 
ATOM     11  H3  UNL     1      14.433  -3.174   5.062  1.00  0.00     0.197 HD
BRANCH  10  12
HETATM   12  S1  UNL     1      14.638  -5.110   3.569  1.00  0.00     0.074 SA
BRANCH  12  13
HETATM   13  N1  UNL     1      13.448  -5.823   2.515  1.00  0.00    -0.161 NA
HETATM   14  C1  UNL     1      13.900  -5.917   1.143  1.00  0.00     0.152 C 
BRANCH  13  15
HETATM   15  N2  UNL     1      13.031  -7.033   3.017  1.00  0.00    -0.353 NA
ATOM     16  H22 UNL     1      12.012  -7.069   3.050  1.00  0.00     0.172 HD
ATOM     17  H21 UNL     1      13.463  -7.254   3.914  1.00  0.00     0.172 HD
ENDBRANCH  13  15
ENDBRANCH  12  13
ENDBRANCH  10  12
ENDBRANCH   1  10
TORSDOF 4
ENDMDL
MODEL 2
REMARK VINA RESULT: -5.086517887      0.024      2.113
REMARK  4 active torsions:
REMARK  status: ('A' for Active; 'I' for Inactive)
REMARK    1  A    between atoms: N1_2  and  N2_3 
REMARK    2  A    between atoms: N1_2  and  S1_6 
REMARK    3  A    between atoms: S1_6  and  N3_7 
REMARK    4  A    between atoms: N3_7  and  N4_9 
ROOT
HETATM    1  N4  UNL     1      12.488  -4.015   4.841  1.00  0.00    -0.143 N 
HETATM    2  C2  UNL     1      11.516  -3.353   4.189  1.00  0.00     0.365 A 
HETATM    3  O1  UNL     1      11.710  -2.516   3.261  1.00  0.00    -0.243 OA
HETATM    4  N5  UNL     1      10.294  -3.699   4.649  1.00  0.00    -0.246 N 
ATOM      5  H5  UNL     1       9.390  -3.348   4.331  1.00  0.00     0.192 HD
HETATM    6  N6  UNL     1      10.520  -4.595   5.603  1.00  0.00    -0.246 N 
ATOM      7  H6  UNL     1       9.801  -5.060   6.157  1.00  0.00     0.192 HD
HETATM    8  C3  UNL     1      11.845  -4.794   5.726  1.00  0.00     0.365 A 
HETATM    9  O2  UNL     1      12.431  -5.568   6.524  1.00  0.00    -0.243 OA
ENDROOT
BRANCH   1  10
HETATM   10  N3  UNL     1      13.882  -3.908   4.633  1.00  0.00    -0.244 N 
ATOM     11  H3  UNL     1      14.429  -3.174   5.083  1.00  0.00     0.197 HD
BRANCH  10  12
HETATM   12  S1  UNL     1      14.642  -5.090   3.565  1.00  0.00     0.074 SA
BRANCH  12  13
HETATM   13  N1  UNL     1      13.450  -5.811   2.520  1.00  0.00    -0.161 NA
HETATM   14  C1  UNL     1      13.893  -5.902   1.144  1.00  0.00     0.152 C 
BRANCH  13  15
HETATM   15  N2  UNL     1      13.045  -7.024   3.025  1.00  0.00    -0.353 NA
ATOM     16  H22 UNL     1      13.802  -7.704   2.962  1.00  0.00     0.172 HD
ATOM     17  H21 UNL     1      12.181  -7.357   2.597  1.00  0.00     0.172 HD
ENDBRANCH  13  15
ENDBRANCH  12  13
ENDBRANCH  10  12
ENDBRANCH   1  10
TORSDOF 4
ENDMDL
MODEL 3
REMARK VINA RESULT: -4.900230914      1.624      2.876
REMARK  4 active torsions:
REMARK  status: ('A' for Active; 'I' for Inactive)
REMARK    1  A    between atoms: N1_2  and  N2_3 
REMARK    2  A    between atoms: N1_2  and  S1_6 
REMARK    3  A    between atoms: S1_6  and  N3_7 
REMARK    4  A    between atoms: N3_7  and  N4_9 
ROOT
HETATM    1  N4  UNL     1      12.835  -4.220   5.171  1.00  0.00    -0.143 N 
HETATM    2  C2  UNL     1      12.047  -3.508   4.345  1.00  0.00     0.365 A 
HETATM    3  O1  UNL     1      12.468  -2.730   3.441  1.00  0.00    -0.243 OA
HETATM    4  N5  UNL     1      10.740  -3.732   4.600  1.00  0.00    -0.246 N 
ATOM      5  H5  UNL     1       9.937  -3.321   4.123  1.00  0.00     0.192 HD
HETATM    6  N6  UNL     1      10.724  -4.603   5.603  1.00  0.00    -0.246 N 
ATOM      7  H6  UNL     1       9.883  -4.983   6.039  1.00  0.00     0.192 HD
HETATM    8  C3  UNL     1      11.986  -4.906   5.955  1.00  0.00     0.365 A 
HETATM    9  O2  UNL     1      12.359  -5.691   6.862  1.00  0.00    -0.243 OA
ENDROOT
BRANCH   1  10
HETATM   10  N3  UNL     1      14.247  -4.238   5.200  1.00  0.00    -0.244 N 
ATOM     11  H3  UNL     1      14.765  -3.843   5.985  1.00  0.00     0.197 HD
BRANCH  10  12
HETATM   12  S1  UNL     1      15.084  -4.969   3.829  1.00  0.00     0.074 SA
BRANCH  12  13
HETATM   13  N1  UNL     1      15.778  -3.731   2.818  1.00  0.00    -0.161 NA
HETATM   14  C1  UNL     1      15.269  -3.764   1.463  1.00  0.00     0.152 C 
BRANCH  13  15
HETATM   15  N2  UNL     1      15.631  -2.497   3.407  1.00  0.00    -0.353 NA
ATOM     16  H22 UNL     1      16.101  -1.783   2.851  1.00  0.00     0.172 HD
ATOM     17  H21 UNL     1      15.924  -2.493   4.384  1.00  0.00     0.172 HD
ENDBRANCH  13  15
ENDBRANCH  12  13
ENDBRANCH  10  12
ENDBRANCH   1  10
TORSDOF 4
ENDMDL
MODEL 4
REMARK VINA RESULT: -4.888815650      1.622      1.968
REMARK  4 active torsions:
REMARK  status: ('A' for Active; 'I' for Inactive)
REMARK    1  A    between atoms: N1_2  and  N2_3 
REMARK    2  A    between atoms: N1_2  and  S1_6 
REMARK    3  A    between atoms: S1_6  and  N3_7 
REMARK    4  A    between atoms: N3_7  and  N4_9 
ROOT
HETATM    1  N4  UNL     1      12.831  -4.203   5.158  1.00  0.00    -0.143 N 
HETATM    2  C2  UNL     1      11.987  -4.888   5.949  1.00  0.00     0.365 A 
HETATM    3  O1  UNL     1      12.343  -5.674   6.874  1.00  0.00    -0.243 OA
HETATM    4  N5  UNL     1      10.699  -4.629   5.633  1.00  0.00    -0.246 N 
ATOM      5  H5  UNL     1       9.864  -5.016   6.073  1.00  0.00     0.192 HD
HETATM    6  N6  UNL     1      10.754  -3.763   4.628  1.00  0.00    -0.246 N 
ATOM      7  H6  UNL     1       9.945  -3.362   4.152  1.00  0.00     0.192 HD
HETATM    8  C3  UNL     1      12.039  -3.497   4.333  1.00  0.00     0.365 A 
HETATM    9  O2  UNL     1      12.476  -2.727   3.442  1.00  0.00    -0.243 OA
ENDROOT
BRANCH   1  10
HETATM   10  N3  UNL     1      14.243  -4.224   5.195  1.00  0.00    -0.244 N 
ATOM     11  H3  UNL     1      14.757  -3.825   5.980  1.00  0.00     0.197 HD
BRANCH  10  12
HETATM   12  S1  UNL     1      15.086  -4.968   3.833  1.00  0.00     0.074 SA
BRANCH  12  13
HETATM   13  N1  UNL     1      15.783  -3.739   2.814  1.00  0.00    -0.161 NA
HETATM   14  C1  UNL     1      15.268  -3.776   1.461  1.00  0.00     0.152 C 
BRANCH  13  15
HETATM   15  N2  UNL     1      15.646  -2.502   3.397  1.00  0.00    -0.353 NA
ATOM     16  H22 UNL     1      14.730  -2.108   3.179  1.00  0.00     0.172 HD
ATOM     17  H21 UNL     1      16.412  -1.872   3.162  1.00  0.00     0.172 HD
ENDBRANCH  13  15
ENDBRANCH  12  13
ENDBRANCH  10  12
ENDBRANCH   1  10
TORSDOF 4
ENDMDL
MODEL 5
REMARK VINA RESULT: -4.464527143      2.380      3.583
REMARK  4 active torsions:
REMARK  status: ('A' for Active; 'I' for Inactive)
REMARK    1  A    between atoms: N1_2  and  N2_3 
REMARK    2  A    between atoms: N1_2  and  S1_6 
REMARK    3  A    between atoms: S1_6  and  N3_7 
REMARK    4  A    between atoms: N3_7  and  N4_9 
ROOT
HETATM    1  N4  UNL     1      13.167  -4.927   4.720  1.00  0.00    -0.143 N 
HETATM    2  C2  UNL     1      12.466  -5.073   5.858  1.00  0.00     0.365 A 
HETATM    3  O1  UNL     1      11.222  -4.872   5.970  1.00  0.00    -0.243 OA
HETATM    4  N5  UNL     1      13.261  -5.468   6.876  1.00  0.00    -0.246 N 
ATOM      5  H5  UNL     1      12.986  -5.650   7.842  1.00  0.00     0.192 HD
HETATM    6  N6  UNL     1      14.476  -5.570   6.352  1.00  0.00    -0.246 N 
ATOM      7  H6  UNL     1      15.316  -5.850   6.860  1.00  0.00     0.192 HD
HETATM    8  C3  UNL     1      14.431  -5.246   5.047  1.00  0.00     0.365 A 
HETATM    9  O2  UNL     1      15.385  -5.227   4.230  1.00  0.00    -0.243 OA
ENDROOT
BRANCH   1  10
HETATM   10  N3  UNL     1      12.673  -4.527   3.458  1.00  0.00    -0.244 N 
ATOM     11  H3  UNL     1      12.451  -5.212   2.736  1.00  0.00     0.197 HD
BRANCH  10  12
HETATM   12  S1  UNL     1      12.455  -2.798   3.176  1.00  0.00     0.074 SA
BRANCH  12  13
HETATM   13  N1  UNL     1      10.760  -2.420   3.044  1.00  0.00    -0.161 NA
HETATM   14  C1  UNL     1      10.311  -2.332   1.670  1.00  0.00     0.152 C 
BRANCH  13  15
HETATM   15  N2  UNL     1      10.014  -3.305   3.787  1.00  0.00    -0.353 NA
ATOM     16  H22 UNL     1       9.671  -2.853   4.634  1.00  0.00     0.172 HD
ATOM     17  H21 UNL     1      10.514  -4.173   3.977  1.00  0.00     0.172 HD
ENDBRANCH  13  15
ENDBRANCH  12  13
ENDBRANCH  10  12
ENDBRANCH   1  10
TORSDOF 4
ENDMDL
