MODEL 1
REMARK VINA RESULT: -7.756738889      0.000      0.000
REMARK  9 active torsions:
REMARK  status: ('A' for Active; 'I' for Inactive)
REMARK    1  A    between atoms: C3_3  and  C4_4 
REMARK       I    between atoms: C4_4  and  N1_6 
REMARK    2  A    between atoms: N1_6  and  N2_8 
REMARK    3  A    between atoms: N3_12  and  O2_13 
REMARK    4  A    between atoms: N4_15  and  C6_16 
REMARK    5  A    between atoms: C6_16  and  C7_17 
REMARK    6  A    between atoms: C7_17  and  C8_18 
REMARK    7  A    between atoms: C8_18  and  N5_19 
REMARK    8  A    between atoms: N5_19  and  C9_21 
REMARK    9  A    between atoms: C11_23  and  C12_24 
ROOT
HETATM    1  C8  UNL     1     -19.309 -11.840  14.860  1.00  0.00     0.064 C 
ENDROOT
BRANCH   1   2
HETATM    2  C7  UNL     1     -19.015 -13.308  14.653  1.00  0.00     0.066 C 
BRANCH   2   3
HETATM    3  C6  UNL     1     -20.224 -14.181  14.864  1.00  0.00     0.156 C 
BRANCH   3   4
HETATM    4  N4  UNL     1     -19.781 -15.558  15.014  1.00  0.00    -0.270 N 
HETATM    5  C2  UNL     1     -19.899 -16.592  14.148  1.00  0.00     0.044 A 
HETATM    6  C1  UNL     1     -20.536 -16.453  12.826  1.00  0.00     0.071 C 
HETATM    7  C3  UNL     1     -19.353 -17.734  14.661  1.00  0.00     0.077 A 
HETATM    8  C5  UNL     1     -18.880 -17.340  15.924  1.00  0.00     0.162 A 
HETATM    9  N3  UNL     1     -19.167 -16.045  16.064  1.00  0.00    -0.172 N 
BRANCH   7  10
HETATM   10  C4  UNL     1     -19.229 -19.080  14.169  1.00  0.00     0.273 C 
HETATM   11  O1  UNL     1     -19.648 -20.038  14.911  1.00  0.00    -0.266 OA
HETATM   12  N1  UNL     1     -18.686 -19.470  12.927  1.00  0.00    -0.272 N 
ATOM     13  H1  UNL     1     -18.335 -18.766  12.277  1.00  0.00     0.189 HD
BRANCH  12  14
HETATM   14  N2  UNL     1     -18.632 -20.842  12.587  1.00  0.00    -0.342 N 
ATOM     15  H22 UNL     1     -18.292 -21.512  13.277  1.00  0.00     0.176 HD
ATOM     16  H21 UNL     1     -18.933 -21.144  11.661  1.00  0.00     0.176 HD
ENDBRANCH  12  14
ENDBRANCH   7  10
BRANCH   9  17
HETATM   17  O2  UNL     1     -18.844 -15.308  17.198  1.00  0.00    -0.268 OA
ATOM     18  H2  UNL     1     -18.128 -14.684  17.231  1.00  0.00     0.247 HD
ENDBRANCH   9  17
ENDBRANCH   3   4
ENDBRANCH   2   3
ENDBRANCH   1   2
BRANCH   1  19
HETATM   19  N5  UNL     1     -19.445 -11.450  16.207  1.00  0.00    -0.355 N 
ATOM     20  H5  UNL     1     -20.352 -11.036  16.426  1.00  0.00     0.166 HD
BRANCH  19  21
HETATM   21  C9  UNL     1     -18.666 -11.513  17.189  1.00  0.00     0.122 A 
HETATM   22  C10 UNL     1     -18.493 -10.445  18.046  1.00  0.00     0.082 A 
HETATM   23  C11 UNL     1     -17.637 -10.502  19.128  1.00  0.00     0.093 A 
HETATM   24  N8  UNL     1     -16.951 -11.622  19.361  1.00  0.00    -0.189 N 
HETATM   25  C13 UNL     1     -17.111 -12.668  18.535  1.00  0.00     0.678 A 
ATOM     26  H8  UNL     1     -16.314 -11.682  20.155  1.00  0.00     0.184 HD
HETATM   27  N9  UNL     1     -16.434 -13.749  18.777  1.00  0.00    -0.234 N 
HETATM   28  N10 UNL     1     -17.956 -12.619  17.459  1.00  0.00    -0.177 N 
ATOM     29  H92 UNL     1     -15.804 -13.785  19.579  1.00  0.00     0.174 HD
ATOM     30  H91 UNL     1     -16.554 -14.543  18.150  1.00  0.00     0.174 HD
ATOM     31  H10 UNL     1     -18.048 -13.436  16.854  1.00  0.00     0.185 HD
BRANCH  23  32
HETATM   32  C12 UNL     1     -17.456  -9.373  20.033  1.00  0.00     0.137 C 
HETATM   33  N6  UNL     1     -16.303  -8.963  20.437  1.00  0.00    -0.386 N 
ATOM     34  H62 UNL     1     -15.495  -9.478  20.088  1.00  0.00     0.157 HD
ATOM     35  H61 UNL     1     -16.177  -8.173  21.069  1.00  0.00     0.157 HD
HETATM   36  N7  UNL     1     -18.582  -8.655  20.519  1.00  0.00    -0.081 NA
ENDBRANCH  23  32
ENDBRANCH  19  21
ENDBRANCH   1  19
TORSDOF 9
ENDMDL
MODEL 2
REMARK VINA RESULT: -7.533051361      5.283     10.737
REMARK  9 active torsions:
REMARK  status: ('A' for Active; 'I' for Inactive)
REMARK    1  A    between atoms: C3_3  and  C4_4 
REMARK       I    between atoms: C4_4  and  N1_6 
REMARK    2  A    between atoms: N1_6  and  N2_8 
REMARK    3  A    between atoms: N3_12  and  O2_13 
REMARK    4  A    between atoms: N4_15  and  C6_16 
REMARK    5  A    between atoms: C6_16  and  C7_17 
REMARK    6  A    between atoms: C7_17  and  C8_18 
REMARK    7  A    between atoms: C8_18  and  N5_19 
REMARK    8  A    between atoms: N5_19  and  C9_21 
REMARK    9  A    between atoms: C11_23  and  C12_24 
ROOT
HETATM    1  C8  UNL     1     -22.889 -18.239  12.731  1.00  0.00     0.064 C 
ENDROOT
BRANCH   1   2
HETATM    2  C7  UNL     1     -21.935 -19.299  13.232  1.00  0.00     0.066 C 
BRANCH   2   3
HETATM    3  C6  UNL     1     -20.491 -18.947  12.989  1.00  0.00     0.156 C 
BRANCH   3   4
HETATM    4  N4  UNL     1     -20.016 -18.143  14.103  1.00  0.00    -0.270 N 
HETATM    5  C2  UNL     1     -19.828 -16.804  14.171  1.00  0.00     0.044 A 
HETATM    6  C1  UNL     1     -20.107 -15.903  13.038  1.00  0.00     0.071 C 
HETATM    7  C3  UNL     1     -19.367 -16.429  15.401  1.00  0.00     0.077 A 
HETATM    8  C5  UNL     1     -19.277 -17.640  16.107  1.00  0.00     0.162 A 
HETATM    9  N3  UNL     1     -19.675 -18.608  15.280  1.00  0.00    -0.172 N 
BRANCH   7  10
HETATM   10  C4  UNL     1     -19.002 -15.162  15.978  1.00  0.00     0.273 C 
HETATM   11  O1  UNL     1     -18.588 -15.146  17.192  1.00  0.00    -0.266 OA
HETATM   12  N1  UNL     1     -19.048 -13.907  15.337  1.00  0.00    -0.272 N 
ATOM     13  H1  UNL     1     -19.362 -13.837  14.369  1.00  0.00     0.189 HD
BRANCH  12  14
HETATM   14  N2  UNL     1     -18.656 -12.747  16.044  1.00  0.00    -0.342 N 
ATOM     15  H22 UNL     1     -17.701 -12.676  16.394  1.00  0.00     0.176 HD
ATOM     16  H21 UNL     1     -19.331 -11.997  16.195  1.00  0.00     0.176 HD
ENDBRANCH  12  14
ENDBRANCH   7  10
BRANCH   9  17
HETATM   17  O2  UNL     1     -19.720 -19.950  15.639  1.00  0.00    -0.268 OA
ATOM     18  H2  UNL     1     -20.101 -20.262  16.452  1.00  0.00     0.247 HD
ENDBRANCH   9  17
ENDBRANCH   3   4
ENDBRANCH   2   3
ENDBRANCH   1   2
BRANCH   1  19
HETATM   19  N5  UNL     1     -24.243 -18.625  12.711  1.00  0.00    -0.355 N 
ATOM     20  H5  UNL     1     -24.691 -18.606  13.628  1.00  0.00     0.166 HD
BRANCH  19  21
HETATM   21  C9  UNL     1     -25.005 -18.989  11.782  1.00  0.00     0.122 A 
HETATM   22  C10 UNL     1     -25.618 -20.225  11.791  1.00  0.00     0.082 A 
HETATM   23  C11 UNL     1     -26.458 -20.637  10.773  1.00  0.00     0.093 A 
HETATM   24  N8  UNL     1     -26.689 -19.819   9.746  1.00  0.00    -0.189 N 
HETATM   25  C13 UNL     1     -26.098 -18.613   9.726  1.00  0.00     0.678 A 
ATOM     26  H8  UNL     1     -27.305 -20.106   8.986  1.00  0.00     0.184 HD
HETATM   27  N9  UNL     1     -26.335 -17.832   8.716  1.00  0.00    -0.234 N 
HETATM   28  N10 UNL     1     -25.264 -18.198  10.729  1.00  0.00    -0.177 N 
ATOM     29  H92 UNL     1     -26.956 -18.142   7.969  1.00  0.00     0.174 HD
ATOM     30  H91 UNL     1     -25.886 -16.917   8.701  1.00  0.00     0.174 HD
ATOM     31  H10 UNL     1     -24.834 -17.275  10.676  1.00  0.00     0.185 HD
BRANCH  23  32
HETATM   32  C12 UNL     1     -27.105 -21.943  10.785  1.00  0.00     0.137 C 
HETATM   33  N6  UNL     1     -26.669 -22.959  10.122  1.00  0.00    -0.386 N 
ATOM     34  H62 UNL     1     -25.825 -22.807   9.571  1.00  0.00     0.157 HD
ATOM     35  H61 UNL     1     -27.121 -23.872  10.131  1.00  0.00     0.157 HD
HETATM   36  N7  UNL     1     -28.281 -22.155  11.554  1.00  0.00    -0.081 NA
ENDBRANCH  23  32
ENDBRANCH  19  21
ENDBRANCH   1  19
TORSDOF 9
ENDMDL
MODEL 3
REMARK VINA RESULT: -7.394336750      4.829     10.082
REMARK  9 active torsions:
REMARK  status: ('A' for Active; 'I' for Inactive)
REMARK    1  A    between atoms: C3_3  and  C4_4 
REMARK       I    between atoms: C4_4  and  N1_6 
REMARK    2  A    between atoms: N1_6  and  N2_8 
REMARK    3  A    between atoms: N3_12  and  O2_13 
REMARK    4  A    between atoms: N4_15  and  C6_16 
REMARK    5  A    between atoms: C6_16  and  C7_17 
REMARK    6  A    between atoms: C7_17  and  C8_18 
REMARK    7  A    between atoms: C8_18  and  N5_19 
REMARK    8  A    between atoms: N5_19  and  C9_21 
REMARK    9  A    between atoms: C11_23  and  C12_24 
ROOT
HETATM    1  C8  UNL     1     -22.607 -18.297  13.322  1.00  0.00     0.064 C 
ENDROOT
BRANCH   1   2
HETATM    2  C7  UNL     1     -21.545 -19.236  13.846  1.00  0.00     0.066 C 
BRANCH   2   3
HETATM    3  C6  UNL     1     -20.161 -18.869  13.380  1.00  0.00     0.156 C 
BRANCH   3   4
HETATM    4  N4  UNL     1     -19.881 -17.502  13.786  1.00  0.00    -0.270 N 
HETATM    5  C2  UNL     1     -19.495 -17.032  14.995  1.00  0.00     0.044 A 
HETATM    6  C1  UNL     1     -19.281 -17.912  16.159  1.00  0.00     0.071 C 
HETATM    7  C3  UNL     1     -19.332 -15.676  14.973  1.00  0.00     0.077 A 
HETATM    8  C5  UNL     1     -19.648 -15.324  13.649  1.00  0.00     0.162 A 
HETATM    9  N3  UNL     1     -19.962 -16.450  13.008  1.00  0.00    -0.172 N 
BRANCH   7  10
HETATM   10  C4  UNL     1     -18.956 -14.707  15.967  1.00  0.00     0.273 C 
HETATM   11  O1  UNL     1     -18.650 -15.128  17.139  1.00  0.00    -0.266 OA
HETATM   12  N1  UNL     1     -18.883 -13.310  15.788  1.00  0.00    -0.272 N 
ATOM     13  H1  UNL     1     -19.107 -12.897  14.883  1.00  0.00     0.189 HD
BRANCH  12  14
HETATM   14  N2  UNL     1     -18.497 -12.486  16.870  1.00  0.00    -0.342 N 
ATOM     15  H22 UNL     1     -18.366 -12.903  17.792  1.00  0.00     0.176 HD
ATOM     16  H21 UNL     1     -18.355 -11.487  16.718  1.00  0.00     0.176 HD
ENDBRANCH  12  14
ENDBRANCH   7  10
BRANCH   9  17
HETATM   17  O2  UNL     1     -20.329 -16.490  11.668  1.00  0.00    -0.268 OA
ATOM     18  H2  UNL     1     -21.110 -16.069  11.327  1.00  0.00     0.247 HD
ENDBRANCH   9  17
ENDBRANCH   3   4
ENDBRANCH   2   3
ENDBRANCH   1   2
BRANCH   1  19
HETATM   19  N5  UNL     1     -23.855 -18.899  13.070  1.00  0.00    -0.355 N 
ATOM     20  H5  UNL     1     -24.291 -19.306  13.898  1.00  0.00     0.166 HD
BRANCH  19  21
HETATM   21  C9  UNL     1     -24.535 -19.032  12.022  1.00  0.00     0.122 A 
HETATM   22  C10 UNL     1     -24.590 -18.039  11.065  1.00  0.00     0.082 A 
HETATM   23  C11 UNL     1     -25.335 -18.174   9.909  1.00  0.00     0.093 A 
HETATM   24  N8  UNL     1     -26.026 -19.295   9.703  1.00  0.00    -0.189 N 
HETATM   25  C13 UNL     1     -25.980 -20.269  10.627  1.00  0.00     0.678 A 
ATOM     26  H8  UNL     1     -26.581 -19.412   8.856  1.00  0.00     0.184 HD
HETATM   27  N9  UNL     1     -26.660 -21.352  10.410  1.00  0.00    -0.234 N 
HETATM   28  N10 UNL     1     -25.245 -20.143  11.776  1.00  0.00    -0.177 N 
ATOM     29  H92 UNL     1     -27.208 -21.446   9.554  1.00  0.00     0.174 HD
ATOM     30  H91 UNL     1     -26.626 -22.091  11.111  1.00  0.00     0.174 HD
ATOM     31  H10 UNL     1     -25.238 -20.905  12.454  1.00  0.00     0.185 HD
BRANCH  23  32
HETATM   32  C12 UNL     1     -25.391 -17.124   8.898  1.00  0.00     0.137 C 
HETATM   33  N6  UNL     1     -26.477 -16.517   8.564  1.00  0.00    -0.386 N 
ATOM     34  H62 UNL     1     -27.325 -16.810   9.050  1.00  0.00     0.157 HD
ATOM     35  H61 UNL     1     -26.517 -15.783   7.857  1.00  0.00     0.157 HD
HETATM   36  N7  UNL     1     -24.211 -16.716   8.221  1.00  0.00    -0.081 NA
ENDBRANCH  23  32
ENDBRANCH  19  21
ENDBRANCH   1  19
TORSDOF 9
ENDMDL
MODEL 4
REMARK VINA RESULT: -7.339801220      5.167     10.316
REMARK  9 active torsions:
REMARK  status: ('A' for Active; 'I' for Inactive)
REMARK    1  A    between atoms: C3_3  and  C4_4 
REMARK       I    between atoms: C4_4  and  N1_6 
REMARK    2  A    between atoms: N1_6  and  N2_8 
REMARK    3  A    between atoms: N3_12  and  O2_13 
REMARK    4  A    between atoms: N4_15  and  C6_16 
REMARK    5  A    between atoms: C6_16  and  C7_17 
REMARK    6  A    between atoms: C7_17  and  C8_18 
REMARK    7  A    between atoms: C8_18  and  N5_19 
REMARK    8  A    between atoms: N5_19  and  C9_21 
REMARK    9  A    between atoms: C11_23  and  C12_24 
ROOT
HETATM    1  C8  UNL     1     -22.886 -18.342  12.767  1.00  0.00     0.064 C 
ENDROOT
BRANCH   1   2
HETATM    2  C7  UNL     1     -21.860 -19.328  13.278  1.00  0.00     0.066 C 
BRANCH   2   3
HETATM    3  C6  UNL     1     -20.445 -18.897  12.996  1.00  0.00     0.156 C 
BRANCH   3   4
HETATM    4  N4  UNL     1     -19.974 -18.094  14.113  1.00  0.00    -0.270 N 
HETATM    5  C2  UNL     1     -19.801 -16.754  14.188  1.00  0.00     0.044 A 
HETATM    6  C1  UNL     1     -20.096 -15.849  13.061  1.00  0.00     0.071 C 
HETATM    7  C3  UNL     1     -19.339 -16.380  15.418  1.00  0.00     0.077 A 
HETATM    8  C5  UNL     1     -19.232 -17.595  16.117  1.00  0.00     0.162 A 
HETATM    9  N3  UNL     1     -19.623 -18.562  15.286  1.00  0.00    -0.172 N 
BRANCH   7  10
HETATM   10  C4  UNL     1     -18.986 -15.113  16.001  1.00  0.00     0.273 C 
HETATM   11  O1  UNL     1     -18.578 -15.098  17.216  1.00  0.00    -0.266 OA
HETATM   12  N1  UNL     1     -19.039 -13.856  15.364  1.00  0.00    -0.272 N 
ATOM     13  H1  UNL     1     -19.349 -13.784  14.395  1.00  0.00     0.189 HD
BRANCH  12  14
HETATM   14  N2  UNL     1     -18.659 -12.695  16.076  1.00  0.00    -0.342 N 
ATOM     15  H22 UNL     1     -18.704 -12.699  17.095  1.00  0.00     0.176 HD
ATOM     16  H21 UNL     1     -18.345 -11.870  15.565  1.00  0.00     0.176 HD
ENDBRANCH  12  14
ENDBRANCH   7  10
BRANCH   9  17
HETATM   17  O2  UNL     1     -19.651 -19.907  15.636  1.00  0.00    -0.268 OA
ATOM     18  H2  UNL     1     -18.976 -20.325  16.157  1.00  0.00     0.247 HD
ENDBRANCH   9  17
ENDBRANCH   3   4
ENDBRANCH   2   3
ENDBRANCH   1   2
BRANCH   1  19
HETATM   19  N5  UNL     1     -24.201 -18.841  12.699  1.00  0.00    -0.355 N 
ATOM     20  H5  UNL     1     -24.610 -19.051  13.610  1.00  0.00     0.166 HD
BRANCH  19  21
HETATM   21  C9  UNL     1     -24.968 -19.076  11.733  1.00  0.00     0.122 A 
HETATM   22  C10 UNL     1     -25.407 -18.071  10.896  1.00  0.00     0.082 A 
HETATM   23  C11 UNL     1     -26.252 -18.317   9.831  1.00  0.00     0.093 A 
HETATM   24  N8  UNL     1     -26.662 -19.564   9.597  1.00  0.00    -0.189 N 
HETATM   25  C13 UNL     1     -26.242 -20.552  10.404  1.00  0.00     0.678 A 
ATOM     26  H8  UNL     1     -27.286 -19.765   8.816  1.00  0.00     0.184 HD
HETATM   27  N9  UNL     1     -26.652 -21.758  10.161  1.00  0.00    -0.234 N 
HETATM   28  N10 UNL     1     -25.405 -20.315  11.462  1.00  0.00    -0.177 N 
ATOM     29  H92 UNL     1     -27.276 -21.934   9.373  1.00  0.00     0.174 HD
ATOM     30  H91 UNL     1     -26.334 -22.508  10.774  1.00  0.00     0.174 HD
ATOM     31  H10 UNL     1     -25.110 -21.093  12.053  1.00  0.00     0.185 HD
BRANCH  23  32
HETATM   32  C12 UNL     1     -26.714 -17.254   8.947  1.00  0.00     0.137 C 
HETATM   33  N6  UNL     1     -27.842 -17.286   8.325  1.00  0.00    -0.386 N 
ATOM     34  H62 UNL     1     -28.418 -18.113   8.480  1.00  0.00     0.157 HD
ATOM     35  H61 UNL     1     -28.165 -16.542   7.707  1.00  0.00     0.157 HD
HETATM   36  N7  UNL     1     -25.912 -16.101   8.730  1.00  0.00    -0.081 NA
ENDBRANCH  23  32
ENDBRANCH  19  21
ENDBRANCH   1  19
TORSDOF 9
ENDMDL
MODEL 5
REMARK VINA RESULT: -7.245653102      5.491     10.722
REMARK  9 active torsions:
REMARK  status: ('A' for Active; 'I' for Inactive)
REMARK    1  A    between atoms: C3_3  and  C4_4 
REMARK       I    between atoms: C4_4  and  N1_6 
REMARK    2  A    between atoms: N1_6  and  N2_8 
REMARK    3  A    between atoms: N3_12  and  O2_13 
REMARK    4  A    between atoms: N4_15  and  C6_16 
REMARK    5  A    between atoms: C6_16  and  C7_17 
REMARK    6  A    between atoms: C7_17  and  C8_18 
REMARK    7  A    between atoms: C8_18  and  N5_19 
REMARK    8  A    between atoms: N5_19  and  C9_21 
REMARK    9  A    between atoms: C11_23  and  C12_24 
ROOT
HETATM    1  C8  UNL     1     -22.731 -18.615  12.692  1.00  0.00     0.064 C 
ENDROOT
BRANCH   1   2
HETATM    2  C7  UNL     1     -21.812 -19.165  13.758  1.00  0.00     0.066 C 
BRANCH   2   3
HETATM    3  C6  UNL     1     -20.356 -18.926  13.454  1.00  0.00     0.156 C 
BRANCH   3   4
HETATM    4  N4  UNL     1     -20.023 -17.561  13.823  1.00  0.00    -0.270 N 
HETATM    5  C2  UNL     1     -19.611 -17.075  15.018  1.00  0.00     0.044 A 
HETATM    6  C1  UNL     1     -19.421 -17.933  16.202  1.00  0.00     0.071 C 
HETATM    7  C3  UNL     1     -19.397 -15.728  14.960  1.00  0.00     0.077 A 
HETATM    8  C5  UNL     1     -19.709 -15.397  13.630  1.00  0.00     0.162 A 
HETATM    9  N3  UNL     1     -20.069 -16.527  13.019  1.00  0.00    -0.172 N 
BRANCH   7  10
HETATM   10  C4  UNL     1     -18.978 -14.749  15.927  1.00  0.00     0.273 C 
HETATM   11  O1  UNL     1     -18.647 -15.156  17.098  1.00  0.00    -0.266 OA
HETATM   12  N1  UNL     1     -18.887 -13.356  15.722  1.00  0.00    -0.272 N 
ATOM     13  H1  UNL     1     -19.129 -12.954  14.817  1.00  0.00     0.189 HD
BRANCH  12  14
HETATM   14  N2  UNL     1     -18.458 -12.521  16.780  1.00  0.00    -0.342 N 
ATOM     15  H22 UNL     1     -17.692 -12.830  17.379  1.00  0.00     0.176 HD
ATOM     16  H21 UNL     1     -18.917 -11.622  16.930  1.00  0.00     0.176 HD
ENDBRANCH  12  14
ENDBRANCH   7  10
BRANCH   9  17
HETATM   17  O2  UNL     1     -20.448 -16.586  11.683  1.00  0.00    -0.268 OA
ATOM     18  H2  UNL     1     -20.940 -17.309  11.311  1.00  0.00     0.247 HD
ENDBRANCH   9  17
ENDBRANCH   3   4
ENDBRANCH   2   3
ENDBRANCH   1   2
BRANCH   1  19
HETATM   19  N5  UNL     1     -24.050 -19.104  12.740  1.00  0.00    -0.355 N 
ATOM     20  H5  UNL     1     -24.303 -19.521  13.637  1.00  0.00     0.166 HD
BRANCH  19  21
HETATM   21  C9  UNL     1     -24.976 -19.126  11.892  1.00  0.00     0.122 A 
HETATM   22  C10 UNL     1     -26.070 -19.955  12.036  1.00  0.00     0.082 A 
HETATM   23  C11 UNL     1     -27.094 -19.989  11.109  1.00  0.00     0.093 A 
HETATM   24  N8  UNL     1     -27.032 -19.197  10.038  1.00  0.00    -0.189 N 
HETATM   25  C13 UNL     1     -25.973 -18.385   9.887  1.00  0.00     0.678 A 
ATOM     26  H8  UNL     1     -27.779 -19.208   9.343  1.00  0.00     0.184 HD
HETATM   27  N9  UNL     1     -25.931 -17.623   8.838  1.00  0.00    -0.234 N 
HETATM   28  N10 UNL     1     -24.954 -18.346  10.801  1.00  0.00    -0.177 N 
ATOM     29  H92 UNL     1     -26.691 -17.651   8.157  1.00  0.00     0.174 HD
ATOM     30  H91 UNL     1     -25.127 -17.006   8.722  1.00  0.00     0.174 HD
ATOM     31  H10 UNL     1     -24.166 -17.716  10.648  1.00  0.00     0.185 HD
BRANCH  23  32
HETATM   32  C12 UNL     1     -28.249 -20.866  11.263  1.00  0.00     0.137 C 
HETATM   33  N6  UNL     1     -29.466 -20.442  11.278  1.00  0.00    -0.386 N 
ATOM     34  H62 UNL     1     -29.593 -19.436  11.175  1.00  0.00     0.157 HD
ATOM     35  H61 UNL     1     -30.273 -21.055  11.385  1.00  0.00     0.157 HD
HETATM   36  N7  UNL     1     -28.072 -22.268  11.406  1.00  0.00    -0.081 NA
ENDBRANCH  23  32
ENDBRANCH  19  21
ENDBRANCH   1  19
TORSDOF 9
ENDMDL
