MODEL 1
REMARK VINA RESULT: -6.987757562      0.000      0.000
REMARK  8 active torsions:
REMARK  status: ('A' for Active; 'I' for Inactive)
REMARK    1  A    between atoms: C2_2  and  C3_4 
REMARK    2  A    between atoms: C3_4  and  N1_5 
REMARK    3  A    between atoms: C3_4  and  C4_9 
REMARK    4  A    between atoms: C4_9  and  S1_10 
REMARK    5  A    between atoms: S1_10  and  C5_11 
REMARK    6  A    between atoms: C6_14  and  C7_15 
REMARK    7  A    between atoms: C8_18  and  C9_19 
REMARK       I    between atoms: C9_19  and  N4_21 
REMARK       I    between atoms: N4_21  and  C10_23 
REMARK    8  A    between atoms: C11_28  and  N7_29 
ROOT
HETATM    1  C5  UNL     1     -19.619 -15.872  14.177  1.00  0.00     0.146 A 
HETATM    2  N2  UNL     1     -20.043 -15.708  12.930  1.00  0.00    -0.332 N 
ATOM      3  H2  UNL     1     -19.658 -14.936  12.386  1.00  0.00     0.168 HD
HETATM    4  C6  UNL     1     -20.975 -16.526  12.331  1.00  0.00     0.119 A 
HETATM    5  C8  UNL     1     -21.489 -17.535  13.035  1.00  0.00     0.107 A 
HETATM    6  C11 UNL     1     -21.047 -17.718  14.350  1.00  0.00     0.119 A 
HETATM    7  N8  UNL     1     -20.140 -16.891  14.868  1.00  0.00    -0.322 N 
ATOM      8  H8  UNL     1     -19.831 -17.041  15.828  1.00  0.00     0.169 HD
ENDROOT
BRANCH   1   9
HETATM    9  S1  UNL     1     -18.427 -14.809  14.902  1.00  0.00    -0.091 SA
BRANCH   9  10
HETATM   10  C4  UNL     1     -19.060 -13.779  16.216  1.00  0.00     0.123 C 
BRANCH  10  11
HETATM   11  C3  UNL     1     -19.278 -12.339  15.814  1.00  0.00     0.261 C 
BRANCH  11  12
HETATM   12  C2  UNL     1     -18.953 -11.444  16.956  1.00  0.00     0.154 C 
HETATM   13  C1  UNL     1     -17.751 -11.644  17.795  1.00  0.00     0.093 C 
HETATM   14  O1  UNL     1     -19.689 -10.514  17.222  1.00  0.00    -0.296 OA
ENDBRANCH  11  12
BRANCH  11  15
HETATM   15  N1  UNL     1     -18.421 -11.958  14.710  1.00  0.00    -0.068 N 
ATOM     16  H13 UNL     1     -18.286 -10.949  14.640  1.00  0.00     0.275 HD
ATOM     17  H12 UNL     1     -17.444 -12.213  14.856  1.00  0.00     0.275 HD
ATOM     18  H11 UNL     1     -18.818 -12.366  13.863  1.00  0.00     0.275 HD
ENDBRANCH  11  15
ENDBRANCH  10  11
ENDBRANCH   9  10
ENDBRANCH   1   9
BRANCH   4  19
HETATM   19  C7  UNL     1     -21.308 -16.274  10.935  1.00  0.00     0.282 C 
HETATM   20  N3  UNL     1     -22.684 -16.026  10.567  1.00  0.00    -0.056 NA
HETATM   21  O2  UNL     1     -20.417 -16.271  10.066  1.00  0.00    -0.269 OA
ENDBRANCH   4  19
BRANCH   6  22
HETATM   22  N7  UNL     1     -21.528 -18.681  15.023  1.00  0.00    -0.385 N 
ATOM     23  H72 UNL     1     -22.275 -19.269  14.653  1.00  0.00     0.157 HD
ATOM     24  H71 UNL     1     -21.151 -18.860  15.954  1.00  0.00     0.157 HD
ENDBRANCH   6  22
BRANCH   5  25
HETATM   25  C9  UNL     1     -22.586 -18.391  12.620  1.00  0.00     0.264 C 
HETATM   26  O3  UNL     1     -22.280 -19.558  12.146  1.00  0.00    -0.267 OA
HETATM   27  N4  UNL     1     -23.961 -18.109  12.679  1.00  0.00    -0.297 N 
HETATM   28  C10 UNL     1     -24.931 -19.038  12.234  1.00  0.00     0.188 C 
ATOM     29  H4  UNL     1     -24.267 -17.210  13.053  1.00  0.00     0.171 HD
HETATM   30  N5  UNL     1     -26.201 -18.775  12.289  1.00  0.00    -0.373 N 
HETATM   31  N6  UNL     1     -24.598 -20.321  11.696  1.00  0.00    -0.064 NA
ATOM     32  H52 UNL     1     -26.438 -17.860  12.673  1.00  0.00     0.158 HD
ATOM     33  H51 UNL     1     -26.901 -19.444  11.968  1.00  0.00     0.158 HD
ENDBRANCH   5  25
TORSDOF 8
ENDMDL
MODEL 2
REMARK VINA RESULT: -5.765258021      4.807      7.106
REMARK  8 active torsions:
REMARK  status: ('A' for Active; 'I' for Inactive)
REMARK    1  A    between atoms: C2_2  and  C3_4 
REMARK    2  A    between atoms: C3_4  and  N1_5 
REMARK    3  A    between atoms: C3_4  and  C4_9 
REMARK    4  A    between atoms: C4_9  and  S1_10 
REMARK    5  A    between atoms: S1_10  and  C5_11 
REMARK    6  A    between atoms: C6_14  and  C7_15 
REMARK    7  A    between atoms: C8_18  and  C9_19 
REMARK       I    between atoms: C9_19  and  N4_21 
REMARK       I    between atoms: N4_21  and  C10_23 
REMARK    8  A    between atoms: C11_28  and  N7_29 
ROOT
HETATM    1  C5  UNL     1     -24.635 -18.710  12.441  1.00  0.00     0.146 A 
HETATM    2  N2  UNL     1     -25.696 -18.333  13.143  1.00  0.00    -0.332 N 
ATOM      3  H2  UNL     1     -25.561 -17.662  13.899  1.00  0.00     0.168 HD
HETATM    4  C6  UNL     1     -26.970 -18.799  12.905  1.00  0.00     0.119 A 
HETATM    5  C8  UNL     1     -27.156 -19.681  11.922  1.00  0.00     0.107 A 
HETATM    6  C11 UNL     1     -26.044 -20.084  11.174  1.00  0.00     0.119 A 
HETATM    7  N8  UNL     1     -24.839 -19.591  11.456  1.00  0.00    -0.322 N 
ATOM      8  H8  UNL     1     -24.042 -19.898  10.899  1.00  0.00     0.169 HD
ENDROOT
BRANCH   1   9
HETATM    9  S1  UNL     1     -23.029 -18.090  12.774  1.00  0.00    -0.091 SA
BRANCH   9  10
HETATM   10  C4  UNL     1     -21.753 -19.338  12.826  1.00  0.00     0.123 C 
BRANCH  10  11
HETATM   11  C3  UNL     1     -21.014 -19.404  14.142  1.00  0.00     0.261 C 
BRANCH  11  12
HETATM   12  C2  UNL     1     -19.549 -19.426  13.896  1.00  0.00     0.154 C 
HETATM   13  C1  UNL     1     -18.931 -20.329  12.898  1.00  0.00     0.093 C 
HETATM   14  O1  UNL     1     -18.820 -18.686  14.526  1.00  0.00    -0.296 OA
ENDBRANCH  11  12
BRANCH  11  15
HETATM   15  N1  UNL     1     -21.295 -18.249  14.971  1.00  0.00    -0.068 N 
ATOM     16  H13 UNL     1     -20.619 -17.496  14.847  1.00  0.00     0.275 HD
ATOM     17  H12 UNL     1     -22.123 -17.734  14.669  1.00  0.00     0.275 HD
ATOM     18  H11 UNL     1     -21.357 -18.575  15.935  1.00  0.00     0.275 HD
ENDBRANCH  11  15
ENDBRANCH  10  11
ENDBRANCH   9  10
ENDBRANCH   1   9
BRANCH   4  19
HETATM   19  C7  UNL     1     -28.057 -18.257  13.709  1.00  0.00     0.282 C 
HETATM   20  N3  UNL     1     -28.420 -16.865  13.565  1.00  0.00    -0.056 NA
HETATM   21  O2  UNL     1     -28.668 -18.983  14.514  1.00  0.00    -0.269 OA
ENDBRANCH   4  19
BRANCH   6  22
HETATM   22  N7  UNL     1     -26.217 -20.919  10.233  1.00  0.00    -0.385 N 
ATOM     23  H72 UNL     1     -26.995 -20.831   9.579  1.00  0.00     0.157 HD
ATOM     24  H71 UNL     1     -25.557 -21.690  10.140  1.00  0.00     0.157 HD
ENDBRANCH   6  22
BRANCH   5  25
HETATM   25  C9  UNL     1     -28.392 -20.389  11.637  1.00  0.00     0.264 C 
HETATM   26  O3  UNL     1     -29.093 -19.975  10.630  1.00  0.00    -0.267 OA
HETATM   27  N4  UNL     1     -28.922 -21.494  12.325  1.00  0.00    -0.297 N 
HETATM   28  C10 UNL     1     -30.147 -22.091  11.941  1.00  0.00     0.188 C 
ATOM     29  H4  UNL     1     -28.411 -21.875  13.121  1.00  0.00     0.171 HD
HETATM   30  N5  UNL     1     -30.635 -23.110  12.578  1.00  0.00    -0.373 N 
HETATM   31  N6  UNL     1     -30.933 -21.627  10.840  1.00  0.00    -0.064 NA
ATOM     32  H52 UNL     1     -30.075 -23.441  13.363  1.00  0.00     0.158 HD
ATOM     33  H51 UNL     1     -31.518 -23.541  12.302  1.00  0.00     0.158 HD
ENDBRANCH   5  25
TORSDOF 8
ENDMDL
MODEL 3
REMARK VINA RESULT: -5.740765629      2.730      7.887
REMARK  8 active torsions:
REMARK  status: ('A' for Active; 'I' for Inactive)
REMARK    1  A    between atoms: C2_2  and  C3_4 
REMARK    2  A    between atoms: C3_4  and  N1_5 
REMARK    3  A    between atoms: C3_4  and  C4_9 
REMARK    4  A    between atoms: C4_9  and  S1_10 
REMARK    5  A    between atoms: S1_10  and  C5_11 
REMARK    6  A    between atoms: C6_14  and  C7_15 
REMARK    7  A    between atoms: C8_18  and  C9_19 
REMARK       I    between atoms: C9_19  and  N4_21 
REMARK       I    between atoms: N4_21  and  C10_23 
REMARK    8  A    between atoms: C11_28  and  N7_29 
ROOT
HETATM    1  C5  UNL     1     -20.012 -15.627  14.023  1.00  0.00     0.146 A 
HETATM    2  N2  UNL     1     -19.899 -14.306  13.955  1.00  0.00    -0.332 N 
ATOM      3  H2  UNL     1     -20.219 -13.837  13.107  1.00  0.00     0.168 HD
HETATM    4  C6  UNL     1     -19.373 -13.535  14.967  1.00  0.00     0.119 A 
HETATM    5  C8  UNL     1     -18.947 -14.139  16.077  1.00  0.00     0.107 A 
HETATM    6  C11 UNL     1     -19.063 -15.531  16.160  1.00  0.00     0.119 A 
HETATM    7  N8  UNL     1     -19.585 -16.217  15.144  1.00  0.00    -0.322 N 
ATOM      8  H8  UNL     1     -19.661 -17.230  15.224  1.00  0.00     0.169 HD
ENDROOT
BRANCH   1   9
HETATM    9  S1  UNL     1     -20.692 -16.573  12.711  1.00  0.00    -0.091 SA
BRANCH   9  10
HETATM   10  C4  UNL     1     -22.085 -17.587  13.180  1.00  0.00     0.123 C 
BRANCH  10  11
HETATM   11  C3  UNL     1     -21.698 -18.928  13.759  1.00  0.00     0.261 C 
BRANCH  11  12
HETATM   12  C2  UNL     1     -20.624 -19.540  12.934  1.00  0.00     0.154 C 
HETATM   13  C1  UNL     1     -19.245 -19.716  13.442  1.00  0.00     0.093 C 
HETATM   14  O1  UNL     1     -20.870 -19.914  11.804  1.00  0.00    -0.296 OA
ENDBRANCH  11  12
BRANCH  11  15
HETATM   15  N1  UNL     1     -21.187 -18.800  15.108  1.00  0.00    -0.068 N 
ATOM     16  H13 UNL     1     -20.177 -18.661  15.140  1.00  0.00     0.275 HD
ATOM     17  H12 UNL     1     -21.455 -17.922  15.554  1.00  0.00     0.275 HD
ATOM     18  H11 UNL     1     -21.493 -19.622  15.628  1.00  0.00     0.275 HD
ENDBRANCH  11  15
ENDBRANCH  10  11
ENDBRANCH   9  10
ENDBRANCH   1   9
BRANCH   4  19
HETATM   19  C7  UNL     1     -19.363 -12.089  14.789  1.00  0.00     0.282 C 
HETATM   20  N3  UNL     1     -18.099 -11.392  14.707  1.00  0.00    -0.056 NA
HETATM   21  O2  UNL     1     -20.433 -11.457  14.708  1.00  0.00    -0.269 OA
ENDBRANCH   4  19
BRANCH   6  22
HETATM   22  N7  UNL     1     -18.665 -16.110  17.217  1.00  0.00    -0.385 N 
ATOM     23  H72 UNL     1     -17.677 -16.309  17.376  1.00  0.00     0.157 HD
ATOM     24  H71 UNL     1     -19.358 -16.379  17.916  1.00  0.00     0.157 HD
ENDBRANCH   6  22
BRANCH   5  25
HETATM   25  C9  UNL     1     -18.228 -13.505  17.168  1.00  0.00     0.264 C 
HETATM   26  O3  UNL     1     -17.495 -14.267  17.917  1.00  0.00    -0.267 OA
HETATM   27  N4  UNL     1     -18.221 -12.142  17.509  1.00  0.00    -0.297 N 
HETATM   28  C10 UNL     1     -17.473 -11.654  18.608  1.00  0.00     0.188 C 
ATOM     29  H4  UNL     1     -18.769 -11.488  16.951  1.00  0.00     0.171 HD
HETATM   30  N5  UNL     1     -17.469 -10.395  18.922  1.00  0.00    -0.373 N 
HETATM   31  N6  UNL     1     -16.676 -12.494  19.447  1.00  0.00    -0.064 NA
ATOM     32  H52 UNL     1     -18.038  -9.796  18.323  1.00  0.00     0.158 HD
ATOM     33  H51 UNL     1     -16.930 -10.043  19.714  1.00  0.00     0.158 HD
ENDBRANCH   5  25
TORSDOF 8
ENDMDL
MODEL 4
REMARK VINA RESULT: -5.442271236      6.781      8.565
REMARK  8 active torsions:
REMARK  status: ('A' for Active; 'I' for Inactive)
REMARK    1  A    between atoms: C2_2  and  C3_4 
REMARK    2  A    between atoms: C3_4  and  N1_5 
REMARK    3  A    between atoms: C3_4  and  C4_9 
REMARK    4  A    between atoms: C4_9  and  S1_10 
REMARK    5  A    between atoms: S1_10  and  C5_11 
REMARK    6  A    between atoms: C6_14  and  C7_15 
REMARK    7  A    between atoms: C8_18  and  C9_19 
REMARK       I    between atoms: C9_19  and  N4_21 
REMARK       I    between atoms: N4_21  and  C10_23 
REMARK    8  A    between atoms: C11_28  and  N7_29 
ROOT
HETATM    1  C5  UNL     1     -28.314 -17.439   9.645  1.00  0.00     0.146 A 
HETATM    2  N2  UNL     1     -27.125 -17.958   9.924  1.00  0.00    -0.332 N 
ATOM      3  H2  UNL     1     -26.294 -17.454   9.614  1.00  0.00     0.168 HD
HETATM    4  C6  UNL     1     -26.953 -19.139  10.609  1.00  0.00     0.119 A 
HETATM    5  C8  UNL     1     -28.034 -19.809  11.014  1.00  0.00     0.107 A 
HETATM    6  C11 UNL     1     -29.292 -19.269  10.727  1.00  0.00     0.119 A 
HETATM    7  N8  UNL     1     -29.387 -18.119  10.062  1.00  0.00    -0.322 N 
ATOM      8  H8  UNL     1     -30.314 -17.743   9.863  1.00  0.00     0.169 HD
ENDROOT
BRANCH   1   9
HETATM    9  S1  UNL     1     -28.490 -15.928   8.773  1.00  0.00    -0.091 SA
BRANCH   9  10
HETATM   10  C4  UNL     1     -26.978 -14.993   8.606  1.00  0.00     0.123 C 
BRANCH  10  11
HETATM   11  C3  UNL     1     -27.150 -13.507   8.822  1.00  0.00     0.261 C 
BRANCH  11  12
HETATM   12  C2  UNL     1     -25.855 -12.906   9.235  1.00  0.00     0.154 C 
HETATM   13  C1  UNL     1     -25.744 -11.992  10.394  1.00  0.00     0.093 C 
HETATM   14  O1  UNL     1     -24.844 -13.163   8.610  1.00  0.00    -0.296 OA
ENDBRANCH  11  12
BRANCH  11  15
HETATM   15  N1  UNL     1     -27.570 -12.836   7.609  1.00  0.00    -0.068 N 
ATOM     16  H13 UNL     1     -26.805 -12.361   7.131  1.00  0.00     0.275 HD
ATOM     17  H12 UNL     1     -27.813 -13.483   6.859  1.00  0.00     0.275 HD
ATOM     18  H11 UNL     1     -28.334 -12.209   7.858  1.00  0.00     0.275 HD
ENDBRANCH  11  15
ENDBRANCH  10  11
ENDBRANCH   9  10
ENDBRANCH   1   9
BRANCH   4  19
HETATM   19  C7  UNL     1     -25.591 -19.566  10.903  1.00  0.00     0.282 C 
HETATM   20  N3  UNL     1     -24.591 -18.574  11.228  1.00  0.00    -0.056 NA
HETATM   21  O2  UNL     1     -25.290 -20.773  10.875  1.00  0.00    -0.269 OA
ENDBRANCH   4  19
BRANCH   6  22
HETATM   22  N7  UNL     1     -30.324 -19.899  11.116  1.00  0.00    -0.385 N 
ATOM     23  H72 UNL     1     -30.490 -20.092  12.104  1.00  0.00     0.157 HD
ATOM     24  H71 UNL     1     -30.994 -20.214  10.415  1.00  0.00     0.157 HD
ENDBRANCH   6  22
BRANCH   5  25
HETATM   25  C9  UNL     1     -28.041 -21.136  11.604  1.00  0.00     0.264 C 
HETATM   26  O3  UNL     1     -28.078 -21.209  12.897  1.00  0.00    -0.267 OA
HETATM   27  N4  UNL     1     -28.025 -22.370  10.933  1.00  0.00    -0.297 N 
HETATM   28  C10 UNL     1     -28.031 -23.599  11.635  1.00  0.00     0.188 C 
ATOM     29  H4  UNL     1     -28.007 -22.380   9.913  1.00  0.00     0.171 HD
HETATM   30  N5  UNL     1     -28.015 -24.738  11.013  1.00  0.00    -0.373 N 
HETATM   31  N6  UNL     1     -28.055 -23.684  13.063  1.00  0.00    -0.064 NA
ATOM     32  H52 UNL     1     -27.998 -24.676   9.995  1.00  0.00     0.158 HD
ATOM     33  H51 UNL     1     -28.020 -25.624  11.519  1.00  0.00     0.158 HD
ENDBRANCH   5  25
TORSDOF 8
ENDMDL
MODEL 5
REMARK VINA RESULT: -5.368387347      3.907      7.043
REMARK  8 active torsions:
REMARK  status: ('A' for Active; 'I' for Inactive)
REMARK    1  A    between atoms: C2_2  and  C3_4 
REMARK    2  A    between atoms: C3_4  and  N1_5 
REMARK    3  A    between atoms: C3_4  and  C4_9 
REMARK    4  A    between atoms: C4_9  and  S1_10 
REMARK    5  A    between atoms: S1_10  and  C5_11 
REMARK    6  A    between atoms: C6_14  and  C7_15 
REMARK    7  A    between atoms: C8_18  and  C9_19 
REMARK       I    between atoms: C9_19  and  N4_21 
REMARK       I    between atoms: N4_21  and  C10_23 
REMARK    8  A    between atoms: C11_28  and  N7_29 
ROOT
HETATM    1  C5  UNL     1     -24.909 -18.822  12.413  1.00  0.00     0.146 A 
HETATM    2  N2  UNL     1     -26.008 -18.536  13.100  1.00  0.00    -0.332 N 
ATOM      3  H2  UNL     1     -25.942 -17.851  13.853  1.00  0.00     0.168 HD
HETATM    4  C6  UNL     1     -27.232 -19.115  12.851  1.00  0.00     0.119 A 
HETATM    5  C8  UNL     1     -27.327 -20.017  11.872  1.00  0.00     0.107 A 
HETATM    6  C11 UNL     1     -26.175 -20.323  11.140  1.00  0.00     0.119 A 
HETATM    7  N8  UNL     1     -25.022 -19.723  11.432  1.00  0.00    -0.322 N 
ATOM      8  H8  UNL     1     -24.194 -19.961  10.887  1.00  0.00     0.169 HD
ENDROOT
BRANCH   1   9
HETATM    9  S1  UNL     1     -23.368 -18.059  12.760  1.00  0.00    -0.091 SA
BRANCH   9  10
HETATM   10  C4  UNL     1     -21.989 -19.190  12.850  1.00  0.00     0.123 C 
BRANCH  10  11
HETATM   11  C3  UNL     1     -20.786 -18.632  13.574  1.00  0.00     0.261 C 
BRANCH  11  12
HETATM   12  C2  UNL     1     -20.333 -17.384  12.908  1.00  0.00     0.154 C 
HETATM   13  C1  UNL     1     -19.981 -16.166  13.672  1.00  0.00     0.093 C 
HETATM   14  O1  UNL     1     -20.243 -17.345  11.696  1.00  0.00    -0.296 OA
ENDBRANCH  11  12
BRANCH  11  15
HETATM   15  N1  UNL     1     -21.098 -18.299  14.949  1.00  0.00    -0.068 N 
ATOM     16  H13 UNL     1     -20.448 -18.711  15.617  1.00  0.00     0.275 HD
ATOM     17  H12 UNL     1     -20.916 -17.320  15.173  1.00  0.00     0.275 HD
ATOM     18  H11 UNL     1     -22.067 -18.572  15.115  1.00  0.00     0.275 HD
ENDBRANCH  11  15
ENDBRANCH  10  11
ENDBRANCH   9  10
ENDBRANCH   1   9
BRANCH   4  19
HETATM   19  C7  UNL     1     -28.372 -18.667  13.639  1.00  0.00     0.282 C 
HETATM   20  N3  UNL     1     -29.198 -17.589  13.143  1.00  0.00    -0.056 NA
HETATM   21  O2  UNL     1     -28.635 -19.205  14.731  1.00  0.00    -0.269 OA
ENDBRANCH   4  19
BRANCH   6  22
HETATM   22  N7  UNL     1     -26.262 -21.176  10.203  1.00  0.00    -0.385 N 
ATOM     23  H72 UNL     1     -27.142 -21.647   9.990  1.00  0.00     0.157 HD
ATOM     24  H71 UNL     1     -25.426 -21.387   9.659  1.00  0.00     0.157 HD
ENDBRANCH   6  22
BRANCH   5  25
HETATM   25  C9  UNL     1     -28.491 -20.833  11.579  1.00  0.00     0.264 C 
HETATM   26  O3  UNL     1     -29.329 -20.377  10.702  1.00  0.00    -0.267 OA
HETATM   27  N4  UNL     1     -28.820 -22.083  12.130  1.00  0.00    -0.297 N 
HETATM   28  C10 UNL     1     -29.996 -22.776  11.755  1.00  0.00     0.188 C 
ATOM     29  H4  UNL     1     -28.194 -22.502  12.818  1.00  0.00     0.171 HD
HETATM   30  N5  UNL     1     -30.298 -23.930  12.266  1.00  0.00    -0.373 N 
HETATM   31  N6  UNL     1     -30.932 -22.269  10.799  1.00  0.00    -0.064 NA
ATOM     32  H52 UNL     1     -29.630 -24.291  12.947  1.00  0.00     0.158 HD
ATOM     33  H51 UNL     1     -31.146 -24.429  11.996  1.00  0.00     0.158 HD
ENDBRANCH   5  25
TORSDOF 8
ENDMDL
