MODEL 1
REMARK VINA RESULT: -3.290194846      0.000      0.000
REMARK  1 active torsions:
REMARK  status: ('A' for Active; 'I' for Inactive)
REMARK    1  A    between atoms: C7_7  and  O1_8 
ROOT
HETATM    1  C1  UNL     1      20.564   5.875  -2.857  1.00  0.00     0.018 C 
HETATM    2  C2  UNL     1      20.038   7.305  -3.068  1.00  0.00    -0.014 A 
HETATM    3  C3  UNL     1      19.300   7.818  -1.992  1.00  0.00     0.017 A 
HETATM    4  C4  UNL     1      20.592   8.381  -2.042  1.00  0.00    -0.003 A 
HETATM    5  C5  UNL     1      21.960   7.858  -2.148  1.00  0.00     0.008 C 
HETATM    6  C6  UNL     1      22.151   7.982  -3.674  1.00  0.00     0.033 C 
HETATM    7  C7  UNL     1      20.713   7.922  -4.235  1.00  0.00     0.126 C 
ENDROOT
BRANCH   7   8
HETATM    8  O1  UNL     1      20.268   9.202  -4.517  1.00  0.00    -0.395 OA
ATOM      9  H1  UNL     1      20.744   9.622  -5.224  1.00  0.00     0.210 HD
ENDBRANCH   7   8
TORSDOF 1
ENDMDL
MODEL 2
REMARK VINA RESULT: -3.182689640      1.649      2.271
REMARK  1 active torsions:
REMARK  status: ('A' for Active; 'I' for Inactive)
REMARK    1  A    between atoms: C7_7  and  O1_8 
ROOT
HETATM    1  C1  UNL     1      21.080   7.330  -4.947  1.00  0.00     0.018 C 
HETATM    2  C2  UNL     1      21.169   8.015  -3.573  1.00  0.00    -0.014 A 
HETATM    3  C3  UNL     1      19.956   8.537  -3.103  1.00  0.00     0.017 A 
HETATM    4  C4  UNL     1      20.296   7.344  -2.431  1.00  0.00    -0.003 A 
HETATM    5  C5  UNL     1      20.705   5.994  -2.835  1.00  0.00     0.008 C 
HETATM    6  C6  UNL     1      22.235   6.161  -2.728  1.00  0.00     0.033 C 
HETATM    7  C7  UNL     1      22.459   7.677  -2.924  1.00  0.00     0.126 C 
ENDROOT
BRANCH   7   8
HETATM    8  O1  UNL     1      22.636   8.287  -1.694  1.00  0.00    -0.395 OA
ATOM      9  H1  UNL     1      22.312   9.179  -1.663  1.00  0.00     0.210 HD
ENDBRANCH   7   8
TORSDOF 1
ENDMDL
MODEL 3
REMARK VINA RESULT: -3.075946397      1.146      2.275
REMARK  1 active torsions:
REMARK  status: ('A' for Active; 'I' for Inactive)
REMARK    1  A    between atoms: C7_7  and  O1_8 
ROOT
HETATM    1  C1  UNL     1      22.462   7.780  -1.904  1.00  0.00     0.018 C 
HETATM    2  C2  UNL     1      21.906   6.977  -3.093  1.00  0.00    -0.014 A 
HETATM    3  C3  UNL     1      21.706   5.614  -2.833  1.00  0.00     0.017 A 
HETATM    4  C4  UNL     1      20.484   6.319  -2.852  1.00  0.00    -0.003 A 
HETATM    5  C5  UNL     1      19.966   7.537  -2.218  1.00  0.00     0.008 C 
HETATM    6  C6  UNL     1      20.240   8.540  -3.357  1.00  0.00     0.033 C 
HETATM    7  C7  UNL     1      21.412   7.905  -4.139  1.00  0.00     0.126 C 
ENDROOT
BRANCH   7   8
HETATM    8  O1  UNL     1      20.927   7.261  -5.265  1.00  0.00    -0.395 OA
ATOM      9  H1  UNL     1      20.818   7.836  -6.013  1.00  0.00     0.210 HD
ENDBRANCH   7   8
TORSDOF 1
ENDMDL
MODEL 4
REMARK VINA RESULT: -3.050869172      1.779      2.835
REMARK  1 active torsions:
REMARK  status: ('A' for Active; 'I' for Inactive)
REMARK    1  A    between atoms: C7_7  and  O1_8 
ROOT
HETATM    1  C1  UNL     1      20.721   8.179  -4.555  1.00  0.00     0.018 C 
HETATM    2  C2  UNL     1      21.604   7.265  -3.689  1.00  0.00    -0.014 A 
HETATM    3  C3  UNL     1      22.789   7.861  -3.234  1.00  0.00     0.017 A 
HETATM    4  C4  UNL     1      21.833   7.766  -2.202  1.00  0.00    -0.003 A 
HETATM    5  C5  UNL     1      20.418   8.125  -2.047  1.00  0.00     0.008 C 
HETATM    6  C6  UNL     1      19.782   6.759  -2.381  1.00  0.00     0.033 C 
HETATM    7  C7  UNL     1      20.835   6.067  -3.275  1.00  0.00     0.126 C 
ENDROOT
BRANCH   7   8
HETATM    8  O1  UNL     1      21.572   5.170  -2.521  1.00  0.00    -0.395 OA
ATOM      9  H1  UNL     1      21.660   4.316  -2.926  1.00  0.00     0.210 HD
ENDBRANCH   7   8
TORSDOF 1
ENDMDL
MODEL 5
REMARK VINA RESULT: -3.031800648      2.124      2.968
REMARK  1 active torsions:
REMARK  status: ('A' for Active; 'I' for Inactive)
REMARK    1  A    between atoms: C7_7  and  O1_8 
ROOT
HETATM    1  C1  UNL     1      20.159   7.639  -2.771  1.00  0.00     0.018 C 
HETATM    2  C2  UNL     1      20.951   6.347  -2.505  1.00  0.00    -0.014 A 
HETATM    3  C3  UNL     1      20.205   5.168  -2.649  1.00  0.00     0.017 A 
HETATM    4  C4  UNL     1      21.069   5.367  -3.746  1.00  0.00    -0.003 A 
HETATM    5  C5  UNL     1      21.361   6.474  -4.664  1.00  0.00     0.008 C 
HETATM    6  C6  UNL     1      22.591   7.068  -3.947  1.00  0.00     0.033 C 
HETATM    7  C7  UNL     1      22.403   6.645  -2.472  1.00  0.00     0.126 C 
ENDROOT
BRANCH   7   8
HETATM    8  O1  UNL     1      23.188   5.537  -2.200  1.00  0.00    -0.395 OA
ATOM      9  H1  UNL     1      23.739   5.275  -2.927  1.00  0.00     0.210 HD
ENDBRANCH   7   8
TORSDOF 1
ENDMDL
