MODEL 1
REMARK VINA RESULT: -3.633633691      0.000      0.000
REMARK  1 active torsions:
REMARK  status: ('A' for Active; 'I' for Inactive)
REMARK    1  A    between atoms: N1_1  and  C1_5 
ROOT
HETATM    1  C1  UNL     1      20.476   8.205  -4.170  1.00  0.00     0.188 C 
HETATM    2  C2  UNL     1      21.828   7.528  -3.910  1.00  0.00     0.038 C 
HETATM    3  C3  UNL     1      21.238   7.155  -2.547  1.00  0.00    -0.007 C 
HETATM    4  C4  UNL     1      20.191   6.101  -2.572  1.00  0.00     0.005 C 
HETATM    5  C5  UNL     1      19.050   6.724  -1.817  1.00  0.00     0.001 C 
HETATM    6  C6  UNL     1      19.085   8.191  -2.125  1.00  0.00     0.007 C 
HETATM    7  C7  UNL     1      20.448   8.446  -2.653  1.00  0.00     0.020 C 
ENDROOT
BRANCH   1   8
HETATM    8  N1  UNL     1      20.578   9.451  -4.881  1.00  0.00    -0.075 N 
ATOM      9  H13 UNL     1      20.012  10.169  -4.430  1.00  0.00     0.274 HD
ATOM     10  H12 UNL     1      21.504   9.860  -4.756  1.00  0.00     0.274 HD
ATOM     11  H11 UNL     1      20.347   9.380  -5.871  1.00  0.00     0.274 HD
ENDBRANCH   1   8
TORSDOF 1
ENDMDL
MODEL 2
REMARK VINA RESULT: -3.549331413      2.296      3.479
REMARK  1 active torsions:
REMARK  status: ('A' for Active; 'I' for Inactive)
REMARK    1  A    between atoms: N1_1  and  C1_5 
ROOT
HETATM    1  C1  UNL     1      18.697   6.332  -1.945  1.00  0.00     0.188 C 
HETATM    2  C2  UNL     1      18.531   7.560  -1.040  1.00  0.00     0.038 C 
HETATM    3  C3  UNL     1      19.790   8.086  -1.734  1.00  0.00    -0.007 C 
HETATM    4  C4  UNL     1      19.609   8.521  -3.143  1.00  0.00     0.005 C 
HETATM    5  C5  UNL     1      20.682   7.771  -3.882  1.00  0.00     0.001 C 
HETATM    6  C6  UNL     1      20.830   6.449  -3.192  1.00  0.00     0.007 C 
HETATM    7  C7  UNL     1      20.202   6.631  -1.860  1.00  0.00     0.020 C 
ENDROOT
BRANCH   1   8
HETATM    8  N1  UNL     1      18.390   5.087  -1.294  1.00  0.00    -0.075 N 
ATOM      9  H13 UNL     1      19.124   4.836  -0.631  1.00  0.00     0.274 HD
ATOM     10  H12 UNL     1      17.609   5.202  -0.649  1.00  0.00     0.274 HD
ATOM     11  H11 UNL     1      18.212   4.318  -1.940  1.00  0.00     0.274 HD
ENDBRANCH   1   8
TORSDOF 1
ENDMDL
MODEL 3
REMARK VINA RESULT: -3.506946951      1.878      2.488
REMARK  1 active torsions:
REMARK  status: ('A' for Active; 'I' for Inactive)
REMARK    1  A    between atoms: N1_1  and  C1_5 
ROOT
HETATM    1  C1  UNL     1      21.745   6.792  -2.297  1.00  0.00     0.188 C 
HETATM    2  C2  UNL     1      21.922   7.847  -3.397  1.00  0.00     0.038 C 
HETATM    3  C3  UNL     1      20.393   7.919  -3.401  1.00  0.00    -0.007 C 
HETATM    4  C4  UNL     1      19.782   8.581  -2.219  1.00  0.00     0.005 C 
HETATM    5  C5  UNL     1      18.773   7.577  -1.737  1.00  0.00     0.001 C 
HETATM    6  C6  UNL     1      19.355   6.223  -2.011  1.00  0.00     0.007 C 
HETATM    7  C7  UNL     1      20.428   6.453  -3.010  1.00  0.00     0.020 C 
ENDROOT
BRANCH   1   8
HETATM    8  N1  UNL     1      22.670   5.695  -2.391  1.00  0.00    -0.075 N 
ATOM      9  H13 UNL     1      23.300   5.685  -1.589  1.00  0.00     0.274 HD
ATOM     10  H12 UNL     1      22.190   4.807  -2.243  1.00  0.00     0.274 HD
ATOM     11  H11 UNL     1      23.199   5.676  -3.263  1.00  0.00     0.274 HD
ENDBRANCH   1   8
TORSDOF 1
ENDMDL
MODEL 4
REMARK VINA RESULT: -3.412539442      1.901      3.240
REMARK  1 active torsions:
REMARK  status: ('A' for Active; 'I' for Inactive)
REMARK    1  A    between atoms: N1_1  and  C1_5 
ROOT
HETATM    1  C1  UNL     1      20.746   6.393  -3.134  1.00  0.00     0.188 C 
HETATM    2  C2  UNL     1      19.770   7.113  -2.194  1.00  0.00     0.038 C 
HETATM    3  C3  UNL     1      20.429   8.399  -2.698  1.00  0.00    -0.007 C 
HETATM    4  C4  UNL     1      20.095   8.783  -4.095  1.00  0.00     0.005 C 
HETATM    5  C5  UNL     1      21.440   8.986  -4.734  1.00  0.00     0.001 C 
HETATM    6  C6  UNL     1      22.367   7.992  -4.100  1.00  0.00     0.007 C 
HETATM    7  C7  UNL     1      21.691   7.570  -2.849  1.00  0.00     0.020 C 
ENDROOT
BRANCH   1   8
HETATM    8  N1  UNL     1      21.279   5.172  -2.593  1.00  0.00    -0.075 N 
ATOM      9  H13 UNL     1      20.799   4.923  -1.727  1.00  0.00     0.274 HD
ATOM     10  H12 UNL     1      21.011   4.376  -3.171  1.00  0.00     0.274 HD
ATOM     11  H11 UNL     1      22.289   5.190  -2.451  1.00  0.00     0.274 HD
ENDBRANCH   1   8
TORSDOF 1
ENDMDL
MODEL 5
REMARK VINA RESULT: -3.379755982      1.687      2.492
REMARK  1 active torsions:
REMARK  status: ('A' for Active; 'I' for Inactive)
REMARK    1  A    between atoms: N1_1  and  C1_5 
ROOT
HETATM    1  C1  UNL     1      20.906   7.508  -1.978  1.00  0.00     0.188 C 
HETATM    2  C2  UNL     1      19.955   8.661  -2.322  1.00  0.00     0.038 C 
HETATM    3  C3  UNL     1      18.894   7.572  -2.489  1.00  0.00    -0.007 C 
HETATM    4  C4  UNL     1      18.420   6.943  -1.228  1.00  0.00     0.005 C 
HETATM    5  C5  UNL     1      18.587   5.471  -1.486  1.00  0.00     0.001 C 
HETATM    6  C6  UNL     1      19.802   5.326  -2.353  1.00  0.00     0.007 C 
HETATM    7  C7  UNL     1      20.034   6.674  -2.929  1.00  0.00     0.020 C 
ENDROOT
BRANCH   1   8
HETATM    8  N1  UNL     1      22.231   7.668  -2.513  1.00  0.00    -0.075 N 
ATOM      9  H13 UNL     1      22.833   6.899  -2.220  1.00  0.00     0.274 HD
ATOM     10  H12 UNL     1      22.232   7.512  -3.521  1.00  0.00     0.274 HD
ATOM     11  H11 UNL     1      22.660   8.566  -2.288  1.00  0.00     0.274 HD
ENDBRANCH   1   8
TORSDOF 1
ENDMDL
