MODEL 1
REMARK VINA RESULT: -4.466121810      0.000      0.000
REMARK  5 active torsions:
REMARK  status: ('A' for Active; 'I' for Inactive)
REMARK    1  A    between atoms: C2_2  and  C3_3 
REMARK    2  A    between atoms: C3_3  and  N1_4 
REMARK    3  A    between atoms: N1_4  and  C4_6 
REMARK    4  A    between atoms: C4_6  and  N2_8 
REMARK    5  A    between atoms: N2_8  and  C5_10 
ROOT
HETATM    1  N2  UNL     1      21.237   9.380  -3.187  1.00  0.00    -0.361 N 
ATOM      2  H2  UNL     1      21.875   9.901  -2.587  1.00  0.00     0.162 HD
ENDROOT
BRANCH   1   3
HETATM    3  C4  UNL     1      20.561   8.239  -2.677  1.00  0.00     0.168 C 
HETATM    4  S1  UNL     1      21.378   6.822  -2.597  1.00  0.00    -0.041 SA
BRANCH   3   5
HETATM    5  N1  UNL     1      19.212   8.347  -2.252  1.00  0.00    -0.364 N 
ATOM      6  H1  UNL     1      18.553   8.932  -2.766  1.00  0.00     0.162 HD
BRANCH   5   7
HETATM    7  C3  UNL     1      18.785   7.620  -1.085  1.00  0.00     0.148 C 
BRANCH   7   8
HETATM    8  C2  UNL     1      17.780   6.591  -1.440  1.00  0.00    -0.018 C 
HETATM    9  C1  UNL     1      18.116   5.315  -1.361  1.00  0.00     0.008 C 
ENDBRANCH   7   8
ENDBRANCH   5   7
ENDBRANCH   3   5
ENDBRANCH   1   3
BRANCH   1  10
HETATM   10  C5  UNL     1      21.026   9.801  -4.540  1.00  0.00     0.116 C 
HETATM   11  C6  UNL     1      20.574   8.687  -5.454  1.00  0.00     0.297 C 
HETATM   12  N3  UNL     1      21.426   8.543  -6.606  1.00  0.00     0.090 N 
HETATM   13  C7  UNL     1      22.783   8.231  -6.223  1.00  0.00     0.273 C 
HETATM   14  C11 UNL     1      21.446   9.767  -7.372  1.00  0.00     0.273 C 
HETATM   15  C8  UNL     1      23.300   9.250  -5.227  1.00  0.00     0.037 C 
HETATM   16  C9  UNL     1      22.300  10.371  -5.129  1.00  0.00     0.013 C 
HETATM   17  C10 UNL     1      21.931  10.910  -6.507  1.00  0.00     0.037 C 
ENDBRANCH   1  10
TORSDOF 5
ENDMDL
MODEL 2
REMARK VINA RESULT: -4.293489676      1.019      1.889
REMARK  5 active torsions:
REMARK  status: ('A' for Active; 'I' for Inactive)
REMARK    1  A    between atoms: C2_2  and  C3_3 
REMARK    2  A    between atoms: C3_3  and  N1_4 
REMARK    3  A    between atoms: N1_4  and  C4_6 
REMARK    4  A    between atoms: C4_6  and  N2_8 
REMARK    5  A    between atoms: N2_8  and  C5_10 
ROOT
HETATM    1  N2  UNL     1      20.587   9.004  -4.076  1.00  0.00    -0.361 N 
ATOM      2  H2  UNL     1      19.907   9.679  -4.423  1.00  0.00     0.162 HD
ENDROOT
BRANCH   1   3
HETATM    3  C4  UNL     1      20.279   8.209  -2.940  1.00  0.00     0.168 C 
HETATM    4  S1  UNL     1      21.331   7.033  -2.503  1.00  0.00    -0.041 SA
BRANCH   3   5
HETATM    5  N1  UNL     1      19.082   8.445  -2.215  1.00  0.00    -0.364 N 
ATOM      6  H1  UNL     1      18.450   9.198  -2.491  1.00  0.00     0.162 HD
BRANCH   5   7
HETATM    7  C3  UNL     1      18.771   7.609  -1.085  1.00  0.00     0.148 C 
BRANCH   7   8
HETATM    8  C2  UNL     1      17.774   6.575  -1.450  1.00  0.00    -0.018 C 
HETATM    9  C1  UNL     1      18.118   5.302  -1.378  1.00  0.00     0.008 C 
ENDBRANCH   7   8
ENDBRANCH   5   7
ENDBRANCH   3   5
ENDBRANCH   1   3
BRANCH   1  10
HETATM   10  C5  UNL     1      21.851   8.862  -4.737  1.00  0.00     0.116 C 
HETATM   11  C6  UNL     1      22.701  10.110  -4.684  1.00  0.00     0.297 C 
HETATM   12  N3  UNL     1      23.110  10.551  -5.992  1.00  0.00     0.090 N 
HETATM   13  C7  UNL     1      21.970  10.869  -6.821  1.00  0.00     0.273 C 
HETATM   14  C11 UNL     1      23.873   9.519  -6.655  1.00  0.00     0.273 C 
HETATM   15  C8  UNL     1      21.004   9.702  -6.864  1.00  0.00     0.037 C 
HETATM   16  C9  UNL     1      21.655   8.519  -6.200  1.00  0.00     0.013 C 
HETATM   17  C10 UNL     1      23.046   8.257  -6.767  1.00  0.00     0.037 C 
ENDBRANCH   1  10
TORSDOF 5
ENDMDL
MODEL 3
REMARK VINA RESULT: -4.281886599      0.847      1.008
REMARK  5 active torsions:
REMARK  status: ('A' for Active; 'I' for Inactive)
REMARK    1  A    between atoms: C2_2  and  C3_3 
REMARK    2  A    between atoms: C3_3  and  N1_4 
REMARK    3  A    between atoms: N1_4  and  C4_6 
REMARK    4  A    between atoms: C4_6  and  N2_8 
REMARK    5  A    between atoms: N2_8  and  C5_10 
ROOT
HETATM    1  N2  UNL     1      20.462   9.470  -3.785  1.00  0.00    -0.361 N 
ATOM      2  H2  UNL     1      20.556  10.457  -3.545  1.00  0.00     0.162 HD
ENDROOT
BRANCH   1   3
HETATM    3  C4  UNL     1      20.231   8.513  -2.762  1.00  0.00     0.168 C 
HETATM    4  S1  UNL     1      21.508   7.666  -2.185  1.00  0.00    -0.041 SA
BRANCH   3   5
HETATM    5  N1  UNL     1      18.917   8.312  -2.265  1.00  0.00    -0.364 N 
ATOM      6  H1  UNL     1      18.120   8.766  -2.711  1.00  0.00     0.162 HD
BRANCH   5   7
HETATM    7  C3  UNL     1      18.724   7.459  -1.121  1.00  0.00     0.148 C 
BRANCH   7   8
HETATM    8  C2  UNL     1      17.907   6.274  -1.477  1.00  0.00    -0.018 C 
HETATM    9  C1  UNL     1      18.482   5.084  -1.496  1.00  0.00     0.008 C 
ENDBRANCH   7   8
ENDBRANCH   5   7
ENDBRANCH   3   5
ENDBRANCH   1   3
BRANCH   1  10
HETATM   10  C5  UNL     1      20.565   9.057  -5.153  1.00  0.00     0.116 C 
HETATM   11  C6  UNL     1      21.062   7.641  -5.318  1.00  0.00     0.297 C 
HETATM   12  N3  UNL     1      22.220   7.562  -6.172  1.00  0.00     0.090 N 
HETATM   13  C7  UNL     1      23.324   8.322  -5.634  1.00  0.00     0.273 C 
HETATM   14  C11 UNL     1      21.914   8.083  -7.483  1.00  0.00     0.273 C 
HETATM   15  C8  UNL     1      22.896   9.748  -5.345  1.00  0.00     0.037 C 
HETATM   16  C9  UNL     1      21.518   9.956  -5.914  1.00  0.00     0.013 C 
HETATM   17  C10 UNL     1      21.446   9.518  -7.373  1.00  0.00     0.037 C 
ENDBRANCH   1  10
TORSDOF 5
ENDMDL
MODEL 4
REMARK VINA RESULT: -4.269312971      2.950      3.858
REMARK  5 active torsions:
REMARK  status: ('A' for Active; 'I' for Inactive)
REMARK    1  A    between atoms: C2_2  and  C3_3 
REMARK    2  A    between atoms: C3_3  and  N1_4 
REMARK    3  A    between atoms: N1_4  and  C4_6 
REMARK    4  A    between atoms: C4_6  and  N2_8 
REMARK    5  A    between atoms: N2_8  and  C5_10 
ROOT
HETATM    1  N2  UNL     1      21.279   7.604  -2.135  1.00  0.00    -0.361 N 
ATOM      2  H2  UNL     1      21.158   7.269  -1.179  1.00  0.00     0.162 HD
ENDROOT
BRANCH   1   3
HETATM    3  C4  UNL     1      20.218   8.292  -2.782  1.00  0.00     0.168 C 
HETATM    4  S1  UNL     1      20.506   8.964  -4.247  1.00  0.00    -0.041 SA
BRANCH   3   5
HETATM    5  N1  UNL     1      18.947   8.381  -2.158  1.00  0.00    -0.364 N 
ATOM      6  H1  UNL     1      18.245   9.035  -2.505  1.00  0.00     0.162 HD
BRANCH   5   7
HETATM    7  C3  UNL     1      18.662   7.538  -1.026  1.00  0.00     0.148 C 
BRANCH   7   8
HETATM    8  C2  UNL     1      17.833   6.377  -1.427  1.00  0.00    -0.018 C 
HETATM    9  C1  UNL     1      18.376   5.172  -1.423  1.00  0.00     0.008 C 
ENDBRANCH   7   8
ENDBRANCH   5   7
ENDBRANCH   3   5
ENDBRANCH   1   3
BRANCH   1  10
HETATM   10  C5  UNL     1      22.518   7.376  -2.818  1.00  0.00     0.116 C 
HETATM   11  C6  UNL     1      22.970   5.936  -2.780  1.00  0.00     0.297 C 
HETATM   12  N3  UNL     1      24.302   5.794  -2.249  1.00  0.00     0.090 N 
HETATM   13  C7  UNL     1      24.383   6.283  -0.892  1.00  0.00     0.273 C 
HETATM   14  C11 UNL     1      25.245   6.536  -3.051  1.00  0.00     0.273 C 
HETATM   15  C8  UNL     1      23.861   7.704  -0.809  1.00  0.00     0.037 C 
HETATM   16  C9  UNL     1      23.627   8.209  -2.208  1.00  0.00     0.013 C 
HETATM   17  C10 UNL     1      24.854   7.997  -3.089  1.00  0.00     0.037 C 
ENDBRANCH   1  10
TORSDOF 5
ENDMDL
MODEL 5
REMARK VINA RESULT: -4.204157295      2.859      3.559
REMARK  5 active torsions:
REMARK  status: ('A' for Active; 'I' for Inactive)
REMARK    1  A    between atoms: C2_2  and  C3_3 
REMARK    2  A    between atoms: C3_3  and  N1_4 
REMARK    3  A    between atoms: N1_4  and  C4_6 
REMARK    4  A    between atoms: C4_6  and  N2_8 
REMARK    5  A    between atoms: N2_8  and  C5_10 
ROOT
HETATM    1  N2  UNL     1      21.140   7.209  -2.742  1.00  0.00    -0.361 N 
ATOM      2  H2  UNL     1      21.600   7.111  -1.837  1.00  0.00     0.162 HD
ENDROOT
BRANCH   1   3
HETATM    3  C4  UNL     1      20.272   8.308  -2.978  1.00  0.00     0.168 C 
HETATM    4  S1  UNL     1      20.683   9.392  -4.134  1.00  0.00    -0.041 SA
BRANCH   3   5
HETATM    5  N1  UNL     1      19.081   8.445  -2.218  1.00  0.00    -0.364 N 
ATOM      6  H1  UNL     1      18.392   9.158  -2.460  1.00  0.00     0.162 HD
BRANCH   5   7
HETATM    7  C3  UNL     1      18.857   7.564  -1.102  1.00  0.00     0.148 C 
BRANCH   7   8
HETATM    8  C2  UNL     1      17.886   6.501  -1.453  1.00  0.00    -0.018 C 
HETATM    9  C1  UNL     1      18.273   5.238  -1.396  1.00  0.00     0.008 C 
ENDBRANCH   7   8
ENDBRANCH   5   7
ENDBRANCH   3   5
ENDBRANCH   1   3
BRANCH   1  10
HETATM   10  C5  UNL     1      21.374   6.238  -3.769  1.00  0.00     0.116 C 
HETATM   11  C6  UNL     1      21.592   4.841  -3.237  1.00  0.00     0.297 C 
HETATM   12  N3  UNL     1      22.830   4.267  -3.697  1.00  0.00     0.090 N 
HETATM   13  C7  UNL     1      23.966   5.049  -3.267  1.00  0.00     0.273 C 
HETATM   14  C11 UNL     1      22.850   4.202  -5.139  1.00  0.00     0.273 C 
HETATM   15  C8  UNL     1      23.796   6.499  -3.677  1.00  0.00     0.037 C 
HETATM   16  C9  UNL     1      22.599   6.602  -4.583  1.00  0.00     0.013 C 
HETATM   17  C10 UNL     1      22.672   5.589  -5.720  1.00  0.00     0.037 C 
ENDBRANCH   1  10
TORSDOF 5
ENDMDL
