MODEL 1
REMARK VINA RESULT: -4.633666029      0.000      0.000
REMARK  1 active torsions:
REMARK  status: ('A' for Active; 'I' for Inactive)
REMARK    1  A    between atoms: C4_4  and  C5_5 
ROOT
HETATM    1  C1  UNL     1      21.850   5.868  -5.740  1.00  0.00     0.043 C 
HETATM    2  C2  UNL     1      21.930   6.135  -4.235  1.00  0.00     0.220 C 
HETATM    3  C3  UNL     1      21.212   5.032  -3.479  1.00  0.00     0.047 C 
HETATM    4  C4  UNL     1      20.479   5.735  -2.331  1.00  0.00     0.059 C 
HETATM    5  C6  UNL     1      20.699   7.171  -2.568  1.00  0.00     0.232 C 
HETATM    6  C7  UNL     1      19.473   8.031  -2.522  1.00  0.00     0.036 C 
HETATM    7  C8  UNL     1      19.955   9.464  -2.682  1.00  0.00     0.004 C 
HETATM    8  C9  UNL     1      20.901   9.655  -3.802  1.00  0.00     0.030 C 
HETATM    9  C10 UNL     1      21.875   8.534  -4.013  1.00  0.00     0.273 C 
HETATM   10  N2  UNL     1      21.170   7.294  -3.958  1.00  0.00     0.098 N 
ENDROOT
BRANCH   4  11
HETATM   11  C5  UNL     1      19.083   5.304  -2.292  1.00  0.00     0.059 C 
HETATM   12  N1  UNL     1      18.681   4.570  -1.331  1.00  0.00    -0.411 N 
ATOM     13  H12 UNL     1      19.341   4.295  -0.603  1.00  0.00     0.155 HD
ATOM     14  H11 UNL     1      17.706   4.269  -1.303  1.00  0.00     0.155 HD
ENDBRANCH   4  11
TORSDOF 1
ENDMDL
MODEL 2
REMARK VINA RESULT: -4.626491556      1.564      3.361
REMARK  1 active torsions:
REMARK  status: ('A' for Active; 'I' for Inactive)
REMARK    1  A    between atoms: C4_4  and  C5_5 
ROOT
HETATM    1  C1  UNL     1      20.467   9.185  -4.091  1.00  0.00     0.043 C 
HETATM    2  C2  UNL     1      20.924   8.273  -2.949  1.00  0.00     0.220 C 
HETATM    3  C3  UNL     1      22.079   7.406  -3.415  1.00  0.00     0.047 C 
HETATM    4  C4  UNL     1      21.833   6.029  -2.790  1.00  0.00     0.059 C 
HETATM    5  C6  UNL     1      20.520   6.143  -2.135  1.00  0.00     0.232 C 
HETATM    6  C7  UNL     1      19.545   5.047  -2.443  1.00  0.00     0.036 C 
HETATM    7  C8  UNL     1      18.322   5.315  -1.581  1.00  0.00     0.004 C 
HETATM    8  C9  UNL     1      17.844   6.713  -1.639  1.00  0.00     0.030 C 
HETATM    9  C10 UNL     1      18.921   7.753  -1.713  1.00  0.00     0.273 C 
HETATM   10  N2  UNL     1      19.885   7.351  -2.686  1.00  0.00     0.098 N 
ENDROOT
BRANCH   4  11
HETATM   11  C5  UNL     1      21.946   4.990  -3.812  1.00  0.00     0.059 C 
HETATM   12  N1  UNL     1      22.702   3.985  -3.602  1.00  0.00    -0.411 N 
ATOM     13  H12 UNL     1      23.217   3.923  -2.724  1.00  0.00     0.155 HD
ATOM     14  H11 UNL     1      22.781   3.260  -4.316  1.00  0.00     0.155 HD
ENDBRANCH   4  11
TORSDOF 1
ENDMDL
MODEL 3
REMARK VINA RESULT: -4.558493141      1.513      4.424
REMARK  1 active torsions:
REMARK  status: ('A' for Active; 'I' for Inactive)
REMARK    1  A    between atoms: C4_4  and  C5_5 
ROOT
HETATM    1  C1  UNL     1      18.883   7.610  -1.670  1.00  0.00     0.043 C 
HETATM    2  C2  UNL     1      20.226   7.989  -2.302  1.00  0.00     0.220 C 
HETATM    3  C3  UNL     1      20.031   9.145  -3.265  1.00  0.00     0.047 C 
HETATM    4  C4  UNL     1      20.939   8.837  -4.461  1.00  0.00     0.059 C 
HETATM    5  C6  UNL     1      21.480   7.495  -4.186  1.00  0.00     0.232 C 
HETATM    6  C7  UNL     1      21.377   6.512  -5.312  1.00  0.00     0.036 C 
HETATM    7  C8  UNL     1      22.089   5.254  -4.840  1.00  0.00     0.004 C 
HETATM    8  C9  UNL     1      21.688   4.812  -3.487  1.00  0.00     0.030 C 
HETATM    9  C10 UNL     1      21.438   5.916  -2.503  1.00  0.00     0.273 C 
HETATM   10  N2  UNL     1      20.635   6.917  -3.128  1.00  0.00     0.098 N 
ENDROOT
BRANCH   4  11
HETATM   11  C5  UNL     1      20.187   8.976  -5.707  1.00  0.00     0.059 C 
HETATM   12  N1  UNL     1      20.514   9.887  -6.536  1.00  0.00    -0.411 N 
ATOM     13  H12 UNL     1      21.296  10.505  -6.317  1.00  0.00     0.155 HD
ATOM     14  H11 UNL     1      19.990   9.984  -7.407  1.00  0.00     0.155 HD
ENDBRANCH   4  11
TORSDOF 1
ENDMDL
MODEL 4
REMARK VINA RESULT: -4.326773379      1.493      3.413
REMARK  1 active torsions:
REMARK  status: ('A' for Active; 'I' for Inactive)
REMARK    1  A    between atoms: C4_4  and  C5_5 
ROOT
HETATM    1  C1  UNL     1      22.798  10.131  -2.432  1.00  0.00     0.043 C 
HETATM    2  C2  UNL     1      21.744   9.431  -3.293  1.00  0.00     0.220 C 
HETATM    3  C3  UNL     1      20.365   9.656  -2.700  1.00  0.00     0.047 C 
HETATM    4  C4  UNL     1      19.627   8.324  -2.869  1.00  0.00     0.059 C 
HETATM    5  C6  UNL     1      20.638   7.399  -3.407  1.00  0.00     0.232 C 
HETATM    6  C7  UNL     1      20.749   6.080  -2.705  1.00  0.00     0.036 C 
HETATM    7  C8  UNL     1      21.762   5.266  -3.493  1.00  0.00     0.004 C 
HETATM    8  C9  UNL     1      23.008   5.999  -3.804  1.00  0.00     0.030 C 
HETATM    9  C10 UNL     1      22.828   7.451  -4.136  1.00  0.00     0.273 C 
HETATM   10  N2  UNL     1      21.945   8.037  -3.179  1.00  0.00     0.098 N 
ENDROOT
BRANCH   4  11
HETATM   11  C5  UNL     1      19.014   7.928  -1.602  1.00  0.00     0.059 C 
HETATM   12  N1  UNL     1      17.759   7.707  -1.555  1.00  0.00    -0.411 N 
ATOM     13  H12 UNL     1      17.202   7.811  -2.404  1.00  0.00     0.155 HD
ATOM     14  H11 UNL     1      17.332   7.431  -0.671  1.00  0.00     0.155 HD
ENDBRANCH   4  11
TORSDOF 1
ENDMDL
MODEL 5
REMARK VINA RESULT: -4.283906032      1.496      3.652
REMARK  1 active torsions:
REMARK  status: ('A' for Active; 'I' for Inactive)
REMARK    1  A    between atoms: C4_4  and  C5_5 
ROOT
HETATM    1  C1  UNL     1      22.926   5.811  -2.692  1.00  0.00     0.043 C 
HETATM    2  C2  UNL     1      21.732   6.356  -3.480  1.00  0.00     0.220 C 
HETATM    3  C3  UNL     1      21.954   7.824  -3.796  1.00  0.00     0.047 C 
HETATM    4  C4  UNL     1      20.585   8.490  -3.618  1.00  0.00     0.059 C 
HETATM    5  C6  UNL     1      19.714   7.425  -3.093  1.00  0.00     0.232 C 
HETATM    6  C7  UNL     1      18.910   7.785  -1.881  1.00  0.00     0.036 C 
HETATM    7  C8  UNL     1      18.020   6.585  -1.594  1.00  0.00     0.004 C 
HETATM    8  C9  UNL     1      18.739   5.293  -1.598  1.00  0.00     0.030 C 
HETATM    9  C10 UNL     1      19.816   5.165  -2.633  1.00  0.00     0.273 C 
HETATM   10  N2  UNL     1      20.608   6.353  -2.624  1.00  0.00     0.098 N 
ENDROOT
BRANCH   4  11
HETATM   11  C5  UNL     1      20.713   9.678  -2.776  1.00  0.00     0.059 C 
HETATM   12  N1  UNL     1      21.819  10.311  -2.752  1.00  0.00    -0.411 N 
ATOM     13  H12 UNL     1      22.598   9.978  -3.320  1.00  0.00     0.155 HD
ATOM     14  H11 UNL     1      21.909  11.141  -2.164  1.00  0.00     0.155 HD
ENDBRANCH   4  11
TORSDOF 1
ENDMDL
