MODEL 1
REMARK VINA RESULT: -4.031381614      0.000      0.000
REMARK  1 active torsions:
REMARK  status: ('A' for Active; 'I' for Inactive)
REMARK    1  A    between atoms: N1_2  and  C2_4 
ROOT
HETATM    1  C2  UNL     1      20.190   8.553  -2.471  1.00  0.00     0.090 C 
HETATM    2  C3  UNL     1      20.478  10.008  -2.623  1.00  0.00     0.031 C 
HETATM    3  C4  UNL     1      21.761  10.332  -3.346  1.00  0.00    -0.003 C 
HETATM    4  C5  UNL     1      22.972   9.726  -2.742  1.00  0.00     0.005 C 
HETATM    5  C6  UNL     1      22.989   8.268  -2.558  1.00  0.00     0.002 C 
HETATM    6  C7  UNL     1      22.211   7.455  -3.516  1.00  0.00     0.017 C 
HETATM    7  C8  UNL     1      20.760   7.730  -3.602  1.00  0.00     0.069 C 
HETATM    8  S1  UNL     1      20.522   8.746  -5.118  1.00  0.00    -0.162 SA
HETATM    9  C9  UNL     1      21.655  10.163  -4.846  1.00  0.00     0.079 C 
ENDROOT
BRANCH   1  10
HETATM   10  N1  UNL     1      18.807   8.356  -2.295  1.00  0.00    -0.420 N 
HETATM   11  C1  UNL     1      18.342   7.265  -1.547  1.00  0.00     0.140 C 
ATOM     12  H1  UNL     1      18.142   9.008  -2.712  1.00  0.00     0.153 HD
ENDBRANCH   1  10
TORSDOF 1
ENDMDL
MODEL 2
REMARK VINA RESULT: -3.948917802      1.444      2.730
REMARK  1 active torsions:
REMARK  status: ('A' for Active; 'I' for Inactive)
REMARK    1  A    between atoms: N1_2  and  C2_4 
ROOT
HETATM    1  C2  UNL     1      19.877   8.523  -3.201  1.00  0.00     0.090 C 
HETATM    2  C3  UNL     1      20.628   7.239  -3.100  1.00  0.00     0.031 C 
HETATM    3  C4  UNL     1      21.818   7.122  -4.019  1.00  0.00    -0.003 C 
HETATM    4  C5  UNL     1      21.501   7.311  -5.455  1.00  0.00     0.005 C 
HETATM    5  C6  UNL     1      20.828   8.555  -5.850  1.00  0.00     0.002 C 
HETATM    6  C7  UNL     1      21.096   9.759  -5.036  1.00  0.00     0.017 C 
HETATM    7  C8  UNL     1      20.763   9.680  -3.598  1.00  0.00     0.069 C 
HETATM    8  S1  UNL     1      22.356   9.405  -2.718  1.00  0.00    -0.162 SA
HETATM    9  C9  UNL     1      23.021   7.901  -3.534  1.00  0.00     0.079 C 
ENDROOT
BRANCH   1  10
HETATM   10  N1  UNL     1      19.172   8.759  -2.006  1.00  0.00    -0.420 N 
HETATM   11  C1  UNL     1      18.702   7.683  -1.241  1.00  0.00     0.140 C 
ATOM     12  H1  UNL     1      19.002   9.716  -1.696  1.00  0.00     0.153 HD
ENDBRANCH   1  10
TORSDOF 1
ENDMDL
MODEL 3
REMARK VINA RESULT: -3.916064567      1.256      1.559
REMARK  1 active torsions:
REMARK  status: ('A' for Active; 'I' for Inactive)
REMARK    1  A    between atoms: N1_2  and  C2_4 
ROOT
HETATM    1  C2  UNL     1      20.245   8.777  -2.656  1.00  0.00     0.090 C 
HETATM    2  C3  UNL     1      20.296   9.241  -4.071  1.00  0.00     0.031 C 
HETATM    3  C4  UNL     1      21.650   9.136  -4.727  1.00  0.00    -0.003 C 
HETATM    4  C5  UNL     1      22.733   9.852  -4.011  1.00  0.00     0.005 C 
HETATM    5  C6  UNL     1      22.960   9.515  -2.600  1.00  0.00     0.002 C 
HETATM    6  C7  UNL     1      22.640   8.137  -2.172  1.00  0.00     0.017 C 
HETATM    7  C8  UNL     1      21.246   7.683  -2.370  1.00  0.00     0.069 C 
HETATM    8  S1  UNL     1      21.262   6.623  -3.874  1.00  0.00    -0.162 SA
HETATM    9  C9  UNL     1      22.000   7.724  -5.144  1.00  0.00     0.079 C 
ENDROOT
BRANCH   1  10
HETATM   10  N1  UNL     1      18.926   8.412  -2.321  1.00  0.00    -0.420 N 
HETATM   11  C1  UNL     1      18.682   7.613  -1.195  1.00  0.00     0.140 C 
ATOM     12  H1  UNL     1      18.148   8.729  -2.899  1.00  0.00     0.153 HD
ENDBRANCH   1  10
TORSDOF 1
ENDMDL
MODEL 4
REMARK VINA RESULT: -3.847550013      1.788      2.393
REMARK  1 active torsions:
REMARK  status: ('A' for Active; 'I' for Inactive)
REMARK    1  A    between atoms: N1_2  and  C2_4 
ROOT
HETATM    1  C2  UNL     1      21.683   7.140  -2.750  1.00  0.00     0.090 C 
HETATM    2  C3  UNL     1      20.267   7.582  -2.898  1.00  0.00     0.031 C 
HETATM    3  C4  UNL     1      20.084   8.931  -3.546  1.00  0.00    -0.003 C 
HETATM    4  C5  UNL     1      20.800  10.037  -2.864  1.00  0.00     0.005 C 
HETATM    5  C6  UNL     1      22.248   9.896  -2.666  1.00  0.00     0.002 C 
HETATM    6  C7  UNL     1      22.994   9.098  -3.661  1.00  0.00     0.017 C 
HETATM    7  C8  UNL     1      22.576   7.690  -3.837  1.00  0.00     0.069 C 
HETATM    8  S1  UNL     1      21.566   7.645  -5.374  1.00  0.00    -0.162 SA
HETATM    9  C9  UNL     1      20.264   8.898  -5.048  1.00  0.00     0.079 C 
ENDROOT
BRANCH   1  10
HETATM   10  N1  UNL     1      21.738   5.736  -2.655  1.00  0.00    -0.420 N 
HETATM   11  C1  UNL     1      20.563   4.978  -2.750  1.00  0.00     0.140 C 
ATOM     12  H1  UNL     1      22.636   5.270  -2.518  1.00  0.00     0.153 HD
ENDBRANCH   1  10
TORSDOF 1
ENDMDL
MODEL 5
REMARK VINA RESULT: -3.845934396      2.192      3.289
REMARK  1 active torsions:
REMARK  status: ('A' for Active; 'I' for Inactive)
REMARK    1  A    between atoms: N1_2  and  C2_4 
ROOT
HETATM    1  C2  UNL     1      21.057   7.667  -4.967  1.00  0.00     0.090 C 
HETATM    2  C3  UNL     1      20.406   9.001  -4.837  1.00  0.00     0.031 C 
HETATM    3  C4  UNL     1      20.325   9.537  -3.430  1.00  0.00    -0.003 C 
HETATM    4  C5  UNL     1      19.634   8.638  -2.474  1.00  0.00     0.005 C 
HETATM    5  C6  UNL     1      20.139   7.266  -2.337  1.00  0.00     0.002 C 
HETATM    6  C7  UNL     1      21.581   7.047  -2.575  1.00  0.00     0.017 C 
HETATM    7  C8  UNL     1      22.104   7.429  -3.905  1.00  0.00     0.069 C 
HETATM    8  S1  UNL     1      22.950   9.047  -3.676  1.00  0.00    -0.162 SA
HETATM    9  C9  UNL     1      21.640  10.094  -2.930  1.00  0.00     0.079 C 
ENDROOT
BRANCH   1  10
HETATM   10  N1  UNL     1      21.557   7.504  -6.274  1.00  0.00    -0.420 N 
HETATM   11  C1  UNL     1      22.204   6.315  -6.637  1.00  0.00     0.140 C 
ATOM     12  H1  UNL     1      21.450   8.254  -6.957  1.00  0.00     0.153 HD
ENDBRANCH   1  10
TORSDOF 1
ENDMDL
