MODEL 1
REMARK VINA RESULT: -3.830992507      0.000      0.000
REMARK  0 active torsions:
REMARK  status: ('A' for Active; 'I' for Inactive)
ROOT
HETATM    1  C1  UNL     1       3.819   5.103  -0.209  1.00  0.00     0.005 C 
HETATM    2  C2  UNL     1       4.387   6.466  -0.515  1.00  0.00     0.005 C 
HETATM    3  C3  UNL     1       5.432   6.255  -1.614  1.00  0.00    -0.010 C 
HETATM    4  C4  UNL     1       6.505   5.363  -0.978  1.00  0.00     0.005 C 
HETATM    5  C5  UNL     1       6.155   3.958  -1.358  1.00  0.00     0.006 C 
HETATM    6  C6  UNL     1       4.914   4.000  -2.183  1.00  0.00    -0.006 C 
HETATM    7  C7  UNL     1       3.633   4.300  -1.461  1.00  0.00    -0.010 C 
HETATM    8  C8  UNL     1       3.333   5.286  -2.599  1.00  0.00     0.010 C 
HETATM    9  C9  UNL     1       4.853   5.438  -2.717  1.00  0.00    -0.006 C 
ENDROOT
TORSDOF 0
ENDMDL
MODEL 2
REMARK VINA RESULT: -3.721946761      0.565      2.464
REMARK  0 active torsions:
REMARK  status: ('A' for Active; 'I' for Inactive)
ROOT
HETATM    1  C1  UNL     1       4.586   6.164  -3.049  1.00  0.00     0.005 C 
HETATM    2  C2  UNL     1       3.412   5.239  -2.846  1.00  0.00     0.005 C 
HETATM    3  C3  UNL     1       3.752   4.381  -1.624  1.00  0.00    -0.010 C 
HETATM    4  C4  UNL     1       4.994   3.579  -2.032  1.00  0.00     0.005 C 
HETATM    5  C5  UNL     1       6.172   4.356  -1.530  1.00  0.00     0.006 C 
HETATM    6  C6  UNL     1       5.660   5.581  -0.853  1.00  0.00    -0.006 C 
HETATM    7  C7  UNL     1       5.115   6.664  -1.738  1.00  0.00    -0.010 C 
HETATM    8  C8  UNL     1       3.932   6.735  -0.762  1.00  0.00     0.010 C 
HETATM    9  C9  UNL     1       4.203   5.250  -0.501  1.00  0.00    -0.006 C 
ENDROOT
TORSDOF 0
ENDMDL
MODEL 3
REMARK VINA RESULT: -3.709072717      0.783      1.090
REMARK  0 active torsions:
REMARK  status: ('A' for Active; 'I' for Inactive)
ROOT
HETATM    1  C1  UNL     1       3.277   4.934  -0.739  1.00  0.00     0.005 C 
HETATM    2  C2  UNL     1       4.342   5.801  -0.116  1.00  0.00     0.005 C 
HETATM    3  C3  UNL     1       5.493   5.853  -1.126  1.00  0.00    -0.010 C 
HETATM    4  C4  UNL     1       5.987   4.406  -1.241  1.00  0.00     0.005 C 
HETATM    5  C5  UNL     1       5.279   3.819  -2.423  1.00  0.00     0.006 C 
HETATM    6  C6  UNL     1       4.387   4.868  -2.992  1.00  0.00    -0.006 C 
HETATM    7  C7  UNL     1       3.151   5.202  -2.209  1.00  0.00    -0.010 C 
HETATM    8  C8  UNL     1       3.516   6.675  -2.441  1.00  0.00     0.010 C 
HETATM    9  C9  UNL     1       4.969   6.192  -2.479  1.00  0.00    -0.006 C 
ENDROOT
TORSDOF 0
ENDMDL
MODEL 4
REMARK VINA RESULT: -3.592879198      0.827      2.168
REMARK  0 active torsions:
REMARK  status: ('A' for Active; 'I' for Inactive)
ROOT
HETATM    1  C1  UNL     1       3.992   6.597  -2.606  1.00  0.00     0.005 C 
HETATM    2  C2  UNL     1       5.364   6.850  -2.034  1.00  0.00     0.005 C 
HETATM    3  C3  UNL     1       5.517   5.888  -0.852  1.00  0.00    -0.010 C 
HETATM    4  C4  UNL     1       4.437   6.315   0.151  1.00  0.00     0.005 C 
HETATM    5  C5  UNL     1       3.253   5.437  -0.116  1.00  0.00     0.006 C 
HETATM    6  C6  UNL     1       3.603   4.523  -1.241  1.00  0.00    -0.006 C 
HETATM    7  C7  UNL     1       3.668   5.133  -2.611  1.00  0.00    -0.010 C 
HETATM    8  C8  UNL     1       4.989   4.370  -2.784  1.00  0.00     0.010 C 
HETATM    9  C9  UNL     1       5.137   4.508  -1.265  1.00  0.00    -0.006 C 
ENDROOT
TORSDOF 0
ENDMDL
MODEL 5
REMARK VINA RESULT: -3.581904253      1.193      2.463
REMARK  0 active torsions:
REMARK  status: ('A' for Active; 'I' for Inactive)
ROOT
HETATM    1  C1  UNL     1       4.816   4.423  -2.792  1.00  0.00     0.005 C 
HETATM    2  C2  UNL     1       3.949   4.237  -1.572  1.00  0.00     0.005 C 
HETATM    3  C3  UNL     1       3.564   5.644  -1.106  1.00  0.00    -0.010 C 
HETATM    4  C4  UNL     1       4.890   6.313  -0.719  1.00  0.00     0.005 C 
HETATM    5  C5  UNL     1       5.334   7.082  -1.925  1.00  0.00     0.006 C 
HETATM    6  C6  UNL     1       4.321   6.878  -2.999  1.00  0.00    -0.006 C 
HETATM    7  C7  UNL     1       4.300   5.531  -3.661  1.00  0.00    -0.010 C 
HETATM    8  C8  UNL     1       2.775   5.576  -3.491  1.00  0.00     0.010 C 
HETATM    9  C9  UNL     1       3.051   6.440  -2.256  1.00  0.00    -0.006 C 
ENDROOT
TORSDOF 0
ENDMDL
