MODEL 1
REMARK VINA RESULT: -6.802017259      0.000      0.000
REMARK  6 active torsions:
REMARK  status: ('A' for Active; 'I' for Inactive)
REMARK    1  A    between atoms: C2_2  and  C3_3 
REMARK    2  A    between atoms: C3_3  and  C4_4 
REMARK    3  A    between atoms: C4_4  and  N1_5 
REMARK       I    between atoms: N1_5  and  C5_7 
REMARK    4  A    between atoms: C5_7  and  C6_9 
REMARK       I    between atoms: N2_10  and  C7_12 
REMARK    5  A    between atoms: C7_12  and  C8_14 
REMARK    6  A    between atoms: C8_14  and  N3_16 
REMARK       I    between atoms: N3_16  and  C10_18 
ROOT
HETATM    1  C6  UNL     1      15.938  25.046  18.055  1.00  0.00     0.165 C 
HETATM    2  N2  UNL     1      16.093  25.434  19.224  1.00  0.00    -0.330 N 
ATOM      3  H2  UNL     1      16.160  24.690  19.918  1.00  0.00     0.168 HD
HETATM    4  C7  UNL     1      16.188  26.696  19.726  1.00  0.00     0.244 C 
HETATM    5  O2  UNL     1      17.235  27.377  19.702  1.00  0.00    -0.271 OA
ENDROOT
BRANCH   1   6
HETATM    6  C5  UNL     1      15.816  25.960  16.898  1.00  0.00     0.260 C 
HETATM    7  N1  UNL     1      16.798  26.899  16.665  1.00  0.00    -0.336 N 
ATOM      8  H1  UNL     1      17.567  26.871  17.335  1.00  0.00     0.168 HD
HETATM    9  O1  UNL     1      14.804  25.803  16.204  1.00  0.00    -0.267 OA
BRANCH   7  10
HETATM   10  C4  UNL     1      16.935  27.883  15.678  1.00  0.00     0.064 C 
BRANCH  10  11
HETATM   11  C3  UNL     1      17.218  27.545  14.272  1.00  0.00     0.044 C 
BRANCH  11  12
HETATM   12  C2  UNL     1      18.518  26.886  14.009  1.00  0.00     0.001 C 
HETATM   13  C1  UNL     1      19.607  27.590  14.871  1.00  0.00     0.005 C 
ENDBRANCH  11  12
ENDBRANCH  10  11
ENDBRANCH   7  10
ENDBRANCH   1   6
BRANCH   4  14
HETATM   14  C8  UNL     1      14.965  27.318  20.355  1.00  0.00     0.172 C 
HETATM   15  C9  UNL     1      14.218  26.311  21.173  1.00  0.00     0.042 C 
BRANCH  14  16
HETATM   16  N3  UNL     1      15.404  28.482  21.067  1.00  0.00    -0.348 N 
HETATM   17  C10 UNL     1      14.501  29.545  21.283  1.00  0.00     0.214 C 
HETATM   18  C11 UNL     1      14.910  30.782  22.026  1.00  0.00     0.117 C 
HETATM   19  O3  UNL     1      13.317  29.493  20.859  1.00  0.00    -0.274 OA
ATOM     20  H3  UNL     1      16.362  28.542  21.414  1.00  0.00     0.163 HD
ENDBRANCH  14  16
ENDBRANCH   4  14
TORSDOF 6
ENDMDL
MODEL 2
REMARK VINA RESULT: -5.976483998      2.134      2.989
REMARK  6 active torsions:
REMARK  status: ('A' for Active; 'I' for Inactive)
REMARK    1  A    between atoms: C2_2  and  C3_3 
REMARK    2  A    between atoms: C3_3  and  C4_4 
REMARK    3  A    between atoms: C4_4  and  N1_5 
REMARK       I    between atoms: N1_5  and  C5_7 
REMARK    4  A    between atoms: C5_7  and  C6_9 
REMARK       I    between atoms: N2_10  and  C7_12 
REMARK    5  A    between atoms: C7_12  and  C8_14 
REMARK    6  A    between atoms: C8_14  and  N3_16 
REMARK       I    between atoms: N3_16  and  C10_18 
ROOT
HETATM    1  C6  UNL     1      16.244  27.251  21.186  1.00  0.00     0.165 C 
HETATM    2  N2  UNL     1      15.853  28.138  21.963  1.00  0.00    -0.330 N 
ATOM      3  H2  UNL     1      16.189  28.047  22.921  1.00  0.00     0.168 HD
HETATM    4  C7  UNL     1      15.048  29.211  21.739  1.00  0.00     0.244 C 
HETATM    5  O2  UNL     1      15.442  30.281  21.228  1.00  0.00    -0.271 OA
ENDROOT
BRANCH   1   6
HETATM    6  C5  UNL     1      15.871  27.194  19.755  1.00  0.00     0.260 C 
HETATM    7  N1  UNL     1      16.836  27.394  18.792  1.00  0.00    -0.336 N 
ATOM      8  H1  UNL     1      17.771  27.558  19.167  1.00  0.00     0.168 HD
HETATM    9  O1  UNL     1      14.678  26.962  19.527  1.00  0.00    -0.267 OA
BRANCH   7  10
HETATM   10  C4  UNL     1      16.771  27.413  17.392  1.00  0.00     0.064 C 
BRANCH  10  11
HETATM   11  C3  UNL     1      17.647  28.278  16.582  1.00  0.00     0.044 C 
BRANCH  11  12
HETATM   12  C2  UNL     1      17.990  27.776  15.231  1.00  0.00     0.001 C 
HETATM   13  C1  UNL     1      19.541  27.706  15.115  1.00  0.00     0.005 C 
ENDBRANCH  11  12
ENDBRANCH  10  11
ENDBRANCH   7  10
ENDBRANCH   1   6
BRANCH   4  14
HETATM   14  C8  UNL     1      13.592  29.118  22.128  1.00  0.00     0.172 C 
HETATM   15  C9  UNL     1      13.388  28.064  23.171  1.00  0.00     0.042 C 
BRANCH  14  16
HETATM   16  N3  UNL     1      13.170  30.436  22.497  1.00  0.00    -0.348 N 
HETATM   17  C10 UNL     1      11.843  30.839  22.233  1.00  0.00     0.214 C 
HETATM   18  C11 UNL     1      11.351  32.207  22.605  1.00  0.00     0.117 C 
HETATM   19  O3  UNL     1      11.024  30.065  21.675  1.00  0.00    -0.274 OA
ATOM     20  H3  UNL     1      13.823  31.078  22.947  1.00  0.00     0.163 HD
ENDBRANCH  14  16
ENDBRANCH   4  14
TORSDOF 6
ENDMDL
MODEL 3
REMARK VINA RESULT: -5.843197350      2.422      4.063
REMARK  6 active torsions:
REMARK  status: ('A' for Active; 'I' for Inactive)
REMARK    1  A    between atoms: C2_2  and  C3_3 
REMARK    2  A    between atoms: C3_3  and  C4_4 
REMARK    3  A    between atoms: C4_4  and  N1_5 
REMARK       I    between atoms: N1_5  and  C5_7 
REMARK    4  A    between atoms: C5_7  and  C6_9 
REMARK       I    between atoms: N2_10  and  C7_12 
REMARK    5  A    between atoms: C7_12  and  C8_14 
REMARK    6  A    between atoms: C8_14  and  N3_16 
REMARK       I    between atoms: N3_16  and  C10_18 
ROOT
HETATM    1  C6  UNL     1      14.236  27.211  21.719  1.00  0.00     0.165 C 
HETATM    2  N2  UNL     1      14.362  28.126  22.548  1.00  0.00    -0.330 N 
ATOM      3  H2  UNL     1      13.540  28.297  23.126  1.00  0.00     0.168 HD
HETATM    4  C7  UNL     1      15.423  28.938  22.808  1.00  0.00     0.244 C 
HETATM    5  O2  UNL     1      16.400  28.601  23.511  1.00  0.00    -0.271 OA
ENDROOT
BRANCH   1   6
HETATM    6  C5  UNL     1      15.306  26.802  20.781  1.00  0.00     0.260 C 
HETATM    7  N1  UNL     1      15.119  26.961  19.425  1.00  0.00    -0.336 N 
ATOM      8  H1  UNL     1      14.223  27.378  19.175  1.00  0.00     0.168 HD
HETATM    9  O1  UNL     1      16.322  26.334  21.308  1.00  0.00    -0.267 OA
BRANCH   7  10
HETATM   10  C4  UNL     1      15.933  26.655  18.327  1.00  0.00     0.064 C 
BRANCH  10  11
HETATM   11  C3  UNL     1      15.803  25.386  17.588  1.00  0.00     0.044 C 
BRANCH  11  12
HETATM   12  C2  UNL     1      15.522  25.502  16.138  1.00  0.00     0.001 C 
HETATM   13  C1  UNL     1      16.837  25.921  15.417  1.00  0.00     0.005 C 
ENDBRANCH  11  12
ENDBRANCH  10  11
ENDBRANCH   7  10
ENDBRANCH   1   6
BRANCH   4  14
HETATM   14  C8  UNL     1      15.432  30.329  22.221  1.00  0.00     0.172 C 
HETATM   15  C9  UNL     1      14.036  30.846  22.064  1.00  0.00     0.042 C 
BRANCH  14  16
HETATM   16  N3  UNL     1      16.294  31.126  23.041  1.00  0.00    -0.348 N 
HETATM   17  C10 UNL     1      16.980  32.219  22.469  1.00  0.00     0.214 C 
HETATM   18  C11 UNL     1      17.890  33.088  23.286  1.00  0.00     0.117 C 
HETATM   19  O3  UNL     1      16.854  32.504  21.251  1.00  0.00    -0.274 OA
ATOM     20  H3  UNL     1      16.410  30.906  24.031  1.00  0.00     0.163 HD
ENDBRANCH  14  16
ENDBRANCH   4  14
TORSDOF 6
ENDMDL
MODEL 4
REMARK VINA RESULT: -5.823013622      3.559      5.314
REMARK  6 active torsions:
REMARK  status: ('A' for Active; 'I' for Inactive)
REMARK    1  A    between atoms: C2_2  and  C3_3 
REMARK    2  A    between atoms: C3_3  and  C4_4 
REMARK    3  A    between atoms: C4_4  and  N1_5 
REMARK       I    between atoms: N1_5  and  C5_7 
REMARK    4  A    between atoms: C5_7  and  C6_9 
REMARK       I    between atoms: N2_10  and  C7_12 
REMARK    5  A    between atoms: C7_12  and  C8_14 
REMARK    6  A    between atoms: C8_14  and  N3_16 
REMARK       I    between atoms: N3_16  and  C10_18 
ROOT
HETATM    1  C6  UNL     1      14.278  27.823  22.708  1.00  0.00     0.165 C 
HETATM    2  N2  UNL     1      14.830  28.714  23.373  1.00  0.00    -0.330 N 
ATOM      3  H2  UNL     1      14.458  28.841  24.313  1.00  0.00     0.168 HD
HETATM    4  C7  UNL     1      15.855  29.548  23.045  1.00  0.00     0.244 C 
HETATM    5  O2  UNL     1      17.059  29.218  23.085  1.00  0.00    -0.271 OA
ENDROOT
BRANCH   1   6
HETATM    6  C5  UNL     1      14.662  27.478  21.321  1.00  0.00     0.260 C 
HETATM    7  N1  UNL     1      15.537  26.437  21.097  1.00  0.00    -0.336 N 
ATOM      8  H1  UNL     1      15.847  25.964  21.945  1.00  0.00     0.168 HD
HETATM    9  O1  UNL     1      14.149  28.176  20.440  1.00  0.00    -0.267 OA
BRANCH   7  10
HETATM   10  C4  UNL     1      16.079  25.908  19.917  1.00  0.00     0.064 C 
BRANCH  10  11
HETATM   11  C3  UNL     1      15.276  25.100  18.984  1.00  0.00     0.044 C 
BRANCH  11  12
HETATM   12  C2  UNL     1      15.109  23.670  19.335  1.00  0.00     0.001 C 
HETATM   13  C1  UNL     1      13.973  23.556  20.394  1.00  0.00     0.005 C 
ENDBRANCH  11  12
ENDBRANCH  10  11
ENDBRANCH   7  10
ENDBRANCH   1   6
BRANCH   4  14
HETATM   14  C8  UNL     1      15.531  30.957  22.611  1.00  0.00     0.172 C 
HETATM   15  C9  UNL     1      14.051  31.151  22.500  1.00  0.00     0.042 C 
BRANCH  14  16
HETATM   16  N3  UNL     1      16.199  31.841  23.520  1.00  0.00    -0.348 N 
HETATM   17  C10 UNL     1      17.217  32.692  23.037  1.00  0.00     0.214 C 
HETATM   18  C11 UNL     1      17.943  33.639  23.946  1.00  0.00     0.117 C 
HETATM   19  O3  UNL     1      17.553  32.686  21.825  1.00  0.00    -0.274 OA
ATOM     20  H3  UNL     1      15.941  31.855  24.506  1.00  0.00     0.163 HD
ENDBRANCH  14  16
ENDBRANCH   4  14
TORSDOF 6
ENDMDL
MODEL 5
REMARK VINA RESULT: -5.814292748      2.134      3.202
REMARK  6 active torsions:
REMARK  status: ('A' for Active; 'I' for Inactive)
REMARK    1  A    between atoms: C2_2  and  C3_3 
REMARK    2  A    between atoms: C3_3  and  C4_4 
REMARK    3  A    between atoms: C4_4  and  N1_5 
REMARK       I    between atoms: N1_5  and  C5_7 
REMARK    4  A    between atoms: C5_7  and  C6_9 
REMARK       I    between atoms: N2_10  and  C7_12 
REMARK    5  A    between atoms: C7_12  and  C8_14 
REMARK    6  A    between atoms: C8_14  and  N3_16 
REMARK       I    between atoms: N3_16  and  C10_18 
ROOT
HETATM    1  C6  UNL     1      16.026  27.007  21.259  1.00  0.00     0.165 C 
HETATM    2  N2  UNL     1      15.734  27.956  22.004  1.00  0.00    -0.330 N 
ATOM      3  H2  UNL     1      16.123  27.898  22.945  1.00  0.00     0.168 HD
HETATM    4  C7  UNL     1      14.977  29.062  21.765  1.00  0.00     0.244 C 
HETATM    5  O2  UNL     1      15.398  30.077  21.171  1.00  0.00    -0.271 OA
ENDROOT
BRANCH   1   6
HETATM    6  C5  UNL     1      15.564  26.894  19.857  1.00  0.00     0.260 C 
HETATM    7  N1  UNL     1      16.485  26.928  18.832  1.00  0.00    -0.336 N 
ATOM      8  H1  UNL     1      17.451  27.019  19.144  1.00  0.00     0.168 HD
HETATM    9  O1  UNL     1      14.343  26.772  19.711  1.00  0.00    -0.267 OA
BRANCH   7  10
HETATM   10  C4  UNL     1      16.337  26.860  17.440  1.00  0.00     0.064 C 
BRANCH  10  11
HETATM   11  C3  UNL     1      15.918  25.623  16.759  1.00  0.00     0.044 C 
BRANCH  11  12
HETATM   12  C2  UNL     1      15.752  25.711  15.290  1.00  0.00     0.001 C 
HETATM   13  C1  UNL     1      17.125  26.093  14.664  1.00  0.00     0.005 C 
ENDBRANCH  11  12
ENDBRANCH  10  11
ENDBRANCH   7  10
ENDBRANCH   1   6
BRANCH   4  14
HETATM   14  C8  UNL     1      13.546  29.076  22.242  1.00  0.00     0.172 C 
HETATM   15  C9  UNL     1      13.363  28.144  23.399  1.00  0.00     0.042 C 
BRANCH  14  16
HETATM   16  N3  UNL     1      13.200  30.443  22.496  1.00  0.00    -0.348 N 
HETATM   17  C10 UNL     1      11.890  30.890  22.219  1.00  0.00     0.214 C 
HETATM   18  C11 UNL     1      11.477  32.310  22.471  1.00  0.00     0.117 C 
HETATM   19  O3  UNL     1      11.020  30.113  21.749  1.00  0.00    -0.274 OA
ATOM     20  H3  UNL     1      13.895  31.087  22.873  1.00  0.00     0.163 HD
ENDBRANCH  14  16
ENDBRANCH   4  14
TORSDOF 6
ENDMDL
