MODEL 1
REMARK VINA RESULT: -5.791906245      0.000      0.000
REMARK  9 active torsions:
REMARK  status: ('A' for Active; 'I' for Inactive)
REMARK       I    between atoms: C2_2  and  N1_4 
REMARK    1  A    between atoms: N1_4  and  C3_6 
REMARK    2  A    between atoms: C3_6  and  C4_7 
REMARK    3  A    between atoms: C3_6  and  C10_18 
REMARK    4  A    between atoms: C4_7  and  O2_8 
REMARK    5  A    between atoms: C4_7  and  N2_10 
REMARK    6  A    between atoms: N2_10  and  C5_12 
REMARK    7  A    between atoms: C5_12  and  C6_13 
REMARK    8  A    between atoms: C6_13  and  C7_14 
REMARK    9  A    between atoms: C7_14  and  N3_15 
ROOT
HETATM    1  C4  UNL     1      16.588  28.377  22.869  1.00  0.00     0.135 C 
ENDROOT
BRANCH   1   2
HETATM    2  C3  UNL     1      15.764  29.528  23.279  1.00  0.00     0.166 C 
BRANCH   2   3
HETATM    3  N1  UNL     1      16.382  30.762  22.739  1.00  0.00    -0.349 N 
HETATM    4  C2  UNL     1      17.556  31.327  23.291  1.00  0.00     0.214 C 
HETATM    5  C1  UNL     1      18.184  32.556  22.764  1.00  0.00     0.117 C 
HETATM    6  O1  UNL     1      18.085  30.751  24.279  1.00  0.00    -0.274 OA
ATOM      7  H1  UNL     1      15.945  31.221  21.940  1.00  0.00     0.163 HD
ENDBRANCH   2   3
BRANCH   2   8
HETATM    8  C10 UNL     1      14.314  29.470  22.901  1.00  0.00    -0.023 C 
HETATM    9  C11 UNL     1      14.058  29.903  21.467  1.00  0.00     0.017 C 
HETATM   10  C12 UNL     1      13.601  28.214  23.288  1.00  0.00     0.017 C 
HETATM   11  C13 UNL     1      13.592  30.601  23.715  1.00  0.00     0.017 C 
ENDBRANCH   2   8
ENDBRANCH   1   2
BRANCH   1  12
HETATM   12  O2  UNL     1      17.314  27.824  23.799  1.00  0.00    -0.348 OA
ATOM     13  H2  UNL     1      17.928  27.155  23.515  1.00  0.00     0.219 HD
ENDBRANCH   1  12
BRANCH   1  14
HETATM   14  N2  UNL     1      16.666  27.827  21.585  1.00  0.00    -0.373 N 
ATOM     15  H2  UNL     1      17.145  28.338  20.843  1.00  0.00     0.161 HD
BRANCH  14  16
HETATM   16  C5  UNL     1      16.065  26.523  21.299  1.00  0.00     0.123 C 
BRANCH  16  17
HETATM   17  C6  UNL     1      15.204  26.549  20.064  1.00  0.00     0.050 C 
BRANCH  17  18
HETATM   18  C7  UNL     1      16.027  26.587  18.797  1.00  0.00     0.273 C 
BRANCH  18  19
HETATM   19  N3  UNL     1      16.035  25.304  18.128  1.00  0.00     0.080 N 
HETATM   20  C8  UNL     1      15.646  25.398  16.758  1.00  0.00     0.309 C 
HETATM   21  C9  UNL     1      15.280  24.297  18.829  1.00  0.00     0.309 C 
ENDBRANCH  18  19
ENDBRANCH  17  18
ENDBRANCH  16  17
ENDBRANCH  14  16
ENDBRANCH   1  14
TORSDOF 9
ENDMDL
MODEL 2
REMARK VINA RESULT: -5.715283895      1.380      1.905
REMARK  9 active torsions:
REMARK  status: ('A' for Active; 'I' for Inactive)
REMARK       I    between atoms: C2_2  and  N1_4 
REMARK    1  A    between atoms: N1_4  and  C3_6 
REMARK    2  A    between atoms: C3_6  and  C4_7 
REMARK    3  A    between atoms: C3_6  and  C10_18 
REMARK    4  A    between atoms: C4_7  and  O2_8 
REMARK    5  A    between atoms: C4_7  and  N2_10 
REMARK    6  A    between atoms: N2_10  and  C5_12 
REMARK    7  A    between atoms: C5_12  and  C6_13 
REMARK    8  A    between atoms: C6_13  and  C7_14 
REMARK    9  A    between atoms: C7_14  and  N3_15 
ROOT
HETATM    1  C4  UNL     1      15.968  27.265  21.512  1.00  0.00     0.135 C 
ENDROOT
BRANCH   1   2
HETATM    2  C3  UNL     1      15.592  28.190  22.597  1.00  0.00     0.166 C 
BRANCH   2   3
HETATM    3  N1  UNL     1      16.577  29.297  22.630  1.00  0.00    -0.349 N 
HETATM    4  C2  UNL     1      17.633  29.345  23.571  1.00  0.00     0.214 C 
HETATM    5  C1  UNL     1      18.622  30.442  23.616  1.00  0.00     0.117 C 
HETATM    6  O1  UNL     1      17.727  28.408  24.406  1.00  0.00    -0.274 OA
ATOM      7  H1  UNL     1      16.491  30.051  21.949  1.00  0.00     0.163 HD
ENDBRANCH   2   3
BRANCH   2   8
HETATM    8  C10 UNL     1      14.199  28.741  22.539  1.00  0.00    -0.023 C 
HETATM    9  C11 UNL     1      13.835  29.289  21.170  1.00  0.00     0.017 C 
HETATM   10  C12 UNL     1      13.141  27.874  23.144  1.00  0.00     0.017 C 
HETATM   11  C13 UNL     1      14.194  30.041  23.420  1.00  0.00     0.017 C 
ENDBRANCH   2   8
ENDBRANCH   1   2
BRANCH   1  12
HETATM   12  O2  UNL     1      16.881  27.687  20.682  1.00  0.00    -0.348 OA
ATOM     13  H2  UNL     1      17.750  27.820  21.042  1.00  0.00     0.219 HD
ENDBRANCH   1  12
BRANCH   1  14
HETATM   14  N2  UNL     1      15.441  25.989  21.288  1.00  0.00    -0.373 N 
ATOM     15  H2  UNL     1      15.691  25.221  21.910  1.00  0.00     0.161 HD
BRANCH  14  16
HETATM   16  C5  UNL     1      14.531  25.749  20.166  1.00  0.00     0.123 C 
BRANCH  16  17
HETATM   17  C6  UNL     1      15.023  24.654  19.257  1.00  0.00     0.050 C 
BRANCH  17  18
HETATM   18  C7  UNL     1      16.171  25.111  18.386  1.00  0.00     0.273 C 
BRANCH  18  19
HETATM   19  N3  UNL     1      15.735  26.058  17.383  1.00  0.00     0.080 N 
HETATM   20  C8  UNL     1      15.471  25.441  16.124  1.00  0.00     0.309 C 
HETATM   21  C9  UNL     1      16.621  27.186  17.250  1.00  0.00     0.309 C 
ENDBRANCH  18  19
ENDBRANCH  17  18
ENDBRANCH  16  17
ENDBRANCH  14  16
ENDBRANCH   1  14
TORSDOF 9
ENDMDL
MODEL 3
REMARK VINA RESULT: -5.640189509      1.303      1.698
REMARK  9 active torsions:
REMARK  status: ('A' for Active; 'I' for Inactive)
REMARK       I    between atoms: C2_2  and  N1_4 
REMARK    1  A    between atoms: N1_4  and  C3_6 
REMARK    2  A    between atoms: C3_6  and  C4_7 
REMARK    3  A    between atoms: C3_6  and  C10_18 
REMARK    4  A    between atoms: C4_7  and  O2_8 
REMARK    5  A    between atoms: C4_7  and  N2_10 
REMARK    6  A    between atoms: N2_10  and  C5_12 
REMARK    7  A    between atoms: C5_12  and  C6_13 
REMARK    8  A    between atoms: C6_13  and  C7_14 
REMARK    9  A    between atoms: C7_14  and  N3_15 
ROOT
HETATM    1  C4  UNL     1      16.158  27.961  21.866  1.00  0.00     0.135 C 
ENDROOT
BRANCH   1   2
HETATM    2  C3  UNL     1      15.635  28.886  22.887  1.00  0.00     0.166 C 
BRANCH   2   3
HETATM    3  N1  UNL     1      16.460  30.116  22.872  1.00  0.00    -0.349 N 
HETATM    4  C2  UNL     1      17.713  30.197  23.525  1.00  0.00     0.214 C 
HETATM    5  C1  UNL     1      18.548  31.416  23.519  1.00  0.00     0.117 C 
HETATM    6  O1  UNL     1      18.130  29.179  24.139  1.00  0.00    -0.274 OA
ATOM      7  H1  UNL     1      16.113  30.935  22.372  1.00  0.00     0.163 HD
ENDBRANCH   2   3
BRANCH   2   8
HETATM    8  C10 UNL     1      14.181  29.239  22.773  1.00  0.00    -0.023 C 
HETATM    9  C11 UNL     1      13.851  29.981  21.489  1.00  0.00     0.017 C 
HETATM   10  C12 UNL     1      13.226  28.134  23.094  1.00  0.00     0.017 C 
HETATM   11  C13 UNL     1      13.899  30.334  23.862  1.00  0.00     0.017 C 
ENDBRANCH   2   8
ENDBRANCH   1   2
BRANCH   1  12
HETATM   12  O2  UNL     1      16.801  26.915  22.307  1.00  0.00    -0.348 OA
ATOM     13  H2  UNL     1      17.011  26.247  21.664  1.00  0.00     0.219 HD
ENDBRANCH   1  12
BRANCH   1  14
HETATM   14  N2  UNL     1      16.036  28.098  20.479  1.00  0.00    -0.373 N 
ATOM     15  H2  UNL     1      15.633  28.949  20.088  1.00  0.00     0.161 HD
BRANCH  14  16
HETATM   16  C5  UNL     1      16.483  27.029  19.586  1.00  0.00     0.123 C 
BRANCH  16  17
HETATM   17  C6  UNL     1      15.332  26.246  19.010  1.00  0.00     0.050 C 
BRANCH  17  18
HETATM   18  C7  UNL     1      15.601  24.759  19.008  1.00  0.00     0.273 C 
BRANCH  18  19
HETATM   19  N3  UNL     1      14.524  24.023  19.635  1.00  0.00     0.080 N 
HETATM   20  C8  UNL     1      14.085  24.624  20.852  1.00  0.00     0.309 C 
HETATM   21  C9  UNL     1      14.823  22.624  19.807  1.00  0.00     0.309 C 
ENDBRANCH  18  19
ENDBRANCH  17  18
ENDBRANCH  16  17
ENDBRANCH  14  16
ENDBRANCH   1  14
TORSDOF 9
ENDMDL
MODEL 4
REMARK VINA RESULT: -5.488173741      2.957      5.145
REMARK  9 active torsions:
REMARK  status: ('A' for Active; 'I' for Inactive)
REMARK       I    between atoms: C2_2  and  N1_4 
REMARK    1  A    between atoms: N1_4  and  C3_6 
REMARK    2  A    between atoms: C3_6  and  C4_7 
REMARK    3  A    between atoms: C3_6  and  C10_18 
REMARK    4  A    between atoms: C4_7  and  O2_8 
REMARK    5  A    between atoms: C4_7  and  N2_10 
REMARK    6  A    between atoms: N2_10  and  C5_12 
REMARK    7  A    between atoms: C5_12  and  C6_13 
REMARK    8  A    between atoms: C6_13  and  C7_14 
REMARK    9  A    between atoms: C7_14  and  N3_15 
ROOT
HETATM    1  C4  UNL     1      15.928  26.987  19.445  1.00  0.00     0.135 C 
ENDROOT
BRANCH   1   2
HETATM    2  C3  UNL     1      14.990  26.829  20.572  1.00  0.00     0.166 C 
BRANCH   2   3
HETATM    3  N1  UNL     1      15.224  25.504  21.194  1.00  0.00    -0.349 N 
HETATM    4  C2  UNL     1      14.430  24.373  20.890  1.00  0.00     0.214 C 
HETATM    5  C1  UNL     1      14.651  23.046  21.502  1.00  0.00     0.117 C 
HETATM    6  O1  UNL     1      13.492  24.511  20.061  1.00  0.00    -0.274 OA
ATOM      7  H1  UNL     1      15.986  25.404  21.865  1.00  0.00     0.163 HD
ENDBRANCH   2   3
BRANCH   2   8
HETATM    8  C10 UNL     1      15.030  27.904  21.618  1.00  0.00    -0.023 C 
HETATM    9  C11 UNL     1      16.235  27.790  22.537  1.00  0.00     0.017 C 
HETATM   10  C12 UNL     1      14.778  29.291  21.120  1.00  0.00     0.017 C 
HETATM   11  C13 UNL     1      13.842  27.615  22.602  1.00  0.00     0.017 C 
ENDBRANCH   2   8
ENDBRANCH   1   2
BRANCH   1  12
HETATM   12  O2  UNL     1      17.147  27.334  19.752  1.00  0.00    -0.348 OA
ATOM     13  H2  UNL     1      17.572  27.947  19.162  1.00  0.00     0.219 HD
ENDBRANCH   1  12
BRANCH   1  14
HETATM   14  N2  UNL     1      15.636  26.805  18.090  1.00  0.00    -0.373 N 
ATOM     15  H2  UNL     1      15.287  27.588  17.537  1.00  0.00     0.161 HD
BRANCH  14  16
HETATM   16  C5  UNL     1      15.828  25.498  17.459  1.00  0.00     0.123 C 
BRANCH  16  17
HETATM   17  C6  UNL     1      16.112  25.612  15.984  1.00  0.00     0.050 C 
BRANCH  17  18
HETATM   18  C7  UNL     1      16.098  27.047  15.511  1.00  0.00     0.273 C 
BRANCH  18  19
HETATM   19  N3  UNL     1      17.386  27.449  14.989  1.00  0.00     0.080 N 
HETATM   20  C8  UNL     1      18.155  26.344  14.518  1.00  0.00     0.309 C 
HETATM   21  C9  UNL     1      18.135  28.270  15.905  1.00  0.00     0.309 C 
ENDBRANCH  18  19
ENDBRANCH  17  18
ENDBRANCH  16  17
ENDBRANCH  14  16
ENDBRANCH   1  14
TORSDOF 9
ENDMDL
MODEL 5
REMARK VINA RESULT: -5.464808932      1.597      2.003
REMARK  9 active torsions:
REMARK  status: ('A' for Active; 'I' for Inactive)
REMARK       I    between atoms: C2_2  and  N1_4 
REMARK    1  A    between atoms: N1_4  and  C3_6 
REMARK    2  A    between atoms: C3_6  and  C4_7 
REMARK    3  A    between atoms: C3_6  and  C10_18 
REMARK    4  A    between atoms: C4_7  and  O2_8 
REMARK    5  A    between atoms: C4_7  and  N2_10 
REMARK    6  A    between atoms: N2_10  and  C5_12 
REMARK    7  A    between atoms: C5_12  and  C6_13 
REMARK    8  A    between atoms: C6_13  and  C7_14 
REMARK    9  A    between atoms: C7_14  and  N3_15 
ROOT
HETATM    1  C4  UNL     1      16.086  27.840  21.856  1.00  0.00     0.135 C 
ENDROOT
BRANCH   1   2
HETATM    2  C3  UNL     1      15.615  28.810  22.862  1.00  0.00     0.166 C 
BRANCH   2   3
HETATM    3  N1  UNL     1      16.501  29.997  22.818  1.00  0.00    -0.349 N 
HETATM    4  C2  UNL     1      17.728  30.054  23.521  1.00  0.00     0.214 C 
HETATM    5  C1  UNL     1      18.622  31.231  23.486  1.00  0.00     0.117 C 
HETATM    6  O1  UNL     1      18.067  29.054  24.206  1.00  0.00    -0.274 OA
ATOM      7  H1  UNL     1      16.216  30.803  22.261  1.00  0.00     0.163 HD
ENDBRANCH   2   3
BRANCH   2   8
HETATM    8  C10 UNL     1      14.180  29.233  22.749  1.00  0.00    -0.023 C 
HETATM    9  C11 UNL     1      13.886  29.990  21.465  1.00  0.00     0.017 C 
HETATM   10  C12 UNL     1      13.174  28.175  23.070  1.00  0.00     0.017 C 
HETATM   11  C13 UNL     1      13.952  30.340  23.838  1.00  0.00     0.017 C 
ENDBRANCH   2   8
ENDBRANCH   1   2
BRANCH   1  12
HETATM   12  O2  UNL     1      16.846  26.876  22.294  1.00  0.00    -0.348 OA
ATOM     13  H2  UNL     1      16.859  26.080  21.775  1.00  0.00     0.219 HD
ENDBRANCH   1  12
BRANCH   1  14
HETATM   14  N2  UNL     1      15.800  27.858  20.487  1.00  0.00    -0.373 N 
ATOM     15  H2  UNL     1      15.199  28.588  20.105  1.00  0.00     0.161 HD
BRANCH  14  16
HETATM   16  C5  UNL     1      16.359  26.837  19.600  1.00  0.00     0.123 C 
BRANCH  16  17
HETATM   17  C6  UNL     1      16.802  27.408  18.279  1.00  0.00     0.050 C 
BRANCH  17  18
HETATM   18  C7  UNL     1      16.244  26.632  17.108  1.00  0.00     0.273 C 
BRANCH  18  19
HETATM   19  N3  UNL     1      16.723  27.153  15.846  1.00  0.00     0.080 N 
HETATM   20  C8  UNL     1      17.089  26.122  14.930  1.00  0.00     0.309 C 
HETATM   21  C9  UNL     1      17.773  28.128  16.000  1.00  0.00     0.309 C 
ENDBRANCH  18  19
ENDBRANCH  17  18
ENDBRANCH  16  17
ENDBRANCH  14  16
ENDBRANCH   1  14
TORSDOF 9
ENDMDL
