MODEL 1
REMARK VINA RESULT: -4.891565424      0.000      0.000
REMARK  1 active torsions:
REMARK  status: ('A' for Active; 'I' for Inactive)
REMARK    1  A    between atoms: N2_3  and  N3_5 
ROOT
HETATM    1  N1  UNL     1     -19.458  -9.789   7.264  1.00  0.00    -0.171 NA
HETATM    2  C1  UNL     1     -18.943  -9.136   8.071  1.00  0.00     0.193 C 
HETATM    3  N2  UNL     1     -18.319  -8.346   9.035  1.00  0.00    -0.256 N 
ATOM      4  H2  UNL     1     -17.347  -8.557   9.259  1.00  0.00     0.193 HD
ENDROOT
BRANCH   3   5
HETATM    5  N3  UNL     1     -18.917  -7.298   9.710  1.00  0.00    -0.222 NA
HETATM    6  C2  UNL     1     -20.170  -7.001   9.062  1.00  0.00     0.114 C 
HETATM    7  C3  UNL     1     -21.049  -6.499  10.215  1.00  0.00     0.017 C 
HETATM    8  C4  UNL     1     -20.699  -7.571  11.256  1.00  0.00     0.017 C 
HETATM    9  C5  UNL     1     -19.173  -7.545  11.093  1.00  0.00     0.114 C 
ENDBRANCH   3   5
TORSDOF 1
ENDMDL
MODEL 2
REMARK VINA RESULT: -4.684501333      2.441      3.359
REMARK  1 active torsions:
REMARK  status: ('A' for Active; 'I' for Inactive)
REMARK    1  A    between atoms: N2_3  and  N3_5 
ROOT
HETATM    1  N1  UNL     1     -19.062  -5.758   9.218  1.00  0.00    -0.171 NA
HETATM    2  C1  UNL     1     -19.908  -6.252   9.836  1.00  0.00     0.193 C 
HETATM    3  N2  UNL     1     -20.929  -6.851  10.573  1.00  0.00    -0.256 N 
ATOM      4  H2  UNL     1     -21.852  -6.418  10.536  1.00  0.00     0.193 HD
ENDROOT
BRANCH   3   5
HETATM    5  N3  UNL     1     -20.786  -7.985  11.350  1.00  0.00    -0.222 NA
HETATM    6  C2  UNL     1     -22.095  -8.396  11.794  1.00  0.00     0.114 C 
HETATM    7  C3  UNL     1     -21.966  -9.921  11.899  1.00  0.00     0.017 C 
HETATM    8  C4  UNL     1     -21.238 -10.183  10.573  1.00  0.00     0.017 C 
HETATM    9  C5  UNL     1     -20.168  -9.090  10.690  1.00  0.00     0.114 C 
ENDBRANCH   3   5
TORSDOF 1
ENDMDL
MODEL 3
REMARK VINA RESULT: -4.640023967      1.710      1.864
REMARK  1 active torsions:
REMARK  status: ('A' for Active; 'I' for Inactive)
REMARK    1  A    between atoms: N2_3  and  N3_5 
ROOT
HETATM    1  N1  UNL     1     -20.430 -10.769  10.591  1.00  0.00    -0.171 NA
HETATM    2  C1  UNL     1     -19.630  -9.944  10.443  1.00  0.00     0.193 C 
HETATM    3  N2  UNL     1     -18.665  -8.956  10.257  1.00  0.00    -0.256 N 
ATOM      4  H2  UNL     1     -17.691  -9.214  10.413  1.00  0.00     0.193 HD
ENDROOT
BRANCH   3   5
HETATM    5  N3  UNL     1     -18.927  -7.652   9.877  1.00  0.00    -0.222 NA
HETATM    6  C2  UNL     1     -19.716  -7.685   8.670  1.00  0.00     0.114 C 
HETATM    7  C3  UNL     1     -20.578  -6.421   8.783  1.00  0.00     0.017 C 
HETATM    8  C4  UNL     1     -21.003  -6.562  10.251  1.00  0.00     0.017 C 
HETATM    9  C5  UNL     1     -19.624  -6.874  10.849  1.00  0.00     0.114 C 
ENDBRANCH   3   5
TORSDOF 1
ENDMDL
MODEL 4
REMARK VINA RESULT: -4.593759352      2.087      3.518
REMARK  1 active torsions:
REMARK  status: ('A' for Active; 'I' for Inactive)
REMARK    1  A    between atoms: N2_3  and  N3_5 
ROOT
HETATM    1  N1  UNL     1     -19.139  -5.738   9.390  1.00  0.00    -0.171 NA
HETATM    2  C1  UNL     1     -19.576  -6.773   9.105  1.00  0.00     0.193 C 
HETATM    3  N2  UNL     1     -20.099  -8.015   8.753  1.00  0.00    -0.256 N 
ATOM      4  H2  UNL     1     -20.985  -8.028   8.249  1.00  0.00     0.193 HD
ENDROOT
BRANCH   3   5
HETATM    5  N3  UNL     1     -19.508  -9.233   9.035  1.00  0.00    -0.222 NA
HETATM    6  C2  UNL     1     -19.585  -9.453  10.458  1.00  0.00     0.114 C 
HETATM    7  C3  UNL     1     -19.687 -10.980  10.569  1.00  0.00     0.017 C 
HETATM    8  C4  UNL     1     -20.728 -11.223   9.469  1.00  0.00     0.017 C 
HETATM    9  C5  UNL     1     -20.097 -10.353   8.374  1.00  0.00     0.114 C 
ENDBRANCH   3   5
TORSDOF 1
ENDMDL
MODEL 5
REMARK VINA RESULT: -4.588781536      1.984      3.063
REMARK  1 active torsions:
REMARK  status: ('A' for Active; 'I' for Inactive)
REMARK    1  A    between atoms: N2_3  and  N3_5 
ROOT
HETATM    1  N1  UNL     1     -19.118  -5.738   9.202  1.00  0.00    -0.171 NA
HETATM    2  C1  UNL     1     -19.634  -6.758   9.391  1.00  0.00     0.193 C 
HETATM    3  N2  UNL     1     -20.247  -7.989   9.616  1.00  0.00    -0.256 N 
ATOM      4  H2  UNL     1     -20.574  -8.508   8.801  1.00  0.00     0.193 HD
ENDROOT
BRANCH   3   5
HETATM    5  N3  UNL     1     -20.447  -8.561  10.859  1.00  0.00    -0.222 NA
HETATM    6  C2  UNL     1     -21.530  -7.863  11.507  1.00  0.00     0.114 C 
HETATM    7  C3  UNL     1     -22.175  -8.950  12.376  1.00  0.00     0.017 C 
HETATM    8  C4  UNL     1     -22.202 -10.085  11.344  1.00  0.00     0.017 C 
HETATM    9  C5  UNL     1     -20.760  -9.953  10.835  1.00  0.00     0.114 C 
ENDBRANCH   3   5
TORSDOF 1
ENDMDL
