MODEL 1
REMARK VINA RESULT: -7.817286471      0.000      0.000
REMARK  4 active torsions:
REMARK  status: ('A' for Active; 'I' for Inactive)
REMARK    1  A    between atoms: C1_2  and  C2_4 
REMARK    2  A    between atoms: C2_4  and  N2_5 
REMARK       I    between atoms: N2_5  and  C3_7 
REMARK    3  A    between atoms: C3_7  and  C4_9 
REMARK    4  A    between atoms: C5_16  and  O3_17 
ROOT
HETATM    1  N2  UNL     1      29.874  46.241   7.005  1.00  0.00    -0.332 N 
ATOM      2  H2  UNL     1      30.703  46.210   6.411  1.00  0.00     0.164 HD
HETATM    3  C3  UNL     1      29.004  47.331   6.827  1.00  0.00     0.275 C 
HETATM    4  O2  UNL     1      27.952  47.459   7.504  1.00  0.00    -0.266 OA
ENDROOT
BRANCH   1   5
HETATM    5  C2  UNL     1      29.702  45.154   7.953  1.00  0.00     0.189 A 
HETATM    6  C6  UNL     1      30.228  43.819   7.443  1.00  0.00     0.188 A 
HETATM    7 CL1  UNL     1      31.073  42.721   8.536  1.00  0.00    -0.095 Cl
HETATM    8 CL2  UNL     1      30.879  43.777   5.777  1.00  0.00    -0.095 Cl
HETATM    9  C7  UNL     1      28.763  44.052   7.625  1.00  0.00     0.188 A 
HETATM   10 CL3  UNL     1      27.796  44.136   6.136  1.00  0.00    -0.095 Cl
HETATM   11 CL4  UNL     1      28.012  43.202   8.984  1.00  0.00    -0.095 Cl
BRANCH   5  12
HETATM   12  C1  UNL     1      29.947  45.530   9.366  1.00  0.00     0.266 C 
HETATM   13  N1  UNL     1      30.999  46.349   9.835  1.00  0.00    -0.060 NA
HETATM   14  O1  UNL     1      29.164  45.103  10.289  1.00  0.00    -0.274 OA
ENDBRANCH   5  12
ENDBRANCH   1   5
BRANCH   3  15
HETATM   15  C4  UNL     1      29.254  48.388   5.852  1.00  0.00     0.169 A 
HETATM   16  N3  UNL     1      28.987  49.683   6.070  1.00  0.00    -0.277 N 
HETATM   17  N4  UNL     1      29.325  50.354   5.009  1.00  0.00    -0.240 N 
ATOM     18  H3  UNL     1      28.587  50.075   6.922  1.00  0.00     0.189 HD
HETATM   19  N5  UNL     1      29.809  49.560   4.087  1.00  0.00    -0.263 N 
ATOM     20  H4  UNL     1      29.227  51.364   4.908  1.00  0.00     0.208 HD
HETATM   21  C5  UNL     1      29.779  48.306   4.583  1.00  0.00     0.190 A 
ATOM     22  H5  UNL     1      30.145  49.838   3.165  1.00  0.00     0.190 HD
BRANCH  21  23
HETATM   23  O3  UNL     1      30.203  47.126   3.943  1.00  0.00    -0.343 OA
ATOM     24  H3  UNL     1      30.462  47.051   3.033  1.00  0.00     0.219 HD
ENDBRANCH  21  23
ENDBRANCH   3  15
TORSDOF 4
ENDMDL
MODEL 2
REMARK VINA RESULT: -7.610372502      1.167      1.340
REMARK  4 active torsions:
REMARK  status: ('A' for Active; 'I' for Inactive)
REMARK    1  A    between atoms: C1_2  and  C2_4 
REMARK    2  A    between atoms: C2_4  and  N2_5 
REMARK       I    between atoms: N2_5  and  C3_7 
REMARK    3  A    between atoms: C3_7  and  C4_9 
REMARK    4  A    between atoms: C5_16  and  O3_17 
ROOT
HETATM    1  N2  UNL     1      29.711  46.151   7.116  1.00  0.00    -0.332 N 
ATOM      2  H2  UNL     1      30.556  46.223   6.550  1.00  0.00     0.164 HD
HETATM    3  C3  UNL     1      28.756  47.173   6.967  1.00  0.00     0.275 C 
HETATM    4  O2  UNL     1      27.679  47.174   7.615  1.00  0.00    -0.266 OA
ENDROOT
BRANCH   1   5
HETATM    5  C2  UNL     1      29.606  45.003   8.000  1.00  0.00     0.189 A 
HETATM    6  C6  UNL     1      30.188  43.729   7.406  1.00  0.00     0.188 A 
HETATM    7 CL1  UNL     1      31.101  42.611   8.421  1.00  0.00    -0.095 Cl
HETATM    8 CL2  UNL     1      30.816  43.816   5.733  1.00  0.00    -0.095 Cl
HETATM    9  C7  UNL     1      28.716  43.878   7.619  1.00  0.00     0.188 A 
HETATM   10 CL3  UNL     1      27.725  44.002   6.149  1.00  0.00    -0.095 Cl
HETATM   11 CL4  UNL     1      28.027  42.914   8.933  1.00  0.00    -0.095 Cl
BRANCH   5  12
HETATM   12  C1  UNL     1      29.854  45.307   9.431  1.00  0.00     0.266 C 
HETATM   13  N1  UNL     1      30.895  46.117   9.937  1.00  0.00    -0.060 NA
HETATM   14  O1  UNL     1      29.083  44.819  10.333  1.00  0.00    -0.274 OA
ENDBRANCH   5  12
ENDBRANCH   1   5
BRANCH   3  15
HETATM   15  C4  UNL     1      28.943  48.300   6.057  1.00  0.00     0.169 A 
HETATM   16  N3  UNL     1      28.616  48.271   4.758  1.00  0.00    -0.277 N 
HETATM   17  N4  UNL     1      28.908  49.426   4.238  1.00  0.00    -0.240 N 
ATOM     18  H3  UNL     1      28.207  47.479   4.263  1.00  0.00     0.189 HD
HETATM   19  N5  UNL     1      29.418  50.229   5.137  1.00  0.00    -0.263 N 
ATOM     20  H4  UNL     1      28.759  49.674   3.260  1.00  0.00     0.208 HD
HETATM   21  C5  UNL     1      29.458  49.551   6.303  1.00  0.00     0.190 A 
ATOM     22  H5  UNL     1      29.728  51.189   4.985  1.00  0.00     0.190 HD
BRANCH  21  23
HETATM   23  O3  UNL     1      29.929  50.018   7.545  1.00  0.00    -0.343 OA
ATOM     24  H3  UNL     1      30.324  49.485   8.224  1.00  0.00     0.219 HD
ENDBRANCH  21  23
ENDBRANCH   3  15
TORSDOF 4
ENDMDL
MODEL 3
REMARK VINA RESULT: -7.149504017      1.964      3.143
REMARK  4 active torsions:
REMARK  status: ('A' for Active; 'I' for Inactive)
REMARK    1  A    between atoms: C1_2  and  C2_4 
REMARK    2  A    between atoms: C2_4  and  N2_5 
REMARK       I    between atoms: N2_5  and  C3_7 
REMARK    3  A    between atoms: C3_7  and  C4_9 
REMARK    4  A    between atoms: C5_16  and  O3_17 
ROOT
HETATM    1  N2  UNL     1      29.828  46.174   6.812  1.00  0.00    -0.332 N 
ATOM      2  H2  UNL     1      30.152  46.874   7.479  1.00  0.00     0.164 HD
HETATM    3  C3  UNL     1      29.434  46.638   5.544  1.00  0.00     0.275 C 
HETATM    4  O2  UNL     1      29.026  45.856   4.648  1.00  0.00    -0.266 OA
ENDROOT
BRANCH   1   5
HETATM    5  C2  UNL     1      29.817  44.792   7.260  1.00  0.00     0.189 A 
HETATM    6  C6  UNL     1      28.653  44.466   8.185  1.00  0.00     0.188 A 
HETATM    7 CL1  UNL     1      27.815  42.919   8.048  1.00  0.00    -0.095 Cl
HETATM    8 CL2  UNL     1      27.560  45.810   8.632  1.00  0.00    -0.095 Cl
HETATM    9  C7  UNL     1      30.058  44.497   8.695  1.00  0.00     0.188 A 
HETATM   10 CL3  UNL     1      30.454  45.824   9.809  1.00  0.00    -0.095 Cl
HETATM   11 CL4  UNL     1      30.770  42.925   9.086  1.00  0.00    -0.095 Cl
BRANCH   5  12
HETATM   12  C1  UNL     1      30.206  43.808   6.220  1.00  0.00     0.266 C 
HETATM   13  N1  UNL     1      29.335  42.910   5.563  1.00  0.00    -0.060 NA
HETATM   14  O1  UNL     1      31.430  43.722   5.845  1.00  0.00    -0.274 OA
ENDBRANCH   5  12
ENDBRANCH   1   5
BRANCH   3  15
HETATM   15  C4  UNL     1      29.470  48.050   5.175  1.00  0.00     0.169 A 
HETATM   16  N3  UNL     1      29.330  48.497   3.920  1.00  0.00    -0.277 N 
HETATM   17  N4  UNL     1      29.411  49.795   3.937  1.00  0.00    -0.240 N 
ATOM     18  H3  UNL     1      29.186  47.919   3.093  1.00  0.00     0.189 HD
HETATM   19  N5  UNL     1      29.599  50.236   5.155  1.00  0.00    -0.263 N 
ATOM     20  H4  UNL     1      29.337  50.390   3.112  1.00  0.00     0.208 HD
HETATM   21  C5  UNL     1      29.643  49.161   5.968  1.00  0.00     0.190 A 
ATOM     22  H5  UNL     1      29.695  51.211   5.437  1.00  0.00     0.190 HD
BRANCH  21  23
HETATM   23  O3  UNL     1      29.827  49.154   7.364  1.00  0.00    -0.343 OA
ATOM     24  H3  UNL     1      29.514  49.817   7.968  1.00  0.00     0.219 HD
ENDBRANCH  21  23
ENDBRANCH   3  15
TORSDOF 4
ENDMDL
MODEL 4
REMARK VINA RESULT: -6.395375643      1.973      2.899
REMARK  4 active torsions:
REMARK  status: ('A' for Active; 'I' for Inactive)
REMARK    1  A    between atoms: C1_2  and  C2_4 
REMARK    2  A    between atoms: C2_4  and  N2_5 
REMARK       I    between atoms: N2_5  and  C3_7 
REMARK    3  A    between atoms: C3_7  and  C4_9 
REMARK    4  A    between atoms: C5_16  and  O3_17 
ROOT
HETATM    1  N2  UNL     1      29.860  46.119   6.967  1.00  0.00    -0.332 N 
ATOM      2  H2  UNL     1      30.289  46.796   7.599  1.00  0.00     0.164 HD
HETATM    3  C3  UNL     1      29.340  46.617   5.759  1.00  0.00     0.275 C 
HETATM    4  O2  UNL     1      28.798  45.865   4.910  1.00  0.00    -0.266 OA
ENDROOT
BRANCH   1   5
HETATM    5  C2  UNL     1      29.845  44.732   7.400  1.00  0.00     0.189 A 
HETATM    6  C6  UNL     1      28.691  44.405   8.336  1.00  0.00     0.188 A 
HETATM    7 CL1  UNL     1      27.839  42.865   8.193  1.00  0.00    -0.095 Cl
HETATM    8 CL2  UNL     1      27.613  45.751   8.812  1.00  0.00    -0.095 Cl
HETATM    9  C7  UNL     1      30.102  44.420   8.828  1.00  0.00     0.188 A 
HETATM   10 CL3  UNL     1      30.522  45.731   9.952  1.00  0.00    -0.095 Cl
HETATM   11 CL4  UNL     1      30.807  42.838   9.193  1.00  0.00    -0.095 Cl
BRANCH   5  12
HETATM   12  C1  UNL     1      30.213  43.757   6.344  1.00  0.00     0.266 C 
HETATM   13  N1  UNL     1      29.333  42.851   5.711  1.00  0.00    -0.060 NA
HETATM   14  O1  UNL     1      31.425  43.688   5.930  1.00  0.00    -0.274 OA
ENDBRANCH   5  12
ENDBRANCH   1   5
BRANCH   3  15
HETATM   15  C4  UNL     1      29.392  48.032   5.402  1.00  0.00     0.169 A 
HETATM   16  N3  UNL     1      29.012  49.021   6.221  1.00  0.00    -0.277 N 
HETATM   17  N4  UNL     1      29.183  50.152   5.602  1.00  0.00    -0.240 N 
ATOM     18  H3  UNL     1      28.650  48.907   7.168  1.00  0.00     0.189 HD
HETATM   19  N5  UNL     1      29.664  49.960   4.400  1.00  0.00    -0.263 N 
ATOM     20  H4  UNL     1      28.972  51.067   6.001  1.00  0.00     0.208 HD
HETATM   21  C5  UNL     1      29.809  48.629   4.235  1.00  0.00     0.190 A 
ATOM     22  H5  UNL     1      29.887  50.682   3.715  1.00  0.00     0.190 HD
BRANCH  21  23
HETATM   23  O3  UNL     1      30.295  47.959   3.097  1.00  0.00    -0.343 OA
ATOM     24  H3  UNL     1      30.381  47.018   3.001  1.00  0.00     0.219 HD
ENDBRANCH  21  23
ENDBRANCH   3  15
TORSDOF 4
ENDMDL
MODEL 5
REMARK VINA RESULT: -6.185347025      1.385      1.679
REMARK  4 active torsions:
REMARK  status: ('A' for Active; 'I' for Inactive)
REMARK    1  A    between atoms: C1_2  and  C2_4 
REMARK    2  A    between atoms: C2_4  and  N2_5 
REMARK       I    between atoms: N2_5  and  C3_7 
REMARK    3  A    between atoms: C3_7  and  C4_9 
REMARK    4  A    between atoms: C5_16  and  O3_17 
ROOT
HETATM    1  N2  UNL     1      29.435  46.509   6.899  1.00  0.00    -0.332 N 
ATOM      2  H2  UNL     1      29.522  46.119   5.961  1.00  0.00     0.164 HD
HETATM    3  C3  UNL     1      29.411  47.911   7.007  1.00  0.00     0.275 C 
HETATM    4  O2  UNL     1      29.301  48.490   8.117  1.00  0.00    -0.266 OA
ENDROOT
BRANCH   1   5
HETATM    5  C2  UNL     1      29.347  45.564   7.999  1.00  0.00     0.189 A 
HETATM    6  C6  UNL     1      28.472  44.358   7.690  1.00  0.00     0.188 A 
HETATM    7 CL1  UNL     1      28.947  42.750   8.243  1.00  0.00    -0.095 Cl
HETATM    8 CL2  UNL     1      27.645  44.329   6.104  1.00  0.00    -0.095 Cl
HETATM    9  C7  UNL     1      28.047  45.383   8.692  1.00  0.00     0.188 A 
HETATM   10 CL3  UNL     1      26.659  46.393   8.233  1.00  0.00    -0.095 Cl
HETATM   11 CL4  UNL     1      28.101  44.872  10.386  1.00  0.00    -0.095 Cl
BRANCH   5  12
HETATM   12  C1  UNL     1      30.619  45.360   8.734  1.00  0.00     0.266 C 
HETATM   13  N1  UNL     1      31.028  46.060   9.892  1.00  0.00    -0.060 NA
HETATM   14  O1  UNL     1      31.461  44.481   8.328  1.00  0.00    -0.274 OA
ENDBRANCH   5  12
ENDBRANCH   1   5
BRANCH   3  15
HETATM   15  C4  UNL     1      29.511  48.792   5.847  1.00  0.00     0.169 A 
HETATM   16  N3  UNL     1      29.251  50.106   5.883  1.00  0.00    -0.277 N 
HETATM   17  N4  UNL     1      29.434  50.592   4.691  1.00  0.00    -0.240 N 
ATOM     18  H3  UNL     1      28.959  50.634   6.705  1.00  0.00     0.189 HD
HETATM   19  N5  UNL     1      29.806  49.655   3.856  1.00  0.00    -0.263 N 
ATOM     20  H4  UNL     1      29.304  51.572   4.440  1.00  0.00     0.208 HD
HETATM   21  C5  UNL     1      29.866  48.500   4.550  1.00  0.00     0.190 A 
ATOM     22  H5  UNL     1      30.013  49.776   2.865  1.00  0.00     0.190 HD
BRANCH  21  23
HETATM   23  O3  UNL     1      30.223  47.230   4.061  1.00  0.00    -0.343 OA
ATOM     24  H3  UNL     1      30.517  46.495   4.587  1.00  0.00     0.219 HD
ENDBRANCH  21  23
ENDBRANCH   3  15
TORSDOF 4
ENDMDL
