MODEL 1
REMARK VINA RESULT: -7.143952751      0.000      0.000
REMARK  5 active torsions:
REMARK  status: ('A' for Active; 'I' for Inactive)
REMARK    1  A    between atoms: C3_6  and  C4_7 
REMARK       I    between atoms: C4_7  and  N3_9 
REMARK    2  A    between atoms: N3_9  and  C5_11 
REMARK    3  A    between atoms: C5_11  and  N4_12 
REMARK    4  A    between atoms: C5_11  and  C7_21 
REMARK       I    between atoms: N4_12  and  C6_14 
REMARK       I    between atoms: C6_14  and  N5_16 
REMARK    5  A    between atoms: N5_16  and  N6_18 
ROOT
HETATM    1  C5  UNL     1      24.761  48.460 -17.455  1.00  0.00     0.243 C 
ENDROOT
BRANCH   1   2
HETATM    2  N3  UNL     1      24.031  48.818 -16.261  1.00  0.00    -0.334 N 
HETATM    3  C4  UNL     1      23.539  47.869 -15.342  1.00  0.00     0.247 C 
HETATM    4  O1  UNL     1      23.738  46.650 -15.546  1.00  0.00    -0.271 OA
ATOM      5  H3  UNL     1      23.863  49.807 -16.074  1.00  0.00     0.164 HD
BRANCH   3   6
HETATM    6  C3  UNL     1      22.798  48.290 -14.154  1.00  0.00     0.269 C 
HETATM    7  N2  UNL     1      22.055  47.171 -13.557  1.00  0.00    -0.120 NA
HETATM    8  N1  UNL     1      21.947  47.448 -12.205  1.00  0.00    -0.306 N 
HETATM    9  C2  UNL     1      22.789  48.329 -11.836  1.00  0.00     0.069 C 
ATOM     10  H1  UNL     1      21.275  47.003 -11.581  1.00  0.00     0.182 HD
HETATM   11  C1  UNL     1      23.027  48.926 -10.479  1.00  0.00     0.071 C 
HETATM   12  C8  UNL     1      23.627  48.776 -13.012  1.00  0.00     0.309 C 
HETATM   13  F1  UNL     1      23.676  50.165 -12.932  1.00  0.00    -0.197 F 
HETATM   14  F2  UNL     1      24.886  48.265 -12.937  1.00  0.00    -0.197 F 
ENDBRANCH   3   6
ENDBRANCH   1   2
BRANCH   1  15
HETATM   15  N4  UNL     1      24.168  49.163 -18.563  1.00  0.00    -0.316 N 
HETATM   16  C6  UNL     1      22.810  49.575 -18.588  1.00  0.00     0.336 C 
HETATM   17  O2  UNL     1      22.053  49.333 -17.613  1.00  0.00    -0.246 OA
HETATM   18  N5  UNL     1      22.255  50.267 -19.696  1.00  0.00    -0.258 N 
ATOM     19  H5  UNL     1      22.853  50.473 -20.496  1.00  0.00     0.191 HD
ATOM     20  H4  UNL     1      24.754  49.376 -19.370  1.00  0.00     0.166 HD
BRANCH  18  21
HETATM   21  N6  UNL     1      20.920  50.677 -19.732  1.00  0.00    -0.341 N 
ATOM     22  H62 UNL     1      20.568  51.218 -18.941  1.00  0.00     0.177 HD
ATOM     23  H61 UNL     1      20.299  50.455 -20.510  1.00  0.00     0.177 HD
ENDBRANCH  18  21
ENDBRANCH   1  15
BRANCH   1  24
HETATM   24  C7  UNL     1      26.211  48.852 -17.312  1.00  0.00     0.226 C 
HETATM   25 CL1  UNL     1      27.249  47.388 -17.260  1.00  0.00    -0.080 Cl
HETATM   26 CL2  UNL     1      26.763  49.847 -18.673  1.00  0.00    -0.080 Cl
HETATM   27 CL3  UNL     1      26.504  49.697 -15.772  1.00  0.00    -0.080 Cl
ENDBRANCH   1  24
TORSDOF 5
ENDMDL
MODEL 2
REMARK VINA RESULT: -7.027998741      1.513      1.597
REMARK  5 active torsions:
REMARK  status: ('A' for Active; 'I' for Inactive)
REMARK    1  A    between atoms: C3_6  and  C4_7 
REMARK       I    between atoms: C4_7  and  N3_9 
REMARK    2  A    between atoms: N3_9  and  C5_11 
REMARK    3  A    between atoms: C5_11  and  N4_12 
REMARK    4  A    between atoms: C5_11  and  C7_21 
REMARK       I    between atoms: N4_12  and  C6_14 
REMARK       I    between atoms: C6_14  and  N5_16 
REMARK    5  A    between atoms: N5_16  and  N6_18 
ROOT
HETATM    1  C5  UNL     1      24.829  48.337 -17.011  1.00  0.00     0.243 C 
ENDROOT
BRANCH   1   2
HETATM    2  N3  UNL     1      24.587  47.966 -15.636  1.00  0.00    -0.334 N 
HETATM    3  C4  UNL     1      23.518  47.139 -15.235  1.00  0.00     0.247 C 
HETATM    4  O1  UNL     1      22.730  46.686 -16.096  1.00  0.00    -0.271 OA
ATOM      5  H3  UNL     1      25.222  48.319 -14.920  1.00  0.00     0.164 HD
BRANCH   3   6
HETATM    6  C3  UNL     1      23.318  46.803 -13.826  1.00  0.00     0.269 C 
HETATM    7  N2  UNL     1      24.558  46.958 -13.053  1.00  0.00    -0.120 NA
HETATM    8  N1  UNL     1      24.177  47.257 -11.756  1.00  0.00    -0.306 N 
HETATM    9  C2  UNL     1      22.970  47.659 -11.700  1.00  0.00     0.069 C 
ATOM     10  H1  UNL     1      24.787  47.166 -10.944  1.00  0.00     0.182 HD
HETATM   11  C1  UNL     1      22.151  48.086 -10.517  1.00  0.00     0.071 C 
HETATM   12  C8  UNL     1      22.360  47.672 -13.083  1.00  0.00     0.309 C 
HETATM   13  F1  UNL     1      21.101  47.094 -12.943  1.00  0.00    -0.197 F 
HETATM   14  F2  UNL     1      22.233  48.944 -13.549  1.00  0.00    -0.197 F 
ENDBRANCH   3   6
ENDBRANCH   1   2
BRANCH   1  15
HETATM   15  N4  UNL     1      23.926  49.408 -17.344  1.00  0.00    -0.316 N 
HETATM   16  C6  UNL     1      22.900  49.288 -18.318  1.00  0.00     0.336 C 
HETATM   17  O2  UNL     1      22.738  48.209 -18.943  1.00  0.00    -0.246 OA
HETATM   18  N5  UNL     1      22.025  50.363 -18.624  1.00  0.00    -0.258 N 
ATOM     19  H5  UNL     1      22.140  51.246 -18.127  1.00  0.00     0.191 HD
ATOM     20  H4  UNL     1      24.029  50.298 -16.856  1.00  0.00     0.166 HD
BRANCH  18  21
HETATM   21  N6  UNL     1      21.012  50.256 -19.580  1.00  0.00    -0.341 N 
ATOM     22  H62 UNL     1      21.251  49.843 -20.481  1.00  0.00     0.177 HD
ATOM     23  H61 UNL     1      20.059  50.574 -19.405  1.00  0.00     0.177 HD
ENDBRANCH  18  21
ENDBRANCH   1  15
BRANCH   1  24
HETATM   24  C7  UNL     1      26.256  48.794 -17.180  1.00  0.00     0.226 C 
HETATM   25 CL1  UNL     1      27.365  47.382 -17.204  1.00  0.00    -0.080 Cl
HETATM   26 CL2  UNL     1      26.490  49.678 -18.700  1.00  0.00    -0.080 Cl
HETATM   27 CL3  UNL     1      26.785  49.790 -15.802  1.00  0.00    -0.080 Cl
ENDBRANCH   1  24
TORSDOF 5
ENDMDL
MODEL 3
REMARK VINA RESULT: -6.969776239      0.231      1.121
REMARK  5 active torsions:
REMARK  status: ('A' for Active; 'I' for Inactive)
REMARK    1  A    between atoms: C3_6  and  C4_7 
REMARK       I    between atoms: C4_7  and  N3_9 
REMARK    2  A    between atoms: N3_9  and  C5_11 
REMARK    3  A    between atoms: C5_11  and  N4_12 
REMARK    4  A    between atoms: C5_11  and  C7_21 
REMARK       I    between atoms: N4_12  and  C6_14 
REMARK       I    between atoms: C6_14  and  N5_16 
REMARK    5  A    between atoms: N5_16  and  N6_18 
ROOT
HETATM    1  C5  UNL     1      24.710  48.264 -17.331  1.00  0.00     0.243 C 
ENDROOT
BRANCH   1   2
HETATM    2  N3  UNL     1      23.945  48.641 -16.165  1.00  0.00    -0.334 N 
HETATM    3  C4  UNL     1      23.436  47.707 -15.240  1.00  0.00     0.247 C 
HETATM    4  O1  UNL     1      23.650  46.486 -15.412  1.00  0.00    -0.271 OA
ATOM      5  H3  UNL     1      23.765  49.632 -16.003  1.00  0.00     0.164 HD
BRANCH   3   6
HETATM    6  C3  UNL     1      22.660  48.147 -14.081  1.00  0.00     0.269 C 
HETATM    7  N2  UNL     1      21.879  47.043 -13.505  1.00  0.00    -0.120 NA
HETATM    8  N1  UNL     1      21.727  47.331 -12.159  1.00  0.00    -0.306 N 
HETATM    9  C2  UNL     1      22.569  48.201 -11.765  1.00  0.00     0.069 C 
ATOM     10  H1  UNL     1      21.026  46.899 -11.557  1.00  0.00     0.182 HD
HETATM   11  C1  UNL     1      22.767  48.803 -10.404  1.00  0.00     0.071 C 
HETATM   12  C8  UNL     1      23.455  48.627 -12.913  1.00  0.00     0.309 C 
HETATM   13  F1  UNL     1      23.522  50.016 -12.840  1.00  0.00    -0.197 F 
HETATM   14  F2  UNL     1      24.702  48.098 -12.790  1.00  0.00    -0.197 F 
ENDBRANCH   3   6
ENDBRANCH   1   2
BRANCH   1  15
HETATM   15  N4  UNL     1      24.094  48.874 -18.480  1.00  0.00    -0.316 N 
HETATM   16  C6  UNL     1      22.780  49.411 -18.467  1.00  0.00     0.336 C 
HETATM   17  O2  UNL     1      22.086  49.372 -17.419  1.00  0.00    -0.246 OA
HETATM   18  N5  UNL     1      22.200  50.007 -19.618  1.00  0.00    -0.258 N 
ATOM     19  H5  UNL     1      22.748  50.049 -20.477  1.00  0.00     0.191 HD
ATOM     20  H4  UNL     1      24.628  48.923 -19.347  1.00  0.00     0.166 HD
BRANCH  18  21
HETATM   21  N6  UNL     1      20.908  50.539 -19.616  1.00  0.00    -0.341 N 
ATOM     22  H62 UNL     1      20.162  49.973 -19.211  1.00  0.00     0.177 HD
ATOM     23  H61 UNL     1      20.695  51.458 -20.002  1.00  0.00     0.177 HD
ENDBRANCH  18  21
ENDBRANCH   1  15
BRANCH   1  24
HETATM   24  C7  UNL     1      26.134  48.744 -17.193  1.00  0.00     0.226 C 
HETATM   25 CL1  UNL     1      26.563  49.822 -18.563  1.00  0.00    -0.080 Cl
HETATM   26 CL2  UNL     1      26.378  49.664 -15.697  1.00  0.00    -0.080 Cl
HETATM   27 CL3  UNL     1      27.285  47.388 -17.277  1.00  0.00    -0.080 Cl
ENDBRANCH   1  24
TORSDOF 5
ENDMDL
MODEL 4
REMARK VINA RESULT: -6.670849595      3.760      5.972
REMARK  5 active torsions:
REMARK  status: ('A' for Active; 'I' for Inactive)
REMARK    1  A    between atoms: C3_6  and  C4_7 
REMARK       I    between atoms: C4_7  and  N3_9 
REMARK    2  A    between atoms: N3_9  and  C5_11 
REMARK    3  A    between atoms: C5_11  and  N4_12 
REMARK    4  A    between atoms: C5_11  and  C7_21 
REMARK       I    between atoms: N4_12  and  C6_14 
REMARK       I    between atoms: C6_14  and  N5_16 
REMARK    5  A    between atoms: N5_16  and  N6_18 
ROOT
HETATM    1  C5  UNL     1      23.510  48.178 -16.729  1.00  0.00     0.243 C 
ENDROOT
BRANCH   1   2
HETATM    2  N3  UNL     1      22.630  49.235 -17.168  1.00  0.00    -0.334 N 
HETATM    3  C4  UNL     1      21.967  49.223 -18.412  1.00  0.00     0.247 C 
HETATM    4  O1  UNL     1      22.130  48.256 -19.190  1.00  0.00    -0.271 OA
ATOM      5  H3  UNL     1      22.480  50.031 -16.546  1.00  0.00     0.164 HD
BRANCH   3   6
HETATM    6  C3  UNL     1      21.094  50.327 -18.807  1.00  0.00     0.269 C 
HETATM    7  N2  UNL     1      20.845  51.245 -17.687  1.00  0.00    -0.120 NA
HETATM    8  N1  UNL     1      20.605  52.490 -18.246  1.00  0.00    -0.306 N 
HETATM    9  C2  UNL     1      21.017  52.553 -19.449  1.00  0.00     0.069 C 
ATOM     10  H1  UNL     1      20.152  53.260 -17.755  1.00  0.00     0.182 HD
HETATM   11  C1  UNL     1      20.965  53.692 -20.426  1.00  0.00     0.071 C 
HETATM   12  C8  UNL     1      21.633  51.236 -19.860  1.00  0.00     0.309 C 
HETATM   13  F1  UNL     1      21.122  50.961 -21.126  1.00  0.00    -0.197 F 
HETATM   14  F2  UNL     1      22.989  51.329 -19.921  1.00  0.00    -0.197 F 
ENDBRANCH   3   6
ENDBRANCH   1   2
BRANCH   1  15
HETATM   15  N4  UNL     1      24.863  48.661 -16.827  1.00  0.00    -0.316 N 
HETATM   16  C6  UNL     1      25.469  49.038 -18.054  1.00  0.00     0.336 C 
HETATM   17  O2  UNL     1      24.825  48.962 -19.132  1.00  0.00    -0.246 OA
HETATM   18  N5  UNL     1      26.806  49.511 -18.118  1.00  0.00    -0.258 N 
ATOM     19  H5  UNL     1      27.344  49.579 -17.254  1.00  0.00     0.191 HD
ATOM     20  H4  UNL     1      25.414  48.735 -15.972  1.00  0.00     0.166 HD
BRANCH  18  21
HETATM   21  N6  UNL     1      27.412  49.885 -19.320  1.00  0.00    -0.341 N 
ATOM     22  H62 UNL     1      27.608  50.876 -19.464  1.00  0.00     0.177 HD
ATOM     23  H61 UNL     1      27.659  49.209 -20.042  1.00  0.00     0.177 HD
ENDBRANCH  18  21
ENDBRANCH   1  15
BRANCH   1  24
HETATM   24  C7  UNL     1      23.199  47.804 -15.301  1.00  0.00     0.226 C 
HETATM   25 CL1  UNL     1      24.696  47.821 -14.311  1.00  0.00    -0.080 Cl
HETATM   26 CL2  UNL     1      22.057  48.939 -14.556  1.00  0.00    -0.080 Cl
HETATM   27 CL3  UNL     1      22.574  46.140 -15.189  1.00  0.00    -0.080 Cl
ENDBRANCH   1  24
TORSDOF 5
ENDMDL
MODEL 5
REMARK VINA RESULT: -6.316986690      1.239      1.302
REMARK  5 active torsions:
REMARK  status: ('A' for Active; 'I' for Inactive)
REMARK    1  A    between atoms: C3_6  and  C4_7 
REMARK       I    between atoms: C4_7  and  N3_9 
REMARK    2  A    between atoms: N3_9  and  C5_11 
REMARK    3  A    between atoms: C5_11  and  N4_12 
REMARK    4  A    between atoms: C5_11  and  C7_21 
REMARK       I    between atoms: N4_12  and  C6_14 
REMARK       I    between atoms: C6_14  and  N5_16 
REMARK    5  A    between atoms: N5_16  and  N6_18 
ROOT
HETATM    1  C5  UNL     1      24.845  48.521 -17.278  1.00  0.00     0.243 C 
ENDROOT
BRANCH   1   2
HETATM    2  N3  UNL     1      24.312  49.056 -16.047  1.00  0.00    -0.334 N 
HETATM    3  C4  UNL     1      24.431  48.402 -14.804  1.00  0.00     0.247 C 
HETATM    4  O1  UNL     1      25.030  47.305 -14.738  1.00  0.00    -0.271 OA
ATOM      5  H3  UNL     1      23.825  49.952 -16.078  1.00  0.00     0.164 HD
BRANCH   3   6
HETATM    6  C3  UNL     1      23.864  48.988 -13.591  1.00  0.00     0.269 C 
HETATM    7  N2  UNL     1      22.608  49.699 -13.871  1.00  0.00    -0.120 NA
HETATM    8  N1  UNL     1      21.858  49.643 -12.709  1.00  0.00    -0.306 N 
HETATM    9  C2  UNL     1      22.275  48.733 -11.922  1.00  0.00     0.069 C 
ATOM     10  H1  UNL     1      21.068  50.256 -12.508  1.00  0.00     0.182 HD
HETATM   11  C1  UNL     1      21.769  48.323 -10.569  1.00  0.00     0.071 C 
HETATM   12  C8  UNL     1      23.459  48.019 -12.531  1.00  0.00     0.309 C 
HETATM   13  F1  UNL     1      24.399  47.911 -11.509  1.00  0.00    -0.197 F 
HETATM   14  F2  UNL     1      23.110  46.779 -12.967  1.00  0.00    -0.197 F 
ENDBRANCH   3   6
ENDBRANCH   1   2
BRANCH   1  15
HETATM   15  N4  UNL     1      24.107  49.104 -18.369  1.00  0.00    -0.316 N 
HETATM   16  C6  UNL     1      22.739  49.467 -18.278  1.00  0.00     0.336 C 
HETATM   17  O2  UNL     1      22.101  49.288 -17.209  1.00  0.00    -0.246 OA
HETATM   18  N5  UNL     1      22.039  50.040 -19.373  1.00  0.00    -0.258 N 
ATOM     19  H5  UNL     1      22.539  50.194 -20.248  1.00  0.00     0.191 HD
ATOM     20  H4  UNL     1      24.593  49.263 -19.251  1.00  0.00     0.166 HD
BRANCH  18  21
HETATM   21  N6  UNL     1      20.692  50.402 -19.295  1.00  0.00    -0.341 N 
ATOM     22  H62 UNL     1      20.091  50.170 -20.086  1.00  0.00     0.177 HD
ATOM     23  H61 UNL     1      20.300  50.883 -18.485  1.00  0.00     0.177 HD
ENDBRANCH  18  21
ENDBRANCH   1  15
BRANCH   1  24
HETATM   24  C7  UNL     1      26.308  48.866 -17.402  1.00  0.00     0.226 C 
HETATM   25 CL1  UNL     1      27.309  47.378 -17.317  1.00  0.00    -0.080 Cl
HETATM   26 CL2  UNL     1      26.670  49.662 -18.946  1.00  0.00    -0.080 Cl
HETATM   27 CL3  UNL     1      26.851  49.882 -16.044  1.00  0.00    -0.080 Cl
ENDBRANCH   1  24
TORSDOF 5
ENDMDL
