MODEL 1
REMARK VINA RESULT: -7.712517865      0.000      0.000
REMARK  11 active torsions:
REMARK  status: ('A' for Active; 'I' for Inactive)
REMARK       I    between atoms: C1_2  and  N4_20 
REMARK       I    between atoms: N2_3  and  C2_5 
REMARK    1  A    between atoms: C2_5  and  C3_7 
REMARK    2  A    between atoms: C3_7  and  C4_8 
REMARK    3  A    between atoms: C4_8  and  C5_9 
REMARK    4  A    between atoms: C5_9  and  C6_10 
REMARK    5  A    between atoms: C6_10  and  C7_11 
REMARK    6  A    between atoms: C7_11  and  N3_12 
REMARK       I    between atoms: N3_12  and  C8_14 
REMARK    7  A    between atoms: C8_14  and  C9_16 
REMARK    8  A    between atoms: N4_20  and  C11_22 
REMARK    9  A    between atoms: C11_22  and  C12_23 
REMARK   10  A    between atoms: C12_23  and  C13_24 
REMARK   11  A    between atoms: C13_24  and  N5_25 
ROOT
HETATM    1  N1  UNL     1      -0.610  14.496 -44.809  1.00  0.00    -0.063 NA
HETATM    2  C1  UNL     1      -0.002  14.420 -43.530  1.00  0.00     0.190 C 
HETATM    3  N2  UNL     1       1.049  15.133 -43.237  1.00  0.00    -0.301 N 
ATOM      4  H2  UNL     1       1.451  15.762 -43.931  1.00  0.00     0.171 HD
HETATM    5  C2  UNL     1       1.629  15.029 -41.947  1.00  0.00     0.224 C 
HETATM    6  O1  UNL     1       2.101  13.937 -41.539  1.00  0.00    -0.273 OA
HETATM    7  N4  UNL     1      -0.535  13.559 -42.553  1.00  0.00    -0.364 N 
ATOM      8  H4  UNL     1      -0.236  12.584 -42.553  1.00  0.00     0.162 HD
ENDROOT
BRANCH   5   9
HETATM    9  C3  UNL     1       1.676  16.208 -41.076  1.00  0.00     0.103 C 
BRANCH   9  10
HETATM   10  C4  UNL     1       2.975  16.262 -40.341  1.00  0.00     0.009 C 
BRANCH  10  11
HETATM   11  C5  UNL     1       3.382  17.652 -39.939  1.00  0.00     0.002 C 
BRANCH  11  12
HETATM   12  C6  UNL     1       4.842  17.636 -39.511  1.00  0.00     0.020 C 
BRANCH  12  13
HETATM   13  C7  UNL     1       5.455  16.287 -39.780  1.00  0.00     0.123 C 
BRANCH  13  14
HETATM   14  N3  UNL     1       6.091  15.788 -38.608  1.00  0.00    -0.358 N 
HETATM   15  C8  UNL     1       5.789  14.515 -38.062  1.00  0.00     0.243 C 
HETATM   16  O2  UNL     1       4.940  13.744 -38.561  1.00  0.00    -0.269 OA
ATOM     17  H3  UNL     1       6.790  16.368 -38.144  1.00  0.00     0.162 HD
BRANCH  15  18
HETATM   18  C9  UNL     1       6.502  14.072 -36.849  1.00  0.00     0.110 C 
HETATM   19  C10 UNL     1       7.677  13.523 -36.938  1.00  0.00     0.108 C 
HETATM   20 CL1  UNL     1       8.460  13.283 -38.463  1.00  0.00    -0.071 Cl
HETATM   21 CL2  UNL     1       8.495  13.010 -35.480  1.00  0.00    -0.071 Cl
ENDBRANCH  15  18
ENDBRANCH  13  14
ENDBRANCH  12  13
ENDBRANCH  11  12
ENDBRANCH  10  11
ENDBRANCH   9  10
ENDBRANCH   5   9
BRANCH   7  22
HETATM   22  C11 UNL     1      -1.473  13.979 -41.561  1.00  0.00     0.124 C 
BRANCH  22  23
HETATM   23  C12 UNL     1      -1.260  13.209 -40.292  1.00  0.00     0.039 C 
BRANCH  23  24
HETATM   24  C13 UNL     1      -0.814  14.081 -39.161  1.00  0.00     0.127 C 
BRANCH  24  25
HETATM   25  N5  UNL     1      -1.904  14.444 -38.279  1.00  0.00    -0.352 N 
HETATM   26  C14 UNL     1      -2.940  15.411 -38.603  1.00  0.00     0.126 C 
HETATM   27  C15 UNL     1      -3.544  15.743 -37.258  1.00  0.00     0.029 C 
HETATM   28  C16 UNL     1      -3.465  14.392 -36.556  1.00  0.00     0.104 C 
HETATM   29  C17 UNL     1      -2.125  13.914 -36.977  1.00  0.00     0.219 C 
HETATM   30  O3  UNL     1      -1.378  13.186 -36.274  1.00  0.00    -0.273 OA
ENDBRANCH  24  25
ENDBRANCH  23  24
ENDBRANCH  22  23
ENDBRANCH   7  22
TORSDOF 11
ENDMDL
MODEL 2
REMARK VINA RESULT: -7.544021149      4.790      8.537
REMARK  11 active torsions:
REMARK  status: ('A' for Active; 'I' for Inactive)
REMARK       I    between atoms: C1_2  and  N4_20 
REMARK       I    between atoms: N2_3  and  C2_5 
REMARK    1  A    between atoms: C2_5  and  C3_7 
REMARK    2  A    between atoms: C3_7  and  C4_8 
REMARK    3  A    between atoms: C4_8  and  C5_9 
REMARK    4  A    between atoms: C5_9  and  C6_10 
REMARK    5  A    between atoms: C6_10  and  C7_11 
REMARK    6  A    between atoms: C7_11  and  N3_12 
REMARK       I    between atoms: N3_12  and  C8_14 
REMARK    7  A    between atoms: C8_14  and  C9_16 
REMARK    8  A    between atoms: N4_20  and  C11_22 
REMARK    9  A    between atoms: C11_22  and  C12_23 
REMARK   10  A    between atoms: C12_23  and  C13_24 
REMARK   11  A    between atoms: C13_24  and  N5_25 
ROOT
HETATM    1  N1  UNL     1       2.659  12.512 -41.533  1.00  0.00    -0.063 NA
HETATM    2  C1  UNL     1       1.404  13.122 -41.788  1.00  0.00     0.190 C 
HETATM    3  N2  UNL     1       0.316  12.700 -41.209  1.00  0.00    -0.301 N 
ATOM      4  H2  UNL     1       0.353  11.916 -40.558  1.00  0.00     0.171 HD
HETATM    5  C2  UNL     1      -0.920  13.335 -41.491  1.00  0.00     0.224 C 
HETATM    6  O1  UNL     1      -1.392  13.339 -42.656  1.00  0.00    -0.273 OA
HETATM    7  N4  UNL     1       1.323  14.205 -42.684  1.00  0.00    -0.364 N 
ATOM      8  H4  UNL     1       1.223  14.002 -43.678  1.00  0.00     0.162 HD
ENDROOT
BRANCH   5   9
HETATM    9  C3  UNL     1      -1.657  13.999 -40.410  1.00  0.00     0.103 C 
BRANCH   9  10
HETATM   10  C4  UNL     1      -1.711  13.124 -39.202  1.00  0.00     0.009 C 
BRANCH  10  11
HETATM   11  C5  UNL     1      -1.477  13.861 -37.913  1.00  0.00     0.002 C 
BRANCH  11  12
HETATM   12  C6  UNL     1      -2.787  13.942 -37.144  1.00  0.00     0.020 C 
BRANCH  12  13
HETATM   13  C7  UNL     1      -3.388  15.317 -37.272  1.00  0.00     0.123 C 
BRANCH  13  14
HETATM   14  N3  UNL     1      -4.646  15.250 -37.936  1.00  0.00    -0.358 N 
HETATM   15  C8  UNL     1      -4.826  15.694 -39.270  1.00  0.00     0.243 C 
HETATM   16  O2  UNL     1      -3.902  16.183 -39.956  1.00  0.00    -0.269 OA
ATOM     17  H3  UNL     1      -5.447  14.868 -37.434  1.00  0.00     0.162 HD
BRANCH  15  18
HETATM   18  C9  UNL     1      -6.162  15.581 -39.885  1.00  0.00     0.110 C 
HETATM   19  C10 UNL     1      -6.371  14.746 -40.859  1.00  0.00     0.108 C 
HETATM   20 CL1  UNL     1      -5.111  13.734 -41.481  1.00  0.00    -0.071 Cl
HETATM   21 CL2  UNL     1      -7.966  14.636 -41.566  1.00  0.00    -0.071 Cl
ENDBRANCH  15  18
ENDBRANCH  13  14
ENDBRANCH  12  13
ENDBRANCH  11  12
ENDBRANCH  10  11
ENDBRANCH   9  10
ENDBRANCH   5   9
BRANCH   7  22
HETATM   22  C11 UNL     1       1.372  15.572 -42.273  1.00  0.00     0.124 C 
BRANCH  22  23
HETATM   23  C12 UNL     1       1.620  15.657 -40.796  1.00  0.00     0.039 C 
BRANCH  23  24
HETATM   24  C13 UNL     1       2.637  16.698 -40.447  1.00  0.00     0.127 C 
BRANCH  24  25
HETATM   25  N5  UNL     1       3.732  16.160 -39.664  1.00  0.00    -0.352 N 
HETATM   26  C14 UNL     1       3.755  14.826 -39.087  1.00  0.00     0.126 C 
HETATM   27  C15 UNL     1       4.852  14.911 -38.051  1.00  0.00     0.029 C 
HETATM   28  C16 UNL     1       5.843  15.840 -38.743  1.00  0.00     0.104 C 
HETATM   29  C17 UNL     1       4.935  16.848 -39.347  1.00  0.00     0.219 C 
HETATM   30  O3  UNL     1       5.233  18.058 -39.516  1.00  0.00    -0.273 OA
ENDBRANCH  24  25
ENDBRANCH  23  24
ENDBRANCH  22  23
ENDBRANCH   7  22
TORSDOF 11
ENDMDL
MODEL 3
REMARK VINA RESULT: -7.519417846      3.789      8.483
REMARK  11 active torsions:
REMARK  status: ('A' for Active; 'I' for Inactive)
REMARK       I    between atoms: C1_2  and  N4_20 
REMARK       I    between atoms: N2_3  and  C2_5 
REMARK    1  A    between atoms: C2_5  and  C3_7 
REMARK    2  A    between atoms: C3_7  and  C4_8 
REMARK    3  A    between atoms: C4_8  and  C5_9 
REMARK    4  A    between atoms: C5_9  and  C6_10 
REMARK    5  A    between atoms: C6_10  and  C7_11 
REMARK    6  A    between atoms: C7_11  and  N3_12 
REMARK       I    between atoms: N3_12  and  C8_14 
REMARK    7  A    between atoms: C8_14  and  C9_16 
REMARK    8  A    between atoms: N4_20  and  C11_22 
REMARK    9  A    between atoms: C11_22  and  C12_23 
REMARK   10  A    between atoms: C12_23  and  C13_24 
REMARK   11  A    between atoms: C13_24  and  N5_25 
ROOT
HETATM    1  N1  UNL     1       6.388  14.400 -40.702  1.00  0.00    -0.063 NA
HETATM    2  C1  UNL     1       5.675  15.431 -40.037  1.00  0.00     0.190 C 
HETATM    3  N2  UNL     1       4.860  16.215 -40.684  1.00  0.00    -0.301 N 
ATOM      4  H2  UNL     1       4.722  16.096 -41.687  1.00  0.00     0.171 HD
HETATM    5  C2  UNL     1       4.166  17.235 -39.984  1.00  0.00     0.224 C 
HETATM    6  O1  UNL     1       4.792  18.158 -39.403  1.00  0.00    -0.273 OA
HETATM    7  N4  UNL     1       5.848  15.619 -38.654  1.00  0.00    -0.364 N 
ATOM      8  H4  UNL     1       6.625  16.200 -38.338  1.00  0.00     0.162 HD
ENDROOT
BRANCH   5   9
HETATM    9  C3  UNL     1       2.701  17.213 -39.935  1.00  0.00     0.103 C 
BRANCH   9  10
HETATM   10  C4  UNL     1       2.156  16.337 -41.015  1.00  0.00     0.009 C 
BRANCH  10  11
HETATM   11  C5  UNL     1       1.379  15.158 -40.500  1.00  0.00     0.002 C 
BRANCH  11  12
HETATM   12  C6  UNL     1       1.045  14.238 -41.664  1.00  0.00     0.020 C 
BRANCH  12  13
HETATM   13  C7  UNL     1      -0.273  13.547 -41.427  1.00  0.00     0.123 C 
BRANCH  13  14
HETATM   14  N3  UNL     1      -0.424  13.224 -40.049  1.00  0.00    -0.358 N 
HETATM   15  C8  UNL     1      -1.632  12.706 -39.518  1.00  0.00     0.243 C 
HETATM   16  O2  UNL     1      -2.651  12.503 -40.214  1.00  0.00    -0.269 OA
ATOM     17  H3  UNL     1       0.365  13.371 -39.421  1.00  0.00     0.162 HD
BRANCH  15  18
HETATM   18  C9  UNL     1      -1.700  12.390 -38.079  1.00  0.00     0.110 C 
HETATM   19  C10 UNL     1      -2.142  13.270 -37.231  1.00  0.00     0.108 C 
HETATM   20 CL1  UNL     1      -2.669  14.840 -37.734  1.00  0.00    -0.071 Cl
HETATM   21 CL2  UNL     1      -2.209  12.863 -35.531  1.00  0.00    -0.071 Cl
ENDBRANCH  15  18
ENDBRANCH  13  14
ENDBRANCH  12  13
ENDBRANCH  11  12
ENDBRANCH  10  11
ENDBRANCH   9  10
ENDBRANCH   5   9
BRANCH   7  22
HETATM   22  C11 UNL     1       4.993  15.039 -37.668  1.00  0.00     0.124 C 
BRANCH  22  23
HETATM   23  C12 UNL     1       5.802  14.246 -36.686  1.00  0.00     0.039 C 
BRANCH  23  24
HETATM   24  C13 UNL     1       6.419  13.031 -37.304  1.00  0.00     0.127 C 
BRANCH  24  25
HETATM   25  N5  UNL     1       7.839  12.931 -37.029  1.00  0.00    -0.352 N 
HETATM   26  C14 UNL     1       8.437  11.958 -36.130  1.00  0.00     0.126 C 
HETATM   27  C15 UNL     1       9.811  12.529 -35.859  1.00  0.00     0.029 C 
HETATM   28  C16 UNL     1      10.147  13.146 -37.212  1.00  0.00     0.104 C 
HETATM   29  C17 UNL     1       8.849  13.759 -37.592  1.00  0.00     0.219 C 
HETATM   30  O3  UNL     1       8.733  14.806 -38.278  1.00  0.00    -0.273 OA
ENDBRANCH  24  25
ENDBRANCH  23  24
ENDBRANCH  22  23
ENDBRANCH   7  22
TORSDOF 11
ENDMDL
MODEL 4
REMARK VINA RESULT: -7.490037203      5.274      8.907
REMARK  11 active torsions:
REMARK  status: ('A' for Active; 'I' for Inactive)
REMARK       I    between atoms: C1_2  and  N4_20 
REMARK       I    between atoms: N2_3  and  C2_5 
REMARK    1  A    between atoms: C2_5  and  C3_7 
REMARK    2  A    between atoms: C3_7  and  C4_8 
REMARK    3  A    between atoms: C4_8  and  C5_9 
REMARK    4  A    between atoms: C5_9  and  C6_10 
REMARK    5  A    between atoms: C6_10  and  C7_11 
REMARK    6  A    between atoms: C7_11  and  N3_12 
REMARK       I    between atoms: N3_12  and  C8_14 
REMARK    7  A    between atoms: C8_14  and  C9_16 
REMARK    8  A    between atoms: N4_20  and  C11_22 
REMARK    9  A    between atoms: C11_22  and  C12_23 
REMARK   10  A    between atoms: C12_23  and  C13_24 
REMARK   11  A    between atoms: C13_24  and  N5_25 
ROOT
HETATM    1  N1  UNL     1       0.766  10.864 -41.809  1.00  0.00    -0.063 NA
HETATM    2  C1  UNL     1      -0.203  11.638 -41.119  1.00  0.00     0.190 C 
HETATM    3  N2  UNL     1      -0.867  11.148 -40.111  1.00  0.00    -0.301 N 
ATOM      4  H2  UNL     1      -0.698  10.191 -39.802  1.00  0.00     0.171 HD
HETATM    5  C2  UNL     1      -1.828  11.953 -39.447  1.00  0.00     0.224 C 
HETATM    6  O1  UNL     1      -2.835  12.391 -40.060  1.00  0.00    -0.273 OA
HETATM    7  N4  UNL     1      -0.458  12.960 -41.526  1.00  0.00    -0.364 N 
ATOM      8  H4  UNL     1      -1.133  13.114 -42.275  1.00  0.00     0.162 HD
ENDROOT
BRANCH   5   9
HETATM    9  C3  UNL     1      -1.644  12.281 -38.030  1.00  0.00     0.103 C 
BRANCH   9  10
HETATM   10  C4  UNL     1      -1.851  13.742 -37.801  1.00  0.00     0.009 C 
BRANCH  10  11
HETATM   11  C5  UNL     1      -2.716  14.048 -36.611  1.00  0.00     0.002 C 
BRANCH  11  12
HETATM   12  C6  UNL     1      -3.454  15.355 -36.858  1.00  0.00     0.020 C 
BRANCH  12  13
HETATM   13  C7  UNL     1      -3.499  15.664 -38.332  1.00  0.00     0.123 C 
BRANCH  13  14
HETATM   14  N3  UNL     1      -4.809  15.448 -38.846  1.00  0.00    -0.358 N 
HETATM   15  C8  UNL     1      -5.061  15.256 -40.228  1.00  0.00     0.243 C 
HETATM   16  O2  UNL     1      -4.159  15.271 -41.094  1.00  0.00    -0.269 OA
ATOM     17  H3  UNL     1      -5.594  15.431 -38.196  1.00  0.00     0.162 HD
BRANCH  15  18
HETATM   18  C9  UNL     1      -6.449  15.031 -40.674  1.00  0.00     0.110 C 
HETATM   19  C10 UNL     1      -7.071  15.932 -41.375  1.00  0.00     0.108 C 
HETATM   20 CL1  UNL     1      -6.317  17.426 -41.818  1.00  0.00    -0.071 Cl
HETATM   21 CL2  UNL     1      -8.715  15.633 -41.888  1.00  0.00    -0.071 Cl
ENDBRANCH  15  18
ENDBRANCH  13  14
ENDBRANCH  12  13
ENDBRANCH  11  12
ENDBRANCH  10  11
ENDBRANCH   9  10
ENDBRANCH   5   9
BRANCH   7  22
HETATM   22  C11 UNL     1       0.178  14.099 -40.944  1.00  0.00     0.124 C 
BRANCH  22  23
HETATM   23  C12 UNL     1       1.495  14.352 -41.615  1.00  0.00     0.039 C 
BRANCH  23  24
HETATM   24  C13 UNL     1       2.016  15.730 -41.350  1.00  0.00     0.127 C 
BRANCH  24  25
HETATM   25  N5  UNL     1       3.115  15.732 -40.405  1.00  0.00    -0.352 N 
HETATM   26  C14 UNL     1       3.708  14.537 -39.827  1.00  0.00     0.126 C 
HETATM   27  C15 UNL     1       4.468  15.065 -38.632  1.00  0.00     0.029 C 
HETATM   28  C16 UNL     1       4.963  16.406 -39.164  1.00  0.00     0.104 C 
HETATM   29  C17 UNL     1       3.771  16.891 -39.905  1.00  0.00     0.219 C 
HETATM   30  O3  UNL     1       3.458  18.103 -40.030  1.00  0.00    -0.273 OA
ENDBRANCH  24  25
ENDBRANCH  23  24
ENDBRANCH  22  23
ENDBRANCH   7  22
TORSDOF 11
ENDMDL
MODEL 5
REMARK VINA RESULT: -7.403116246      3.727      7.890
REMARK  11 active torsions:
REMARK  status: ('A' for Active; 'I' for Inactive)
REMARK       I    between atoms: C1_2  and  N4_20 
REMARK       I    between atoms: N2_3  and  C2_5 
REMARK    1  A    between atoms: C2_5  and  C3_7 
REMARK    2  A    between atoms: C3_7  and  C4_8 
REMARK    3  A    between atoms: C4_8  and  C5_9 
REMARK    4  A    between atoms: C5_9  and  C6_10 
REMARK    5  A    between atoms: C6_10  and  C7_11 
REMARK    6  A    between atoms: C7_11  and  N3_12 
REMARK       I    between atoms: N3_12  and  C8_14 
REMARK    7  A    between atoms: C8_14  and  C9_16 
REMARK    8  A    between atoms: N4_20  and  C11_22 
REMARK    9  A    between atoms: C11_22  and  C12_23 
REMARK   10  A    between atoms: C12_23  and  C13_24 
REMARK   11  A    between atoms: C13_24  and  N5_25 
ROOT
HETATM    1  N1  UNL     1       3.385  17.956 -40.030  1.00  0.00    -0.063 NA
HETATM    2  C1  UNL     1       2.773  16.691 -40.222  1.00  0.00     0.190 C 
HETATM    3  N2  UNL     1       1.724  16.555 -40.983  1.00  0.00    -0.301 N 
ATOM      4  H2  UNL     1       1.326  17.366 -41.456  1.00  0.00     0.171 HD
HETATM    5  C2  UNL     1       1.140  15.273 -41.150  1.00  0.00     0.224 C 
HETATM    6  O1  UNL     1       0.662  14.651 -40.167  1.00  0.00    -0.273 OA
HETATM    7  N4  UNL     1       3.300  15.555 -39.580  1.00  0.00    -0.364 N 
ATOM      8  H4  UNL     1       2.998  15.355 -38.627  1.00  0.00     0.162 HD
ENDROOT
BRANCH   5   9
HETATM    9  C3  UNL     1       1.094  14.665 -42.483  1.00  0.00     0.103 C 
BRANCH   9  10
HETATM   10  C4  UNL     1      -0.300  14.250 -42.819  1.00  0.00     0.009 C 
BRANCH  10  11
HETATM   11  C5  UNL     1      -0.412  12.818 -43.261  1.00  0.00     0.002 C 
BRANCH  11  12
HETATM   12  C6  UNL     1       0.590  11.979 -42.482  1.00  0.00     0.020 C 
BRANCH  12  13
HETATM   13  C7  UNL     1      -0.124  11.072 -41.514  1.00  0.00     0.123 C 
BRANCH  13  14
HETATM   14  N3  UNL     1      -0.385  11.756 -40.292  1.00  0.00    -0.358 N 
HETATM   15  C8  UNL     1      -1.665  11.757 -39.681  1.00  0.00     0.243 C 
HETATM   16  O2  UNL     1      -2.654  11.168 -40.169  1.00  0.00    -0.269 OA
ATOM     17  H3  UNL     1       0.375  12.263 -39.841  1.00  0.00     0.162 HD
BRANCH  15  18
HETATM   18  C9  UNL     1      -1.846  12.484 -38.411  1.00  0.00     0.110 C 
HETATM   19  C10 UNL     1      -2.286  13.707 -38.409  1.00  0.00     0.108 C 
HETATM   20 CL1  UNL     1      -2.679  14.540 -39.875  1.00  0.00    -0.071 Cl
HETATM   21 CL2  UNL     1      -2.490  14.541 -36.885  1.00  0.00    -0.071 Cl
ENDBRANCH  15  18
ENDBRANCH  13  14
ENDBRANCH  12  13
ENDBRANCH  11  12
ENDBRANCH  10  11
ENDBRANCH   9  10
ENDBRANCH   5   9
BRANCH   7  22
HETATM   22  C11 UNL     1       4.236  14.668 -40.194  1.00  0.00     0.124 C 
BRANCH  22  23
HETATM   23  C12 UNL     1       5.592  15.306 -40.247  1.00  0.00     0.039 C 
BRANCH  23  24
HETATM   24  C13 UNL     1       6.040  15.808 -38.910  1.00  0.00     0.127 C 
BRANCH  24  25
HETATM   25  N5  UNL     1       6.915  14.872 -38.233  1.00  0.00    -0.352 N 
HETATM   26  C14 UNL     1       8.184  14.399 -38.761  1.00  0.00     0.126 C 
HETATM   27  C15 UNL     1       8.473  13.169 -37.932  1.00  0.00     0.029 C 
HETATM   28  C16 UNL     1       7.922  13.591 -36.574  1.00  0.00     0.104 C 
HETATM   29  C17 UNL     1       6.667  14.281 -36.963  1.00  0.00     0.219 C 
HETATM   30  O3  UNL     1       5.623  14.303 -36.261  1.00  0.00    -0.273 OA
ENDBRANCH  24  25
ENDBRANCH  23  24
ENDBRANCH  22  23
ENDBRANCH   7  22
TORSDOF 11
ENDMDL
