MODEL 1
REMARK VINA RESULT: -7.117479556      0.000      0.000
REMARK  8 active torsions:
REMARK  status: ('A' for Active; 'I' for Inactive)
REMARK    1  A    between atoms: C2_2  and  C3_3 
REMARK    2  A    between atoms: N2_6  and  C4_7 
REMARK    3  A    between atoms: C12_17  and  S2_18 
REMARK    4  A    between atoms: S2_18  and  C13_19 
REMARK    5  A    between atoms: C15_21  and  C16_22 
REMARK       I    between atoms: C16_22  and  N3_24 
REMARK    6  A    between atoms: N3_24  and  C17_26 
REMARK    7  A    between atoms: C17_26  and  C18_27 
REMARK    8  A    between atoms: C18_27  and  O3_28 
ROOT
HETATM    1  C3  UNL     1       3.037   2.036   6.354  1.00  0.00     0.039 A 
HETATM    2  N1  UNL     1       3.460   1.955   5.055  1.00  0.00    -0.298 N 
ATOM      3  H1  UNL     1       3.530   2.809   4.501  1.00  0.00     0.187 HD
HETATM    4  N2  UNL     1       3.774   0.824   4.511  1.00  0.00    -0.248 N 
HETATM    5  C8  UNL     1       3.681  -0.300   5.249  1.00  0.00     0.275 A 
HETATM    6  O1  UNL     1       4.003  -1.361   4.662  1.00  0.00    -0.266 OA
HETATM    7  C9  UNL     1       3.250  -0.281   6.590  1.00  0.00     0.060 A 
HETATM    8  C10 UNL     1       3.172  -1.406   7.361  1.00  0.00    -0.003 A 
HETATM    9  C11 UNL     1       3.475  -2.838   7.001  1.00  0.00     0.057 C 
HETATM   10  S1  UNL     1       2.640  -0.842   8.858  1.00  0.00    -0.086 SA
HETATM   11  C12 UNL     1       2.521   0.846   8.472  1.00  0.00     0.055 A 
HETATM   12  C21 UNL     1       2.918   0.891   7.168  1.00  0.00     0.028 A 
ENDROOT
BRANCH  11  13
HETATM   13  S2  UNL     1       1.994   2.132   9.630  1.00  0.00    -0.115 SA
BRANCH  13  14
HETATM   14  C13 UNL     1       3.420   2.601  10.640  1.00  0.00     0.085 C 
HETATM   15  C14 UNL     1       4.651   1.915  10.087  1.00  0.00     0.060 C 
HETATM   16  C15 UNL     1       5.649   3.019   9.840  1.00  0.00     0.278 C 
HETATM   17  N4  UNL     1       4.887   4.223   9.839  1.00  0.00    -0.057 N 
HETATM   18  C19 UNL     1       3.754   4.027  10.712  1.00  0.00     0.197 C 
ATOM     19  H42 UNL     1       5.441   5.042  10.086  1.00  0.00     0.278 HD
ATOM     20  H41 UNL     1       4.618   4.520   8.901  1.00  0.00     0.278 HD
HETATM   21  C20 UNL     1       4.172   4.480  12.109  1.00  0.00     0.041 C 
BRANCH  16  22
HETATM   22  C16 UNL     1       6.822   2.986  10.699  1.00  0.00     0.248 C 
HETATM   23  O2  UNL     1       6.846   2.153  11.665  1.00  0.00    -0.271 OA
HETATM   24  N3  UNL     1       7.959   3.828  10.532  1.00  0.00    -0.357 N 
ATOM     25  H3  UNL     1       7.950   4.499   9.762  1.00  0.00     0.162 HD
BRANCH  24  26
HETATM   26  C17 UNL     1       9.109   3.792  11.375  1.00  0.00     0.148 C 
BRANCH  26  27
HETATM   27  C18 UNL     1      10.229   3.060  10.652  1.00  0.00     0.183 C 
BRANCH  27  28
HETATM   28  O3  UNL     1      11.419   3.809  10.817  1.00  0.00    -0.399 OA
ATOM     29  H3  UNL     1      11.542   4.338  10.038  1.00  0.00     0.209 HD
ENDBRANCH  27  28
ENDBRANCH  26  27
ENDBRANCH  24  26
ENDBRANCH  16  22
ENDBRANCH  13  14
ENDBRANCH  11  13
BRANCH   1  30
HETATM   30  C2  UNL     1       2.827   3.415   6.830  1.00  0.00     0.055 C 
HETATM   31  C1  UNL     1       1.957   4.142   5.781  1.00  0.00     0.011 C 
ENDBRANCH   1  30
BRANCH   4  32
HETATM   32  C4  UNL     1       4.217   0.747   3.120  1.00  0.00     0.046 C 
HETATM   33  C5  UNL     1       3.162   0.143   2.257  1.00  0.00     0.040 C 
HETATM   34  C6  UNL     1       4.534   2.138   2.625  1.00  0.00     0.040 C 
HETATM   35  C7  UNL     1       5.475  -0.097   3.011  1.00  0.00     0.040 C 
ENDBRANCH   4  32
TORSDOF 8
ENDMDL
MODEL 2
REMARK VINA RESULT: -7.030476114      2.328      7.376
REMARK  8 active torsions:
REMARK  status: ('A' for Active; 'I' for Inactive)
REMARK    1  A    between atoms: C2_2  and  C3_3 
REMARK    2  A    between atoms: N2_6  and  C4_7 
REMARK    3  A    between atoms: C12_17  and  S2_18 
REMARK    4  A    between atoms: S2_18  and  C13_19 
REMARK    5  A    between atoms: C15_21  and  C16_22 
REMARK       I    between atoms: C16_22  and  N3_24 
REMARK    6  A    between atoms: N3_24  and  C17_26 
REMARK    7  A    between atoms: C17_26  and  C18_27 
REMARK    8  A    between atoms: C18_27  and  O3_28 
ROOT
HETATM    1  C3  UNL     1       4.792   0.226   8.455  1.00  0.00     0.039 A 
HETATM    2  N1  UNL     1       5.939   0.293   9.197  1.00  0.00    -0.298 N 
ATOM      3  H1  UNL     1       6.647  -0.434   9.087  1.00  0.00     0.187 HD
HETATM    4  N2  UNL     1       6.151   1.254  10.037  1.00  0.00    -0.248 N 
HETATM    5  C8  UNL     1       5.214   2.212  10.178  1.00  0.00     0.275 A 
HETATM    6  O1  UNL     1       5.483   3.116  11.005  1.00  0.00    -0.266 OA
HETATM    7  C9  UNL     1       4.012   2.198   9.443  1.00  0.00     0.060 A 
HETATM    8  C10 UNL     1       3.060   3.171   9.554  1.00  0.00    -0.003 A 
HETATM    9  C11 UNL     1       3.040   4.395  10.434  1.00  0.00     0.057 C 
HETATM   10  S1  UNL     1       1.863   2.702   8.465  1.00  0.00    -0.086 SA
HETATM   11  C12 UNL     1       2.603   1.247   7.876  1.00  0.00     0.055 A 
HETATM   12  C21 UNL     1       3.778   1.200   8.567  1.00  0.00     0.028 A 
ENDROOT
BRANCH  11  13
HETATM   13  S2  UNL     1       1.878   0.155   6.629  1.00  0.00    -0.115 SA
BRANCH  13  14
HETATM   14  C13 UNL     1       2.280   0.820   4.995  1.00  0.00     0.085 C 
HETATM   15  C14 UNL     1       3.781   0.762   4.806  1.00  0.00     0.060 C 
HETATM   16  C15 UNL     1       3.995   0.008   3.517  1.00  0.00     0.278 C 
HETATM   17  N4  UNL     1       2.764  -0.660   3.262  1.00  0.00    -0.057 N 
HETATM   18  C19 UNL     1       1.704   0.138   3.831  1.00  0.00     0.197 C 
ATOM     19  H42 UNL     1       2.620  -0.863   2.273  1.00  0.00     0.278 HD
ATOM     20  H41 UNL     1       2.758  -1.623   3.599  1.00  0.00     0.278 HD
HETATM   21  C20 UNL     1       1.224   1.099   2.745  1.00  0.00     0.041 C 
BRANCH  16  22
HETATM   22  C16 UNL     1       4.549   0.800   2.430  1.00  0.00     0.248 C 
HETATM   23  O2  UNL     1       4.260   0.475   1.230  1.00  0.00    -0.271 OA
HETATM   24  N3  UNL     1       5.399   1.929   2.617  1.00  0.00    -0.357 N 
ATOM     25  H3  UNL     1       5.636   2.198   3.572  1.00  0.00     0.162 HD
BRANCH  24  26
HETATM   26  C17 UNL     1       5.939   2.705   1.548  1.00  0.00     0.148 C 
BRANCH  26  27
HETATM   27  C18 UNL     1       7.398   2.327   1.349  1.00  0.00     0.183 C 
BRANCH  27  28
HETATM   28  O3  UNL     1       7.914   1.905   2.597  1.00  0.00    -0.399 OA
ATOM     29  H3  UNL     1       8.862   1.945   2.551  1.00  0.00     0.209 HD
ENDBRANCH  27  28
ENDBRANCH  26  27
ENDBRANCH  24  26
ENDBRANCH  16  22
ENDBRANCH  13  14
ENDBRANCH  11  13
BRANCH   1  30
HETATM   30  C2  UNL     1       4.774  -0.878   7.479  1.00  0.00     0.055 C 
HETATM   31  C1  UNL     1       4.189  -2.118   8.190  1.00  0.00     0.011 C 
ENDBRANCH   1  30
BRANCH   4  32
HETATM   32  C4  UNL     1       7.377   1.313  10.831  1.00  0.00     0.046 C 
HETATM   33  C5  UNL     1       7.660   2.710  11.271  1.00  0.00     0.040 C 
HETATM   34  C6  UNL     1       7.222   0.428  12.044  1.00  0.00     0.040 C 
HETATM   35  C7  UNL     1       8.559   0.811  10.021  1.00  0.00     0.040 C 
ENDBRANCH   4  32
TORSDOF 8
ENDMDL
MODEL 3
REMARK VINA RESULT: -6.983075096      2.536      6.720
REMARK  8 active torsions:
REMARK  status: ('A' for Active; 'I' for Inactive)
REMARK    1  A    between atoms: C2_2  and  C3_3 
REMARK    2  A    between atoms: N2_6  and  C4_7 
REMARK    3  A    between atoms: C12_17  and  S2_18 
REMARK    4  A    between atoms: S2_18  and  C13_19 
REMARK    5  A    between atoms: C15_21  and  C16_22 
REMARK       I    between atoms: C16_22  and  N3_24 
REMARK    6  A    between atoms: N3_24  and  C17_26 
REMARK    7  A    between atoms: C17_26  and  C18_27 
REMARK    8  A    between atoms: C18_27  and  O3_28 
ROOT
HETATM    1  C3  UNL     1       4.432   2.806   8.730  1.00  0.00     0.039 A 
HETATM    2  N1  UNL     1       5.511   2.669   9.561  1.00  0.00    -0.298 N 
ATOM      3  H1  UNL     1       5.940   3.504   9.960  1.00  0.00     0.187 HD
HETATM    4  N2  UNL     1       6.001   1.508   9.853  1.00  0.00    -0.248 N 
HETATM    5  C8  UNL     1       5.428   0.409   9.324  1.00  0.00     0.275 A 
HETATM    6  O1  UNL     1       5.951  -0.684   9.651  1.00  0.00    -0.266 OA
HETATM    7  C9  UNL     1       4.317   0.485   8.462  1.00  0.00     0.060 A 
HETATM    8  C10 UNL     1       3.708  -0.619   7.934  1.00  0.00    -0.003 A 
HETATM    9  C11 UNL     1       4.053  -2.076   8.104  1.00  0.00     0.057 C 
HETATM   10  S1  UNL     1       2.444   0.011   7.014  1.00  0.00    -0.086 SA
HETATM   11  C12 UNL     1       2.715   1.698   7.318  1.00  0.00     0.055 A 
HETATM   12  C21 UNL     1       3.799   1.689   8.147  1.00  0.00     0.028 A 
ENDROOT
BRANCH  11  13
HETATM   13  S2  UNL     1       1.711   3.040   6.641  1.00  0.00    -0.115 SA
BRANCH  13  14
HETATM   14  C13 UNL     1       2.343   3.443   4.994  1.00  0.00     0.085 C 
HETATM   15  C14 UNL     1       3.611   2.650   4.756  1.00  0.00     0.060 C 
HETATM   16  C15 UNL     1       3.385   1.909   3.462  1.00  0.00     0.278 C 
HETATM   17  N4  UNL     1       1.977   1.945   3.248  1.00  0.00    -0.057 N 
HETATM   18  C19 UNL     1       1.471   3.156   3.850  1.00  0.00     0.197 C 
ATOM     19  H42 UNL     1       1.724   1.856   2.264  1.00  0.00     0.278 HD
ATOM     20  H41 UNL     1       1.504   1.107   3.585  1.00  0.00     0.278 HD
HETATM   21  C20 UNL     1       1.501   4.245   2.780  1.00  0.00     0.041 C 
BRANCH  16  22
HETATM   22  C16 UNL     1       4.228   2.339   2.357  1.00  0.00     0.248 C 
HETATM   23  O2  UNL     1       3.787   2.207   1.167  1.00  0.00    -0.271 OA
HETATM   24  N3  UNL     1       5.526   2.906   2.516  1.00  0.00    -0.357 N 
ATOM     25  H3  UNL     1       5.888   3.017   3.464  1.00  0.00     0.162 HD
BRANCH  24  26
HETATM   26  C17 UNL     1       6.349   3.329   1.430  1.00  0.00     0.148 C 
BRANCH  26  27
HETATM   27  C18 UNL     1       7.502   2.350   1.274  1.00  0.00     0.183 C 
BRANCH  27  28
HETATM   28  O3  UNL     1       7.947   1.988   2.567  1.00  0.00    -0.399 OA
ATOM     29  H3  UNL     1       7.721   1.076   2.711  1.00  0.00     0.209 HD
ENDBRANCH  27  28
ENDBRANCH  26  27
ENDBRANCH  24  26
ENDBRANCH  16  22
ENDBRANCH  13  14
ENDBRANCH  11  13
BRANCH   1  30
HETATM   30  C2  UNL     1       3.951   4.192   8.598  1.00  0.00     0.055 C 
HETATM   31  C1  UNL     1       3.091   4.507   9.843  1.00  0.00     0.011 C 
ENDBRANCH   1  30
BRANCH   4  32
HETATM   32  C4  UNL     1       7.159   1.372  10.736  1.00  0.00     0.046 C 
HETATM   33  C5  UNL     1       8.356   0.910   9.976  1.00  0.00     0.040 C 
HETATM   34  C6  UNL     1       7.454   2.709  11.371  1.00  0.00     0.040 C 
HETATM   35  C7  UNL     1       6.870   0.371  11.841  1.00  0.00     0.040 C 
ENDBRANCH   4  32
TORSDOF 8
ENDMDL
MODEL 4
REMARK VINA RESULT: -6.914935167      1.453      1.561
REMARK  8 active torsions:
REMARK  status: ('A' for Active; 'I' for Inactive)
REMARK    1  A    between atoms: C2_2  and  C3_3 
REMARK    2  A    between atoms: N2_6  and  C4_7 
REMARK    3  A    between atoms: C12_17  and  S2_18 
REMARK    4  A    between atoms: S2_18  and  C13_19 
REMARK    5  A    between atoms: C15_21  and  C16_22 
REMARK       I    between atoms: C16_22  and  N3_24 
REMARK    6  A    between atoms: N3_24  and  C17_26 
REMARK    7  A    between atoms: C17_26  and  C18_27 
REMARK    8  A    between atoms: C18_27  and  O3_28 
ROOT
HETATM    1  C3  UNL     1       3.280   1.805   5.217  1.00  0.00     0.039 A 
HETATM    2  N1  UNL     1       3.938   1.937   4.024  1.00  0.00    -0.298 N 
ATOM      3  H1  UNL     1       3.925   2.838   3.546  1.00  0.00     0.187 HD
HETATM    4  N2  UNL     1       4.575   0.949   3.486  1.00  0.00    -0.248 N 
HETATM    5  C8  UNL     1       4.590  -0.239   4.122  1.00  0.00     0.275 A 
HETATM    6  O1  UNL     1       5.228  -1.154   3.548  1.00  0.00    -0.266 OA
HETATM    7  C9  UNL     1       3.931  -0.438   5.352  1.00  0.00     0.060 A 
HETATM    8  C10 UNL     1       3.953  -1.627   6.024  1.00  0.00    -0.003 A 
HETATM    9  C11 UNL     1       4.612  -2.929   5.645  1.00  0.00     0.057 C 
HETATM   10  S1  UNL     1       3.054  -1.328   7.417  1.00  0.00    -0.086 SA
HETATM   11  C12 UNL     1       2.654   0.334   7.118  1.00  0.00     0.055 A 
HETATM   12  C21 UNL     1       3.260   0.584   5.921  1.00  0.00     0.028 A 
ENDROOT
BRANCH  11  13
HETATM   13  S2  UNL     1       1.668   1.371   8.224  1.00  0.00    -0.115 SA
BRANCH  13  14
HETATM   14  C13 UNL     1       2.771   2.070   9.475  1.00  0.00     0.085 C 
HETATM   15  C14 UNL     1       4.203   1.844   9.037  1.00  0.00     0.060 C 
HETATM   16  C15 UNL     1       4.849   3.207   9.058  1.00  0.00     0.278 C 
HETATM   17  N4  UNL     1       3.769   4.136   9.074  1.00  0.00    -0.057 N 
HETATM   18  C19 UNL     1       2.657   3.507   9.747  1.00  0.00     0.197 C 
ATOM     19  H42 UNL     1       4.024   5.034   9.486  1.00  0.00     0.278 HD
ATOM     20  H41 UNL     1       3.527   4.478   8.145  1.00  0.00     0.278 HD
HETATM   21  C20 UNL     1       2.767   3.851  11.231  1.00  0.00     0.041 C 
BRANCH  16  22
HETATM   22  C16 UNL     1       5.878   3.381  10.070  1.00  0.00     0.248 C 
HETATM   23  O2  UNL     1       5.987   4.517  10.641  1.00  0.00    -0.271 OA
HETATM   24  N3  UNL     1       6.781   2.355  10.475  1.00  0.00    -0.357 N 
ATOM     25  H3  UNL     1       6.703   1.442  10.025  1.00  0.00     0.162 HD
BRANCH  24  26
HETATM   26  C17 UNL     1       7.789   2.527  11.471  1.00  0.00     0.148 C 
BRANCH  26  27
HETATM   27  C18 UNL     1       9.069   3.004  10.802  1.00  0.00     0.183 C 
BRANCH  27  28
HETATM   28  O3  UNL     1       9.033   4.417  10.744  1.00  0.00    -0.399 OA
ATOM     29  H3  UNL     1       9.908   4.724  10.540  1.00  0.00     0.209 HD
ENDBRANCH  27  28
ENDBRANCH  26  27
ENDBRANCH  24  26
ENDBRANCH  16  22
ENDBRANCH  13  14
ENDBRANCH  11  13
BRANCH   1  30
HETATM   30  C2  UNL     1       2.702   3.062   5.724  1.00  0.00     0.055 C 
HETATM   31  C1  UNL     1       1.844   3.670   4.592  1.00  0.00     0.011 C 
ENDBRANCH   1  30
BRANCH   4  32
HETATM   32  C4  UNL     1       5.268   1.098   2.207  1.00  0.00     0.046 C 
HETATM   33  C5  UNL     1       4.469   0.507   1.095  1.00  0.00     0.040 C 
HETATM   34  C6  UNL     1       5.495   2.565   1.936  1.00  0.00     0.040 C 
HETATM   35  C7  UNL     1       6.620   0.406   2.253  1.00  0.00     0.040 C 
ENDBRANCH   4  32
TORSDOF 8
ENDMDL
MODEL 5
REMARK VINA RESULT: -6.904419904      1.990      7.409
REMARK  8 active torsions:
REMARK  status: ('A' for Active; 'I' for Inactive)
REMARK    1  A    between atoms: C2_2  and  C3_3 
REMARK    2  A    between atoms: N2_6  and  C4_7 
REMARK    3  A    between atoms: C12_17  and  S2_18 
REMARK    4  A    between atoms: S2_18  and  C13_19 
REMARK    5  A    between atoms: C15_21  and  C16_22 
REMARK       I    between atoms: C16_22  and  N3_24 
REMARK    6  A    between atoms: N3_24  and  C17_26 
REMARK    7  A    between atoms: C17_26  and  C18_27 
REMARK    8  A    between atoms: C18_27  and  O3_28 
ROOT
HETATM    1  C3  UNL     1       4.857   0.804   9.012  1.00  0.00     0.039 A 
HETATM    2  N1  UNL     1       6.115   0.791   9.549  1.00  0.00    -0.298 N 
ATOM      3  H1  UNL     1       6.799   0.119   9.199  1.00  0.00     0.187 HD
HETATM    4  N2  UNL     1       6.461   1.607  10.491  1.00  0.00    -0.248 N 
HETATM    5  C8  UNL     1       5.555   2.493  10.949  1.00  0.00     0.275 A 
HETATM    6  O1  UNL     1       5.956   3.257  11.860  1.00  0.00    -0.266 OA
HETATM    7  C9  UNL     1       4.244   2.555  10.437  1.00  0.00     0.060 A 
HETATM    8  C10 UNL     1       3.318   3.461  10.872  1.00  0.00    -0.003 A 
HETATM    9  C11 UNL     1       3.441   4.521  11.937  1.00  0.00     0.057 C 
HETATM   10  S1  UNL     1       1.954   3.133   9.938  1.00  0.00    -0.086 SA
HETATM   11  C12 UNL     1       2.592   1.825   8.994  1.00  0.00     0.055 A 
HETATM   12  C21 UNL     1       3.870   1.708   9.458  1.00  0.00     0.028 A 
ENDROOT
BRANCH  11  13
HETATM   13  S2  UNL     1       1.672   0.928   7.721  1.00  0.00    -0.115 SA
BRANCH  13  14
HETATM   14  C13 UNL     1       2.481   1.217   6.129  1.00  0.00     0.085 C 
HETATM   15  C14 UNL     1       2.687  -0.117   5.443  1.00  0.00     0.060 C 
HETATM   16  C15 UNL     1       2.050   0.028   4.084  1.00  0.00     0.278 C 
HETATM   17  N4  UNL     1       1.199   1.166   4.185  1.00  0.00    -0.057 N 
HETATM   18  C19 UNL     1       1.777   2.062   5.159  1.00  0.00     0.197 C 
ATOM     19  H42 UNL     1       1.029   1.615   3.285  1.00  0.00     0.278 HD
ATOM     20  H41 UNL     1       0.233   0.920   4.398  1.00  0.00     0.278 HD
HETATM   21  C20 UNL     1       2.700   3.018   4.408  1.00  0.00     0.041 C 
BRANCH  16  22
HETATM   22  C16 UNL     1       2.981   0.003   2.967  1.00  0.00     0.248 C 
HETATM   23  O2  UNL     1       2.512   0.033   1.781  1.00  0.00    -0.271 OA
HETATM   24  N3  UNL     1       4.399  -0.049   3.109  1.00  0.00    -0.357 N 
ATOM     25  H3  UNL     1       4.785  -0.073   4.054  1.00  0.00     0.162 HD
BRANCH  24  26
HETATM   26  C17 UNL     1       5.310  -0.071   2.011  1.00  0.00     0.148 C 
BRANCH  26  27
HETATM   27  C18 UNL     1       6.732  -0.093   2.550  1.00  0.00     0.183 C 
BRANCH  27  28
HETATM   28  O3  UNL     1       6.700  -0.656   3.847  1.00  0.00    -0.399 OA
ATOM     29  H3  UNL     1       7.507  -1.141   3.976  1.00  0.00     0.209 HD
ENDBRANCH  27  28
ENDBRANCH  26  27
ENDBRANCH  24  26
ENDBRANCH  16  22
ENDBRANCH  13  14
ENDBRANCH  11  13
BRANCH   1  30
HETATM   30  C2  UNL     1       4.680  -0.123   7.880  1.00  0.00     0.055 C 
HETATM   31  C1  UNL     1       4.381  -1.520   8.467  1.00  0.00     0.011 C 
ENDBRANCH   1  30
BRANCH   4  32
HETATM   32  C4  UNL     1       7.806   1.580  11.065  1.00  0.00     0.046 C 
HETATM   33  C5  UNL     1       8.284   2.959  11.369  1.00  0.00     0.040 C 
HETATM   34  C6  UNL     1       7.784   0.766  12.336  1.00  0.00     0.040 C 
HETATM   35  C7  UNL     1       8.782   0.931  10.099  1.00  0.00     0.040 C 
ENDBRANCH   4  32
TORSDOF 8
ENDMDL
