MODEL 1
REMARK VINA RESULT: -7.422626531      0.000      0.000
REMARK  7 active torsions:
REMARK  status: ('A' for Active; 'I' for Inactive)
REMARK    1  A    between atoms: O1_2  and  C2_3 
REMARK    2  A    between atoms: C2_3  and  C3_7 
REMARK    3  A    between atoms: C8_15  and  C9_16 
REMARK    4  A    between atoms: C9_16  and  C10_17 
REMARK    5  A    between atoms: C10_17  and  O4_18 
REMARK    6  A    between atoms: O4_18  and  C11_19 
REMARK    7  A    between atoms: C14_22  and  C16_24 
ROOT
HETATM    1  C3  UNL     1       2.524   3.363   8.880  1.00  0.00     0.237 C 
HETATM    2  N2  UNL     1       3.678   2.594   9.218  1.00  0.00    -0.289 N 
HETATM    3  C4  UNL     1       4.614   3.599   9.599  1.00  0.00     0.366 C 
HETATM    4  O2  UNL     1       5.855   3.599   9.790  1.00  0.00    -0.238 OA
HETATM    5  O3  UNL     1       3.914   4.818   9.778  1.00  0.00    -0.289 OA
HETATM    6  C5  UNL     1       2.551   4.383   9.959  1.00  0.00     0.113 C 
HETATM    7  C6  UNL     1       1.596   5.530   9.798  1.00  0.00     0.050 C 
HETATM    8  C7  UNL     1       2.481   3.883  11.354  1.00  0.00     0.050 C 
HETATM    9  C8  UNL     1       3.873   1.156   9.175  1.00  0.00     0.109 C 
HETATM   10  C14 UNL     1       2.717   0.318   8.898  1.00  0.00     0.034 C 
HETATM   11  C15 UNL     1       1.940  -0.200  10.077  1.00  0.00     0.025 C 
HETATM   12  C19 UNL     1       1.627   0.927   7.984  1.00  0.00     0.161 C 
HETATM   13  S1  UNL     1       1.071   2.475   8.631  1.00  0.00     0.183 S 
HETATM   14  O5  UNL     1       0.132   2.381   9.767  1.00  0.00    -0.225 OA
HETATM   15  O6  UNL     1       0.280   3.173   7.510  1.00  0.00    -0.225 OA
ENDROOT
BRANCH  10  16
HETATM   16  C16 UNL     1       3.151  -0.849   8.023  1.00  0.00     0.053 A 
HETATM   17  C17 UNL     1       3.653  -0.695   6.736  1.00  0.00     0.132 A 
HETATM   18  N3  UNL     1       3.930  -1.887   6.198  1.00  0.00    -0.200 N 
HETATM   19  C18 UNL     1       3.604  -2.821   7.145  1.00  0.00     0.675 A 
ATOM     20  H3  UNL     1       4.308  -2.064   5.268  1.00  0.00     0.183 HD
HETATM   21  N4  UNL     1       3.673  -4.038   7.079  1.00  0.00    -0.234 N 
HETATM   22  N5  UNL     1       3.132  -2.144   8.246  1.00  0.00    -0.194 N 
ATOM     23  H42 UNL     1       4.023  -4.539   6.263  1.00  0.00     0.174 HD
ATOM     24  H41 UNL     1       3.431  -4.735   7.783  1.00  0.00     0.174 HD
ATOM     25  H5  UNL     1       2.813  -2.584   9.109  1.00  0.00     0.184 HD
ENDBRANCH  10  16
BRANCH   9  26
HETATM   26  C9  UNL     1       4.652   0.793  10.364  1.00  0.00     0.053 C 
BRANCH  26  27
HETATM   27  C10 UNL     1       5.795  -0.186  10.320  1.00  0.00     0.170 C 
BRANCH  27  28
HETATM   28  O4  UNL     1       6.890   0.454   9.820  1.00  0.00    -0.387 OA
BRANCH  28  29
HETATM   29  C11 UNL     1       7.829   1.074  10.485  1.00  0.00     0.113 C 
HETATM   30  C12 UNL     1       9.249   0.892   9.982  1.00  0.00     0.039 C 
HETATM   31  C13 UNL     1       7.845   0.451  11.910  1.00  0.00     0.039 C 
ENDBRANCH  28  29
ENDBRANCH  27  28
ENDBRANCH  26  27
ENDBRANCH   9  26
BRANCH   1  32
HETATM   32  C2  UNL     1       2.854   4.089   7.598  1.00  0.00     0.159 C 
HETATM   33  N1  UNL     1       2.325   5.216   7.331  1.00  0.00    -0.380 N 
ATOM     34  H12 UNL     1       2.548   5.707   6.465  1.00  0.00     0.158 HD
ATOM     35  H11 UNL     1       1.675   5.603   8.016  1.00  0.00     0.158 HD
BRANCH  32  36
HETATM   36  O1  UNL     1       3.738   3.562   6.666  1.00  0.00    -0.342 OA
HETATM   37  C1  UNL     1       3.306   3.057   5.416  1.00  0.00     0.211 C 
ENDBRANCH  32  36
ENDBRANCH   1  32
TORSDOF 7
ENDMDL
MODEL 2
REMARK VINA RESULT: -6.974825432      2.733      4.995
REMARK  7 active torsions:
REMARK  status: ('A' for Active; 'I' for Inactive)
REMARK    1  A    between atoms: O1_2  and  C2_3 
REMARK    2  A    between atoms: C2_3  and  C3_7 
REMARK    3  A    between atoms: C8_15  and  C9_16 
REMARK    4  A    between atoms: C9_16  and  C10_17 
REMARK    5  A    between atoms: C10_17  and  O4_18 
REMARK    6  A    between atoms: O4_18  and  C11_19 
REMARK    7  A    between atoms: C14_22  and  C16_24 
ROOT
HETATM    1  C3  UNL     1       2.612   0.055   6.236  1.00  0.00     0.237 C 
HETATM    2  N2  UNL     1       3.213   1.256   6.722  1.00  0.00    -0.289 N 
HETATM    3  C4  UNL     1       3.026   2.154   5.631  1.00  0.00     0.366 C 
HETATM    4  O2  UNL     1       3.508   3.276   5.341  1.00  0.00    -0.238 OA
HETATM    5  O3  UNL     1       2.088   1.581   4.735  1.00  0.00    -0.289 OA
HETATM    6  C5  UNL     1       1.413   0.607   5.556  1.00  0.00     0.113 C 
HETATM    7  C6  UNL     1       0.637  -0.361   4.711  1.00  0.00     0.050 C 
HETATM    8  C7  UNL     1       0.468   1.388   6.393  1.00  0.00     0.050 C 
HETATM    9  C8  UNL     1       3.867   1.511   7.991  1.00  0.00     0.109 C 
HETATM   10  C14 UNL     1       3.801   0.480   9.015  1.00  0.00     0.034 C 
HETATM   11  C15 UNL     1       2.673   0.560  10.006  1.00  0.00     0.025 C 
HETATM   12  C19 UNL     1       3.740  -0.983   8.514  1.00  0.00     0.161 C 
HETATM   13  S1  UNL     1       2.390  -1.199   7.394  1.00  0.00     0.183 S 
HETATM   14  O5  UNL     1       1.060  -1.310   8.025  1.00  0.00    -0.225 OA
HETATM   15  O6  UNL     1       2.611  -2.544   6.677  1.00  0.00    -0.225 OA
ENDROOT
BRANCH  10  16
HETATM   16  C16 UNL     1       5.128   0.433   9.757  1.00  0.00     0.053 A 
HETATM   17  C17 UNL     1       5.282  -0.137  11.015  1.00  0.00     0.132 A 
HETATM   18  N3  UNL     1       6.546  -0.015  11.431  1.00  0.00    -0.200 N 
HETATM   19  C18 UNL     1       7.218   0.641  10.434  1.00  0.00     0.675 A 
ATOM     20  H3  UNL     1       6.934  -0.344  12.315  1.00  0.00     0.183 HD
HETATM   21  N4  UNL     1       8.388   0.984  10.392  1.00  0.00    -0.234 N 
HETATM   22  N5  UNL     1       6.313   0.896   9.428  1.00  0.00    -0.194 N 
ATOM     23  H42 UNL     1       9.058   0.794  11.137  1.00  0.00     0.174 HD
ATOM     24  H41 UNL     1       8.889   1.472   9.649  1.00  0.00     0.174 HD
ATOM     25  H5  UNL     1       6.532   1.375   8.554  1.00  0.00     0.184 HD
ENDBRANCH  10  16
BRANCH   9  26
HETATM   26  C9  UNL     1       3.466   2.857   8.419  1.00  0.00     0.053 C 
BRANCH  26  27
HETATM   27  C10 UNL     1       4.456   3.896   8.870  1.00  0.00     0.170 C 
BRANCH  27  28
HETATM   28  O4  UNL     1       4.039   4.397  10.068  1.00  0.00    -0.387 OA
BRANCH  28  29
HETATM   29  C11 UNL     1       4.191   3.870  11.254  1.00  0.00     0.113 C 
HETATM   30  C12 UNL     1       3.586   4.632  12.418  1.00  0.00     0.039 C 
HETATM   31  C13 UNL     1       5.718   3.874  11.547  1.00  0.00     0.039 C 
ENDBRANCH  28  29
ENDBRANCH  27  28
ENDBRANCH  26  27
ENDBRANCH   9  26
BRANCH   1  32
HETATM   32  C2  UNL     1       3.518  -0.466   5.148  1.00  0.00     0.159 C 
HETATM   33  N1  UNL     1       3.035  -0.975   4.084  1.00  0.00    -0.380 N 
ATOM     34  H12 UNL     1       3.647  -1.327   3.348  1.00  0.00     0.158 HD
ATOM     35  H11 UNL     1       2.018  -1.012   4.002  1.00  0.00     0.158 HD
BRANCH  32  36
HETATM   36  O1  UNL     1       4.900  -0.417   5.260  1.00  0.00    -0.342 OA
HETATM   37  C1  UNL     1       5.759  -0.976   4.283  1.00  0.00     0.211 C 
ENDBRANCH  32  36
ENDBRANCH   1  32
TORSDOF 7
ENDMDL
MODEL 3
REMARK VINA RESULT: -6.829834883      2.386      5.237
REMARK  7 active torsions:
REMARK  status: ('A' for Active; 'I' for Inactive)
REMARK    1  A    between atoms: O1_2  and  C2_3 
REMARK    2  A    between atoms: C2_3  and  C3_7 
REMARK    3  A    between atoms: C8_15  and  C9_16 
REMARK    4  A    between atoms: C9_16  and  C10_17 
REMARK    5  A    between atoms: C10_17  and  O4_18 
REMARK    6  A    between atoms: O4_18  and  C11_19 
REMARK    7  A    between atoms: C14_22  and  C16_24 
ROOT
HETATM    1  C3  UNL     1       1.799   1.141   6.661  1.00  0.00     0.237 C 
HETATM    2  N2  UNL     1       2.549   0.715   7.798  1.00  0.00    -0.289 N 
HETATM    3  C4  UNL     1       2.478  -0.706   7.697  1.00  0.00     0.366 C 
HETATM    4  O2  UNL     1       2.740  -1.644   8.488  1.00  0.00    -0.238 OA
HETATM    5  O3  UNL     1       2.002  -1.039   6.404  1.00  0.00    -0.289 OA
HETATM    6  C5  UNL     1       2.263   0.160   5.646  1.00  0.00     0.113 C 
HETATM    7  C6  UNL     1       1.505   0.152   4.351  1.00  0.00     0.050 C 
HETATM    8  C7  UNL     1       3.718   0.133   5.358  1.00  0.00     0.050 C 
HETATM    9  C8  UNL     1       3.209   1.509   8.818  1.00  0.00     0.109 C 
HETATM   10  C14 UNL     1       3.277   2.949   8.626  1.00  0.00     0.034 C 
HETATM   11  C15 UNL     1       4.496   3.499   7.940  1.00  0.00     0.025 C 
HETATM   12  C19 UNL     1       2.103   3.596   7.853  1.00  0.00     0.161 C 
HETATM   13  S1  UNL     1       1.893   2.817   6.280  1.00  0.00     0.183 S 
HETATM   14  O5  UNL     1       2.862   3.222   5.243  1.00  0.00    -0.225 OA
HETATM   15  O6  UNL     1       0.518   3.253   5.742  1.00  0.00    -0.225 OA
ENDROOT
BRANCH  10  16
HETATM   16  C16 UNL     1       3.097   3.636   9.971  1.00  0.00     0.053 A 
HETATM   17  C17 UNL     1       1.890   4.175  10.400  1.00  0.00     0.132 A 
HETATM   18  N3  UNL     1       2.030   4.733  11.606  1.00  0.00    -0.200 N 
HETATM   19  C18 UNL     1       3.340   4.555  11.962  1.00  0.00     0.675 A 
ATOM     20  H3  UNL     1       1.306   5.200  12.152  1.00  0.00     0.183 HD
HETATM   21  N4  UNL     1       3.919   4.921  12.973  1.00  0.00    -0.234 N 
HETATM   22  N5  UNL     1       3.958   3.879  10.935  1.00  0.00    -0.194 N 
ATOM     23  H42 UNL     1       3.461   5.422  13.734  1.00  0.00     0.174 HD
ATOM     24  H41 UNL     1       4.895   4.788  13.239  1.00  0.00     0.174 HD
ATOM     25  H5  UNL     1       4.940   3.606  10.922  1.00  0.00     0.184 HD
ENDBRANCH  10  16
BRANCH   9  26
HETATM   26  C9  UNL     1       4.484   0.848   9.120  1.00  0.00     0.053 C 
BRANCH  26  27
HETATM   27  C10 UNL     1       4.913   0.509  10.522  1.00  0.00     0.170 C 
BRANCH  27  28
HETATM   28  O4  UNL     1       5.798   1.457  10.943  1.00  0.00    -0.387 OA
BRANCH  28  29
HETATM   29  C11 UNL     1       7.019   1.279  11.374  1.00  0.00     0.113 C 
HETATM   30  C12 UNL     1       8.085   1.053  10.317  1.00  0.00     0.039 C 
HETATM   31  C13 UNL     1       7.010  -0.041  12.195  1.00  0.00     0.039 C 
ENDBRANCH  28  29
ENDBRANCH  27  28
ENDBRANCH  26  27
ENDBRANCH   9  26
BRANCH   1  32
HETATM   32  C2  UNL     1       0.357   0.805   6.950  1.00  0.00     0.159 C 
HETATM   33  N1  UNL     1      -0.403   0.346   6.036  1.00  0.00    -0.380 N 
ATOM     34  H12 UNL     1      -1.378   0.120   6.231  1.00  0.00     0.158 HD
ATOM     35  H11 UNL     1       0.005   0.216   5.110  1.00  0.00     0.158 HD
BRANCH  32  36
HETATM   36  O1  UNL     1      -0.198   0.984   8.210  1.00  0.00    -0.342 OA
HETATM   37  C1  UNL     1      -1.137   2.007   8.485  1.00  0.00     0.211 C 
ENDBRANCH  32  36
ENDBRANCH   1  32
TORSDOF 7
ENDMDL
MODEL 4
REMARK VINA RESULT: -6.764737526      2.195      4.120
REMARK  7 active torsions:
REMARK  status: ('A' for Active; 'I' for Inactive)
REMARK    1  A    between atoms: O1_2  and  C2_3 
REMARK    2  A    between atoms: C2_3  and  C3_7 
REMARK    3  A    between atoms: C8_15  and  C9_16 
REMARK    4  A    between atoms: C9_16  and  C10_17 
REMARK    5  A    between atoms: C10_17  and  O4_18 
REMARK    6  A    between atoms: O4_18  and  C11_19 
REMARK    7  A    between atoms: C14_22  and  C16_24 
ROOT
HETATM    1  C3  UNL     1       2.700   3.208   8.797  1.00  0.00     0.237 C 
HETATM    2  N2  UNL     1       2.397   1.845   8.498  1.00  0.00    -0.289 N 
HETATM    3  C4  UNL     1       2.165   1.293   9.792  1.00  0.00     0.366 C 
HETATM    4  O2  UNL     1       2.072   0.120  10.228  1.00  0.00    -0.238 OA
HETATM    5  O3  UNL     1       2.021   2.359  10.715  1.00  0.00    -0.289 OA
HETATM    6  C5  UNL     1       1.703   3.480   9.865  1.00  0.00     0.113 C 
HETATM    7  C6  UNL     1       1.872   4.777  10.601  1.00  0.00     0.050 C 
HETATM    8  C7  UNL     1       0.274   3.306   9.506  1.00  0.00     0.050 C 
HETATM    9  C8  UNL     1       2.350   1.171   7.214  1.00  0.00     0.109 C 
HETATM   10  C14 UNL     1       2.473   1.981   6.012  1.00  0.00     0.034 C 
HETATM   11  C15 UNL     1       1.203   2.475   5.378  1.00  0.00     0.025 C 
HETATM   12  C19 UNL     1       3.341   3.257   6.128  1.00  0.00     0.161 C 
HETATM   13  S1  UNL     1       2.768   4.279   7.451  1.00  0.00     0.183 S 
HETATM   14  O5  UNL     1       1.558   5.071   7.155  1.00  0.00    -0.225 OA
HETATM   15  O6  UNL     1       3.872   5.315   7.731  1.00  0.00    -0.225 OA
ENDROOT
BRANCH  10  16
HETATM   16  C16 UNL     1       3.292   1.217   4.983  1.00  0.00     0.053 A 
HETATM   17  C17 UNL     1       3.206   1.443   3.614  1.00  0.00     0.132 A 
HETATM   18  N3  UNL     1       4.018   0.614   2.952  1.00  0.00    -0.200 N 
HETATM   19  C18 UNL     1       4.638  -0.156   3.899  1.00  0.00     0.675 A 
ATOM     20  H3  UNL     1       4.151   0.565   1.942  1.00  0.00     0.183 HD
HETATM   21  N4  UNL     1       5.446  -1.059   3.748  1.00  0.00    -0.234 N 
HETATM   22  N5  UNL     1       4.165   0.245   5.128  1.00  0.00    -0.194 N 
ATOM     23  H42 UNL     1       5.795  -1.355   2.838  1.00  0.00     0.174 HD
ATOM     24  H41 UNL     1       5.907  -1.633   4.454  1.00  0.00     0.174 HD
ATOM     25  H5  UNL     1       4.451  -0.154   6.022  1.00  0.00     0.184 HD
ENDBRANCH  10  16
BRANCH   9  26
HETATM   26  C9  UNL     1       1.202   0.258   7.249  1.00  0.00     0.053 C 
BRANCH  26  27
HETATM   27  C10 UNL     1       1.349  -1.237   7.156  1.00  0.00     0.170 C 
BRANCH  27  28
HETATM   28  O4  UNL     1       2.674  -1.533   7.026  1.00  0.00    -0.387 OA
BRANCH  28  29
HETATM   29  C11 UNL     1       3.441  -2.163   7.876  1.00  0.00     0.113 C 
HETATM   30  C12 UNL     1       4.676  -1.422   8.355  1.00  0.00     0.039 C 
HETATM   31  C13 UNL     1       4.006  -3.402   7.126  1.00  0.00     0.039 C 
ENDBRANCH  28  29
ENDBRANCH  27  28
ENDBRANCH  26  27
ENDBRANCH   9  26
BRANCH   1  32
HETATM   32  C2  UNL     1       4.052   3.209   9.466  1.00  0.00     0.159 C 
HETATM   33  N1  UNL     1       4.331   4.057  10.375  1.00  0.00    -0.380 N 
ATOM     34  H12 UNL     1       5.245   4.058  10.827  1.00  0.00     0.158 HD
ATOM     35  H11 UNL     1       3.605   4.727  10.629  1.00  0.00     0.158 HD
BRANCH  32  36
HETATM   36  O1  UNL     1       5.040   2.298   9.120  1.00  0.00    -0.342 OA
HETATM   37  C1  UNL     1       5.904   1.718  10.080  1.00  0.00     0.211 C 
ENDBRANCH  32  36
ENDBRANCH   1  32
TORSDOF 7
ENDMDL
MODEL 5
REMARK VINA RESULT: -6.683670506      2.446      5.277
REMARK  7 active torsions:
REMARK  status: ('A' for Active; 'I' for Inactive)
REMARK    1  A    between atoms: O1_2  and  C2_3 
REMARK    2  A    between atoms: C2_3  and  C3_7 
REMARK    3  A    between atoms: C8_15  and  C9_16 
REMARK    4  A    between atoms: C9_16  and  C10_17 
REMARK    5  A    between atoms: C10_17  and  O4_18 
REMARK    6  A    between atoms: O4_18  and  C11_19 
REMARK    7  A    between atoms: C14_22  and  C16_24 
ROOT
HETATM    1  C3  UNL     1       2.202   0.516   6.367  1.00  0.00     0.237 C 
HETATM    2  N2  UNL     1       3.080   0.257   7.463  1.00  0.00    -0.289 N 
HETATM    3  C4  UNL     1       3.301  -1.146   7.352  1.00  0.00     0.366 C 
HETATM    4  O2  UNL     1       3.791  -2.009   8.120  1.00  0.00    -0.238 OA
HETATM    5  O3  UNL     1       2.842  -1.573   6.080  1.00  0.00    -0.289 OA
HETATM    6  C5  UNL     1       2.809  -0.347   5.322  1.00  0.00     0.113 C 
HETATM    7  C6  UNL     1       2.006  -0.514   4.065  1.00  0.00     0.050 C 
HETATM    8  C7  UNL     1       4.222  -0.070   4.964  1.00  0.00     0.050 C 
HETATM    9  C8  UNL     1       3.609   1.173   8.457  1.00  0.00     0.109 C 
HETATM   10  C14 UNL     1       3.365   2.595   8.275  1.00  0.00     0.034 C 
HETATM   11  C15 UNL     1       4.408   3.386   7.536  1.00  0.00     0.025 C 
HETATM   12  C19 UNL     1       2.046   2.982   7.565  1.00  0.00     0.161 C 
HETATM   13  S1  UNL     1       1.925   2.175   5.998  1.00  0.00     0.183 S 
HETATM   14  O5  UNL     1       2.736   2.772   4.918  1.00  0.00    -0.225 OA
HETATM   15  O6  UNL     1       0.465   2.314   5.531  1.00  0.00    -0.225 OA
ENDROOT
BRANCH  10  16
HETATM   16  C16 UNL     1       3.113   3.231   9.634  1.00  0.00     0.053 A 
HETATM   17  C17 UNL     1       1.843   3.520  10.120  1.00  0.00     0.132 A 
HETATM   18  N3  UNL     1       1.924   4.093  11.324  1.00  0.00    -0.200 N 
HETATM   19  C18 UNL     1       3.257   4.177  11.622  1.00  0.00     0.675 A 
ATOM     20  H3  UNL     1       1.146   4.406  11.906  1.00  0.00     0.183 HD
HETATM   21  N4  UNL     1       3.796   4.649  12.610  1.00  0.00    -0.234 N 
HETATM   22  N5  UNL     1       3.950   3.638  10.562  1.00  0.00    -0.194 N 
ATOM     23  H42 UNL     1       3.283   5.048  13.396  1.00  0.00     0.174 HD
ATOM     24  H41 UNL     1       4.790   4.712  12.832  1.00  0.00     0.174 HD
ATOM     25  H5  UNL     1       4.966   3.566  10.504  1.00  0.00     0.184 HD
ENDBRANCH  10  16
BRANCH   9  26
HETATM   26  C9  UNL     1       5.007   0.792   8.690  1.00  0.00     0.053 C 
BRANCH  26  27
HETATM   27  C10 UNL     1       5.528   0.400  10.047  1.00  0.00     0.170 C 
BRANCH  27  28
HETATM   28  O4  UNL     1       6.236   1.449  10.556  1.00  0.00    -0.387 OA
BRANCH  28  29
HETATM   29  C11 UNL     1       7.390   1.414  11.168  1.00  0.00     0.113 C 
HETATM   30  C12 UNL     1       8.600   1.083  10.315  1.00  0.00     0.039 C 
HETATM   31  C13 UNL     1       7.313   0.246  12.191  1.00  0.00     0.039 C 
ENDBRANCH  28  29
ENDBRANCH  27  28
ENDBRANCH  26  27
ENDBRANCH   9  26
BRANCH   1  32
HETATM   32  C2  UNL     1       0.877  -0.112   6.723  1.00  0.00     0.159 C 
HETATM   33  N1  UNL     1       0.378   0.032   7.886  1.00  0.00    -0.380 N 
ATOM     34  H12 UNL     1      -0.518  -0.393   8.127  1.00  0.00     0.158 HD
ATOM     35  H11 UNL     1       0.908   0.586   8.559  1.00  0.00     0.158 HD
BRANCH  32  36
HETATM   36  O1  UNL     1       0.156  -0.866   5.808  1.00  0.00    -0.342 OA
HETATM   37  C1  UNL     1      -1.247  -1.030   5.902  1.00  0.00     0.211 C 
ENDBRANCH  32  36
ENDBRANCH   1  32
TORSDOF 7
ENDMDL
