MODEL 1
REMARK VINA RESULT: -6.095072159      0.000      0.000
REMARK  7 active torsions:
REMARK  status: ('A' for Active; 'I' for Inactive)
REMARK    1  A    between atoms: C2_2  and  C4_4 
REMARK    2  A    between atoms: C5_5  and  O1_6 
REMARK    3  A    between atoms: C13_16  and  C15_18 
REMARK    4  A    between atoms: C17_23  and  O6_24 
REMARK    5  A    between atoms: O6_24  and  C18_25 
REMARK    6  A    between atoms: C18_25  and  C19_26 
REMARK    7  A    between atoms: C21_28  and  O7_29 
ROOT
HETATM    1  C4  UNL     1      -5.042  33.187   9.748  1.00  0.00     0.054 C 
HETATM    2  C5  UNL     1      -4.044  34.072  10.424  1.00  0.00     0.196 C 
HETATM    3  C6  UNL     1      -3.132  34.517   9.274  1.00  0.00     0.161 C 
HETATM    4  O2  UNL     1      -1.969  34.594   9.410  1.00  0.00    -0.295 OA
HETATM    5  C7  UNL     1      -4.134  34.731   8.231  1.00  0.00     0.071 C 
HETATM    6  C8  UNL     1      -4.683  33.279   8.257  1.00  0.00     0.008 C 
HETATM    7  C9  UNL     1      -5.818  33.056   7.351  1.00  0.00     0.007 C 
HETATM    8  C10 UNL     1      -6.125  34.376   6.686  1.00  0.00     0.006 C 
HETATM    9  C11 UNL     1      -4.880  34.862   5.936  1.00  0.00     0.005 C 
HETATM   10  C12 UNL     1      -3.745  35.140   6.872  1.00  0.00     0.047 C 
HETATM   11  C13 UNL     1      -3.102  36.458   6.739  1.00  0.00     0.150 C 
HETATM   12  C14 UNL     1      -2.894  37.221   8.056  1.00  0.00     0.058 C 
HETATM   13  O5  UNL     1      -3.777  37.411   5.953  1.00  0.00    -0.360 OA
HETATM   14  C16 UNL     1      -4.119  36.888   4.765  1.00  0.00     0.163 C 
HETATM   15  C17 UNL     1      -4.465  37.885   3.657  1.00  0.00     0.179 C 
HETATM   16  C21 UNL     1      -4.223  37.059   2.371  1.00  0.00     0.149 C 
HETATM   17  C22 UNL     1      -4.700  35.659   2.583  1.00  0.00     0.035 C 
HETATM   18  C23 UNL     1      -5.751  35.506   3.652  1.00  0.00     0.015 C 
HETATM   19  C24 UNL     1      -5.291  35.967   5.015  1.00  0.00    -0.011 C 
HETATM   20  C25 UNL     1      -6.458  36.687   5.665  1.00  0.00     0.018 C 
ENDROOT
BRANCH  11  21
HETATM   21  C15 UNL     1      -1.706  36.397   6.166  1.00  0.00     0.209 C 
HETATM   22  O3  UNL     1      -0.978  37.407   5.990  1.00  0.00    -0.646 OA
HETATM   23  O4  UNL     1      -1.156  35.196   5.798  1.00  0.00    -0.646 OA
ENDBRANCH  11  21
BRANCH  15  24
HETATM   24  O6  UNL     1      -3.743  38.983   3.769  1.00  0.00    -0.381 OA
BRANCH  24  25
HETATM   25  C18 UNL     1      -4.235  40.209   4.014  1.00  0.00     0.168 C 
BRANCH  25  26
HETATM   26  C19 UNL     1      -5.589  40.382   4.578  1.00  0.00     0.022 C 
HETATM   27  C20 UNL     1      -5.750  40.407   6.058  1.00  0.00     0.007 C 
ENDBRANCH  25  26
ENDBRANCH  24  25
ENDBRANCH  15  24
BRANCH   2  28
HETATM   28  O1  UNL     1      -4.706  35.270  10.793  1.00  0.00    -0.387 OA
ATOM     29  H1  UNL     1      -4.987  35.180  11.696  1.00  0.00     0.210 HD
ENDBRANCH   2  28
BRANCH   1  30
HETATM   30  C2  UNL     1      -5.104  31.793  10.200  1.00  0.00    -0.086 C 
HETATM   31  C1  UNL     1      -5.253  31.487  11.455  1.00  0.00     0.014 C 
HETATM   32  C3  UNL     1      -5.000  30.654   9.205  1.00  0.00     0.043 C 
ENDBRANCH   1  30
BRANCH  16  33
HETATM   33  O7  UNL     1      -2.829  37.020   2.150  1.00  0.00    -0.393 OA
ATOM     34  H7  UNL     1      -2.589  36.111   2.013  1.00  0.00     0.210 HD
ENDBRANCH  16  33
TORSDOF 7
ENDMDL
MODEL 2
REMARK VINA RESULT: -5.945289125      8.392     12.456
REMARK  7 active torsions:
REMARK  status: ('A' for Active; 'I' for Inactive)
REMARK    1  A    between atoms: C2_2  and  C4_4 
REMARK    2  A    between atoms: C5_5  and  O1_6 
REMARK    3  A    between atoms: C13_16  and  C15_18 
REMARK    4  A    between atoms: C17_23  and  O6_24 
REMARK    5  A    between atoms: O6_24  and  C18_25 
REMARK    6  A    between atoms: C18_25  and  C19_26 
REMARK    7  A    between atoms: C21_28  and  O7_29 
ROOT
HETATM    1  C4  UNL     1      -9.508  39.603  -5.748  1.00  0.00     0.054 C 
HETATM    2  C5  UNL     1      -8.267  40.426  -5.607  1.00  0.00     0.196 C 
HETATM    3  C6  UNL     1      -7.702  39.981  -4.253  1.00  0.00     0.161 C 
HETATM    4  O2  UNL     1      -7.234  40.752  -3.502  1.00  0.00    -0.295 OA
HETATM    5  C7  UNL     1      -7.961  38.545  -4.335  1.00  0.00     0.071 C 
HETATM    6  C8  UNL     1      -9.497  38.685  -4.517  1.00  0.00     0.008 C 
HETATM    7  C9  UNL     1     -10.191  37.405  -4.715  1.00  0.00     0.007 C 
HETATM    8  C10 UNL     1      -9.140  36.322  -4.719  1.00  0.00     0.006 C 
HETATM    9  C11 UNL     1      -8.375  36.359  -3.391  1.00  0.00     0.005 C 
HETATM   10  C12 UNL     1      -7.626  37.643  -3.221  1.00  0.00     0.047 C 
HETATM   11  C13 UNL     1      -6.199  37.522  -2.878  1.00  0.00     0.150 C 
HETATM   12  C14 UNL     1      -5.247  38.386  -3.720  1.00  0.00     0.058 C 
HETATM   13  O5  UNL     1      -5.626  36.243  -3.012  1.00  0.00    -0.360 OA
HETATM   14  C16 UNL     1      -6.380  35.320  -2.394  1.00  0.00     0.163 C 
HETATM   15  C17 UNL     1      -5.701  33.985  -2.081  1.00  0.00     0.179 C 
HETATM   16  C21 UNL     1      -6.561  33.432  -0.919  1.00  0.00     0.149 C 
HETATM   17  C22 UNL     1      -8.001  33.737  -1.179  1.00  0.00     0.035 C 
HETATM   18  C23 UNL     1      -8.348  33.949  -2.629  1.00  0.00     0.015 C 
HETATM   19  C24 UNL     1      -7.592  35.090  -3.266  1.00  0.00    -0.011 C 
HETATM   20  C25 UNL     1      -7.214  34.653  -4.670  1.00  0.00     0.018 C 
ENDROOT
BRANCH  11  21
HETATM   21  C15 UNL     1      -5.875  37.949  -1.466  1.00  0.00     0.209 C 
HETATM   22  O3  UNL     1      -4.710  37.978  -0.995  1.00  0.00    -0.646 OA
HETATM   23  O4  UNL     1      -6.874  38.334  -0.609  1.00  0.00    -0.646 OA
ENDBRANCH  11  21
BRANCH  15  24
HETATM   24  O6  UNL     1      -4.423  34.160  -1.806  1.00  0.00    -0.381 OA
BRANCH  24  25
HETATM   25  C18 UNL     1      -3.406  33.569  -2.454  1.00  0.00     0.168 C 
BRANCH  25  26
HETATM   26  C19 UNL     1      -3.532  33.192  -3.877  1.00  0.00     0.022 C 
HETATM   27  C20 UNL     1      -3.126  31.822  -4.294  1.00  0.00     0.007 C 
ENDBRANCH  25  26
ENDBRANCH  24  25
ENDBRANCH  15  24
BRANCH   2  28
HETATM   28  O1  UNL     1      -7.313  39.935  -6.533  1.00  0.00    -0.387 OA
ATOM     29  H1  UNL     1      -7.445  38.998  -6.615  1.00  0.00     0.210 HD
ENDBRANCH   2  28
BRANCH   1  30
HETATM   30  C2  UNL     1     -10.776  40.331  -5.862  1.00  0.00    -0.086 C 
HETATM   31  C1  UNL     1     -11.161  40.862  -6.985  1.00  0.00     0.014 C 
HETATM   32  C3  UNL     1     -11.689  40.485  -4.662  1.00  0.00     0.043 C 
ENDBRANCH   1  30
BRANCH  16  33
HETATM   33  O7  UNL     1      -6.173  34.112   0.255  1.00  0.00    -0.393 OA
ATOM     34  H7  UNL     1      -6.109  33.466   0.950  1.00  0.00     0.210 HD
ENDBRANCH  16  33
TORSDOF 7
ENDMDL
MODEL 3
REMARK VINA RESULT: -5.632987672      9.300     12.261
REMARK  7 active torsions:
REMARK  status: ('A' for Active; 'I' for Inactive)
REMARK    1  A    between atoms: C2_2  and  C4_4 
REMARK    2  A    between atoms: C5_5  and  O1_6 
REMARK    3  A    between atoms: C13_16  and  C15_18 
REMARK    4  A    between atoms: C17_23  and  O6_24 
REMARK    5  A    between atoms: O6_24  and  C18_25 
REMARK    6  A    between atoms: C18_25  and  C19_26 
REMARK    7  A    between atoms: C21_28  and  O7_29 
ROOT
HETATM    1  C4  UNL     1      -8.304  37.065  -4.399  1.00  0.00     0.054 C 
HETATM    2  C5  UNL     1      -7.616  37.560  -3.166  1.00  0.00     0.196 C 
HETATM    3  C6  UNL     1      -7.008  36.285  -2.567  1.00  0.00     0.161 C 
HETATM    4  O2  UNL     1      -7.018  36.089  -1.411  1.00  0.00    -0.295 OA
HETATM    5  C7  UNL     1      -6.549  35.630  -3.791  1.00  0.00     0.071 C 
HETATM    6  C8  UNL     1      -7.949  35.571  -4.459  1.00  0.00     0.008 C 
HETATM    7  C9  UNL     1      -7.937  35.010  -5.817  1.00  0.00     0.007 C 
HETATM    8  C10 UNL     1      -6.500  34.695  -6.157  1.00  0.00     0.006 C 
HETATM    9  C11 UNL     1      -5.945  33.707  -5.125  1.00  0.00     0.005 C 
HETATM   10  C12 UNL     1      -5.909  34.305  -3.753  1.00  0.00     0.047 C 
HETATM   11  C13 UNL     1      -4.624  34.214  -3.038  1.00  0.00     0.150 C 
HETATM   12  C14 UNL     1      -4.137  35.522  -2.396  1.00  0.00     0.058 C 
HETATM   13  O5  UNL     1      -3.506  33.829  -3.802  1.00  0.00    -0.360 OA
HETATM   14  C16 UNL     1      -3.775  32.723  -4.512  1.00  0.00     0.163 C 
HETATM   15  C17 UNL     1      -2.569  31.946  -5.046  1.00  0.00     0.179 C 
HETATM   16  C21 UNL     1      -3.147  30.526  -5.255  1.00  0.00     0.149 C 
HETATM   17  C22 UNL     1      -4.536  30.630  -5.798  1.00  0.00     0.035 C 
HETATM   18  C23 UNL     1      -4.834  31.917  -6.521  1.00  0.00     0.015 C 
HETATM   19  C24 UNL     1      -4.665  33.144  -5.657  1.00  0.00    -0.011 C 
HETATM   20  C25 UNL     1      -4.023  34.217  -6.518  1.00  0.00     0.018 C 
ENDROOT
BRANCH  11  21
HETATM   21  C15 UNL     1      -4.646  33.258  -1.869  1.00  0.00     0.209 C 
HETATM   22  O3  UNL     1      -5.676  32.997  -1.199  1.00  0.00    -0.646 OA
HETATM   23  O4  UNL     1      -3.501  32.614  -1.476  1.00  0.00    -0.646 OA
ENDBRANCH  11  21
BRANCH  15  24
HETATM   24  O6  UNL     1      -1.551  32.026  -4.211  1.00  0.00    -0.381 OA
BRANCH  24  25
HETATM   25  C18 UNL     1      -0.377  32.622  -4.480  1.00  0.00     0.168 C 
BRANCH  25  26
HETATM   26  C19 UNL     1      -0.279  33.668  -5.518  1.00  0.00     0.022 C 
HETATM   27  C20 UNL     1      -0.462  35.091  -5.120  1.00  0.00     0.007 C 
ENDBRANCH  25  26
ENDBRANCH  24  25
ENDBRANCH  15  24
BRANCH   2  28
HETATM   28  O1  UNL     1      -6.478  38.300  -3.573  1.00  0.00    -0.387 OA
ATOM     29  H1  UNL     1      -6.508  39.143  -3.135  1.00  0.00     0.210 HD
ENDBRANCH   2  28
BRANCH   1  30
HETATM   30  C2  UNL     1      -9.753  37.275  -4.478  1.00  0.00    -0.086 C 
HETATM   31  C1  UNL     1     -10.263  38.450  -4.707  1.00  0.00     0.014 C 
HETATM   32  C3  UNL     1     -10.713  36.115  -4.296  1.00  0.00     0.043 C 
ENDBRANCH   1  30
BRANCH  16  33
HETATM   33  O7  UNL     1      -3.215  29.906  -3.989  1.00  0.00    -0.393 OA
ATOM     34  H7  UNL     1      -3.483  30.569  -3.362  1.00  0.00     0.210 HD
ENDBRANCH  16  33
TORSDOF 7
ENDMDL
MODEL 4
REMARK VINA RESULT: -5.601616571      6.986     11.462
REMARK  7 active torsions:
REMARK  status: ('A' for Active; 'I' for Inactive)
REMARK    1  A    between atoms: C2_2  and  C4_4 
REMARK    2  A    between atoms: C5_5  and  O1_6 
REMARK    3  A    between atoms: C13_16  and  C15_18 
REMARK    4  A    between atoms: C17_23  and  O6_24 
REMARK    5  A    between atoms: O6_24  and  C18_25 
REMARK    6  A    between atoms: C18_25  and  C19_26 
REMARK    7  A    between atoms: C21_28  and  O7_29 
ROOT
HETATM    1  C4  UNL     1      -4.733  32.449  -6.823  1.00  0.00     0.054 C 
HETATM    2  C5  UNL     1      -3.726  31.620  -6.090  1.00  0.00     0.196 C 
HETATM    3  C6  UNL     1      -3.264  32.547  -4.959  1.00  0.00     0.161 C 
HETATM    4  O2  UNL     1      -2.138  32.605  -4.638  1.00  0.00    -0.295 OA
HETATM    5  C7  UNL     1      -4.546  33.147  -4.590  1.00  0.00     0.071 C 
HETATM    6  C8  UNL     1      -4.839  33.738  -5.995  1.00  0.00     0.008 C 
HETATM    7  C9  UNL     1      -6.141  34.413  -6.096  1.00  0.00     0.007 C 
HETATM    8  C10 UNL     1      -6.822  34.272  -4.756  1.00  0.00     0.006 C 
HETATM    9  C11 UNL     1      -5.935  34.899  -3.674  1.00  0.00     0.005 C 
HETATM   10  C12 UNL     1      -4.633  34.173  -3.539  1.00  0.00     0.047 C 
HETATM   11  C13 UNL     1      -4.262  33.755  -2.177  1.00  0.00     0.150 C 
HETATM   12  C14 UNL     1      -3.798  32.296  -2.042  1.00  0.00     0.058 C 
HETATM   13  O5  UNL     1      -5.271  33.832  -1.198  1.00  0.00    -0.360 OA
HETATM   14  C16 UNL     1      -5.860  35.038  -1.219  1.00  0.00     0.163 C 
HETATM   15  C17 UNL     1      -6.658  35.428   0.028  1.00  0.00     0.179 C 
HETATM   16  C21 UNL     1      -6.677  36.973  -0.052  1.00  0.00     0.149 C 
HETATM   17  C22 UNL     1      -6.856  37.394  -1.475  1.00  0.00     0.035 C 
HETATM   18  C23 UNL     1      -7.517  36.368  -2.358  1.00  0.00     0.015 C 
HETATM   19  C24 UNL     1      -6.757  35.065  -2.435  1.00  0.00    -0.011 C 
HETATM   20  C25 UNL     1      -7.780  33.944  -2.417  1.00  0.00     0.018 C 
ENDROOT
BRANCH  11  21
HETATM   21  C15 UNL     1      -3.099  34.528  -1.600  1.00  0.00     0.209 C 
HETATM   22  O3  UNL     1      -2.502  35.451  -2.209  1.00  0.00    -0.646 OA
HETATM   23  O4  UNL     1      -2.628  34.241  -0.344  1.00  0.00    -0.646 OA
ENDBRANCH  11  21
BRANCH  15  24
HETATM   24  O6  UNL     1      -6.108  34.924   1.115  1.00  0.00    -0.381 OA
BRANCH  24  25
HETATM   25  C18 UNL     1      -6.780  34.344   2.123  1.00  0.00     0.168 C 
BRANCH  25  26
HETATM   26  C19 UNL     1      -8.055  33.639   1.876  1.00  0.00     0.022 C 
HETATM   27  C20 UNL     1      -8.016  32.285   1.258  1.00  0.00     0.007 C 
ENDBRANCH  25  26
ENDBRANCH  24  25
ENDBRANCH  15  24
BRANCH   2  28
HETATM   28  O1  UNL     1      -4.425  30.596  -5.403  1.00  0.00    -0.387 OA
ATOM     29  H1  UNL     1      -3.784  30.056  -4.956  1.00  0.00     0.210 HD
ENDBRANCH   2  28
BRANCH   1  30
HETATM   30  C2  UNL     1      -4.451  32.738  -8.233  1.00  0.00    -0.086 C 
HETATM   31  C1  UNL     1      -3.401  33.415  -8.596  1.00  0.00     0.014 C 
HETATM   32  C3  UNL     1      -5.384  32.248  -9.323  1.00  0.00     0.043 C 
ENDBRANCH   1  30
BRANCH  16  33
HETATM   33  O7  UNL     1      -5.417  37.434   0.387  1.00  0.00    -0.393 OA
ATOM     34  H7  UNL     1      -5.507  38.360   0.584  1.00  0.00     0.210 HD
ENDBRANCH  16  33
TORSDOF 7
ENDMDL
MODEL 5
REMARK VINA RESULT: -5.556882103      6.028     10.968
REMARK  7 active torsions:
REMARK  status: ('A' for Active; 'I' for Inactive)
REMARK    1  A    between atoms: C2_2  and  C4_4 
REMARK    2  A    between atoms: C5_5  and  O1_6 
REMARK    3  A    between atoms: C13_16  and  C15_18 
REMARK    4  A    between atoms: C17_23  and  O6_24 
REMARK    5  A    between atoms: O6_24  and  C18_25 
REMARK    6  A    between atoms: C18_25  and  C19_26 
REMARK    7  A    between atoms: C21_28  and  O7_29 
ROOT
HETATM    1  C4  UNL     1      -7.369  36.236  -5.909  1.00  0.00     0.054 C 
HETATM    2  C5  UNL     1      -6.400  37.376  -5.904  1.00  0.00     0.196 C 
HETATM    3  C6  UNL     1      -6.499  37.915  -4.472  1.00  0.00     0.161 C 
HETATM    4  O2  UNL     1      -6.491  39.067  -4.251  1.00  0.00    -0.295 OA
HETATM    5  C7  UNL     1      -6.583  36.654  -3.737  1.00  0.00     0.071 C 
HETATM    6  C8  UNL     1      -7.864  36.152  -4.457  1.00  0.00     0.008 C 
HETATM    7  C9  UNL     1      -8.291  34.808  -4.044  1.00  0.00     0.007 C 
HETATM    8  C10 UNL     1      -7.281  34.308  -3.039  1.00  0.00     0.006 C 
HETATM    9  C11 UNL     1      -7.227  35.281  -1.855  1.00  0.00     0.005 C 
HETATM   10  C12 UNL     1      -6.739  36.633  -2.273  1.00  0.00     0.047 C 
HETATM   11  C13 UNL     1      -5.631  37.196  -1.485  1.00  0.00     0.150 C 
HETATM   12  C14 UNL     1      -4.463  37.764  -2.307  1.00  0.00     0.058 C 
HETATM   13  O5  UNL     1      -4.970  36.313  -0.609  1.00  0.00    -0.360 OA
HETATM   14  C16 UNL     1      -5.854  35.651   0.152  1.00  0.00     0.163 C 
HETATM   15  C17 UNL     1      -5.303  34.991   1.418  1.00  0.00     0.179 C 
HETATM   16  C21 UNL     1      -6.560  34.865   2.310  1.00  0.00     0.149 C 
HETATM   17  C22 UNL     1      -7.733  34.485   1.464  1.00  0.00     0.035 C 
HETATM   18  C23 UNL     1      -7.380  33.786   0.177  1.00  0.00     0.015 C 
HETATM   19  C24 UNL     1      -6.501  34.611  -0.732  1.00  0.00    -0.011 C 
HETATM   20  C25 UNL     1      -5.482  33.670  -1.350  1.00  0.00     0.018 C 
ENDROOT
BRANCH  11  21
HETATM   21  C15 UNL     1      -6.033  38.370  -0.624  1.00  0.00     0.209 C 
HETATM   22  O3  UNL     1      -7.221  38.633  -0.311  1.00  0.00    -0.646 OA
HETATM   23  O4  UNL     1      -5.084  39.231  -0.134  1.00  0.00    -0.646 OA
ENDBRANCH  11  21
BRANCH  15  24
HETATM   24  O6  UNL     1      -4.316  35.702   1.928  1.00  0.00    -0.381 OA
BRANCH  24  25
HETATM   25  C18 UNL     1      -3.089  35.232   2.207  1.00  0.00     0.168 C 
BRANCH  25  26
HETATM   26  C19 UNL     1      -2.337  34.441   1.211  1.00  0.00     0.022 C 
HETATM   27  C20 UNL     1      -1.747  35.142   0.038  1.00  0.00     0.007 C 
ENDBRANCH  25  26
ENDBRANCH  24  25
ENDBRANCH  15  24
BRANCH   2  28
HETATM   28  O1  UNL     1      -5.092  36.833  -5.957  1.00  0.00    -0.387 OA
ATOM     29  H1  UNL     1      -4.568  37.393  -6.517  1.00  0.00     0.210 HD
ENDBRANCH   2  28
BRANCH   1  30
HETATM   30  C2  UNL     1      -8.488  36.322  -6.853  1.00  0.00    -0.086 C 
HETATM   31  C1  UNL     1      -9.538  37.048  -6.605  1.00  0.00     0.014 C 
HETATM   32  C3  UNL     1      -8.452  35.561  -8.164  1.00  0.00     0.043 C 
ENDBRANCH   1  30
BRANCH  16  33
HETATM   33  O7  UNL     1      -6.814  36.137   2.866  1.00  0.00    -0.393 OA
ATOM     34  H7  UNL     1      -7.632  36.451   2.496  1.00  0.00     0.210 HD
ENDBRANCH  16  33
TORSDOF 7
ENDMDL
