MODEL 1
REMARK VINA RESULT: -7.152368378      0.000      0.000
REMARK  12 active torsions:
REMARK  status: ('A' for Active; 'I' for Inactive)
REMARK    1  A    between atoms: C3_3  and  C4_4 
REMARK    2  A    between atoms: C4_4  and  N1_5 
REMARK    3  A    between atoms: N1_5  and  C5_6 
REMARK    4  A    between atoms: C5_6  and  C6_7 
REMARK    5  A    between atoms: C6_7  and  C7_8 
REMARK    6  A    between atoms: C6_7  and  N3_13 
REMARK    7  A    between atoms: C7_8  and  N2_9 
REMARK       I    between atoms: N3_13  and  C11_15 
REMARK    8  A    between atoms: C11_15  and  C12_17 
REMARK       I    between atoms: C12_17  and  N4_19 
REMARK    9  A    between atoms: C13_20  and  C14_21 
REMARK   10  A    between atoms: C14_21  and  N5_22 
REMARK   11  A    between atoms: C19_30  and  C20_31 
REMARK   12  A    between atoms: C20_31  and  O3_32 
ROOT
HETATM    1  C1  UNL     1      20.171 -11.922  19.371  1.00  0.00     0.112 C 
HETATM    2  C2  UNL     1      20.163 -12.521  20.710  1.00  0.00    -0.109 C 
HETATM    3  C3  UNL     1      20.163 -13.020  21.825  1.00  0.00    -0.079 C 
ENDROOT
BRANCH   3   4
HETATM    4  C4  UNL     1      20.177 -13.579  23.156  1.00  0.00     0.337 C 
BRANCH   4   5
HETATM    5  N1  UNL     1      19.909 -15.037  23.201  1.00  0.00    -0.029 N 
HETATM    6  C21 UNL     1      19.434 -15.481  24.522  1.00  0.00     0.256 C 
HETATM    7  C22 UNL     1      20.816 -15.847  24.958  1.00  0.00     0.012 A 
HETATM    8  C23 UNL     1      20.967 -17.134  25.696  1.00  0.00     0.019 C 
HETATM    9  C24 UNL     1      22.020 -15.190  24.473  1.00  0.00     0.048 A 
HETATM   10  C25 UNL     1      21.100 -15.782  23.449  1.00  0.00     0.207 A 
BRANCH   5  11
HETATM   11  C5  UNL     1      18.980 -15.368  22.216  1.00  0.00     0.230 C 
BRANCH  11  12
HETATM   12  C6  UNL     1      17.529 -15.544  22.445  1.00  0.00     0.062 C 
BRANCH  12  13
HETATM   13  C7  UNL     1      16.894 -16.662  21.724  1.00  0.00     0.294 C 
BRANCH  13  14
HETATM   14  N2  UNL     1      16.560 -17.843  22.479  1.00  0.00    -0.073 N 
HETATM   15  C8  UNL     1      17.763 -18.720  22.540  1.00  0.00     0.272 C 
HETATM   16  C9  UNL     1      16.039 -17.637  23.784  1.00  0.00     0.272 C 
HETATM   17  C10 UNL     1      15.612 -18.622  21.707  1.00  0.00     0.272 C 
ENDBRANCH  13  14
ENDBRANCH  12  13
BRANCH  12  18
HETATM   18  N3  UNL     1      16.806 -14.287  22.438  1.00  0.00    -0.320 N 
HETATM   19  C11 UNL     1      16.550 -13.517  21.268  1.00  0.00     0.314 C 
HETATM   20  O1  UNL     1      16.977 -13.969  20.194  1.00  0.00    -0.262 OA
ATOM     21  H3  UNL     1      16.458 -13.931  23.329  1.00  0.00     0.169 HD
BRANCH  19  22
HETATM   22  C12 UNL     1      15.827 -12.264  21.310  1.00  0.00     0.314 C 
HETATM   23  O2  UNL     1      16.529 -11.185  21.170  1.00  0.00    -0.262 OA
HETATM   24  N4  UNL     1      14.445 -12.080  21.487  1.00  0.00    -0.306 N 
HETATM   25  C13 UNL     1      13.428 -13.110  21.660  1.00  0.00     0.141 C 
HETATM   26  C19 UNL     1      13.796 -10.772  21.537  1.00  0.00     0.313 C 
HETATM   27  C18 UNL     1      12.369 -12.339  22.436  1.00  0.00     0.261 C 
HETATM   28  N6  UNL     1      12.439 -10.991  21.901  1.00  0.00    -0.050 N 
ATOM     29  H62 UNL     1      11.784 -10.825  21.137  1.00  0.00     0.279 HD
ATOM     30  H61 UNL     1      12.072 -10.285  22.539  1.00  0.00     0.279 HD
BRANCH  25  31
HETATM   31  C14 UNL     1      12.956 -13.536  20.319  1.00  0.00     0.263 C 
BRANCH  31  32
HETATM   32  N5  UNL     1      13.179 -14.901  19.978  1.00  0.00    -0.077 N 
HETATM   33  C15 UNL     1      11.904 -15.410  19.437  1.00  0.00     0.271 C 
HETATM   34  C16 UNL     1      14.159 -15.128  18.957  1.00  0.00     0.271 C 
HETATM   35  C17 UNL     1      13.434 -15.695  21.165  1.00  0.00     0.271 C 
ENDBRANCH  31  32
ENDBRANCH  25  31
BRANCH  26  36
HETATM   36  C20 UNL     1      13.883  -9.999  20.268  1.00  0.00     0.218 C 
BRANCH  36  37
HETATM   37  O3  UNL     1      14.726  -8.880  20.402  1.00  0.00    -0.397 OA
ATOM     38  H3  UNL     1      14.643  -8.290  19.661  1.00  0.00     0.209 HD
ENDBRANCH  36  37
ENDBRANCH  26  36
ENDBRANCH  19  22
ENDBRANCH  12  18
ENDBRANCH  11  12
ENDBRANCH   5  11
ENDBRANCH   4   5
ENDBRANCH   3   4
TORSDOF 12
ENDMDL
MODEL 2
REMARK VINA RESULT: -6.847569712      2.421      7.162
REMARK  12 active torsions:
REMARK  status: ('A' for Active; 'I' for Inactive)
REMARK    1  A    between atoms: C3_3  and  C4_4 
REMARK    2  A    between atoms: C4_4  and  N1_5 
REMARK    3  A    between atoms: N1_5  and  C5_6 
REMARK    4  A    between atoms: C5_6  and  C6_7 
REMARK    5  A    between atoms: C6_7  and  C7_8 
REMARK    6  A    between atoms: C6_7  and  N3_13 
REMARK    7  A    between atoms: C7_8  and  N2_9 
REMARK       I    between atoms: N3_13  and  C11_15 
REMARK    8  A    between atoms: C11_15  and  C12_17 
REMARK       I    between atoms: C12_17  and  N4_19 
REMARK    9  A    between atoms: C13_20  and  C14_21 
REMARK   10  A    between atoms: C14_21  and  N5_22 
REMARK   11  A    between atoms: C19_30  and  C20_31 
REMARK   12  A    between atoms: C20_31  and  O3_32 
ROOT
HETATM    1  C1  UNL     1      12.197  -9.308  23.009  1.00  0.00     0.112 C 
HETATM    2  C2  UNL     1      12.791 -10.233  22.039  1.00  0.00    -0.109 C 
HETATM    3  C3  UNL     1      13.281 -11.007  21.230  1.00  0.00    -0.079 C 
ENDROOT
BRANCH   3   4
HETATM    4  C4  UNL     1      13.840 -11.905  20.248  1.00  0.00     0.337 C 
BRANCH   4   5
HETATM    5  N1  UNL     1      15.048 -12.630  20.711  1.00  0.00    -0.029 N 
HETATM    6  C21 UNL     1      16.116 -11.718  21.154  1.00  0.00     0.256 C 
HETATM    7  C22 UNL     1      16.770 -11.740  19.811  1.00  0.00     0.012 A 
HETATM    8  C23 UNL     1      18.257 -11.853  19.790  1.00  0.00     0.019 C 
HETATM    9  C24 UNL     1      16.049 -11.939  18.563  1.00  0.00     0.048 A 
HETATM   10  C25 UNL     1      15.895 -12.989  19.620  1.00  0.00     0.207 A 
BRANCH   5  11
HETATM   11  C5  UNL     1      14.699 -13.503  21.739  1.00  0.00     0.230 C 
BRANCH  11  12
HETATM   12  C6  UNL     1      14.474 -14.956  21.576  1.00  0.00     0.062 C 
BRANCH  12  13
HETATM   13  C7  UNL     1      13.109 -15.358  21.191  1.00  0.00     0.294 C 
BRANCH  13  14
HETATM   14  N2  UNL     1      12.969 -16.370  20.174  1.00  0.00    -0.073 N 
HETATM   15  C8  UNL     1      14.066 -16.196  19.182  1.00  0.00     0.272 C 
HETATM   16  C9  UNL     1      12.923 -17.717  20.621  1.00  0.00     0.272 C 
HETATM   17  C10 UNL     1      11.771 -16.082  19.410  1.00  0.00     0.272 C 
ENDBRANCH  13  14
ENDBRANCH  12  13
BRANCH  12  18
HETATM   18  N3  UNL     1      15.099 -15.740  22.624  1.00  0.00    -0.320 N 
HETATM   19  C11 UNL     1      16.298 -16.490  22.457  1.00  0.00     0.314 C 
HETATM   20  O1  UNL     1      16.832 -16.454  21.337  1.00  0.00    -0.262 OA
ATOM     21  H3  UNL     1      14.650 -15.756  23.540  1.00  0.00     0.169 HD
BRANCH  19  22
HETATM   22  C12 UNL     1      16.882 -17.263  23.532  1.00  0.00     0.314 C 
HETATM   23  O2  UNL     1      16.467 -18.481  23.661  1.00  0.00    -0.262 OA
HETATM   24  N4  UNL     1      17.854 -16.842  24.457  1.00  0.00    -0.306 N 
HETATM   25  C13 UNL     1      18.496 -15.535  24.537  1.00  0.00     0.141 C 
HETATM   26  C19 UNL     1      18.378 -17.685  25.528  1.00  0.00     0.313 C 
HETATM   27  C18 UNL     1      18.862 -15.487  26.014  1.00  0.00     0.261 C 
HETATM   28  N6  UNL     1      19.196 -16.860  26.349  1.00  0.00    -0.050 N 
ATOM     29  H62 UNL     1      20.191 -17.065  26.263  1.00  0.00     0.279 HD
ATOM     30  H61 UNL     1      19.109 -17.065  27.344  1.00  0.00     0.279 HD
BRANCH  25  31
HETATM   31  C14 UNL     1      19.688 -15.541  23.653  1.00  0.00     0.263 C 
BRANCH  31  32
HETATM   32  N5  UNL     1      19.829 -14.424  22.781  1.00  0.00    -0.077 N 
HETATM   33  C15 UNL     1      18.592 -13.631  22.914  1.00  0.00     0.271 C 
HETATM   34  C16 UNL     1      20.905 -13.531  23.095  1.00  0.00     0.271 C 
HETATM   35  C17 UNL     1      19.862 -14.851  21.396  1.00  0.00     0.271 C 
ENDBRANCH  31  32
ENDBRANCH  25  31
BRANCH  26  36
HETATM   36  C20 UNL     1      19.136 -18.874  25.054  1.00  0.00     0.218 C 
BRANCH  36  37
HETATM   37  O3  UNL     1      18.394 -20.059  25.215  1.00  0.00    -0.397 OA
ATOM     38  H3  UNL     1      17.895 -20.267  24.433  1.00  0.00     0.209 HD
ENDBRANCH  36  37
ENDBRANCH  26  36
ENDBRANCH  19  22
ENDBRANCH  12  18
ENDBRANCH  11  12
ENDBRANCH   5  11
ENDBRANCH   4   5
ENDBRANCH   3   4
TORSDOF 12
ENDMDL
MODEL 3
REMARK VINA RESULT: -6.748026757      1.220      2.251
REMARK  12 active torsions:
REMARK  status: ('A' for Active; 'I' for Inactive)
REMARK    1  A    between atoms: C3_3  and  C4_4 
REMARK    2  A    between atoms: C4_4  and  N1_5 
REMARK    3  A    between atoms: N1_5  and  C5_6 
REMARK    4  A    between atoms: C5_6  and  C6_7 
REMARK    5  A    between atoms: C6_7  and  C7_8 
REMARK    6  A    between atoms: C6_7  and  N3_13 
REMARK    7  A    between atoms: C7_8  and  N2_9 
REMARK       I    between atoms: N3_13  and  C11_15 
REMARK    8  A    between atoms: C11_15  and  C12_17 
REMARK       I    between atoms: C12_17  and  N4_19 
REMARK    9  A    between atoms: C13_20  and  C14_21 
REMARK   10  A    between atoms: C14_21  and  N5_22 
REMARK   11  A    between atoms: C19_30  and  C20_31 
REMARK   12  A    between atoms: C20_31  and  O3_32 
ROOT
HETATM    1  C1  UNL     1      23.048 -17.953  21.399  1.00  0.00     0.112 C 
HETATM    2  C2  UNL     1      22.046 -17.412  22.323  1.00  0.00    -0.109 C 
HETATM    3  C3  UNL     1      21.207 -16.961  23.088  1.00  0.00    -0.079 C 
ENDROOT
BRANCH   3   4
HETATM    4  C4  UNL     1      20.198 -16.461  23.992  1.00  0.00     0.337 C 
BRANCH   4   5
HETATM    5  N1  UNL     1      19.803 -15.055  23.735  1.00  0.00    -0.029 N 
HETATM    6  C21 UNL     1      20.959 -14.144  23.690  1.00  0.00     0.256 C 
HETATM    7  C22 UNL     1      20.811 -13.793  25.135  1.00  0.00     0.012 A 
HETATM    8  C23 UNL     1      20.968 -12.354  25.495  1.00  0.00     0.019 C 
HETATM    9  C24 UNL     1      20.258 -14.693  26.135  1.00  0.00     0.048 A 
HETATM   10  C25 UNL     1      19.410 -14.393  24.937  1.00  0.00     0.207 A 
BRANCH   5  11
HETATM   11  C5  UNL     1      19.084 -14.985  22.544  1.00  0.00     0.230 C 
BRANCH  11  12
HETATM   12  C6  UNL     1      17.636 -15.259  22.412  1.00  0.00     0.062 C 
BRANCH  12  13
HETATM   13  C7  UNL     1      17.262 -16.285  21.420  1.00  0.00     0.294 C 
BRANCH  13  14
HETATM   14  N2  UNL     1      16.872 -17.582  21.912  1.00  0.00    -0.073 N 
HETATM   15  C8  UNL     1      18.046 -18.494  21.818  1.00  0.00     0.272 C 
HETATM   16  C9  UNL     1      16.320 -17.626  23.219  1.00  0.00     0.272 C 
HETATM   17  C10 UNL     1      15.923 -18.154  20.976  1.00  0.00     0.272 C 
ENDBRANCH  13  14
ENDBRANCH  12  13
BRANCH  12  18
HETATM   18  N3  UNL     1      16.835 -14.050  22.412  1.00  0.00    -0.320 N 
HETATM   19  C11 UNL     1      16.651 -13.211  21.275  1.00  0.00     0.314 C 
HETATM   20  O1  UNL     1      17.216 -13.556  20.226  1.00  0.00    -0.262 OA
ATOM     21  H3  UNL     1      16.374 -13.783  23.281  1.00  0.00     0.169 HD
BRANCH  19  22
HETATM   22  C12 UNL     1      15.846 -12.010  21.324  1.00  0.00     0.314 C 
HETATM   23  O2  UNL     1      16.472 -10.887  21.176  1.00  0.00    -0.262 OA
HETATM   24  N4  UNL     1      14.457 -11.919  21.515  1.00  0.00    -0.306 N 
HETATM   25  C13 UNL     1      13.513 -13.015  21.699  1.00  0.00     0.141 C 
HETATM   26  C19 UNL     1      13.722 -10.658  21.571  1.00  0.00     0.313 C 
HETATM   27  C18 UNL     1      12.413 -12.316  22.486  1.00  0.00     0.261 C 
HETATM   28  N6  UNL     1      12.386 -10.967  21.950  1.00  0.00    -0.050 N 
ATOM     29  H62 UNL     1      11.714 -10.847  21.192  1.00  0.00     0.279 HD
ATOM     30  H61 UNL     1      11.979 -10.286  22.590  1.00  0.00     0.279 HD
BRANCH  25  31
HETATM   31  C14 UNL     1      13.057 -13.474  20.364  1.00  0.00     0.263 C 
BRANCH  31  32
HETATM   32  N5  UNL     1      13.199 -14.865  20.095  1.00  0.00    -0.077 N 
HETATM   33  C15 UNL     1      13.604 -15.498  21.365  1.00  0.00     0.271 C 
HETATM   34  C16 UNL     1      12.002 -15.538  19.684  1.00  0.00     0.271 C 
HETATM   35  C17 UNL     1      14.300 -15.105  19.182  1.00  0.00     0.271 C 
ENDBRANCH  31  32
ENDBRANCH  25  31
BRANCH  26  36
HETATM   36  C20 UNL     1      13.744  -9.883  20.301  1.00  0.00     0.218 C 
BRANCH  36  37
HETATM   37  O3  UNL     1      14.575  -8.751  20.400  1.00  0.00    -0.397 OA
ATOM     38  H3  UNL     1      15.096  -8.631  19.615  1.00  0.00     0.209 HD
ENDBRANCH  36  37
ENDBRANCH  26  36
ENDBRANCH  19  22
ENDBRANCH  12  18
ENDBRANCH  11  12
ENDBRANCH   5  11
ENDBRANCH   4   5
ENDBRANCH   3   4
TORSDOF 12
ENDMDL
MODEL 4
REMARK VINA RESULT: -6.727871243      2.197      6.850
REMARK  12 active torsions:
REMARK  status: ('A' for Active; 'I' for Inactive)
REMARK    1  A    between atoms: C3_3  and  C4_4 
REMARK    2  A    between atoms: C4_4  and  N1_5 
REMARK    3  A    between atoms: N1_5  and  C5_6 
REMARK    4  A    between atoms: C5_6  and  C6_7 
REMARK    5  A    between atoms: C6_7  and  C7_8 
REMARK    6  A    between atoms: C6_7  and  N3_13 
REMARK    7  A    between atoms: C7_8  and  N2_9 
REMARK       I    between atoms: N3_13  and  C11_15 
REMARK    8  A    between atoms: C11_15  and  C12_17 
REMARK       I    between atoms: C12_17  and  N4_19 
REMARK    9  A    between atoms: C13_20  and  C14_21 
REMARK   10  A    between atoms: C14_21  and  N5_22 
REMARK   11  A    between atoms: C19_30  and  C20_31 
REMARK   12  A    between atoms: C20_31  and  O3_32 
ROOT
HETATM    1  C1  UNL     1      12.300  -9.658  22.612  1.00  0.00     0.112 C 
HETATM    2  C2  UNL     1      12.913 -10.641  21.714  1.00  0.00    -0.109 C 
HETATM    3  C3  UNL     1      13.420 -11.461  20.963  1.00  0.00    -0.079 C 
ENDROOT
BRANCH   3   4
HETATM    4  C4  UNL     1      14.015 -12.405  20.047  1.00  0.00     0.337 C 
BRANCH   4   5
HETATM    5  N1  UNL     1      15.298 -12.980  20.523  1.00  0.00    -0.029 N 
HETATM    6  C21 UNL     1      16.191 -11.962  21.099  1.00  0.00     0.256 C 
HETATM    7  C22 UNL     1      16.902 -11.767  19.799  1.00  0.00     0.012 A 
HETATM    8  C23 UNL     1      18.388 -11.656  19.858  1.00  0.00     0.019 C 
HETATM    9  C24 UNL     1      16.280 -11.962  18.499  1.00  0.00     0.048 A 
HETATM   10  C25 UNL     1      16.239 -13.112  19.459  1.00  0.00     0.207 A 
BRANCH   5  11
HETATM   11  C5  UNL     1      15.039 -13.982  21.455  1.00  0.00     0.230 C 
BRANCH  11  12
HETATM   12  C6  UNL     1      15.996 -15.040  21.848  1.00  0.00     0.062 C 
BRANCH  12  13
HETATM   13  C7  UNL     1      15.401 -16.300  22.331  1.00  0.00     0.294 C 
BRANCH  13  14
HETATM   14  N2  UNL     1      15.253 -17.378  21.386  1.00  0.00    -0.073 N 
HETATM   15  C8  UNL     1      13.830 -17.427  20.947  1.00  0.00     0.272 C 
HETATM   16  C9  UNL     1      16.114 -17.356  20.257  1.00  0.00     0.272 C 
HETATM   17  C10 UNL     1      15.432 -18.630  22.096  1.00  0.00     0.272 C 
ENDBRANCH  13  14
ENDBRANCH  12  13
BRANCH  12  18
HETATM   18  N3  UNL     1      17.114 -14.527  22.615  1.00  0.00    -0.320 N 
HETATM   19  C11 UNL     1      18.470 -14.568  22.181  1.00  0.00     0.314 C 
HETATM   20  O1  UNL     1      18.688 -15.075  21.069  1.00  0.00    -0.262 OA
ATOM     21  H3  UNL     1      16.917 -14.110  23.525  1.00  0.00     0.169 HD
BRANCH  19  22
HETATM   22  C12 UNL     1      19.555 -14.047  22.984  1.00  0.00     0.314 C 
HETATM   23  O2  UNL     1      19.586 -12.765  23.155  1.00  0.00    -0.262 OA
HETATM   24  N4  UNL     1      20.585 -14.775  23.603  1.00  0.00    -0.306 N 
HETATM   25  C13 UNL     1      20.788 -16.219  23.582  1.00  0.00     0.141 C 
HETATM   26  C19 UNL     1      21.658 -14.166  24.385  1.00  0.00     0.313 C 
HETATM   27  C18 UNL     1      22.293 -16.300  23.797  1.00  0.00     0.261 C 
HETATM   28  N6  UNL     1      22.590 -15.196  24.692  1.00  0.00    -0.050 N 
ATOM     29  H62 UNL     1      22.587 -15.463  25.677  1.00  0.00     0.279 HD
ATOM     30  H61 UNL     1      23.562 -14.889  24.647  1.00  0.00     0.279 HD
BRANCH  25  31
HETATM   31  C14 UNL     1      20.019 -16.820  24.699  1.00  0.00     0.263 C 
BRANCH  31  32
HETATM   32  N5  UNL     1      19.121 -17.869  24.352  1.00  0.00    -0.077 N 
HETATM   33  C15 UNL     1      17.784 -17.444  24.810  1.00  0.00     0.271 C 
HETATM   34  C16 UNL     1      18.992 -18.131  22.949  1.00  0.00     0.271 C 
HETATM   35  C17 UNL     1      19.416 -19.073  25.106  1.00  0.00     0.271 C 
ENDBRANCH  31  32
ENDBRANCH  25  31
BRANCH  26  36
HETATM   36  C20 UNL     1      21.198 -13.484  25.625  1.00  0.00     0.218 C 
BRANCH  36  37
HETATM   37  O3  UNL     1      21.060 -12.097  25.432  1.00  0.00    -0.397 OA
ATOM     38  H3  UNL     1      20.749 -11.665  26.218  1.00  0.00     0.209 HD
ENDBRANCH  36  37
ENDBRANCH  26  36
ENDBRANCH  19  22
ENDBRANCH  12  18
ENDBRANCH  11  12
ENDBRANCH   5  11
ENDBRANCH   4   5
ENDBRANCH   3   4
TORSDOF 12
ENDMDL
MODEL 5
REMARK VINA RESULT: -6.689543127      2.125      6.660
REMARK  12 active torsions:
REMARK  status: ('A' for Active; 'I' for Inactive)
REMARK    1  A    between atoms: C3_3  and  C4_4 
REMARK    2  A    between atoms: C4_4  and  N1_5 
REMARK    3  A    between atoms: N1_5  and  C5_6 
REMARK    4  A    between atoms: C5_6  and  C6_7 
REMARK    5  A    between atoms: C6_7  and  C7_8 
REMARK    6  A    between atoms: C6_7  and  N3_13 
REMARK    7  A    between atoms: C7_8  and  N2_9 
REMARK       I    between atoms: N3_13  and  C11_15 
REMARK    8  A    between atoms: C11_15  and  C12_17 
REMARK       I    between atoms: C12_17  and  N4_19 
REMARK    9  A    between atoms: C13_20  and  C14_21 
REMARK   10  A    between atoms: C14_21  and  N5_22 
REMARK   11  A    between atoms: C19_30  and  C20_31 
REMARK   12  A    between atoms: C20_31  and  O3_32 
ROOT
HETATM    1  C1  UNL     1      20.190 -11.915  19.716  1.00  0.00     0.112 C 
HETATM    2  C2  UNL     1      18.733 -11.905  19.561  1.00  0.00    -0.109 C 
HETATM    3  C3  UNL     1      17.518 -11.898  19.427  1.00  0.00    -0.079 C 
ENDROOT
BRANCH   3   4
HETATM    4  C4  UNL     1      16.084 -11.928  19.270  1.00  0.00     0.337 C 
BRANCH   4   5
HETATM    5  N1  UNL     1      15.398 -12.886  20.172  1.00  0.00    -0.029 N 
HETATM    6  C21 UNL     1      13.949 -12.958  19.919  1.00  0.00     0.256 C 
HETATM    7  C22 UNL     1      13.656 -11.943  20.976  1.00  0.00     0.012 A 
HETATM    8  C23 UNL     1      12.496 -12.221  21.870  1.00  0.00     0.019 C 
HETATM    9  C24 UNL     1      14.575 -10.881  21.356  1.00  0.00     0.048 A 
HETATM   10  C25 UNL     1      15.084 -12.288  21.429  1.00  0.00     0.207 A 
BRANCH   5  11
HETATM   11  C5  UNL     1      15.977 -14.146  20.038  1.00  0.00     0.230 C 
BRANCH  11  12
HETATM   12  C6  UNL     1      16.357 -15.027  21.163  1.00  0.00     0.062 C 
BRANCH  12  13
HETATM   13  C7  UNL     1      15.248 -15.734  21.831  1.00  0.00     0.294 C 
BRANCH  13  14
HETATM   14  N2  UNL     1      14.903 -17.047  21.350  1.00  0.00    -0.073 N 
HETATM   15  C8  UNL     1      13.548 -16.982  20.734  1.00  0.00     0.272 C 
HETATM   16  C9  UNL     1      15.820 -17.656  20.453  1.00  0.00     0.272 C 
HETATM   17  C10 UNL     1      14.713 -17.915  22.496  1.00  0.00     0.272 C 
ENDBRANCH  13  14
ENDBRANCH  12  13
BRANCH  12  18
HETATM   18  N3  UNL     1      17.348 -14.426  22.035  1.00  0.00    -0.320 N 
HETATM   19  C11 UNL     1      18.735 -14.746  22.011  1.00  0.00     0.314 C 
HETATM   20  O1  UNL     1      19.102 -15.593  21.181  1.00  0.00    -0.262 OA
ATOM     21  H3  UNL     1      17.031 -13.729  22.708  1.00  0.00     0.169 HD
BRANCH  19  22
HETATM   22  C12 UNL     1      19.687 -14.123  22.905  1.00  0.00     0.314 C 
HETATM   23  O2  UNL     1      19.725 -12.830  22.901  1.00  0.00    -0.262 OA
HETATM   24  N4  UNL     1      20.582 -14.762  23.781  1.00  0.00    -0.306 N 
HETATM   25  C13 UNL     1      20.745 -16.196  23.992  1.00  0.00     0.141 C 
HETATM   26  C19 UNL     1      21.528 -14.054  24.639  1.00  0.00     0.313 C 
HETATM   27  C18 UNL     1      22.192 -16.253  24.463  1.00  0.00     0.261 C 
HETATM   28  N6  UNL     1      22.368 -15.036  25.236  1.00  0.00    -0.050 N 
ATOM     29  H62 UNL     1      22.196 -15.162  26.233  1.00  0.00     0.279 HD
ATOM     30  H61 UNL     1      23.342 -14.743  25.311  1.00  0.00     0.279 HD
BRANCH  25  31
HETATM   31  C14 UNL     1      19.787 -16.631  25.037  1.00  0.00     0.263 C 
BRANCH  31  32
HETATM   32  N5  UNL     1      18.912 -17.698  24.684  1.00  0.00    -0.077 N 
HETATM   33  C15 UNL     1      17.567 -17.107  24.546  1.00  0.00     0.271 C 
HETATM   34  C16 UNL     1      19.192 -18.335  23.431  1.00  0.00     0.271 C 
HETATM   35  C17 UNL     1      18.799 -18.654  25.768  1.00  0.00     0.271 C 
ENDBRANCH  31  32
ENDBRANCH  25  31
BRANCH  26  36
HETATM   36  C20 UNL     1      20.889 -13.204  25.680  1.00  0.00     0.218 C 
BRANCH  36  37
HETATM   37  O3  UNL     1      20.971 -11.838  25.353  1.00  0.00    -0.397 OA
ATOM     38  H3  UNL     1      20.801 -11.689  24.430  1.00  0.00     0.209 HD
ENDBRANCH  36  37
ENDBRANCH  26  36
ENDBRANCH  19  22
ENDBRANCH  12  18
ENDBRANCH  11  12
ENDBRANCH   5  11
ENDBRANCH   4   5
ENDBRANCH   3   4
TORSDOF 12
ENDMDL
