MODEL 1
REMARK VINA RESULT: -7.040495274      0.000      0.000
REMARK  12 active torsions:
REMARK  status: ('A' for Active; 'I' for Inactive)
REMARK    1  A    between atoms: C4_4  and  N1_5 
REMARK    2  A    between atoms: N1_5  and  C6_7 
REMARK    3  A    between atoms: C6_7  and  C7_8 
REMARK    4  A    between atoms: C8_9  and  C9_10 
REMARK    5  A    between atoms: C9_10  and  N2_11 
REMARK    6  A    between atoms: C13_18  and  N4_19 
REMARK    7  A    between atoms: C13_18  and  C14_23 
REMARK    8  A    between atoms: C17_28  and  C18_29 
REMARK    9  A    between atoms: C18_29  and  N6_30 
REMARK   10  A    between atoms: N6_30  and  C19_31 
REMARK   11  A    between atoms: C21_33  and  C22_34 
REMARK   12  A    between atoms: C22_34  and  N7_35 
ROOT
HETATM    1  C1  UNL     1      20.930 -13.056  26.817  1.00  0.00     0.102 C 
HETATM    2  C2  UNL     1      20.832 -14.130  26.243  1.00  0.00    -0.159 C 
HETATM    3  C3  UNL     1      20.734 -15.394  25.588  1.00  0.00     0.062 C 
HETATM    4  C4  UNL     1      21.180 -15.557  24.361  1.00  0.00     0.068 C 
ENDROOT
BRANCH   4   5
HETATM    5  N1  UNL     1      21.065 -16.825  23.747  1.00  0.00    -0.285 NA
HETATM    6  C5  UNL     1      22.279 -17.601  23.918  1.00  0.00     0.117 C 
BRANCH   5   7
HETATM    7  C6  UNL     1      20.650 -16.733  22.386  1.00  0.00     0.188 C 
BRANCH   7   8
HETATM    8  C7  UNL     1      19.353 -16.061  22.201  1.00  0.00    -0.090 C 
HETATM    9  C8  UNL     1      18.306 -15.492  22.068  1.00  0.00    -0.085 C 
BRANCH   9  10
HETATM   10  C9  UNL     1      17.038 -14.766  21.929  1.00  0.00     0.222 C 
BRANCH  10  11
HETATM   11  N2  UNL     1      17.086 -13.701  20.980  1.00  0.00    -0.316 N 
HETATM   12  C10 UNL     1      17.958 -12.551  21.066  1.00  0.00     0.319 C 
HETATM   13  O1  UNL     1      18.793 -12.288  21.971  1.00  0.00    -0.247 OA
HETATM   14  N3  UNL     1      17.719 -11.727  19.926  1.00  0.00    -0.336 N 
HETATM   15  C11 UNL     1      16.291 -12.008  19.644  1.00  0.00     0.112 C 
ATOM     16  H3  UNL     1      18.363 -11.108  19.435  1.00  0.00     0.164 HD
HETATM   17  C12 UNL     1      15.566 -11.299  20.743  1.00  0.00     0.075 C 
HETATM   18  C26 UNL     1      16.332 -13.513  19.792  1.00  0.00     0.121 C 
HETATM   19  C13 UNL     1      14.124 -11.019  20.494  1.00  0.00     0.203 C 
HETATM   20  C15 UNL     1      13.413 -12.353  20.487  1.00  0.00     0.049 C 
HETATM   21  C16 UNL     1      13.889 -13.248  19.348  1.00  0.00     0.015 C 
HETATM   22  C17 UNL     1      14.971 -14.163  19.735  1.00  0.00     0.049 C 
BRANCH  19  23
HETATM   23  N4  UNL     1      13.824 -10.211  19.363  1.00  0.00    -0.062 N 
ATOM     24  H43 UNL     1      13.310  -9.381  19.659  1.00  0.00     0.275 HD
ATOM     25  H42 UNL     1      14.680  -9.783  19.009  1.00  0.00     0.275 HD
ATOM     26  H41 UNL     1      13.328 -10.668  18.598  1.00  0.00     0.275 HD
ENDBRANCH  19  23
BRANCH  19  27
HETATM   27  C14 UNL     1      13.614 -10.295  21.707  1.00  0.00     0.267 C 
HETATM   28  N5  UNL     1      12.804 -10.989  22.639  1.00  0.00    -0.060 NA
HETATM   29  O2  UNL     1      13.879  -9.090  21.929  1.00  0.00    -0.274 OA
ENDBRANCH  19  27
BRANCH  22  30
HETATM   30  C18 UNL     1      15.108 -15.348  18.842  1.00  0.00     0.069 C 
BRANCH  30  31
HETATM   31  N6  UNL     1      15.010 -16.652  19.242  1.00  0.00    -0.372 N 
HETATM   32  C21 UNL     1      14.574 -17.187  20.413  1.00  0.00     0.090 C 
BRANCH  31  33
HETATM   33  C19 UNL     1      14.971 -17.516  18.069  1.00  0.00     0.122 C 
HETATM   34  C20 UNL     1      15.752 -16.978  16.911  1.00  0.00     0.027 C 
ENDBRANCH  31  33
BRANCH  32  35
HETATM   35  C22 UNL     1      14.712 -18.706  20.537  1.00  0.00     0.280 C 
BRANCH  35  36
HETATM   36  N7  UNL     1      15.498 -19.017  21.700  1.00  0.00    -0.074 N 
HETATM   37  C23 UNL     1      15.242 -18.016  22.748  1.00  0.00     0.272 C 
HETATM   38  C24 UNL     1      16.927 -18.983  21.478  1.00  0.00     0.272 C 
HETATM   39  C25 UNL     1      15.181 -20.337  22.215  1.00  0.00     0.272 C 
ENDBRANCH  35  36
ENDBRANCH  32  35
ENDBRANCH  30  31
ENDBRANCH  22  30
ENDBRANCH  10  11
ENDBRANCH   9  10
ENDBRANCH   7   8
ENDBRANCH   5   7
ENDBRANCH   4   5
TORSDOF 12
ENDMDL
MODEL 2
REMARK VINA RESULT: -7.038292319      2.911      7.096
REMARK  12 active torsions:
REMARK  status: ('A' for Active; 'I' for Inactive)
REMARK    1  A    between atoms: C4_4  and  N1_5 
REMARK    2  A    between atoms: N1_5  and  C6_7 
REMARK    3  A    between atoms: C6_7  and  C7_8 
REMARK    4  A    between atoms: C8_9  and  C9_10 
REMARK    5  A    between atoms: C9_10  and  N2_11 
REMARK    6  A    between atoms: C13_18  and  N4_19 
REMARK    7  A    between atoms: C13_18  and  C14_23 
REMARK    8  A    between atoms: C17_28  and  C18_29 
REMARK    9  A    between atoms: C18_29  and  N6_30 
REMARK   10  A    between atoms: N6_30  and  C19_31 
REMARK   11  A    between atoms: C21_33  and  C22_34 
REMARK   12  A    between atoms: C22_34  and  N7_35 
ROOT
HETATM    1  C1  UNL     1      10.228 -13.418  27.213  1.00  0.00     0.102 C 
HETATM    2  C2  UNL     1      10.817 -12.577  26.552  1.00  0.00    -0.159 C 
HETATM    3  C3  UNL     1      11.495 -11.576  25.791  1.00  0.00     0.062 C 
HETATM    4  C4  UNL     1      11.191 -11.363  24.529  1.00  0.00     0.068 C 
ENDROOT
BRANCH   4   5
HETATM    5  N1  UNL     1      11.885 -10.364  23.811  1.00  0.00    -0.285 NA
HETATM    6  C5  UNL     1      11.357  -9.045  24.108  1.00  0.00     0.117 C 
BRANCH   5   7
HETATM    7  C6  UNL     1      11.941 -10.639  22.413  1.00  0.00     0.188 C 
BRANCH   7   8
HETATM    8  C7  UNL     1      13.273 -11.047  21.938  1.00  0.00    -0.090 C 
HETATM    9  C8  UNL     1      14.371 -11.358  21.567  1.00  0.00    -0.085 C 
BRANCH   9  10
HETATM   10  C9  UNL     1      15.729 -11.707  21.134  1.00  0.00     0.222 C 
BRANCH  10  11
HETATM   11  N2  UNL     1      15.773 -12.410  19.892  1.00  0.00    -0.316 N 
HETATM   12  C10 UNL     1      15.186 -11.946  18.655  1.00  0.00     0.319 C 
HETATM   13  O1  UNL     1      14.544 -10.881  18.462  1.00  0.00    -0.247 OA
HETATM   14  N3  UNL     1      15.457 -12.917  17.645  1.00  0.00    -0.336 N 
HETATM   15  C11 UNL     1      15.512 -14.170  18.436  1.00  0.00     0.112 C 
ATOM     16  H3  UNL     1      15.581 -12.784  16.642  1.00  0.00     0.164 HD
HETATM   17  C12 UNL     1      14.083 -14.428  18.793  1.00  0.00     0.075 C 
HETATM   18  C26 UNL     1      16.360 -13.666  19.583  1.00  0.00     0.121 C 
HETATM   19  C13 UNL     1      13.756 -15.823  19.197  1.00  0.00     0.203 C 
HETATM   20  C15 UNL     1      14.438 -16.066  20.524  1.00  0.00     0.049 C 
HETATM   21  C16 UNL     1      15.956 -15.986  20.411  1.00  0.00     0.015 C 
HETATM   22  C17 UNL     1      16.495 -14.655  20.715  1.00  0.00     0.049 C 
BRANCH  19  23
HETATM   23  N4  UNL     1      14.016 -16.837  18.232  1.00  0.00    -0.062 N 
ATOM     24  H43 UNL     1      13.434 -16.686  17.409  1.00  0.00     0.275 HD
ATOM     25  H42 UNL     1      14.944 -16.701  17.831  1.00  0.00     0.275 HD
ATOM     26  H41 UNL     1      13.918 -17.801  18.551  1.00  0.00     0.275 HD
ENDBRANCH  19  23
BRANCH  19  27
HETATM   27  C14 UNL     1      12.283 -15.851  19.486  1.00  0.00     0.267 C 
HETATM   28  N5  UNL     1      11.779 -16.780  20.429  1.00  0.00    -0.060 NA
HETATM   29  O2  UNL     1      11.475 -15.078  18.920  1.00  0.00    -0.274 OA
ENDBRANCH  19  27
BRANCH  22  30
HETATM   30  C18 UNL     1      17.936 -14.661  21.098  1.00  0.00     0.069 C 
BRANCH  30  31
HETATM   31  N6  UNL     1      18.453 -14.093  22.230  1.00  0.00    -0.372 N 
HETATM   32  C21 UNL     1      18.788 -14.649  23.423  1.00  0.00     0.090 C 
BRANCH  31  33
HETATM   33  C19 UNL     1      19.099 -12.832  21.886  1.00  0.00     0.122 C 
HETATM   34  C20 UNL     1      19.797 -12.865  20.563  1.00  0.00     0.027 C 
ENDBRANCH  31  33
BRANCH  32  35
HETATM   35  C22 UNL     1      19.245 -13.668  24.505  1.00  0.00     0.280 C 
BRANCH  35  36
HETATM   36  N7  UNL     1      20.448 -14.162  25.116  1.00  0.00    -0.074 N 
HETATM   37  C23 UNL     1      20.850 -13.261  26.208  1.00  0.00     0.272 C 
HETATM   38  C24 UNL     1      21.587 -14.218  24.226  1.00  0.00     0.272 C 
HETATM   39  C25 UNL     1      20.261 -15.499  25.648  1.00  0.00     0.272 C 
ENDBRANCH  35  36
ENDBRANCH  32  35
ENDBRANCH  30  31
ENDBRANCH  22  30
ENDBRANCH  10  11
ENDBRANCH   9  10
ENDBRANCH   7   8
ENDBRANCH   5   7
ENDBRANCH   4   5
TORSDOF 12
ENDMDL
MODEL 3
REMARK VINA RESULT: -7.036421915      2.570      5.153
REMARK  12 active torsions:
REMARK  status: ('A' for Active; 'I' for Inactive)
REMARK    1  A    between atoms: C4_4  and  N1_5 
REMARK    2  A    between atoms: N1_5  and  C6_7 
REMARK    3  A    between atoms: C6_7  and  C7_8 
REMARK    4  A    between atoms: C8_9  and  C9_10 
REMARK    5  A    between atoms: C9_10  and  N2_11 
REMARK    6  A    between atoms: C13_18  and  N4_19 
REMARK    7  A    between atoms: C13_18  and  C14_23 
REMARK    8  A    between atoms: C17_28  and  C18_29 
REMARK    9  A    between atoms: C18_29  and  N6_30 
REMARK   10  A    between atoms: N6_30  and  C19_31 
REMARK   11  A    between atoms: C21_33  and  C22_34 
REMARK   12  A    between atoms: C22_34  and  N7_35 
ROOT
HETATM    1  C1  UNL     1      19.272 -15.362  26.549  1.00  0.00     0.102 C 
HETATM    2  C2  UNL     1      19.106 -16.505  26.152  1.00  0.00    -0.159 C 
HETATM    3  C3  UNL     1      18.923 -17.835  25.666  1.00  0.00     0.062 C 
HETATM    4  C4  UNL     1      17.724 -18.288  25.370  1.00  0.00     0.068 C 
ENDROOT
BRANCH   4   5
HETATM    5  N1  UNL     1      17.585 -19.610  24.892  1.00  0.00    -0.285 NA
HETATM    6  C5  UNL     1      18.878 -20.251  24.743  1.00  0.00     0.117 C 
BRANCH   5   7
HETATM    7  C6  UNL     1      16.790 -19.679  23.710  1.00  0.00     0.188 C 
BRANCH   7   8
HETATM    8  C7  UNL     1      16.977 -18.539  22.798  1.00  0.00    -0.090 C 
HETATM    9  C8  UNL     1      17.103 -17.599  22.064  1.00  0.00    -0.085 C 
BRANCH   9  10
HETATM   10  C9  UNL     1      17.222 -16.434  21.179  1.00  0.00     0.222 C 
BRANCH  10  11
HETATM   11  N2  UNL     1      16.384 -15.341  21.551  1.00  0.00    -0.316 N 
HETATM   12  C10 UNL     1      14.949 -15.299  21.376  1.00  0.00     0.319 C 
HETATM   13  O1  UNL     1      14.211 -16.185  20.871  1.00  0.00    -0.247 OA
HETATM   14  N3  UNL     1      14.478 -14.052  21.883  1.00  0.00    -0.336 N 
HETATM   15  C11 UNL     1      15.643 -13.167  21.642  1.00  0.00     0.112 C 
ATOM     16  H3  UNL     1      13.575 -13.828  22.301  1.00  0.00     0.164 HD
HETATM   17  C12 UNL     1      15.636 -12.965  20.160  1.00  0.00     0.075 C 
HETATM   18  C26 UNL     1      16.728 -14.096  22.140  1.00  0.00     0.121 C 
HETATM   19  C13 UNL     1      16.397 -11.786  19.662  1.00  0.00     0.203 C 
HETATM   20  C15 UNL     1      17.860 -12.072  19.912  1.00  0.00     0.049 C 
HETATM   21  C16 UNL     1      18.173 -12.200  21.398  1.00  0.00     0.015 C 
HETATM   22  C17 UNL     1      18.125 -13.583  21.890  1.00  0.00     0.049 C 
BRANCH  19  23
HETATM   23  N4  UNL     1      15.979 -10.515  20.144  1.00  0.00    -0.062 N 
ATOM     24  H43 UNL     1      15.039 -10.587  20.536  1.00  0.00     0.275 HD
ATOM     25  H42 UNL     1      16.510 -10.271  20.980  1.00  0.00     0.275 HD
ATOM     26  H41 UNL     1      16.014  -9.744  19.477  1.00  0.00     0.275 HD
ENDBRANCH  19  23
BRANCH  19  27
HETATM   27  C14 UNL     1      16.236 -11.773  18.169  1.00  0.00     0.267 C 
HETATM   28  N5  UNL     1      15.497 -12.806  17.542  1.00  0.00    -0.060 NA
HETATM   29  O2  UNL     1      16.734 -10.875  17.450  1.00  0.00    -0.274 OA
ENDBRANCH  19  27
BRANCH  22  30
HETATM   30  C18 UNL     1      18.886 -13.802  23.153  1.00  0.00     0.069 C 
BRANCH  30  31
HETATM   31  N6  UNL     1      20.054 -14.504  23.257  1.00  0.00    -0.372 N 
HETATM   32  C21 UNL     1      20.391 -15.735  22.790  1.00  0.00     0.090 C 
BRANCH  31  33
HETATM   33  C19 UNL     1      21.150 -13.581  23.530  1.00  0.00     0.122 C 
HETATM   34  C20 UNL     1      20.877 -12.661  24.678  1.00  0.00     0.027 C 
ENDBRANCH  31  33
BRANCH  32  35
HETATM   35  C22 UNL     1      21.776 -16.241  23.199  1.00  0.00     0.280 C 
BRANCH  35  36
HETATM   36  N7  UNL     1      21.919 -17.612  22.789  1.00  0.00    -0.074 N 
HETATM   37  C23 UNL     1      22.242 -18.443  23.960  1.00  0.00     0.272 C 
HETATM   38  C24 UNL     1      22.994 -17.841  21.848  1.00  0.00     0.272 C 
HETATM   39  C25 UNL     1      20.703 -18.110  22.173  1.00  0.00     0.272 C 
ENDBRANCH  35  36
ENDBRANCH  32  35
ENDBRANCH  30  31
ENDBRANCH  22  30
ENDBRANCH  10  11
ENDBRANCH   9  10
ENDBRANCH   7   8
ENDBRANCH   5   7
ENDBRANCH   4   5
TORSDOF 12
ENDMDL
MODEL 4
REMARK VINA RESULT: -7.015976810      1.314      1.813
REMARK  12 active torsions:
REMARK  status: ('A' for Active; 'I' for Inactive)
REMARK    1  A    between atoms: C4_4  and  N1_5 
REMARK    2  A    between atoms: N1_5  and  C6_7 
REMARK    3  A    between atoms: C6_7  and  C7_8 
REMARK    4  A    between atoms: C8_9  and  C9_10 
REMARK    5  A    between atoms: C9_10  and  N2_11 
REMARK    6  A    between atoms: C13_18  and  N4_19 
REMARK    7  A    between atoms: C13_18  and  C14_23 
REMARK    8  A    between atoms: C17_28  and  C18_29 
REMARK    9  A    between atoms: C18_29  and  N6_30 
REMARK   10  A    between atoms: N6_30  and  C19_31 
REMARK   11  A    between atoms: C21_33  and  C22_34 
REMARK   12  A    between atoms: C22_34  and  N7_35 
ROOT
HETATM    1  C1  UNL     1      20.933 -13.050  26.826  1.00  0.00     0.102 C 
HETATM    2  C2  UNL     1      20.852 -14.117  26.236  1.00  0.00    -0.159 C 
HETATM    3  C3  UNL     1      20.776 -15.372  25.561  1.00  0.00     0.062 C 
HETATM    4  C4  UNL     1      21.153 -15.490  24.306  1.00  0.00     0.068 C 
ENDROOT
BRANCH   4   5
HETATM    5  N1  UNL     1      21.062 -16.750  23.673  1.00  0.00    -0.285 NA
HETATM    6  C5  UNL     1      22.289 -17.507  23.837  1.00  0.00     0.117 C 
BRANCH   5   7
HETATM    7  C6  UNL     1      20.650 -16.645  22.312  1.00  0.00     0.188 C 
BRANCH   7   8
HETATM    8  C7  UNL     1      19.334 -16.009  22.134  1.00  0.00    -0.090 C 
HETATM    9  C8  UNL     1      18.275 -15.464  21.995  1.00  0.00    -0.085 C 
BRANCH   9  10
HETATM   10  C9  UNL     1      16.996 -14.763  21.833  1.00  0.00     0.222 C 
BRANCH  10  11
HETATM   11  N2  UNL     1      17.054 -13.665  20.923  1.00  0.00    -0.316 N 
HETATM   12  C10 UNL     1      17.929 -12.522  21.057  1.00  0.00     0.319 C 
HETATM   13  O1  UNL     1      18.760 -12.295  21.976  1.00  0.00    -0.247 OA
HETATM   14  N3  UNL     1      17.701 -11.656  19.947  1.00  0.00    -0.336 N 
HETATM   15  C11 UNL     1      16.273 -11.920  19.646  1.00  0.00     0.112 C 
ATOM     16  H3  UNL     1      18.349 -11.022  19.482  1.00  0.00     0.164 HD
HETATM   17  C12 UNL     1      15.544 -11.250  20.766  1.00  0.00     0.075 C 
HETATM   18  C26 UNL     1      16.307 -13.430  19.739  1.00  0.00     0.121 C 
HETATM   19  C13 UNL     1      14.105 -10.955  20.519  1.00  0.00     0.203 C 
HETATM   20  C15 UNL     1      13.389 -12.285  20.458  1.00  0.00     0.049 C 
HETATM   21  C16 UNL     1      13.868 -13.139  19.290  1.00  0.00     0.015 C 
HETATM   22  C17 UNL     1      14.944 -14.072  19.650  1.00  0.00     0.049 C 
BRANCH  19  23
HETATM   23  N4  UNL     1      13.815 -10.104  19.416  1.00  0.00    -0.062 N 
ATOM     24  H43 UNL     1      14.493  -9.343  19.381  1.00  0.00     0.275 HD
ATOM     25  H42 UNL     1      14.032 -10.586  18.543  1.00  0.00     0.275 HD
ATOM     26  H41 UNL     1      12.869  -9.725  19.372  1.00  0.00     0.275 HD
ENDBRANCH  19  23
BRANCH  19  27
HETATM   27  C14 UNL     1      13.590 -10.273  21.754  1.00  0.00     0.267 C 
HETATM   28  N5  UNL     1      12.807 -11.009  22.677  1.00  0.00    -0.060 NA
HETATM   29  O2  UNL     1      13.828  -9.068  22.003  1.00  0.00    -0.274 OA
ENDBRANCH  19  27
BRANCH  22  30
HETATM   30  C18 UNL     1      15.082 -15.224  18.715  1.00  0.00     0.069 C 
BRANCH  30  31
HETATM   31  N6  UNL     1      14.681 -16.505  18.978  1.00  0.00    -0.372 N 
HETATM   32  C21 UNL     1      13.463 -16.996  19.324  1.00  0.00     0.090 C 
BRANCH  31  33
HETATM   33  C19 UNL     1      15.619 -17.440  18.368  1.00  0.00     0.122 C 
HETATM   34  C20 UNL     1      15.713 -17.299  16.881  1.00  0.00     0.027 C 
ENDBRANCH  31  33
BRANCH  32  35
HETATM   35  C22 UNL     1      13.420 -18.492  19.646  1.00  0.00     0.280 C 
BRANCH  35  36
HETATM   36  N7  UNL     1      12.415 -19.123  18.834  1.00  0.00    -0.074 N 
HETATM   37  C23 UNL     1      11.583 -19.997  19.675  1.00  0.00     0.272 C 
HETATM   38  C24 UNL     1      12.943 -19.980  17.795  1.00  0.00     0.272 C 
HETATM   39  C25 UNL     1      11.567 -18.141  18.183  1.00  0.00     0.272 C 
ENDBRANCH  35  36
ENDBRANCH  32  35
ENDBRANCH  30  31
ENDBRANCH  22  30
ENDBRANCH  10  11
ENDBRANCH   9  10
ENDBRANCH   7   8
ENDBRANCH   5   7
ENDBRANCH   4   5
TORSDOF 12
ENDMDL
MODEL 5
REMARK VINA RESULT: -6.931998200      2.752      7.941
REMARK  12 active torsions:
REMARK  status: ('A' for Active; 'I' for Inactive)
REMARK    1  A    between atoms: C4_4  and  N1_5 
REMARK    2  A    between atoms: N1_5  and  C6_7 
REMARK    3  A    between atoms: C6_7  and  C7_8 
REMARK    4  A    between atoms: C8_9  and  C9_10 
REMARK    5  A    between atoms: C9_10  and  N2_11 
REMARK    6  A    between atoms: C13_18  and  N4_19 
REMARK    7  A    between atoms: C13_18  and  C14_23 
REMARK    8  A    between atoms: C17_28  and  C18_29 
REMARK    9  A    between atoms: C18_29  and  N6_30 
REMARK   10  A    between atoms: N6_30  and  C19_31 
REMARK   11  A    between atoms: C21_33  and  C22_34 
REMARK   12  A    between atoms: C22_34  and  N7_35 
ROOT
HETATM    1  C1  UNL     1      11.568  -9.223  23.839  1.00  0.00     0.102 C 
HETATM    2  C2  UNL     1      12.175  -9.587  22.844  1.00  0.00    -0.159 C 
HETATM    3  C3  UNL     1      12.881 -10.036  21.687  1.00  0.00     0.062 C 
HETATM    4  C4  UNL     1      14.189  -9.923  21.605  1.00  0.00     0.068 C 
ENDROOT
BRANCH   4   5
HETATM    5  N1  UNL     1      14.850 -10.380  20.443  1.00  0.00    -0.285 NA
HETATM    6  C5  UNL     1      13.899 -10.754  19.413  1.00  0.00     0.117 C 
BRANCH   5   7
HETATM    7  C6  UNL     1      15.797 -11.408  20.726  1.00  0.00     0.188 C 
BRANCH   7   8
HETATM    8  C7  UNL     1      15.196 -12.642  21.257  1.00  0.00    -0.090 C 
HETATM    9  C8  UNL     1      14.685 -13.646  21.669  1.00  0.00    -0.085 C 
BRANCH   9  10
HETATM   10  C9  UNL     1      14.033 -14.871  22.145  1.00  0.00     0.222 C 
BRANCH  10  11
HETATM   11  N2  UNL     1      14.394 -16.039  21.408  1.00  0.00    -0.316 N 
HETATM   12  C10 UNL     1      13.507 -16.778  20.538  1.00  0.00     0.319 C 
HETATM   13  O1  UNL     1      12.295 -16.537  20.293  1.00  0.00    -0.247 OA
HETATM   14  N3  UNL     1      14.241 -17.864  19.976  1.00  0.00    -0.336 N 
HETATM   15  C11 UNL     1      15.224 -18.153  21.048  1.00  0.00     0.112 C 
ATOM     16  H3  UNL     1      14.121 -18.323  19.073  1.00  0.00     0.164 HD
HETATM   17  C12 UNL     1      14.404 -18.802  22.117  1.00  0.00     0.075 C 
HETATM   18  C26 UNL     1      15.634 -16.729  21.356  1.00  0.00     0.121 C 
HETATM   19  C13 UNL     1      15.161 -19.600  23.121  1.00  0.00     0.203 C 
HETATM   20  C15 UNL     1      15.978 -18.621  23.933  1.00  0.00     0.049 C 
HETATM   21  C16 UNL     1      17.011 -17.893  23.081  1.00  0.00     0.015 C 
HETATM   22  C17 UNL     1      16.537 -16.606  22.558  1.00  0.00     0.049 C 
BRANCH  19  23
HETATM   23  N4  UNL     1      15.922 -20.691  22.617  1.00  0.00    -0.062 N 
ATOM     24  H43 UNL     1      15.509 -21.571  22.928  1.00  0.00     0.275 HD
ATOM     25  H42 UNL     1      15.787 -20.768  21.609  1.00  0.00     0.275 HD
ATOM     26  H41 UNL     1      16.920 -20.685  22.830  1.00  0.00     0.275 HD
ENDBRANCH  19  23
BRANCH  19  27
HETATM   27  C14 UNL     1      14.145 -20.166  24.071  1.00  0.00     0.267 C 
HETATM   28  N5  UNL     1      13.648 -21.475  23.855  1.00  0.00    -0.060 NA
HETATM   29  O2  UNL     1      13.716 -19.521  25.056  1.00  0.00    -0.274 OA
ENDBRANCH  19  27
BRANCH  22  30
HETATM   30  C18 UNL     1      17.632 -15.672  22.168  1.00  0.00     0.069 C 
BRANCH  30  31
HETATM   31  N6  UNL     1      18.260 -14.799  23.011  1.00  0.00    -0.372 N 
HETATM   32  C21 UNL     1      18.972 -15.023  24.147  1.00  0.00     0.090 C 
BRANCH  31  33
HETATM   33  C19 UNL     1      18.524 -13.550  22.305  1.00  0.00     0.122 C 
HETATM   34  C20 UNL     1      19.403 -13.723  21.107  1.00  0.00     0.027 C 
ENDBRANCH  31  33
BRANCH  32  35
HETATM   35  C22 UNL     1      19.443 -13.771  24.891  1.00  0.00     0.280 C 
BRANCH  35  36
HETATM   36  N7  UNL     1      20.743 -14.015  25.454  1.00  0.00    -0.074 N 
HETATM   37  C23 UNL     1      21.777 -13.526  24.528  1.00  0.00     0.272 C 
HETATM   38  C24 UNL     1      21.046 -15.414  25.664  1.00  0.00     0.272 C 
HETATM   39  C25 UNL     1      20.898 -13.351  26.735  1.00  0.00     0.272 C 
ENDBRANCH  35  36
ENDBRANCH  32  35
ENDBRANCH  30  31
ENDBRANCH  22  30
ENDBRANCH  10  11
ENDBRANCH   9  10
ENDBRANCH   7   8
ENDBRANCH   5   7
ENDBRANCH   4   5
TORSDOF 12
ENDMDL
