MODEL 1
REMARK VINA RESULT: -8.069816747      0.000      0.000
REMARK  12 active torsions:
REMARK  status: ('A' for Active; 'I' for Inactive)
REMARK    1  A    between atoms: C2_2  and  C3_3 
REMARK    2  A    between atoms: C3_3  and  C4_4 
REMARK    3  A    between atoms: C4_4  and  C5_5 
REMARK    4  A    between atoms: C4_4  and  O2_26 
REMARK    5  A    between atoms: C5_5  and  C6_6 
REMARK    6  A    between atoms: C6_6  and  C7_7 
REMARK    7  A    between atoms: N1_8  and  C8_10 
REMARK    8  A    between atoms: C10_12  and  C11_13 
REMARK    9  A    between atoms: N2_15  and  N3_17 
REMARK   10  A    between atoms: C13_22  and  O1_24 
REMARK   11  A    between atoms: O2_26  and  C15_27 
REMARK       I    between atoms: C15_27  and  N5_29 
REMARK       I    between atoms: N6_32  and  C18_33 
REMARK   12  A    between atoms: N8_35  and  C19_37 
ROOT
HETATM    1  C5  UNL     1      20.123 -13.731  22.114  1.00  0.00     0.037 C 
ENDROOT
BRANCH   1   2
HETATM    2  C4  UNL     1      20.228 -13.801  23.573  1.00  0.00     0.134 C 
BRANCH   2   3
HETATM    3  C3  UNL     1      21.232 -13.120  24.376  1.00  0.00     0.032 C 
BRANCH   3   4
HETATM    4  C2  UNL     1      20.862 -12.282  25.535  1.00  0.00    -0.002 C 
HETATM    5  C1  UNL     1      20.835 -13.192  26.805  1.00  0.00     0.005 C 
ENDBRANCH   3   4
ENDBRANCH   2   3
BRANCH   2   6
HETATM    6  O2  UNL     1      20.073 -15.186  24.011  1.00  0.00    -0.298 OA
BRANCH   6   7
HETATM    7  C15 UNL     1      18.873 -15.746  24.334  1.00  0.00     0.363 C 
HETATM    8  O3  UNL     1      18.296 -15.360  25.397  1.00  0.00    -0.238 OA
HETATM    9  N5  UNL     1      18.227 -16.744  23.543  1.00  0.00    -0.325 N 
HETATM   10  C16 UNL     1      16.930 -17.265  23.991  1.00  0.00     0.148 C 
HETATM   11  C22 UNL     1      18.780 -17.269  22.317  1.00  0.00     0.148 C 
HETATM   12  C17 UNL     1      15.918 -17.080  22.853  1.00  0.00     0.145 C 
HETATM   13  N6  UNL     1      16.484 -17.613  21.639  1.00  0.00    -0.352 N 
HETATM   14  C18 UNL     1      15.899 -18.632  20.872  1.00  0.00     0.190 C 
HETATM   15  C21 UNL     1      17.767 -17.053  21.208  1.00  0.00     0.145 C 
HETATM   16  N7  UNL     1      16.796 -19.775  20.648  1.00  0.00    -0.063 NA
HETATM   17  N8  UNL     1      14.750 -18.668  20.385  1.00  0.00    -0.345 N 
ATOM     18  H8  UNL     1      14.510 -19.505  19.853  1.00  0.00     0.167 HD
BRANCH  17  19
HETATM   19  C19 UNL     1      13.747 -17.685  20.487  1.00  0.00     0.059 C 
HETATM   20  C20 UNL     1      12.402 -18.155  20.930  1.00  0.00     0.055 C 
ENDBRANCH  17  19
ENDBRANCH   6   7
ENDBRANCH   2   6
ENDBRANCH   1   2
BRANCH   1  21
HETATM   21  C6  UNL     1      19.142 -12.739  21.587  1.00  0.00     0.047 C 
BRANCH  21  22
HETATM   22  C7  UNL     1      18.105 -13.385  20.731  1.00  0.00     0.060 C 
HETATM   23  N1  UNL     1      16.864 -13.297  20.727  1.00  0.00    -0.379 N 
ATOM     24  H1  UNL     1      16.472 -13.887  19.994  1.00  0.00     0.164 HD
BRANCH  23  25
HETATM   25  C8  UNL     1      15.865 -12.654  21.402  1.00  0.00     0.094 C 
HETATM   26  C9  UNL     1      14.606 -12.911  21.683  1.00  0.00    -0.017 A 
HETATM   27  C10 UNL     1      13.368 -12.401  22.372  1.00  0.00     0.104 A 
HETATM   28  C13 UNL     1      13.331 -13.703  21.682  1.00  0.00     0.092 A 
HETATM   29  C14 UNL     1      12.607 -13.849  20.385  1.00  0.00     0.052 C 
BRANCH  27  30
HETATM   30  C11 UNL     1      12.654 -11.231  21.839  1.00  0.00     0.013 C 
HETATM   31  C12 UNL     1      13.239 -10.342  20.799  1.00  0.00     0.066 C 
HETATM   32  N2  UNL     1      11.524 -10.885  22.299  1.00  0.00    -0.295 N 
ATOM     33  H2  UNL     1      11.057 -10.069  21.903  1.00  0.00     0.187 HD
BRANCH  32  34
HETATM   34  N3  UNL     1      10.906 -11.580  23.320  1.00  0.00    -0.249 N 
HETATM   35  N4  UNL     1      10.771 -11.027  24.439  1.00  0.00    -0.331 N 
ATOM     36  H42 UNL     1      11.119 -10.078  24.577  1.00  0.00     0.178 HD
ATOM     37  H41 UNL     1      10.315 -11.541  25.193  1.00  0.00     0.178 HD
ATOM     38  H3  UNL     1      10.564 -12.528  23.167  1.00  0.00     0.207 HD
ENDBRANCH  32  34
ENDBRANCH  27  30
BRANCH  28  39
HETATM   39  O1  UNL     1      13.301 -14.836  22.509  1.00  0.00    -0.385 OA
ATOM     40  H1  UNL     1      12.810 -15.583  22.184  1.00  0.00     0.211 HD
ENDBRANCH  28  39
ENDBRANCH  23  25
ENDBRANCH  21  22
ENDBRANCH   1  21
TORSDOF 12
ENDMDL
MODEL 2
REMARK VINA RESULT: -7.979578071      1.729      2.220
REMARK  12 active torsions:
REMARK  status: ('A' for Active; 'I' for Inactive)
REMARK    1  A    between atoms: C2_2  and  C3_3 
REMARK    2  A    between atoms: C3_3  and  C4_4 
REMARK    3  A    between atoms: C4_4  and  C5_5 
REMARK    4  A    between atoms: C4_4  and  O2_26 
REMARK    5  A    between atoms: C5_5  and  C6_6 
REMARK    6  A    between atoms: C6_6  and  C7_7 
REMARK    7  A    between atoms: N1_8  and  C8_10 
REMARK    8  A    between atoms: C10_12  and  C11_13 
REMARK    9  A    between atoms: N2_15  and  N3_17 
REMARK   10  A    between atoms: C13_22  and  O1_24 
REMARK   11  A    between atoms: O2_26  and  C15_27 
REMARK       I    between atoms: C15_27  and  N5_29 
REMARK       I    between atoms: N6_32  and  C18_33 
REMARK   12  A    between atoms: N8_35  and  C19_37 
ROOT
HETATM    1  C5  UNL     1      19.787 -12.945  21.931  1.00  0.00     0.037 C 
ENDROOT
BRANCH   1   2
HETATM    2  C4  UNL     1      20.019 -13.543  23.248  1.00  0.00     0.134 C 
BRANCH   2   3
HETATM    3  C3  UNL     1      21.095 -13.178  24.158  1.00  0.00     0.032 C 
BRANCH   3   4
HETATM    4  C2  UNL     1      20.861 -12.309  25.329  1.00  0.00    -0.002 C 
HETATM    5  C1  UNL     1      20.838 -13.209  26.606  1.00  0.00     0.005 C 
ENDBRANCH   3   4
ENDBRANCH   2   3
BRANCH   2   6
HETATM    6  O2  UNL     1      19.893 -14.995  23.157  1.00  0.00    -0.298 OA
BRANCH   6   7
HETATM    7  C15 UNL     1      18.874 -15.702  23.722  1.00  0.00     0.363 C 
HETATM    8  O3  UNL     1      18.582 -15.470  24.936  1.00  0.00    -0.238 OA
HETATM    9  N5  UNL     1      18.114 -16.689  23.025  1.00  0.00    -0.325 N 
HETATM   10  C16 UNL     1      17.033 -17.378  23.739  1.00  0.00     0.148 C 
HETATM   11  C22 UNL     1      18.350 -17.048  21.646  1.00  0.00     0.148 C 
HETATM   12  C17 UNL     1      15.738 -17.202  22.937  1.00  0.00     0.145 C 
HETATM   13  N6  UNL     1      15.989 -17.568  21.566  1.00  0.00    -0.352 N 
HETATM   14  C18 UNL     1      15.297 -18.572  20.873  1.00  0.00     0.190 C 
HETATM   15  C21 UNL     1      17.059 -16.843  20.875  1.00  0.00     0.145 C 
HETATM   16  N7  UNL     1      16.182 -19.593  20.295  1.00  0.00    -0.063 NA
HETATM   17  N8  UNL     1      14.064 -18.685  20.706  1.00  0.00    -0.345 N 
ATOM     18  H8  UNL     1      13.753 -19.494  20.168  1.00  0.00     0.167 HD
BRANCH  17  19
HETATM   19  C19 UNL     1      13.055 -17.823  21.178  1.00  0.00     0.059 C 
HETATM   20  C20 UNL     1      12.123 -17.272  20.152  1.00  0.00     0.055 C 
ENDBRANCH  17  19
ENDBRANCH   6   7
ENDBRANCH   2   6
ENDBRANCH   1   2
BRANCH   1  21
HETATM   21  C6  UNL     1      18.373 -12.965  21.458  1.00  0.00     0.047 C 
BRANCH  21  22
HETATM   22  C7  UNL     1      17.931 -11.624  20.975  1.00  0.00     0.060 C 
HETATM   23  N1  UNL     1      16.798 -11.139  20.806  1.00  0.00    -0.379 N 
ATOM     24  H1  UNL     1      16.873 -10.183  20.459  1.00  0.00     0.164 HD
BRANCH  23  25
HETATM   25  C8  UNL     1      15.485 -11.492  20.941  1.00  0.00     0.094 C 
HETATM   26  C9  UNL     1      14.339 -10.847  20.978  1.00  0.00    -0.017 A 
HETATM   27  C10 UNL     1      12.846 -10.994  21.105  1.00  0.00     0.104 A 
HETATM   28  C13 UNL     1      13.433  -9.650  20.952  1.00  0.00     0.092 A 
HETATM   29  C14 UNL     1      13.488  -8.713  22.112  1.00  0.00     0.052 C 
BRANCH  27  30
HETATM   30  C11 UNL     1      12.251 -11.428  22.378  1.00  0.00     0.013 C 
HETATM   31  C12 UNL     1      11.751 -10.466  23.397  1.00  0.00     0.066 C 
HETATM   32  N2  UNL     1      12.202 -12.656  22.695  1.00  0.00    -0.295 N 
ATOM     33  H2  UNL     1      11.780 -12.919  23.586  1.00  0.00     0.187 HD
BRANCH  32  34
HETATM   34  N3  UNL     1      12.704 -13.645  21.873  1.00  0.00    -0.249 N 
HETATM   35  N4  UNL     1      13.499 -14.490  22.351  1.00  0.00    -0.331 N 
ATOM     36  H42 UNL     1      13.762 -14.433  23.335  1.00  0.00     0.178 HD
ATOM     37  H41 UNL     1      13.869 -15.221  21.743  1.00  0.00     0.178 HD
ATOM     38  H3  UNL     1      12.431 -13.689  20.891  1.00  0.00     0.207 HD
ENDBRANCH  32  34
ENDBRANCH  27  30
BRANCH  28  39
HETATM   39  O1  UNL     1      13.247  -9.037  19.703  1.00  0.00    -0.385 OA
ATOM     40  H1  UNL     1      12.347  -8.881  19.440  1.00  0.00     0.211 HD
ENDBRANCH  28  39
ENDBRANCH  23  25
ENDBRANCH  21  22
ENDBRANCH   1  21
TORSDOF 12
ENDMDL
MODEL 3
REMARK VINA RESULT: -7.801070461      1.421      2.037
REMARK  12 active torsions:
REMARK  status: ('A' for Active; 'I' for Inactive)
REMARK    1  A    between atoms: C2_2  and  C3_3 
REMARK    2  A    between atoms: C3_3  and  C4_4 
REMARK    3  A    between atoms: C4_4  and  C5_5 
REMARK    4  A    between atoms: C4_4  and  O2_26 
REMARK    5  A    between atoms: C5_5  and  C6_6 
REMARK    6  A    between atoms: C6_6  and  C7_7 
REMARK    7  A    between atoms: N1_8  and  C8_10 
REMARK    8  A    between atoms: C10_12  and  C11_13 
REMARK    9  A    between atoms: N2_15  and  N3_17 
REMARK   10  A    between atoms: C13_22  and  O1_24 
REMARK   11  A    between atoms: O2_26  and  C15_27 
REMARK       I    between atoms: C15_27  and  N5_29 
REMARK       I    between atoms: N6_32  and  C18_33 
REMARK   12  A    between atoms: N8_35  and  C19_37 
ROOT
HETATM    1  C5  UNL     1      20.297 -13.536  21.971  1.00  0.00     0.037 C 
ENDROOT
BRANCH   1   2
HETATM    2  C4  UNL     1      20.539 -13.970  23.350  1.00  0.00     0.134 C 
BRANCH   2   3
HETATM    3  C3  UNL     1      21.417 -13.304  24.298  1.00  0.00     0.032 C 
BRANCH   3   4
HETATM    4  C2  UNL     1      20.900 -12.341  25.292  1.00  0.00    -0.002 C 
HETATM    5  C1  UNL     1      20.887 -13.043  26.688  1.00  0.00     0.005 C 
ENDBRANCH   3   4
ENDBRANCH   2   3
BRANCH   2   6
HETATM    6  O2  UNL     1      20.752 -15.415  23.378  1.00  0.00    -0.298 OA
BRANCH   6   7
HETATM    7  C15 UNL     1      20.239 -16.273  22.452  1.00  0.00     0.363 C 
HETATM    8  O3  UNL     1      21.019 -16.734  21.563  1.00  0.00    -0.238 OA
HETATM    9  N5  UNL     1      18.872 -16.683  22.425  1.00  0.00    -0.325 N 
HETATM   10  C16 UNL     1      18.439 -17.619  21.382  1.00  0.00     0.148 C 
HETATM   11  C22 UNL     1      17.885 -16.227  23.376  1.00  0.00     0.148 C 
HETATM   12  C17 UNL     1      17.787 -18.830  22.061  1.00  0.00     0.145 C 
HETATM   13  N6  UNL     1      16.804 -18.358  23.003  1.00  0.00    -0.352 N 
HETATM   14  C18 UNL     1      15.444 -18.700  22.967  1.00  0.00     0.190 C 
HETATM   15  C21 UNL     1      17.275 -17.444  24.046  1.00  0.00     0.145 C 
HETATM   16  N7  UNL     1      14.553 -17.531  22.926  1.00  0.00    -0.063 NA
HETATM   17  N8  UNL     1      14.934 -19.840  22.965  1.00  0.00    -0.345 N 
ATOM     18  H8  UNL     1      13.915 -19.880  22.935  1.00  0.00     0.167 HD
BRANCH  17  19
HETATM   19  C19 UNL     1      15.607 -21.077  22.997  1.00  0.00     0.059 C 
HETATM   20  C20 UNL     1      15.507 -21.917  21.768  1.00  0.00     0.055 C 
ENDBRANCH  17  19
ENDBRANCH   6   7
ENDBRANCH   2   6
ENDBRANCH   1   2
BRANCH   1  21
HETATM   21  C6  UNL     1      19.119 -12.642  21.777  1.00  0.00     0.047 C 
BRANCH  21  22
HETATM   22  C7  UNL     1      18.115 -13.243  20.851  1.00  0.00     0.060 C 
HETATM   23  N1  UNL     1      16.875 -13.160  20.811  1.00  0.00    -0.379 N 
ATOM     24  H1  UNL     1      16.510 -13.709  20.032  1.00  0.00     0.164 HD
BRANCH  23  25
HETATM   25  C8  UNL     1      15.850 -12.561  21.487  1.00  0.00     0.094 C 
HETATM   26  C9  UNL     1      14.593 -12.853  21.737  1.00  0.00    -0.017 A 
HETATM   27  C10 UNL     1      13.332 -12.393  22.419  1.00  0.00     0.104 A 
HETATM   28  C13 UNL     1      13.335 -13.673  21.688  1.00  0.00     0.092 A 
HETATM   29  C14 UNL     1      12.637 -13.794  20.374  1.00  0.00     0.052 C 
BRANCH  27  30
HETATM   30  C11 UNL     1      12.601 -11.223  21.910  1.00  0.00     0.013 C 
HETATM   31  C12 UNL     1      13.158 -10.326  20.861  1.00  0.00     0.066 C 
HETATM   32  N2  UNL     1      11.481 -10.883  22.400  1.00  0.00    -0.295 N 
ATOM     33  H2  UNL     1      11.003 -10.066  22.020  1.00  0.00     0.187 HD
BRANCH  32  34
HETATM   34  N3  UNL     1      10.891 -11.585  23.432  1.00  0.00    -0.249 N 
HETATM   35  N4  UNL     1      10.735 -11.021  24.543  1.00  0.00    -0.331 N 
ATOM     36  H42 UNL     1      11.046 -10.057  24.665  1.00  0.00     0.178 HD
ATOM     37  H41 UNL     1      10.299 -11.540  25.305  1.00  0.00     0.178 HD
ATOM     38  H3  UNL     1      10.585 -12.548  23.294  1.00  0.00     0.207 HD
ENDBRANCH  32  34
ENDBRANCH  27  30
BRANCH  28  39
HETATM   39  O1  UNL     1      13.316 -14.832  22.478  1.00  0.00    -0.385 OA
ATOM     40  H1  UNL     1      12.735 -14.820  23.230  1.00  0.00     0.211 HD
ENDBRANCH  28  39
ENDBRANCH  23  25
ENDBRANCH  21  22
ENDBRANCH   1  21
TORSDOF 12
ENDMDL
MODEL 4
REMARK VINA RESULT: -7.722941418      1.497      1.860
REMARK  12 active torsions:
REMARK  status: ('A' for Active; 'I' for Inactive)
REMARK    1  A    between atoms: C2_2  and  C3_3 
REMARK    2  A    between atoms: C3_3  and  C4_4 
REMARK    3  A    between atoms: C4_4  and  C5_5 
REMARK    4  A    between atoms: C4_4  and  O2_26 
REMARK    5  A    between atoms: C5_5  and  C6_6 
REMARK    6  A    between atoms: C6_6  and  C7_7 
REMARK    7  A    between atoms: N1_8  and  C8_10 
REMARK    8  A    between atoms: C10_12  and  C11_13 
REMARK    9  A    between atoms: N2_15  and  N3_17 
REMARK   10  A    between atoms: C13_22  and  O1_24 
REMARK   11  A    between atoms: O2_26  and  C15_27 
REMARK       I    between atoms: C15_27  and  N5_29 
REMARK       I    between atoms: N6_32  and  C18_33 
REMARK   12  A    between atoms: N8_35  and  C19_37 
ROOT
HETATM    1  C5  UNL     1      18.978 -13.509  23.062  1.00  0.00     0.037 C 
ENDROOT
BRANCH   1   2
HETATM    2  C4  UNL     1      20.199 -14.002  23.705  1.00  0.00     0.134 C 
BRANCH   2   3
HETATM    3  C3  UNL     1      21.238 -13.166  24.285  1.00  0.00     0.032 C 
BRANCH   3   4
HETATM    4  C2  UNL     1      20.966 -12.268  25.426  1.00  0.00    -0.002 C 
HETATM    5  C1  UNL     1      20.865 -13.140  26.718  1.00  0.00     0.005 C 
ENDBRANCH   3   4
ENDBRANCH   2   3
BRANCH   2   6
HETATM    6  O2  UNL     1      20.786 -15.063  22.891  1.00  0.00    -0.298 OA
BRANCH   6   7
HETATM    7  C15 UNL     1      20.729 -16.385  23.219  1.00  0.00     0.363 C 
HETATM    8  O3  UNL     1      21.602 -16.844  24.019  1.00  0.00    -0.238 OA
HETATM    9  N5  UNL     1      19.742 -17.284  22.713  1.00  0.00    -0.325 N 
HETATM   10  C16 UNL     1      19.779 -18.685  23.147  1.00  0.00     0.148 C 
HETATM   11  C22 UNL     1      18.700 -16.887  21.795  1.00  0.00     0.148 C 
HETATM   12  C17 UNL     1      18.411 -19.041  23.742  1.00  0.00     0.145 C 
HETATM   13  N6  UNL     1      17.384 -18.643  22.812  1.00  0.00    -0.352 N 
HETATM   14  C18 UNL     1      16.436 -19.515  22.256  1.00  0.00     0.190 C 
HETATM   15  C21 UNL     1      17.361 -17.232  22.419  1.00  0.00     0.145 C 
HETATM   16  N7  UNL     1      16.423 -19.494  20.785  1.00  0.00    -0.063 NA
HETATM   17  N8  UNL     1      15.642 -20.273  22.851  1.00  0.00    -0.345 N 
ATOM     18  H8  UNL     1      15.026 -20.834  22.263  1.00  0.00     0.167 HD
BRANCH  17  19
HETATM   19  C19 UNL     1      15.501 -20.440  24.242  1.00  0.00     0.059 C 
HETATM   20  C20 UNL     1      14.415 -19.653  24.896  1.00  0.00     0.055 C 
ENDBRANCH  17  19
ENDBRANCH   6   7
ENDBRANCH   2   6
ENDBRANCH   1   2
BRANCH   1  21
HETATM   21  C6  UNL     1      19.155 -12.944  21.693  1.00  0.00     0.047 C 
BRANCH  21  22
HETATM   22  C7  UNL     1      18.126 -13.459  20.743  1.00  0.00     0.060 C 
HETATM   23  N1  UNL     1      16.894 -13.300  20.695  1.00  0.00    -0.379 N 
ATOM     24  H1  UNL     1      16.505 -13.805  19.899  1.00  0.00     0.164 HD
BRANCH  23  25
HETATM   25  C8  UNL     1      15.900 -12.657  21.378  1.00  0.00     0.094 C 
HETATM   26  C9  UNL     1      14.644 -12.914  21.669  1.00  0.00    -0.017 A 
HETATM   27  C10 UNL     1      13.411 -12.405  22.368  1.00  0.00     0.104 A 
HETATM   28  C13 UNL     1      13.368 -13.706  21.678  1.00  0.00     0.092 A 
HETATM   29  C14 UNL     1      12.634 -13.853  20.387  1.00  0.00     0.052 C 
BRANCH  27  30
HETATM   30  C11 UNL     1      12.692 -11.235  21.842  1.00  0.00     0.013 C 
HETATM   31  C12 UNL     1      13.264 -10.353  20.788  1.00  0.00     0.066 C 
HETATM   32  N2  UNL     1      11.571 -10.883  22.319  1.00  0.00    -0.295 N 
ATOM     33  H2  UNL     1      11.101 -10.067  21.927  1.00  0.00     0.187 HD
BRANCH  32  34
HETATM   34  N3  UNL     1      10.968 -11.571  23.353  1.00  0.00    -0.249 N 
HETATM   35  N4  UNL     1      10.784 -10.985  24.449  1.00  0.00    -0.331 N 
ATOM     36  H42 UNL     1      11.081 -10.016  24.557  1.00  0.00     0.178 HD
ATOM     37  H41 UNL     1      10.338 -11.493  25.212  1.00  0.00     0.178 HD
ATOM     38  H3  UNL     1      10.676 -12.539  23.229  1.00  0.00     0.207 HD
ENDBRANCH  32  34
ENDBRANCH  27  30
BRANCH  28  39
HETATM   39  O1  UNL     1      13.345 -14.840  22.505  1.00  0.00    -0.385 OA
ATOM     40  H1  UNL     1      14.137 -15.366  22.521  1.00  0.00     0.211 HD
ENDBRANCH  28  39
ENDBRANCH  23  25
ENDBRANCH  21  22
ENDBRANCH   1  21
TORSDOF 12
ENDMDL
MODEL 5
REMARK VINA RESULT: -7.696528804      2.620      4.128
REMARK  12 active torsions:
REMARK  status: ('A' for Active; 'I' for Inactive)
REMARK    1  A    between atoms: C2_2  and  C3_3 
REMARK    2  A    between atoms: C3_3  and  C4_4 
REMARK    3  A    between atoms: C4_4  and  C5_5 
REMARK    4  A    between atoms: C4_4  and  O2_26 
REMARK    5  A    between atoms: C5_5  and  C6_6 
REMARK    6  A    between atoms: C6_6  and  C7_7 
REMARK    7  A    between atoms: N1_8  and  C8_10 
REMARK    8  A    between atoms: C10_12  and  C11_13 
REMARK    9  A    between atoms: N2_15  and  N3_17 
REMARK   10  A    between atoms: C13_22  and  O1_24 
REMARK   11  A    between atoms: O2_26  and  C15_27 
REMARK       I    between atoms: C15_27  and  N5_29 
REMARK       I    between atoms: N6_32  and  C18_33 
REMARK   12  A    between atoms: N8_35  and  C19_37 
ROOT
HETATM    1  C5  UNL     1      18.950 -13.429  23.095  1.00  0.00     0.037 C 
ENDROOT
BRANCH   1   2
HETATM    2  C4  UNL     1      20.156 -13.915  23.770  1.00  0.00     0.134 C 
BRANCH   2   3
HETATM    3  C3  UNL     1      21.168 -13.075  24.391  1.00  0.00     0.032 C 
BRANCH   3   4
HETATM    4  C2  UNL     1      20.913 -12.361  25.659  1.00  0.00    -0.002 C 
HETATM    5  C1  UNL     1      20.820 -13.420  26.804  1.00  0.00     0.005 C 
ENDBRANCH   3   4
ENDBRANCH   2   3
BRANCH   2   6
HETATM    6  O2  UNL     1      20.780 -14.962  22.965  1.00  0.00    -0.298 OA
BRANCH   6   7
HETATM    7  C15 UNL     1      21.380 -16.065  23.494  1.00  0.00     0.363 C 
HETATM    8  O3  UNL     1      22.646 -16.147  23.437  1.00  0.00    -0.238 OA
HETATM    9  N5  UNL     1      20.664 -17.136  24.111  1.00  0.00    -0.325 N 
HETATM   10  C16 UNL     1      21.424 -18.268  24.653  1.00  0.00     0.148 C 
HETATM   11  C22 UNL     1      19.226 -17.164  24.235  1.00  0.00     0.148 C 
HETATM   12  C17 UNL     1      21.041 -18.442  26.128  1.00  0.00     0.145 C 
HETATM   13  N6  UNL     1      19.604 -18.473  26.233  1.00  0.00    -0.352 N 
HETATM   14  C18 UNL     1      18.872 -19.535  26.783  1.00  0.00     0.190 C 
HETATM   15  C21 UNL     1      18.879 -17.315  25.704  1.00  0.00     0.145 C 
HETATM   16  N7  UNL     1      17.850 -20.069  25.870  1.00  0.00    -0.063 NA
HETATM   17  N8  UNL     1      18.993 -20.053  27.913  1.00  0.00    -0.345 N 
ATOM     18  H8  UNL     1      18.360 -20.824  28.128  1.00  0.00     0.167 HD
BRANCH  17  19
HETATM   19  C19 UNL     1      19.905 -19.693  28.924  1.00  0.00     0.059 C 
HETATM   20  C20 UNL     1      19.440 -19.875  30.330  1.00  0.00     0.055 C 
ENDBRANCH  17  19
ENDBRANCH   6   7
ENDBRANCH   2   6
ENDBRANCH   1   2
BRANCH   1  21
HETATM   21  C6  UNL     1      19.165 -12.839  21.742  1.00  0.00     0.047 C 
BRANCH  21  22
HETATM   22  C7  UNL     1      18.154 -13.325  20.759  1.00  0.00     0.060 C 
HETATM   23  N1  UNL     1      16.922 -13.165  20.694  1.00  0.00    -0.379 N 
ATOM     24  H1  UNL     1      16.547 -13.646  19.876  1.00  0.00     0.164 HD
BRANCH  23  25
HETATM   25  C8  UNL     1      15.916 -12.545  21.380  1.00  0.00     0.094 C 
HETATM   26  C9  UNL     1      14.666 -12.830  21.674  1.00  0.00    -0.017 A 
HETATM   27  C10 UNL     1      13.425 -12.348  22.376  1.00  0.00     0.104 A 
HETATM   28  C13 UNL     1      13.408 -13.650  21.686  1.00  0.00     0.092 A 
HETATM   29  C14 UNL     1      12.674 -13.812  20.396  1.00  0.00     0.052 C 
BRANCH  27  30
HETATM   30  C11 UNL     1      12.679 -11.195  21.852  1.00  0.00     0.013 C 
HETATM   31  C12 UNL     1      13.241 -10.280  20.822  1.00  0.00     0.066 C 
HETATM   32  N2  UNL     1      11.538 -10.885  22.312  1.00  0.00    -0.295 N 
ATOM     33  H2  UNL     1      11.049 -10.079  21.922  1.00  0.00     0.187 HD
BRANCH  32  34
HETATM   34  N3  UNL     1      10.937 -11.607  23.325  1.00  0.00    -0.249 N 
HETATM   35  N4  UNL     1      10.791 -11.070  24.451  1.00  0.00    -0.331 N 
ATOM     36  H42 UNL     1      11.116 -10.115  24.599  1.00  0.00     0.178 HD
ATOM     37  H41 UNL     1      10.347 -11.603  25.199  1.00  0.00     0.178 HD
ATOM     38  H3  UNL     1      10.617 -12.560  23.161  1.00  0.00     0.207 HD
ENDBRANCH  32  34
ENDBRANCH  27  30
BRANCH  28  39
HETATM   39  O1  UNL     1      13.413 -14.785  22.512  1.00  0.00    -0.385 OA
ATOM     40  H1  UNL     1      12.696 -15.397  22.391  1.00  0.00     0.211 HD
ENDBRANCH  28  39
ENDBRANCH  23  25
ENDBRANCH  21  22
ENDBRANCH   1  21
TORSDOF 12
ENDMDL
