MODEL 1
REMARK VINA RESULT: -7.826253268      0.000      0.000
REMARK  12 active torsions:
REMARK  status: ('A' for Active; 'I' for Inactive)
REMARK       I    between atoms: N1_3  and  C3_5 
REMARK       I    between atoms: C3_5  and  N7_26 
REMARK    1  A    between atoms: N2_6  and  C4_8 
REMARK    2  A    between atoms: C4_8  and  C5_9 
REMARK    3  A    between atoms: C5_9  and  N3_10 
REMARK    4  A    between atoms: N3_10  and  C8_13 
REMARK    5  A    between atoms: C8_13  and  C9_14 
REMARK    6  A    between atoms: C9_14  and  C10_15 
REMARK    7  A    between atoms: C13_20  and  N5_21 
REMARK    8  A    between atoms: C15_28  and  C16_29 
REMARK    9  A    between atoms: C15_28  and  N9_36 
REMARK   10  A    between atoms: C16_29  and  N8_31 
REMARK       I    between atoms: N8_31  and  C18_33 
REMARK   11  A    between atoms: N9_36  and  C21_38 
REMARK   12  A    between atoms: C21_38  and  C22_39 
ROOT
HETATM    1  C1  UNL     1      17.360 -17.113  22.526  1.00  0.00     0.124 C 
HETATM    2  C2  UNL     1      18.293 -16.461  22.069  1.00  0.00    -0.059 C 
HETATM    3  N1  UNL     1      19.354 -15.740  21.532  1.00  0.00    -0.161 N 
ATOM      4  H1  UNL     1      19.618 -15.855  20.552  1.00  0.00     0.194 HD
HETATM    5  C3  UNL     1      20.070 -14.836  22.377  1.00  0.00     0.686 C 
HETATM    6  N2  UNL     1      19.497 -13.724  22.692  1.00  0.00    -0.224 N 
ATOM      7  H2  UNL     1      20.020 -13.090  23.295  1.00  0.00     0.177 HD
HETATM    8  N7  UNL     1      21.348 -15.206  22.780  1.00  0.00    -0.178 N 
ATOM      9  H7  UNL     1      22.048 -15.039  22.057  1.00  0.00     0.185 HD
HETATM   10  C15 UNL     1      21.841 -15.693  23.819  1.00  0.00     0.117 C 
ENDROOT
BRANCH   6  11
HETATM   11  C4  UNL     1      18.195 -13.296  22.273  1.00  0.00     0.166 C 
BRANCH  11  12
HETATM   12  C5  UNL     1      18.275 -12.180  21.253  1.00  0.00     0.256 C 
BRANCH  12  13
HETATM   13  N3  UNL     1      17.176 -12.145  20.346  1.00  0.00    -0.073 N 
HETATM   14  C6  UNL     1      17.601 -11.882  18.970  1.00  0.00     0.272 C 
HETATM   15  C7  UNL     1      16.625 -13.510  20.312  1.00  0.00     0.272 C 
BRANCH  13  16
HETATM   16  C8  UNL     1      16.150 -11.190  20.649  1.00  0.00     0.244 C 
BRANCH  16  17
HETATM   17  C9  UNL     1      14.773 -11.586  20.230  1.00  0.00     0.104 C 
BRANCH  17  18
HETATM   18  C10 UNL     1      13.809 -10.992  21.221  1.00  0.00     0.086 A 
HETATM   19  N4  UNL     1      13.865  -9.658  21.492  1.00  0.00    -0.355 N 
HETATM   20  C11 UNL     1      13.048  -9.053  22.365  1.00  0.00     0.093 A 
ATOM     21  H4  UNL     1      14.563  -9.094  21.009  1.00  0.00     0.166 HD
HETATM   22  C12 UNL     1      12.115  -9.844  23.001  1.00  0.00     0.065 A 
HETATM   23  C13 UNL     1      12.018 -11.186  22.763  1.00  0.00     0.103 A 
HETATM   24  N6  UNL     1      12.888 -11.730  21.860  1.00  0.00    -0.328 N 
HETATM   25  C14 UNL     1      12.769 -13.154  21.630  1.00  0.00     0.159 C 
BRANCH  23  26
HETATM   26  N5  UNL     1      11.146 -11.961  23.351  1.00  0.00    -0.385 N 
ATOM     27  H52 UNL     1      10.166 -11.906  23.072  1.00  0.00     0.157 HD
ATOM     28  H51 UNL     1      11.390 -12.629  24.082  1.00  0.00     0.157 HD
ENDBRANCH  23  26
ENDBRANCH  17  18
ENDBRANCH  16  17
ENDBRANCH  13  16
ENDBRANCH  12  13
ENDBRANCH  11  12
ENDBRANCH   6  11
BRANCH  10  29
HETATM   29  C16 UNL     1      23.337 -15.936  23.808  1.00  0.00     0.148 C 
HETATM   30  C17 UNL     1      24.005 -14.582  23.805  1.00  0.00     0.040 C 
BRANCH  29  31
HETATM   31  N8  UNL     1      23.741 -16.665  22.643  1.00  0.00    -0.350 N 
HETATM   32  C18 UNL     1      24.843 -17.545  22.695  1.00  0.00     0.214 C 
HETATM   33  C19 UNL     1      25.326 -18.334  21.541  1.00  0.00     0.117 C 
HETATM   34  O1  UNL     1      25.474 -17.686  23.789  1.00  0.00    -0.274 OA
ATOM     35  H8  UNL     1      23.229 -16.546  21.769  1.00  0.00     0.163 HD
ENDBRANCH  29  31
ENDBRANCH  10  29
BRANCH  10  36
HETATM   36  N9  UNL     1      21.168 -16.067  25.036  1.00  0.00    -0.372 N 
HETATM   37  C20 UNL     1      20.224 -17.169  25.051  1.00  0.00     0.150 C 
BRANCH  36  38
HETATM   38  C21 UNL     1      21.438 -15.387  26.275  1.00  0.00     0.137 C 
BRANCH  38  39
HETATM   39  C22 UNL     1      20.595 -14.196  26.482  1.00  0.00     0.143 C 
HETATM   40  C23 UNL     1      20.908 -13.017  25.698  1.00  0.00     0.060 C 
HETATM   41  N10 UNL     1      21.127 -12.062  25.062  1.00  0.00    -0.197 NA
ENDBRANCH  38  39
ENDBRANCH  36  38
ENDBRANCH  10  36
TORSDOF 12
ENDMDL
MODEL 2
REMARK VINA RESULT: -7.350314672      2.237      4.458
REMARK  12 active torsions:
REMARK  status: ('A' for Active; 'I' for Inactive)
REMARK       I    between atoms: N1_3  and  C3_5 
REMARK       I    between atoms: C3_5  and  N7_26 
REMARK    1  A    between atoms: N2_6  and  C4_8 
REMARK    2  A    between atoms: C4_8  and  C5_9 
REMARK    3  A    between atoms: C5_9  and  N3_10 
REMARK    4  A    between atoms: N3_10  and  C8_13 
REMARK    5  A    between atoms: C8_13  and  C9_14 
REMARK    6  A    between atoms: C9_14  and  C10_15 
REMARK    7  A    between atoms: C13_20  and  N5_21 
REMARK    8  A    between atoms: C15_28  and  C16_29 
REMARK    9  A    between atoms: C15_28  and  N9_36 
REMARK   10  A    between atoms: C16_29  and  N8_31 
REMARK       I    between atoms: N8_31  and  C18_33 
REMARK   11  A    between atoms: N9_36  and  C21_38 
REMARK   12  A    between atoms: C21_38  and  C22_39 
ROOT
HETATM    1  C1  UNL     1      16.835 -13.585  19.816  1.00  0.00     0.124 C 
HETATM    2  C2  UNL     1      16.568 -14.114  20.890  1.00  0.00    -0.059 C 
HETATM    3  N1  UNL     1      16.259 -14.691  22.117  1.00  0.00    -0.161 N 
ATOM      4  H1  UNL     1      15.604 -14.236  22.754  1.00  0.00     0.194 HD
HETATM    5  C3  UNL     1      16.875 -15.931  22.470  1.00  0.00     0.686 C 
HETATM    6  N2  UNL     1      16.456 -17.001  21.882  1.00  0.00    -0.224 N 
ATOM      7  H2  UNL     1      16.906 -17.878  22.144  1.00  0.00     0.177 HD
HETATM    8  N7  UNL     1      17.866 -15.905  23.444  1.00  0.00    -0.178 N 
ATOM      9  H7  UNL     1      17.483 -15.859  24.389  1.00  0.00     0.185 HD
HETATM   10  C15 UNL     1      19.114 -15.924  23.436  1.00  0.00     0.117 C 
ENDROOT
BRANCH   6  11
HETATM   11  C4  UNL     1      15.420 -17.072  20.896  1.00  0.00     0.166 C 
BRANCH  11  12
HETATM   12  C5  UNL     1      14.045 -16.947  21.520  1.00  0.00     0.256 C 
BRANCH  12  13
HETATM   13  N3  UNL     1      13.158 -16.094  20.801  1.00  0.00    -0.073 N 
HETATM   14  C6  UNL     1      13.596 -15.875  19.421  1.00  0.00     0.272 C 
HETATM   15  C7  UNL     1      11.888 -16.829  20.677  1.00  0.00     0.272 C 
BRANCH  13  16
HETATM   16  C8  UNL     1      12.941 -14.798  21.374  1.00  0.00     0.244 C 
BRANCH  16  17
HETATM   17  C9  UNL     1      12.715 -13.700  20.390  1.00  0.00     0.104 C 
BRANCH  17  18
HETATM   18  C10 UNL     1      12.751 -12.398  21.144  1.00  0.00     0.086 A 
HETATM   19  N4  UNL     1      12.024 -12.269  22.289  1.00  0.00    -0.355 N 
HETATM   20  C11 UNL     1      11.997 -11.143  23.016  1.00  0.00     0.093 A 
ATOM     21  H4  UNL     1      11.476 -13.067  22.609  1.00  0.00     0.166 HD
HETATM   22  C12 UNL     1      12.750 -10.084  22.557  1.00  0.00     0.065 A 
HETATM   23  C13 UNL     1      13.495 -10.164  21.415  1.00  0.00     0.103 A 
HETATM   24  N6  UNL     1      13.471 -11.345  20.729  1.00  0.00    -0.328 N 
HETATM   25  C14 UNL     1      14.263 -11.403  19.518  1.00  0.00     0.159 C 
BRANCH  23  26
HETATM   26  N5  UNL     1      14.217  -9.177  20.955  1.00  0.00    -0.385 N 
ATOM     27  H52 UNL     1      15.083  -8.930  21.435  1.00  0.00     0.157 HD
ATOM     28  H51 UNL     1      13.964  -8.630  20.132  1.00  0.00     0.157 HD
ENDBRANCH  23  26
ENDBRANCH  17  18
ENDBRANCH  16  17
ENDBRANCH  13  16
ENDBRANCH  12  13
ENDBRANCH  11  12
ENDBRANCH   6  11
BRANCH  10  29
HETATM   29  C16 UNL     1      19.801 -15.877  24.786  1.00  0.00     0.148 C 
HETATM   30  C17 UNL     1      18.970 -16.708  25.733  1.00  0.00     0.040 C 
BRANCH  29  31
HETATM   31  N8  UNL     1      19.886 -14.537  25.285  1.00  0.00    -0.350 N 
HETATM   32  C18 UNL     1      21.064 -13.780  25.108  1.00  0.00     0.214 C 
HETATM   33  C19 UNL     1      21.235 -12.392  25.590  1.00  0.00     0.117 C 
HETATM   34  O1  UNL     1      22.051 -14.300  24.499  1.00  0.00    -0.274 OA
ATOM     35  H8  UNL     1      19.089 -14.126  25.772  1.00  0.00     0.163 HD
ENDBRANCH  29  31
ENDBRANCH  10  29
BRANCH  10  36
HETATM   36  N9  UNL     1      19.999 -15.975  22.300  1.00  0.00    -0.372 N 
HETATM   37  C20 UNL     1      21.032 -16.990  22.211  1.00  0.00     0.150 C 
BRANCH  36  38
HETATM   38  C21 UNL     1      19.861 -15.049  21.207  1.00  0.00     0.137 C 
BRANCH  38  39
HETATM   39  C22 UNL     1      20.116 -13.650  21.593  1.00  0.00     0.143 C 
HETATM   40  C23 UNL     1      20.178 -12.669  20.527  1.00  0.00     0.060 C 
HETATM   41  N10 UNL     1      20.211 -11.856  19.689  1.00  0.00    -0.197 NA
ENDBRANCH  38  39
ENDBRANCH  36  38
ENDBRANCH  10  36
TORSDOF 12
ENDMDL
MODEL 3
REMARK VINA RESULT: -7.331796214      1.196      1.521
REMARK  12 active torsions:
REMARK  status: ('A' for Active; 'I' for Inactive)
REMARK       I    between atoms: N1_3  and  C3_5 
REMARK       I    between atoms: C3_5  and  N7_26 
REMARK    1  A    between atoms: N2_6  and  C4_8 
REMARK    2  A    between atoms: C4_8  and  C5_9 
REMARK    3  A    between atoms: C5_9  and  N3_10 
REMARK    4  A    between atoms: N3_10  and  C8_13 
REMARK    5  A    between atoms: C8_13  and  C9_14 
REMARK    6  A    between atoms: C9_14  and  C10_15 
REMARK    7  A    between atoms: C13_20  and  N5_21 
REMARK    8  A    between atoms: C15_28  and  C16_29 
REMARK    9  A    between atoms: C15_28  and  N9_36 
REMARK   10  A    between atoms: C16_29  and  N8_31 
REMARK       I    between atoms: N8_31  and  C18_33 
REMARK   11  A    between atoms: N9_36  and  C21_38 
REMARK   12  A    between atoms: C21_38  and  C22_39 
ROOT
HETATM    1  C1  UNL     1      18.859 -17.367  21.153  1.00  0.00     0.124 C 
HETATM    2  C2  UNL     1      19.420 -16.277  21.168  1.00  0.00    -0.059 C 
HETATM    3  N1  UNL     1      20.070 -15.047  21.163  1.00  0.00    -0.161 N 
ATOM      4  H1  UNL     1      20.432 -14.654  20.294  1.00  0.00     0.194 HD
HETATM    5  C3  UNL     1      20.222 -14.343  22.398  1.00  0.00     0.686 C 
HETATM    6  N2  UNL     1      19.179 -13.770  22.898  1.00  0.00    -0.224 N 
ATOM      7  H2  UNL     1      19.303 -13.273  23.779  1.00  0.00     0.177 HD
HETATM    8  N7  UNL     1      21.491 -14.300  22.964  1.00  0.00    -0.178 N 
ATOM      9  H7  UNL     1      22.090 -13.601  22.525  1.00  0.00     0.185 HD
HETATM   10  C15 UNL     1      22.070 -14.916  23.883  1.00  0.00     0.117 C 
ENDROOT
BRANCH   6  11
HETATM   11  C4  UNL     1      17.863 -13.768  22.331  1.00  0.00     0.166 C 
BRANCH  11  12
HETATM   12  C5  UNL     1      17.454 -12.383  21.875  1.00  0.00     0.256 C 
BRANCH  12  13
HETATM   13  N3  UNL     1      17.202 -12.284  20.476  1.00  0.00    -0.073 N 
HETATM   14  C6  UNL     1      18.433 -12.107  19.703  1.00  0.00     0.272 C 
HETATM   15  C7  UNL     1      16.684 -13.596  20.056  1.00  0.00     0.272 C 
BRANCH  13  16
HETATM   16  C8  UNL     1      16.311 -11.234  20.077  1.00  0.00     0.244 C 
BRANCH  16  17
HETATM   17  C9  UNL     1      14.909 -11.665  19.799  1.00  0.00     0.104 C 
BRANCH  17  18
HETATM   18  C10 UNL     1      14.022 -11.015  20.826  1.00  0.00     0.086 A 
HETATM   19  N4  UNL     1      14.214  -9.703  21.141  1.00  0.00    -0.355 N 
HETATM   20  C11 UNL     1      13.472  -9.052  22.048  1.00  0.00     0.093 A 
ATOM     21  H4  UNL     1      14.956  -9.193  20.664  1.00  0.00     0.166 HD
HETATM   22  C12 UNL     1      12.476  -9.770  22.674  1.00  0.00     0.065 A 
HETATM   23  C13 UNL     1      12.244 -11.087  22.393  1.00  0.00     0.103 A 
HETATM   24  N6  UNL     1      13.043 -11.681  21.457  1.00  0.00    -0.328 N 
HETATM   25  C14 UNL     1      12.782 -13.078  21.182  1.00  0.00     0.159 C 
BRANCH  23  26
HETATM   26  N5  UNL     1      11.309 -11.793  22.971  1.00  0.00    -0.385 N 
ATOM     27  H52 UNL     1      11.419 -12.053  23.951  1.00  0.00     0.157 HD
ATOM     28  H51 UNL     1      10.463 -12.103  22.493  1.00  0.00     0.157 HD
ENDBRANCH  23  26
ENDBRANCH  17  18
ENDBRANCH  16  17
ENDBRANCH  13  16
ENDBRANCH  12  13
ENDBRANCH  11  12
ENDBRANCH   6  11
BRANCH  10  29
HETATM   29  C16 UNL     1      23.506 -14.521  24.163  1.00  0.00     0.148 C 
HETATM   30  C17 UNL     1      23.558 -13.012  24.158  1.00  0.00     0.040 C 
BRANCH  29  31
HETATM   31  N8  UNL     1      24.394 -15.027  23.159  1.00  0.00    -0.350 N 
HETATM   32  C18 UNL     1      25.131 -16.208  23.384  1.00  0.00     0.214 C 
HETATM   33  C19 UNL     1      26.068 -16.798  22.403  1.00  0.00     0.117 C 
HETATM   34  O1  UNL     1      24.999 -16.822  24.489  1.00  0.00    -0.274 OA
ATOM     35  H8  UNL     1      24.494 -14.529  22.274  1.00  0.00     0.163 HD
ENDBRANCH  29  31
ENDBRANCH  10  29
BRANCH  10  36
HETATM   36  N9  UNL     1      21.552 -15.970  24.716  1.00  0.00    -0.372 N 
HETATM   37  C20 UNL     1      21.498 -17.337  24.233  1.00  0.00     0.150 C 
BRANCH  36  38
HETATM   38  C21 UNL     1      21.108 -15.708  26.060  1.00  0.00     0.137 C 
BRANCH  38  39
HETATM   39  C22 UNL     1      19.707 -15.258  26.133  1.00  0.00     0.143 C 
HETATM   40  C23 UNL     1      18.743 -15.949  25.299  1.00  0.00     0.060 C 
HETATM   41  N10 UNL     1      17.944 -16.504  24.652  1.00  0.00    -0.197 NA
ENDBRANCH  38  39
ENDBRANCH  36  38
ENDBRANCH  10  36
TORSDOF 12
ENDMDL
MODEL 4
REMARK VINA RESULT: -7.259663611      2.298      4.730
REMARK  12 active torsions:
REMARK  status: ('A' for Active; 'I' for Inactive)
REMARK       I    between atoms: N1_3  and  C3_5 
REMARK       I    between atoms: C3_5  and  N7_26 
REMARK    1  A    between atoms: N2_6  and  C4_8 
REMARK    2  A    between atoms: C4_8  and  C5_9 
REMARK    3  A    between atoms: C5_9  and  N3_10 
REMARK    4  A    between atoms: N3_10  and  C8_13 
REMARK    5  A    between atoms: C8_13  and  C9_14 
REMARK    6  A    between atoms: C9_14  and  C10_15 
REMARK    7  A    between atoms: C13_20  and  N5_21 
REMARK    8  A    between atoms: C15_28  and  C16_29 
REMARK    9  A    between atoms: C15_28  and  N9_36 
REMARK   10  A    between atoms: C16_29  and  N8_31 
REMARK       I    between atoms: N8_31  and  C18_33 
REMARK   11  A    between atoms: N9_36  and  C21_38 
REMARK   12  A    between atoms: C21_38  and  C22_39 
ROOT
HETATM    1  C1  UNL     1      17.838 -11.875  20.682  1.00  0.00     0.124 C 
HETATM    2  C2  UNL     1      17.319 -12.697  21.430  1.00  0.00    -0.059 C 
HETATM    3  N1  UNL     1      16.723 -13.609  22.295  1.00  0.00    -0.161 N 
ATOM      4  H1  UNL     1      15.971 -13.317  22.920  1.00  0.00     0.194 HD
HETATM    5  C3  UNL     1      17.184 -14.962  22.292  1.00  0.00     0.686 C 
HETATM    6  N2  UNL     1      16.847 -15.712  21.298  1.00  0.00    -0.224 N 
ATOM      7  H2  UNL     1      17.184 -16.674  21.311  1.00  0.00     0.177 HD
HETATM    8  N7  UNL     1      17.942 -15.386  23.378  1.00  0.00    -0.178 N 
ATOM      9  H7  UNL     1      17.368 -15.613  24.189  1.00  0.00     0.185 HD
HETATM   10  C15 UNL     1      19.161 -15.556  23.593  1.00  0.00     0.117 C 
ENDROOT
BRANCH   6  11
HETATM   11  C4  UNL     1      16.045 -15.319  20.178  1.00  0.00     0.166 C 
BRANCH  11  12
HETATM   12  C5  UNL     1      14.960 -16.334  19.885  1.00  0.00     0.256 C 
BRANCH  12  13
HETATM   13  N3  UNL     1      13.702 -16.026  20.480  1.00  0.00    -0.073 N 
HETATM   14  C6  UNL     1      12.596 -16.137  19.527  1.00  0.00     0.272 C 
HETATM   15  C7  UNL     1      13.446 -17.081  21.474  1.00  0.00     0.272 C 
BRANCH  13  16
HETATM   16  C8  UNL     1      13.600 -14.727  21.080  1.00  0.00     0.244 C 
BRANCH  16  17
HETATM   17  C9  UNL     1      12.772 -13.743  20.322  1.00  0.00     0.104 C 
BRANCH  17  18
HETATM   18  C10 UNL     1      12.800 -12.445  21.082  1.00  0.00     0.086 A 
HETATM   19  N4  UNL     1      12.049 -12.316  22.212  1.00  0.00    -0.355 N 
HETATM   20  C11 UNL     1      12.013 -11.193  22.942  1.00  0.00     0.093 A 
ATOM     21  H4  UNL     1      11.489 -13.112  22.516  1.00  0.00     0.166 HD
HETATM   22  C12 UNL     1      12.781 -10.136  22.505  1.00  0.00     0.065 A 
HETATM   23  C13 UNL     1      13.552 -10.216  21.378  1.00  0.00     0.103 A 
HETATM   24  N6  UNL     1      13.535 -11.394  20.687  1.00  0.00    -0.328 N 
HETATM   25  C14 UNL     1      14.353 -11.452  19.494  1.00  0.00     0.159 C 
BRANCH  23  26
HETATM   26  N5  UNL     1      14.289  -9.232  20.939  1.00  0.00    -0.385 N 
ATOM     27  H52 UNL     1      13.852  -8.329  20.752  1.00  0.00     0.157 HD
ATOM     28  H51 UNL     1      15.292  -9.312  20.770  1.00  0.00     0.157 HD
ENDBRANCH  23  26
ENDBRANCH  17  18
ENDBRANCH  16  17
ENDBRANCH  13  16
ENDBRANCH  12  13
ENDBRANCH  11  12
ENDBRANCH   6  11
BRANCH  10  29
HETATM   29  C16 UNL     1      19.542 -16.050  24.973  1.00  0.00     0.148 C 
HETATM   30  C17 UNL     1      18.458 -17.003  25.417  1.00  0.00     0.040 C 
BRANCH  29  31
HETATM   31  N8  UNL     1      19.633 -14.970  25.910  1.00  0.00    -0.350 N 
HETATM   32  C18 UNL     1      20.870 -14.337  26.157  1.00  0.00     0.214 C 
HETATM   33  C19 UNL     1      21.051 -13.217  27.106  1.00  0.00     0.117 C 
HETATM   34  O1  UNL     1      21.906 -14.736  25.538  1.00  0.00    -0.274 OA
ATOM     35  H8  UNL     1      18.797 -14.655  26.403  1.00  0.00     0.163 HD
ENDBRANCH  29  31
ENDBRANCH  10  29
BRANCH  10  36
HETATM   36  N9  UNL     1      20.265 -15.332  22.696  1.00  0.00    -0.372 N 
HETATM   37  C20 UNL     1      20.691 -13.984  22.368  1.00  0.00     0.150 C 
BRANCH  36  38
HETATM   38  C21 UNL     1      20.999 -16.433  22.130  1.00  0.00     0.137 C 
BRANCH  38  39
HETATM   39  C22 UNL     1      20.150 -17.377  21.384  1.00  0.00     0.143 C 
HETATM   40  C23 UNL     1      20.809 -18.265  20.446  1.00  0.00     0.060 C 
HETATM   41  N10 UNL     1      21.320 -19.005  19.700  1.00  0.00    -0.197 NA
ENDBRANCH  38  39
ENDBRANCH  36  38
ENDBRANCH  10  36
TORSDOF 12
ENDMDL
MODEL 5
REMARK VINA RESULT: -7.254060196      2.362      4.488
REMARK  12 active torsions:
REMARK  status: ('A' for Active; 'I' for Inactive)
REMARK       I    between atoms: N1_3  and  C3_5 
REMARK       I    between atoms: C3_5  and  N7_26 
REMARK    1  A    between atoms: N2_6  and  C4_8 
REMARK    2  A    between atoms: C4_8  and  C5_9 
REMARK    3  A    between atoms: C5_9  and  N3_10 
REMARK    4  A    between atoms: N3_10  and  C8_13 
REMARK    5  A    between atoms: C8_13  and  C9_14 
REMARK    6  A    between atoms: C9_14  and  C10_15 
REMARK    7  A    between atoms: C13_20  and  N5_21 
REMARK    8  A    between atoms: C15_28  and  C16_29 
REMARK    9  A    between atoms: C15_28  and  N9_36 
REMARK   10  A    between atoms: C16_29  and  N8_31 
REMARK       I    between atoms: N8_31  and  C18_33 
REMARK   11  A    between atoms: N9_36  and  C21_38 
REMARK   12  A    between atoms: C21_38  and  C22_39 
ROOT
HETATM    1  C1  UNL     1      18.318 -11.679  20.386  1.00  0.00     0.124 C 
HETATM    2  C2  UNL     1      17.695 -12.322  21.225  1.00  0.00    -0.059 C 
HETATM    3  N1  UNL     1      16.979 -13.028  22.186  1.00  0.00    -0.161 N 
ATOM      4  H1  UNL     1      16.173 -12.606  22.647  1.00  0.00     0.194 HD
HETATM    5  C3  UNL     1      17.395 -14.355  22.516  1.00  0.00     0.686 C 
HETATM    6  N2  UNL     1      17.145 -15.294  21.667  1.00  0.00    -0.224 N 
ATOM      7  H2  UNL     1      17.448 -16.235  21.916  1.00  0.00     0.177 HD
HETATM    8  N7  UNL     1      18.016 -14.550  23.744  1.00  0.00    -0.178 N 
ATOM      9  H7  UNL     1      17.349 -14.597  24.515  1.00  0.00     0.185 HD
HETATM   10  C15 UNL     1      19.198 -14.680  24.126  1.00  0.00     0.117 C 
ENDROOT
BRANCH   6  11
HETATM   11  C4  UNL     1      16.483 -15.138  20.406  1.00  0.00     0.166 C 
BRANCH  11  12
HETATM   12  C5  UNL     1      15.493 -16.256  20.153  1.00  0.00     0.256 C 
BRANCH  12  13
HETATM   13  N3  UNL     1      14.198 -16.018  20.700  1.00  0.00    -0.073 N 
HETATM   14  C6  UNL     1      13.132 -16.256  19.726  1.00  0.00     0.272 C 
HETATM   15  C7  UNL     1      13.994 -17.043  21.737  1.00  0.00     0.272 C 
BRANCH  13  16
HETATM   16  C8  UNL     1      13.981 -14.705  21.235  1.00  0.00     0.244 C 
BRANCH  16  17
HETATM   17  C9  UNL     1      13.030 -13.855  20.460  1.00  0.00     0.104 C 
BRANCH  17  18
HETATM   18  C10 UNL     1      12.953 -12.518  21.146  1.00  0.00     0.086 A 
HETATM   19  N4  UNL     1      12.151 -12.372  22.238  1.00  0.00    -0.355 N 
HETATM   20  C11 UNL     1      12.021 -11.214  22.901  1.00  0.00     0.093 A 
ATOM     21  H4  UNL     1      11.625 -13.181  22.566  1.00  0.00     0.166 HD
HETATM   22  C12 UNL     1      12.746 -10.140  22.433  1.00  0.00     0.065 A 
HETATM   23  C13 UNL     1      13.564 -10.236  21.342  1.00  0.00     0.103 A 
HETATM   24  N6  UNL     1      13.643 -11.449  20.719  1.00  0.00    -0.328 N 
HETATM   25  C14 UNL     1      14.510 -11.524  19.563  1.00  0.00     0.159 C 
BRANCH  23  26
HETATM   26  N5  UNL     1      14.262  -9.235  20.875  1.00  0.00    -0.385 N 
ATOM     27  H52 UNL     1      13.803  -8.546  20.280  1.00  0.00     0.157 HD
ATOM     28  H51 UNL     1      15.253  -9.100  21.074  1.00  0.00     0.157 HD
ENDBRANCH  23  26
ENDBRANCH  17  18
ENDBRANCH  16  17
ENDBRANCH  13  16
ENDBRANCH  12  13
ENDBRANCH  11  12
ENDBRANCH   6  11
BRANCH  10  29
HETATM   29  C16 UNL     1      19.410 -14.877  25.614  1.00  0.00     0.148 C 
HETATM   30  C17 UNL     1      20.412 -13.839  26.059  1.00  0.00     0.040 C 
BRANCH  29  31
HETATM   31  N8  UNL     1      19.925 -16.183  25.901  1.00  0.00    -0.350 N 
HETATM   32  C18 UNL     1      19.130 -17.329  25.690  1.00  0.00     0.214 C 
HETATM   33  C19 UNL     1      19.582 -18.711  25.960  1.00  0.00     0.117 C 
HETATM   34  O1  UNL     1      17.949 -17.191  25.241  1.00  0.00    -0.274 OA
ATOM     35  H8  UNL     1      20.875 -16.285  26.260  1.00  0.00     0.163 HD
ENDBRANCH  29  31
ENDBRANCH  10  29
BRANCH  10  36
HETATM   36  N9  UNL     1      20.400 -14.657  23.334  1.00  0.00    -0.372 N 
HETATM   37  C20 UNL     1      20.913 -13.409  22.802  1.00  0.00     0.150 C 
BRANCH  36  38
HETATM   38  C21 UNL     1      21.145 -15.862  23.078  1.00  0.00     0.137 C 
BRANCH  38  39
HETATM   39  C22 UNL     1      20.502 -16.747  22.091  1.00  0.00     0.143 C 
HETATM   40  C23 UNL     1      21.284 -17.125  20.930  1.00  0.00     0.060 C 
HETATM   41  N10 UNL     1      21.901 -17.462  19.997  1.00  0.00    -0.197 NA
ENDBRANCH  38  39
ENDBRANCH  36  38
ENDBRANCH  10  36
TORSDOF 12
ENDMDL
