MODEL 1
REMARK VINA RESULT: -7.050181609      0.000      0.000
REMARK  9 active torsions:
REMARK  status: ('A' for Active; 'I' for Inactive)
REMARK    1  A    between atoms: C2_2  and  O1_3 
REMARK    2  A    between atoms: O1_3  and  C3_4 
REMARK    3  A    between atoms: C3_4  and  S1_6 
REMARK    4  A    between atoms: S1_6  and  C4_7 
REMARK    5  A    between atoms: C5_8  and  O3_9 
REMARK    6  A    between atoms: C9_17  and  N2_18 
REMARK    7  A    between atoms: C13_25  and  C14_26 
REMARK    8  A    between atoms: C16_29  and  O8_30 
REMARK    9  A    between atoms: O8_30  and  C17_31 
ROOT
HETATM    1  C4  UNL     1       4.359  21.750  21.451  1.00  0.00     0.125 C 
HETATM    2  C5  UNL     1       3.288  22.784  21.235  1.00  0.00     0.196 C 
HETATM    3  C6  UNL     1       1.945  22.294  21.623  1.00  0.00     0.108 C 
HETATM    4  S2  UNL     1       1.924  21.929  23.262  1.00  0.00    -0.062 SA
HETATM    5  N1  UNL     1       0.806  22.125  20.836  1.00  0.00    -0.346 N 
ATOM      6  H1  UNL     1      -0.059  22.060  21.374  1.00  0.00     0.167 HD
HETATM    7  C7  UNL     1       0.616  22.024  19.427  1.00  0.00     0.069 A 
HETATM    8  C8  UNL     1      -0.507  22.698  18.884  1.00  0.00     0.068 A 
HETATM    9  C9  UNL     1      -0.820  22.686  17.553  1.00  0.00     0.105 A 
HETATM   10  C10 UNL     1       0.001  21.981  16.700  1.00  0.00     0.039 A 
HETATM   11  C11 UNL     1       1.093  21.325  17.226  1.00  0.00     0.041 A 
HETATM   12  C12 UNL     1       1.435  21.319  18.569  1.00  0.00     0.096 A 
HETATM   13  O6  UNL     1       2.541  20.619  18.894  1.00  0.00    -0.338 OA
HETATM   14  C13 UNL     1       3.236  20.121  19.936  1.00  0.00     0.190 C 
HETATM   15  C16 UNL     1       4.515  20.861  20.276  1.00  0.00     0.181 C 
ENDROOT
BRANCH   1  16
HETATM   16  S1  UNL     1       5.838  22.529  22.047  1.00  0.00    -0.051 SA
BRANCH  16  17
HETATM   17  C3  UNL     1       6.723  21.564  23.239  1.00  0.00     0.322 C 
HETATM   18  O2  UNL     1       6.489  21.624  24.483  1.00  0.00    -0.252 OA
BRANCH  17  19
HETATM   19  O1  UNL     1       7.727  20.689  22.851  1.00  0.00    -0.313 OA
BRANCH  19  20
HETATM   20  C2  UNL     1       9.104  21.028  22.925  1.00  0.00     0.175 C 
HETATM   21  C1  UNL     1       9.665  21.018  21.533  1.00  0.00     0.034 C 
ENDBRANCH  19  20
ENDBRANCH  17  19
ENDBRANCH  16  17
ENDBRANCH   1  16
BRANCH   2  22
HETATM   22  O3  UNL     1       3.258  23.295  19.945  1.00  0.00    -0.387 OA
ATOM     23  H3  UNL     1       3.358  22.634  19.270  1.00  0.00     0.210 HD
ENDBRANCH   2  22
BRANCH  15  24
HETATM   24  O8  UNL     1       5.634  20.015  20.341  1.00  0.00    -0.312 OA
BRANCH  24  25
HETATM   25  C17 UNL     1       6.738  20.050  19.546  1.00  0.00     0.255 C 
HETATM   26  C18 UNL     1       7.607  18.846  19.498  1.00  0.00     0.126 C 
HETATM   27  O9  UNL     1       6.982  21.071  18.894  1.00  0.00    -0.266 OA
ENDBRANCH  24  25
ENDBRANCH  15  24
BRANCH  14  28
HETATM   28  C14 UNL     1       3.687  18.718  19.441  1.00  0.00     0.177 A 
HETATM   29  C15 UNL     1       3.127  17.517  20.168  1.00  0.00     0.203 A 
HETATM   30  O7  UNL     1       2.688  17.907  18.905  1.00  0.00    -0.378 OA
ENDBRANCH  14  28
BRANCH   9  31
HETATM   31  N2  UNL     1      -1.946  23.366  17.021  1.00  0.00    -0.116 N 
HETATM   32  O4  UNL     1      -2.155  23.327  15.795  1.00  0.00    -0.532 OA
HETATM   33  O5  UNL     1      -2.802  24.064  17.833  1.00  0.00    -0.532 OA
ENDBRANCH   9  31
TORSDOF 9
ENDMDL
MODEL 2
REMARK VINA RESULT: -6.958135847      0.751      1.163
REMARK  9 active torsions:
REMARK  status: ('A' for Active; 'I' for Inactive)
REMARK    1  A    between atoms: C2_2  and  O1_3 
REMARK    2  A    between atoms: O1_3  and  C3_4 
REMARK    3  A    between atoms: C3_4  and  S1_6 
REMARK    4  A    between atoms: S1_6  and  C4_7 
REMARK    5  A    between atoms: C5_8  and  O3_9 
REMARK    6  A    between atoms: C9_17  and  N2_18 
REMARK    7  A    between atoms: C13_25  and  C14_26 
REMARK    8  A    between atoms: C16_29  and  O8_30 
REMARK    9  A    between atoms: O8_30  and  C17_31 
ROOT
HETATM    1  C4  UNL     1       4.457  21.634  21.435  1.00  0.00     0.125 C 
HETATM    2  C5  UNL     1       3.410  22.694  21.225  1.00  0.00     0.196 C 
HETATM    3  C6  UNL     1       2.058  22.236  21.622  1.00  0.00     0.108 C 
HETATM    4  S2  UNL     1       2.038  21.872  23.260  1.00  0.00    -0.062 SA
HETATM    5  N1  UNL     1       0.912  22.094  20.841  1.00  0.00    -0.346 N 
ATOM      6  H1  UNL     1       0.048  22.050  21.383  1.00  0.00     0.167 HD
HETATM    7  C7  UNL     1       0.711  21.998  19.433  1.00  0.00     0.069 A 
HETATM    8  C8  UNL     1      -0.398  22.699  18.896  1.00  0.00     0.068 A 
HETATM    9  C9  UNL     1      -0.720  22.695  17.567  1.00  0.00     0.105 A 
HETATM   10  C10 UNL     1       0.080  21.971  16.709  1.00  0.00     0.039 A 
HETATM   11  C11 UNL     1       1.159  21.289  17.229  1.00  0.00     0.041 A 
HETATM   12  C12 UNL     1       1.508  21.274  18.570  1.00  0.00     0.096 A 
HETATM   13  O6  UNL     1       2.599  20.548  18.889  1.00  0.00    -0.338 OA
HETATM   14  C13 UNL     1       3.287  20.033  19.927  1.00  0.00     0.190 C 
HETATM   15  C16 UNL     1       4.586  20.742  20.260  1.00  0.00     0.181 C 
ENDROOT
BRANCH   1  16
HETATM   16  S1  UNL     1       5.959  22.377  22.023  1.00  0.00    -0.051 SA
BRANCH  16  17
HETATM   17  C3  UNL     1       6.719  21.494  23.356  1.00  0.00     0.322 C 
HETATM   18  O2  UNL     1       7.317  20.388  23.195  1.00  0.00    -0.252 OA
BRANCH  17  19
HETATM   19  O1  UNL     1       6.689  21.986  24.652  1.00  0.00    -0.313 OA
BRANCH  19  20
HETATM   20  C2  UNL     1       7.075  23.315  24.971  1.00  0.00     0.175 C 
HETATM   21  C1  UNL     1       8.566  23.417  24.833  1.00  0.00     0.034 C 
ENDBRANCH  19  20
ENDBRANCH  17  19
ENDBRANCH  16  17
ENDBRANCH   1  16
BRANCH   2  22
HETATM   22  O3  UNL     1       3.385  23.206  19.936  1.00  0.00    -0.387 OA
ATOM     23  H3  UNL     1       2.840  23.978  19.841  1.00  0.00     0.210 HD
ENDBRANCH   2  22
BRANCH  15  24
HETATM   24  O8  UNL     1       5.684  19.870  20.318  1.00  0.00    -0.312 OA
BRANCH  24  25
HETATM   25  C17 UNL     1       6.867  19.993  19.657  1.00  0.00     0.255 C 
HETATM   26  C18 UNL     1       7.900  18.945  19.866  1.00  0.00     0.126 C 
HETATM   27  O9  UNL     1       7.046  20.961  18.912  1.00  0.00    -0.266 OA
ENDBRANCH  24  25
ENDBRANCH  15  24
BRANCH  14  28
HETATM   28  C14 UNL     1       3.702  18.620  19.429  1.00  0.00     0.177 A 
HETATM   29  C15 UNL     1       3.102  17.432  20.147  1.00  0.00     0.203 A 
HETATM   30  O7  UNL     1       2.685  17.841  18.882  1.00  0.00    -0.378 OA
ENDBRANCH  14  28
BRANCH   9  31
HETATM   31  N2  UNL     1      -1.832  23.402  17.041  1.00  0.00    -0.116 N 
HETATM   32  O4  UNL     1      -2.051  23.366  15.817  1.00  0.00    -0.532 OA
HETATM   33  O5  UNL     1      -2.665  24.122  17.858  1.00  0.00    -0.532 OA
ENDBRANCH   9  31
TORSDOF 9
ENDMDL
MODEL 3
REMARK VINA RESULT: -6.665427252      1.314      1.913
REMARK  9 active torsions:
REMARK  status: ('A' for Active; 'I' for Inactive)
REMARK    1  A    between atoms: C2_2  and  O1_3 
REMARK    2  A    between atoms: O1_3  and  C3_4 
REMARK    3  A    between atoms: C3_4  and  S1_6 
REMARK    4  A    between atoms: S1_6  and  C4_7 
REMARK    5  A    between atoms: C5_8  and  O3_9 
REMARK    6  A    between atoms: C9_17  and  N2_18 
REMARK    7  A    between atoms: C13_25  and  C14_26 
REMARK    8  A    between atoms: C16_29  and  O8_30 
REMARK    9  A    between atoms: O8_30  and  C17_31 
ROOT
HETATM    1  C4  UNL     1       4.429  21.638  21.437  1.00  0.00     0.125 C 
HETATM    2  C5  UNL     1       3.381  22.697  21.228  1.00  0.00     0.196 C 
HETATM    3  C6  UNL     1       2.027  22.233  21.613  1.00  0.00     0.108 C 
HETATM    4  S2  UNL     1       1.998  21.856  23.249  1.00  0.00    -0.062 SA
HETATM    5  N1  UNL     1       0.886  22.093  20.824  1.00  0.00    -0.346 N 
ATOM      6  H1  UNL     1       0.019  22.043  21.361  1.00  0.00     0.167 HD
HETATM    7  C7  UNL     1       0.694  22.007  19.414  1.00  0.00     0.069 A 
HETATM    8  C8  UNL     1      -0.414  22.709  18.876  1.00  0.00     0.068 A 
HETATM    9  C9  UNL     1      -0.727  22.713  17.544  1.00  0.00     0.105 A 
HETATM   10  C10 UNL     1       0.080  21.997  16.687  1.00  0.00     0.039 A 
HETATM   11  C11 UNL     1       1.157  21.314  17.208  1.00  0.00     0.041 A 
HETATM   12  C12 UNL     1       1.498  21.291  18.551  1.00  0.00     0.096 A 
HETATM   13  O6  UNL     1       2.589  20.565  18.872  1.00  0.00    -0.338 OA
HETATM   14  C13 UNL     1       3.273  20.044  19.910  1.00  0.00     0.190 C 
HETATM   15  C16 UNL     1       4.567  20.754  20.256  1.00  0.00     0.181 C 
ENDROOT
BRANCH   1  16
HETATM   16  S1  UNL     1       5.925  22.381  22.040  1.00  0.00    -0.051 SA
BRANCH  16  17
HETATM   17  C3  UNL     1       5.812  22.961  23.708  1.00  0.00     0.322 C 
HETATM   18  O2  UNL     1       6.347  22.356  24.685  1.00  0.00    -0.252 OA
BRANCH  17  19
HETATM   19  O1  UNL     1       5.122  24.124  24.018  1.00  0.00    -0.313 OA
BRANCH  19  20
HETATM   20  C2  UNL     1       5.779  25.312  24.433  1.00  0.00     0.175 C 
HETATM   21  C1  UNL     1       5.394  25.590  25.857  1.00  0.00     0.034 C 
ENDBRANCH  19  20
ENDBRANCH  17  19
ENDBRANCH  16  17
ENDBRANCH   1  16
BRANCH   2  22
HETATM   22  O3  UNL     1       3.362  23.217  19.942  1.00  0.00    -0.387 OA
ATOM     23  H3  UNL     1       2.497  23.235  19.549  1.00  0.00     0.210 HD
ENDBRANCH   2  22
BRANCH  15  24
HETATM   24  O8  UNL     1       5.667  19.885  20.315  1.00  0.00    -0.312 OA
BRANCH  24  25
HETATM   25  C17 UNL     1       6.832  19.984  19.618  1.00  0.00     0.255 C 
HETATM   26  C18 UNL     1       7.831  18.893  19.761  1.00  0.00     0.126 C 
HETATM   27  O9  UNL     1       7.021  20.967  18.893  1.00  0.00    -0.266 OA
ENDBRANCH  24  25
ENDBRANCH  15  24
BRANCH  14  28
HETATM   28  C14 UNL     1       3.694  18.636  19.405  1.00  0.00     0.177 A 
HETATM   29  C15 UNL     1       3.123  17.442  20.135  1.00  0.00     0.203 A 
HETATM   30  O7  UNL     1       2.675  17.844  18.879  1.00  0.00    -0.378 OA
ENDBRANCH  14  28
BRANCH   9  31
HETATM   31  N2  UNL     1      -1.837  23.421  17.017  1.00  0.00    -0.116 N 
HETATM   32  O4  UNL     1      -2.056  23.383  15.793  1.00  0.00    -0.532 OA
HETATM   33  O5  UNL     1      -2.669  24.145  17.832  1.00  0.00    -0.532 OA
ENDBRANCH   9  31
TORSDOF 9
ENDMDL
MODEL 4
REMARK VINA RESULT: -6.543247610      3.248      5.322
REMARK  9 active torsions:
REMARK  status: ('A' for Active; 'I' for Inactive)
REMARK    1  A    between atoms: C2_2  and  O1_3 
REMARK    2  A    between atoms: O1_3  and  C3_4 
REMARK    3  A    between atoms: C3_4  and  S1_6 
REMARK    4  A    between atoms: S1_6  and  C4_7 
REMARK    5  A    between atoms: C5_8  and  O3_9 
REMARK    6  A    between atoms: C9_17  and  N2_18 
REMARK    7  A    between atoms: C13_25  and  C14_26 
REMARK    8  A    between atoms: C16_29  and  O8_30 
REMARK    9  A    between atoms: O8_30  and  C17_31 
ROOT
HETATM    1  C4  UNL     1       5.722  22.388  22.197  1.00  0.00     0.125 C 
HETATM    2  C5  UNL     1       4.627  21.454  21.756  1.00  0.00     0.196 C 
HETATM    3  C6  UNL     1       3.782  22.041  20.690  1.00  0.00     0.108 C 
HETATM    4  S2  UNL     1       4.714  22.350  19.329  1.00  0.00    -0.062 SA
HETATM    5  N1  UNL     1       2.418  22.331  20.706  1.00  0.00    -0.346 N 
ATOM      6  H1  UNL     1       2.012  22.449  19.778  1.00  0.00     0.167 HD
HETATM    7  C7  UNL     1       1.481  22.496  21.768  1.00  0.00     0.069 A 
HETATM    8  C8  UNL     1       0.193  21.937  21.576  1.00  0.00     0.068 A 
HETATM    9  C9  UNL     1      -0.810  22.020  22.502  1.00  0.00     0.105 A 
HETATM   10  C10 UNL     1      -0.549  22.683  23.682  1.00  0.00     0.039 A 
HETATM   11  C11 UNL     1       0.702  23.228  23.871  1.00  0.00     0.041 A 
HETATM   12  C12 UNL     1       1.737  23.159  22.951  1.00  0.00     0.096 A 
HETATM   13  O6  UNL     1       2.892  23.753  23.314  1.00  0.00    -0.338 OA
HETATM   14  C13 UNL     1       4.092  24.156  22.851  1.00  0.00     0.190 C 
HETATM   15  C16 UNL     1       5.271  23.301  23.273  1.00  0.00     0.181 C 
ENDROOT
BRANCH   1  16
HETATM   16  S1  UNL     1       7.206  21.469  22.519  1.00  0.00    -0.051 SA
BRANCH  16  17
HETATM   17  C3  UNL     1       7.263  19.896  21.709  1.00  0.00     0.322 C 
HETATM   18  O2  UNL     1       7.182  18.797  22.334  1.00  0.00    -0.252 OA
BRANCH  17  19
HETATM   19  O1  UNL     1       7.401  19.803  20.332  1.00  0.00    -0.313 OA
BRANCH  19  20
HETATM   20  C2  UNL     1       8.575  19.293  19.717  1.00  0.00     0.175 C 
HETATM   21  C1  UNL     1       9.675  20.297  19.900  1.00  0.00     0.034 C 
ENDBRANCH  19  20
ENDBRANCH  17  19
ENDBRANCH  16  17
ENDBRANCH   1  16
BRANCH   2  22
HETATM   22  O3  UNL     1       3.835  20.992  22.798  1.00  0.00    -0.387 OA
ATOM     23  H3  UNL     1       3.475  20.126  22.648  1.00  0.00     0.210 HD
ENDBRANCH   2  22
BRANCH  15  24
HETATM   24  O8  UNL     1       6.303  24.048  23.863  1.00  0.00    -0.312 OA
BRANCH  24  25
HETATM   25  C17 UNL     1       6.766  23.947  25.138  1.00  0.00     0.255 C 
HETATM   26  C18 UNL     1       8.118  23.368  25.350  1.00  0.00     0.126 C 
HETATM   27  O9  UNL     1       6.056  24.335  26.072  1.00  0.00    -0.266 OA
ENDBRANCH  24  25
ENDBRANCH  15  24
BRANCH  14  28
HETATM   28  C14 UNL     1       4.310  25.533  23.540  1.00  0.00     0.177 A 
HETATM   29  C15 UNL     1       3.126  26.471  23.595  1.00  0.00     0.203 A 
HETATM   30  O7  UNL     1       3.577  25.757  24.703  1.00  0.00    -0.378 OA
ENDBRANCH  14  28
BRANCH   9  31
HETATM   31  N2  UNL     1      -2.095  21.454  22.299  1.00  0.00    -0.116 N 
HETATM   32  O4  UNL     1      -2.791  21.854  21.349  1.00  0.00    -0.532 OA
HETATM   33  O5  UNL     1      -2.580  20.478  23.131  1.00  0.00    -0.532 OA
ENDBRANCH   9  31
TORSDOF 9
ENDMDL
MODEL 5
REMARK VINA RESULT: -6.530589387      1.996      3.997
REMARK  9 active torsions:
REMARK  status: ('A' for Active; 'I' for Inactive)
REMARK    1  A    between atoms: C2_2  and  O1_3 
REMARK    2  A    between atoms: O1_3  and  C3_4 
REMARK    3  A    between atoms: C3_4  and  S1_6 
REMARK    4  A    between atoms: S1_6  and  C4_7 
REMARK    5  A    between atoms: C5_8  and  O3_9 
REMARK    6  A    between atoms: C9_17  and  N2_18 
REMARK    7  A    between atoms: C13_25  and  C14_26 
REMARK    8  A    between atoms: C16_29  and  O8_30 
REMARK    9  A    between atoms: O8_30  and  C17_31 
ROOT
HETATM    1  C4  UNL     1       4.923  21.222  21.104  1.00  0.00     0.125 C 
HETATM    2  C5  UNL     1       4.205  20.865  19.830  1.00  0.00     0.196 C 
HETATM    3  C6  UNL     1       4.107  22.012  18.898  1.00  0.00     0.108 C 
HETATM    4  S2  UNL     1       5.645  22.513  18.448  1.00  0.00    -0.062 SA
HETATM    5  N1  UNL     1       2.972  22.653  18.405  1.00  0.00    -0.346 N 
ATOM      6  H1  UNL     1       3.144  23.209  17.567  1.00  0.00     0.167 HD
HETATM    7  C7  UNL     1       1.615  22.682  18.843  1.00  0.00     0.069 A 
HETATM    8  C8  UNL     1       0.617  22.622  17.839  1.00  0.00     0.068 A 
HETATM    9  C9  UNL     1      -0.724  22.647  18.107  1.00  0.00     0.105 A 
HETATM   10  C10 UNL     1      -1.119  22.734  19.424  1.00  0.00     0.039 A 
HETATM   11  C11 UNL     1      -0.151  22.792  20.403  1.00  0.00     0.041 A 
HETATM   12  C12 UNL     1       1.214  22.770  20.161  1.00  0.00     0.096 A 
HETATM   13  O6  UNL     1       2.008  22.836  21.249  1.00  0.00    -0.338 OA
HETATM   14  C13 UNL     1       3.284  23.019  21.645  1.00  0.00     0.190 C 
HETATM   15  C16 UNL     1       4.000  21.771  22.124  1.00  0.00     0.181 C 
ENDROOT
BRANCH   1  16
HETATM   16  S1  UNL     1       5.946  19.866  21.620  1.00  0.00    -0.051 SA
BRANCH  16  17
HETATM   17  C3  UNL     1       6.829  19.092  20.296  1.00  0.00     0.322 C 
HETATM   18  O2  UNL     1       6.255  18.621  19.269  1.00  0.00    -0.252 OA
BRANCH  17  19
HETATM   19  O1  UNL     1       8.210  18.968  20.330  1.00  0.00    -0.313 OA
BRANCH  19  20
HETATM   20  C2  UNL     1       9.076  19.941  19.765  1.00  0.00     0.175 C 
HETATM   21  C1  UNL     1       9.616  20.792  20.878  1.00  0.00     0.034 C 
ENDBRANCH  19  20
ENDBRANCH  17  19
ENDBRANCH  16  17
ENDBRANCH   1  16
BRANCH   2  22
HETATM   22  O3  UNL     1       2.953  20.303  20.035  1.00  0.00    -0.387 OA
ATOM     23  H3  UNL     1       2.255  20.744  19.564  1.00  0.00     0.210 HD
ENDBRANCH   2  22
BRANCH  15  24
HETATM   24  O8  UNL     1       4.575  21.926  23.395  1.00  0.00    -0.312 OA
BRANCH  24  25
HETATM   25  C17 UNL     1       5.825  22.380  23.682  1.00  0.00     0.255 C 
HETATM   26  C18 UNL     1       6.572  21.728  24.788  1.00  0.00     0.126 C 
HETATM   27  O9  UNL     1       6.297  23.311  23.020  1.00  0.00    -0.266 OA
ENDBRANCH  24  25
ENDBRANCH  15  24
BRANCH  14  28
HETATM   28  C14 UNL     1       3.153  23.929  22.898  1.00  0.00     0.177 A 
HETATM   29  C15 UNL     1       3.543  25.381  22.740  1.00  0.00     0.203 A 
HETATM   30  O7  UNL     1       2.218  24.959  22.812  1.00  0.00    -0.378 OA
ENDBRANCH  14  28
BRANCH   9  31
HETATM   31  N2  UNL     1      -1.713  22.585  17.093  1.00  0.00    -0.116 N 
HETATM   32  O4  UNL     1      -2.563  21.677  17.127  1.00  0.00    -0.532 OA
HETATM   33  O5  UNL     1      -1.748  23.507  16.078  1.00  0.00    -0.532 OA
ENDBRANCH   9  31
TORSDOF 9
ENDMDL
