MODEL 1
REMARK VINA RESULT: -8.039918042      0.000      0.000
REMARK  10 active torsions:
REMARK  status: ('A' for Active; 'I' for Inactive)
REMARK    1  A    between atoms: C2_2  and  O1_4 
REMARK    2  A    between atoms: O1_4  and  C4_5 
REMARK    3  A    between atoms: C4_5  and  C5_7 
REMARK    4  A    between atoms: C8_10  and  C9_11 
REMARK    5  A    between atoms: C9_11  and  O3_12 
REMARK    6  A    between atoms: O3_12  and  C10_13 
REMARK    7  A    between atoms: C10_13  and  O4_14 
REMARK    8  A    between atoms: C10_13  and  C11_16 
REMARK    9  A    between atoms: C21_28  and  O7_29 
REMARK   10  A    between atoms: C22_31  and  O8_32 
ROOT
HETATM    1  C5  UNL     1       5.949  20.951  20.222  1.00  0.00     0.137 C 
HETATM    2  C6  UNL     1       6.253  22.339  19.633  1.00  0.00     0.031 C 
HETATM    3  C7  UNL     1       5.640  23.313  20.575  1.00  0.00     0.017 C 
HETATM    4  C8  UNL     1       4.519  22.721  21.429  1.00  0.00     0.026 C 
HETATM    5  C15 UNL     1       3.623  21.918  20.537  1.00  0.00     0.074 C 
HETATM    6  C16 UNL     1       4.480  20.781  20.022  1.00  0.00     0.153 C 
HETATM    7  O6  UNL     1       3.959  19.839  19.499  1.00  0.00    -0.296 OA
HETATM    8  C17 UNL     1       2.492  21.255  21.268  1.00  0.00    -0.006 C 
HETATM    9  C18 UNL     1       1.216  22.087  21.244  1.00  0.00     0.011 C 
HETATM   10  C19 UNL     1       2.790  20.865  22.679  1.00  0.00     0.008 C 
HETATM   11  C20 UNL     1       4.249  20.675  22.879  1.00  0.00     0.042 C 
HETATM   12  C21 UNL     1       5.134  21.775  22.409  1.00  0.00     0.096 C 
HETATM   13  C22 UNL     1       6.312  21.085  21.698  1.00  0.00     0.179 C 
ENDROOT
BRANCH   4  14
HETATM   14  C9  UNL     1       3.867  23.909  22.074  1.00  0.00     0.185 C 
BRANCH  14  15
HETATM   15  O3  UNL     1       4.821  24.836  22.524  1.00  0.00    -0.354 OA
BRANCH  15  16
HETATM   16  C10 UNL     1       4.291  25.762  23.382  1.00  0.00     0.315 C 
BRANCH  16  17
HETATM   17  O4  UNL     1       2.884  25.741  23.393  1.00  0.00    -0.365 OA
ATOM     18  H4  UNL     1       2.515  26.455  23.899  1.00  0.00     0.213 HD
ENDBRANCH  16  17
BRANCH  16  19
HETATM   19  C11 UNL     1       4.814  25.593  24.787  1.00  0.00     0.107 A 
HETATM   20  C12 UNL     1       4.270  26.111  25.937  1.00  0.00     0.040 A 
HETATM   21  C13 UNL     1       5.062  25.713  26.978  1.00  0.00     0.027 A 
HETATM   22  C14 UNL     1       6.070  24.962  26.432  1.00  0.00     0.142 A 
HETATM   23  O5  UNL     1       5.877  24.923  25.136  1.00  0.00    -0.322 OA
ENDBRANCH  16  19
ENDBRANCH  15  16
ENDBRANCH  14  15
ENDBRANCH   4  14
BRANCH  12  24
HETATM   24  O7  UNL     1       5.632  22.504  23.493  1.00  0.00    -0.386 OA
ATOM     25  H7  UNL     1       5.358  23.409  23.408  1.00  0.00     0.210 HD
ENDBRANCH  12  24
BRANCH  13  26
HETATM   26  O8  UNL     1       6.581  19.865  22.290  1.00  0.00    -0.391 OA
ATOM     27  H8  UNL     1       6.136  19.757  23.122  1.00  0.00     0.210 HD
ENDBRANCH  13  26
BRANCH   1  28
HETATM   28  C4  UNL     1       6.746  19.908  19.576  1.00  0.00     0.278 C 
HETATM   29  O2  UNL     1       6.288  18.736  19.390  1.00  0.00    -0.264 OA
BRANCH  28  30
HETATM   30  O1  UNL     1       8.030  20.127  19.133  1.00  0.00    -0.316 OA
BRANCH  30  31
HETATM   31  C2  UNL     1       9.132  19.476  19.667  1.00  0.00     0.123 C 
HETATM   32  C1  UNL     1       9.801  20.345  20.709  1.00  0.00     0.040 C 
HETATM   33  C3  UNL     1      10.138  19.015  18.648  1.00  0.00     0.040 C 
ENDBRANCH  30  31
ENDBRANCH  28  30
ENDBRANCH   1  28
TORSDOF 10
ENDMDL
MODEL 2
REMARK VINA RESULT: -7.923564920      2.826      6.054
REMARK  10 active torsions:
REMARK  status: ('A' for Active; 'I' for Inactive)
REMARK    1  A    between atoms: C2_2  and  O1_4 
REMARK    2  A    between atoms: O1_4  and  C4_5 
REMARK    3  A    between atoms: C4_5  and  C5_7 
REMARK    4  A    between atoms: C8_10  and  C9_11 
REMARK    5  A    between atoms: C9_11  and  O3_12 
REMARK    6  A    between atoms: O3_12  and  C10_13 
REMARK    7  A    between atoms: C10_13  and  O4_14 
REMARK    8  A    between atoms: C10_13  and  C11_16 
REMARK    9  A    between atoms: C21_28  and  O7_29 
REMARK   10  A    between atoms: C22_31  and  O8_32 
ROOT
HETATM    1  C5  UNL     1       5.818  20.431  21.222  1.00  0.00     0.137 C 
HETATM    2  C6  UNL     1       4.874  19.306  20.766  1.00  0.00     0.031 C 
HETATM    3  C7  UNL     1       3.742  19.988  20.084  1.00  0.00     0.017 C 
HETATM    4  C8  UNL     1       3.565  21.448  20.501  1.00  0.00     0.026 C 
HETATM    5  C15 UNL     1       3.661  21.527  21.993  1.00  0.00     0.074 C 
HETATM    6  C16 UNL     1       5.076  21.105  22.329  1.00  0.00     0.153 C 
HETATM    7  O6  UNL     1       5.514  21.323  23.421  1.00  0.00    -0.296 OA
HETATM    8  C17 UNL     1       3.532  22.923  22.527  1.00  0.00    -0.006 C 
HETATM    9  C18 UNL     1       2.103  23.261  22.934  1.00  0.00     0.011 C 
HETATM   10  C19 UNL     1       4.045  23.997  21.626  1.00  0.00     0.008 C 
HETATM   11  C20 UNL     1       5.070  23.462  20.694  1.00  0.00     0.042 C 
HETATM   12  C21 UNL     1       4.707  22.232  19.940  1.00  0.00     0.096 C 
HETATM   13  C22 UNL     1       5.951  21.327  19.996  1.00  0.00     0.179 C 
ENDROOT
BRANCH   4  14
HETATM   14  C9  UNL     1       2.232  21.844  19.933  1.00  0.00     0.185 C 
BRANCH  14  15
HETATM   15  O3  UNL     1       1.847  20.989  18.887  1.00  0.00    -0.354 OA
BRANCH  15  16
HETATM   16  C10 UNL     1       1.104  21.630  17.932  1.00  0.00     0.315 C 
BRANCH  16  17
HETATM   17  O4  UNL     1       1.802  22.695  17.333  1.00  0.00    -0.365 OA
ATOM     18  H4  UNL     1       1.566  23.537  17.704  1.00  0.00     0.213 HD
ENDBRANCH  16  17
BRANCH  16  19
HETATM   19  C11 UNL     1       0.614  20.681  16.867  1.00  0.00     0.107 A 
HETATM   20  C12 UNL     1      -0.297  19.665  17.024  1.00  0.00     0.040 A 
HETATM   21  C13 UNL     1      -0.448  19.061  15.806  1.00  0.00     0.027 A 
HETATM   22  C14 UNL     1       0.378  19.728  14.939  1.00  0.00     0.142 A 
HETATM   23  O5  UNL     1       0.981  20.674  15.616  1.00  0.00    -0.322 OA
ENDBRANCH  16  19
ENDBRANCH  15  16
ENDBRANCH  14  15
ENDBRANCH   4  14
BRANCH  12  24
HETATM   24  O7  UNL     1       4.435  22.537  18.603  1.00  0.00    -0.386 OA
ATOM     25  H7  UNL     1       3.654  23.076  18.562  1.00  0.00     0.210 HD
ENDBRANCH  12  24
BRANCH  13  26
HETATM   26  O8  UNL     1       7.100  22.094  20.022  1.00  0.00    -0.391 OA
ATOM     27  H8  UNL     1       7.174  22.667  19.267  1.00  0.00     0.210 HD
ENDBRANCH  13  26
BRANCH   1  28
HETATM   28  C4  UNL     1       7.120  19.905  21.635  1.00  0.00     0.278 C 
HETATM   29  O2  UNL     1       7.344  18.655  21.710  1.00  0.00    -0.264 OA
BRANCH  28  30
HETATM   30  O1  UNL     1       8.175  20.724  21.965  1.00  0.00    -0.316 OA
BRANCH  30  31
HETATM   31  C2  UNL     1       9.497  20.312  21.901  1.00  0.00     0.123 C 
HETATM   32  C1  UNL     1      10.369  21.207  22.754  1.00  0.00     0.040 C 
HETATM   33  C3  UNL     1      10.054  20.217  20.506  1.00  0.00     0.040 C 
ENDBRANCH  30  31
ENDBRANCH  28  30
ENDBRANCH   1  28
TORSDOF 10
ENDMDL
MODEL 3
REMARK VINA RESULT: -7.888303616      1.273      1.512
REMARK  10 active torsions:
REMARK  status: ('A' for Active; 'I' for Inactive)
REMARK    1  A    between atoms: C2_2  and  O1_4 
REMARK    2  A    between atoms: O1_4  and  C4_5 
REMARK    3  A    between atoms: C4_5  and  C5_7 
REMARK    4  A    between atoms: C8_10  and  C9_11 
REMARK    5  A    between atoms: C9_11  and  O3_12 
REMARK    6  A    between atoms: O3_12  and  C10_13 
REMARK    7  A    between atoms: C10_13  and  O4_14 
REMARK    8  A    between atoms: C10_13  and  C11_16 
REMARK    9  A    between atoms: C21_28  and  O7_29 
REMARK   10  A    between atoms: C22_31  and  O8_32 
ROOT
HETATM    1  C5  UNL     1       5.715  20.947  20.374  1.00  0.00     0.137 C 
HETATM    2  C6  UNL     1       6.697  22.026  20.858  1.00  0.00     0.031 C 
HETATM    3  C7  UNL     1       5.975  22.772  21.922  1.00  0.00     0.017 C 
HETATM    4  C8  UNL     1       4.454  22.656  21.830  1.00  0.00     0.026 C 
HETATM    5  C15 UNL     1       4.051  22.864  20.402  1.00  0.00     0.074 C 
HETATM    6  C16 UNL     1       4.664  21.710  19.637  1.00  0.00     0.153 C 
HETATM    7  O6  UNL     1       4.293  21.476  18.524  1.00  0.00    -0.296 OA
HETATM    8  C17 UNL     1       2.573  22.743  20.175  1.00  0.00    -0.006 C 
HETATM    9  C18 UNL     1       1.864  24.091  20.223  1.00  0.00     0.011 C 
HETATM   10  C19 UNL     1       1.867  21.791  21.083  1.00  0.00     0.008 C 
HETATM   11  C20 UNL     1       2.803  20.762  21.603  1.00  0.00     0.042 C 
HETATM   12  C21 UNL     1       4.073  21.258  22.198  1.00  0.00     0.096 C 
HETATM   13  C22 UNL     1       5.175  20.329  21.660  1.00  0.00     0.179 C 
ENDROOT
BRANCH   4  14
HETATM   14  C9  UNL     1       3.936  23.689  22.788  1.00  0.00     0.185 C 
BRANCH  14  15
HETATM   15  O3  UNL     1       4.965  24.202  23.593  1.00  0.00    -0.354 OA
BRANCH  15  16
HETATM   16  C10 UNL     1       4.735  25.495  23.981  1.00  0.00     0.315 C 
BRANCH  16  17
HETATM   17  O4  UNL     1       3.558  26.023  23.418  1.00  0.00    -0.365 OA
ATOM     18  H4  UNL     1       3.545  26.973  23.427  1.00  0.00     0.213 HD
ENDBRANCH  16  17
BRANCH  16  19
HETATM   19  C11 UNL     1       4.689  25.635  25.481  1.00  0.00     0.107 A 
HETATM   20  C12 UNL     1       5.674  25.290  26.373  1.00  0.00     0.040 A 
HETATM   21  C13 UNL     1       5.213  25.586  27.626  1.00  0.00     0.027 A 
HETATM   22  C14 UNL     1       3.956  26.105  27.462  1.00  0.00     0.142 A 
HETATM   23  O5  UNL     1       3.694  26.112  26.178  1.00  0.00    -0.322 OA
ENDBRANCH  16  19
ENDBRANCH  15  16
ENDBRANCH  14  15
ENDBRANCH   4  14
BRANCH  12  24
HETATM   24  O7  UNL     1       4.038  21.150  23.592  1.00  0.00    -0.386 OA
ATOM     25  H7  UNL     1       3.663  21.944  23.954  1.00  0.00     0.210 HD
ENDBRANCH  12  24
BRANCH  13  26
HETATM   26  O8  UNL     1       4.676  19.054  21.467  1.00  0.00    -0.391 OA
ATOM     27  H8  UNL     1       4.566  18.578  22.282  1.00  0.00     0.210 HD
ENDBRANCH  13  26
BRANCH   1  28
HETATM   28  C4  UNL     1       6.386  19.942  19.548  1.00  0.00     0.278 C 
HETATM   29  O2  UNL     1       5.775  18.909  19.124  1.00  0.00    -0.264 OA
BRANCH  28  30
HETATM   30  O1  UNL     1       7.707  20.050  19.181  1.00  0.00    -0.316 OA
BRANCH  30  31
HETATM   31  C2  UNL     1       8.679  19.153  19.595  1.00  0.00     0.123 C 
HETATM   32  C1  UNL     1       8.324  18.580  20.949  1.00  0.00     0.040 C 
HETATM   33  C3  UNL     1      10.076  19.713  19.616  1.00  0.00     0.040 C 
ENDBRANCH  30  31
ENDBRANCH  28  30
ENDBRANCH   1  28
TORSDOF 10
ENDMDL
MODEL 4
REMARK VINA RESULT: -7.857083457      2.509      6.391
REMARK  10 active torsions:
REMARK  status: ('A' for Active; 'I' for Inactive)
REMARK    1  A    between atoms: C2_2  and  O1_4 
REMARK    2  A    between atoms: O1_4  and  C4_5 
REMARK    3  A    between atoms: C4_5  and  C5_7 
REMARK    4  A    between atoms: C8_10  and  C9_11 
REMARK    5  A    between atoms: C9_11  and  O3_12 
REMARK    6  A    between atoms: O3_12  and  C10_13 
REMARK    7  A    between atoms: C10_13  and  O4_14 
REMARK    8  A    between atoms: C10_13  and  C11_16 
REMARK    9  A    between atoms: C21_28  and  O7_29 
REMARK   10  A    between atoms: C22_31  and  O8_32 
ROOT
HETATM    1  C5  UNL     1       3.297  22.158  19.812  1.00  0.00     0.137 C 
HETATM    2  C6  UNL     1       4.203  21.646  18.680  1.00  0.00     0.031 C 
HETATM    3  C7  UNL     1       5.086  20.628  19.308  1.00  0.00     0.017 C 
HETATM    4  C8  UNL     1       5.229  20.788  20.822  1.00  0.00     0.026 C 
HETATM    5  C15 UNL     1       5.471  22.235  21.121  1.00  0.00     0.074 C 
HETATM    6  C16 UNL     1       4.212  22.954  20.683  1.00  0.00     0.153 C 
HETATM    7  O6  UNL     1       4.019  24.079  21.042  1.00  0.00    -0.296 OA
HETATM    8  C17 UNL     1       5.600  22.529  22.586  1.00  0.00    -0.006 C 
HETATM    9  C18 UNL     1       7.049  22.533  23.055  1.00  0.00     0.011 C 
HETATM   10  C19 UNL     1       4.803  21.640  23.484  1.00  0.00     0.008 C 
HETATM   11  C20 UNL     1       3.642  21.061  22.762  1.00  0.00     0.042 C 
HETATM   12  C21 UNL     1       3.927  20.416  21.452  1.00  0.00     0.096 C 
HETATM   13  C22 UNL     1       2.810  20.889  20.504  1.00  0.00     0.179 C 
ENDROOT
BRANCH   4  14
HETATM   14  C9  UNL     1       6.357  19.870  21.195  1.00  0.00     0.185 C 
BRANCH  14  15
HETATM   15  O3  UNL     1       6.521  18.847  20.246  1.00  0.00    -0.354 OA
BRANCH  15  16
HETATM   16  C10 UNL     1       7.756  18.260  20.313  1.00  0.00     0.315 C 
BRANCH  16  17
HETATM   17  O4  UNL     1       8.187  17.771  19.066  1.00  0.00    -0.365 OA
ATOM     18  H4  UNL     1       8.831  18.338  18.657  1.00  0.00     0.213 HD
ENDBRANCH  16  17
BRANCH  16  19
HETATM   19  C11 UNL     1       8.795  19.193  20.881  1.00  0.00     0.107 A 
HETATM   20  C12 UNL     1       9.690  19.959  20.175  1.00  0.00     0.040 A 
HETATM   21  C13 UNL     1      10.442  20.650  21.084  1.00  0.00     0.027 A 
HETATM   22  C14 UNL     1       9.982  20.286  22.323  1.00  0.00     0.142 A 
HETATM   23  O5  UNL     1       9.011  19.424  22.147  1.00  0.00    -0.322 OA
ENDBRANCH  16  19
ENDBRANCH  15  16
ENDBRANCH  14  15
ENDBRANCH   4  14
BRANCH  12  24
HETATM   24  O7  UNL     1       3.858  19.023  21.564  1.00  0.00    -0.386 OA
ATOM     25  H7  UNL     1       2.968  18.776  21.785  1.00  0.00     0.210 HD
ENDBRANCH  12  24
BRANCH  13  26
HETATM   26  O8  UNL     1       1.636  21.085  21.207  1.00  0.00    -0.391 OA
ATOM     27  H8  UNL     1       0.871  20.780  20.732  1.00  0.00     0.210 HD
ENDBRANCH  13  26
BRANCH   1  28
HETATM   28  C4  UNL     1       2.173  22.937  19.290  1.00  0.00     0.278 C 
HETATM   29  O2  UNL     1       1.603  23.837  19.985  1.00  0.00    -0.264 OA
BRANCH  28  30
HETATM   30  O1  UNL     1       1.668  22.746  18.025  1.00  0.00    -0.316 OA
BRANCH  30  31
HETATM   31  C2  UNL     1       0.589  21.917  17.762  1.00  0.00     0.123 C 
HETATM   32  C1  UNL     1       1.059  20.626  17.129  1.00  0.00     0.040 C 
HETATM   33  C3  UNL     1      -0.492  22.545  16.925  1.00  0.00     0.040 C 
ENDBRANCH  30  31
ENDBRANCH  28  30
ENDBRANCH   1  28
TORSDOF 10
ENDMDL
MODEL 5
REMARK VINA RESULT: -7.821761937      2.251      6.776
REMARK  10 active torsions:
REMARK  status: ('A' for Active; 'I' for Inactive)
REMARK    1  A    between atoms: C2_2  and  O1_4 
REMARK    2  A    between atoms: O1_4  and  C4_5 
REMARK    3  A    between atoms: C4_5  and  C5_7 
REMARK    4  A    between atoms: C8_10  and  C9_11 
REMARK    5  A    between atoms: C9_11  and  O3_12 
REMARK    6  A    between atoms: O3_12  and  C10_13 
REMARK    7  A    between atoms: C10_13  and  O4_14 
REMARK    8  A    between atoms: C10_13  and  C11_16 
REMARK    9  A    between atoms: C21_28  and  O7_29 
REMARK   10  A    between atoms: C22_31  and  O8_32 
ROOT
HETATM    1  C5  UNL     1       2.491  21.797  21.656  1.00  0.00     0.137 C 
HETATM    2  C6  UNL     1       2.768  20.706  22.703  1.00  0.00     0.031 C 
HETATM    3  C7  UNL     1       4.228  20.774  22.973  1.00  0.00     0.017 C 
HETATM    4  C8  UNL     1       5.032  21.419  21.843  1.00  0.00     0.026 C 
HETATM    5  C15 UNL     1       4.564  20.841  20.544  1.00  0.00     0.074 C 
HETATM    6  C16 UNL     1       3.119  21.273  20.406  1.00  0.00     0.153 C 
HETATM    7  O6  UNL     1       2.572  21.177  19.346  1.00  0.00    -0.296 OA
HETATM    8  C17 UNL     1       5.261  21.420  19.347  1.00  0.00    -0.006 C 
HETATM    9  C18 UNL     1       6.455  20.583  18.907  1.00  0.00     0.011 C 
HETATM   10  C19 UNL     1       5.692  22.842  19.491  1.00  0.00     0.008 C 
HETATM   11  C20 UNL     1       4.864  23.548  20.502  1.00  0.00     0.042 C 
HETATM   12  C21 UNL     1       4.711  22.878  21.822  1.00  0.00     0.096 C 
HETATM   13  C22 UNL     1       3.224  23.023  22.191  1.00  0.00     0.179 C 
ENDROOT
BRANCH   4  14
HETATM   14  C9  UNL     1       6.465  21.127  22.184  1.00  0.00     0.185 C 
BRANCH  14  15
HETATM   15  O3  UNL     1       6.710  19.745  22.226  1.00  0.00    -0.354 OA
BRANCH  15  16
HETATM   16  C10 UNL     1       8.027  19.452  22.458  1.00  0.00     0.315 C 
BRANCH  16  17
HETATM   17  O4  UNL     1       8.194  18.236  23.146  1.00  0.00    -0.365 OA
ATOM     18  H4  UNL     1       9.024  18.190  23.606  1.00  0.00     0.213 HD
ENDBRANCH  16  17
BRANCH  16  19
HETATM   19  C11 UNL     1       8.833  19.430  21.184  1.00  0.00     0.107 A 
HETATM   20  C12 UNL     1       9.797  20.330  20.801  1.00  0.00     0.040 A 
HETATM   21  C13 UNL     1      10.268  19.931  19.581  1.00  0.00     0.027 A 
HETATM   22  C14 UNL     1       9.576  18.794  19.253  1.00  0.00     0.142 A 
HETATM   23  O5  UNL     1       8.743  18.541  20.232  1.00  0.00    -0.322 OA
ENDBRANCH  16  19
ENDBRANCH  15  16
ENDBRANCH  14  15
ENDBRANCH   4  14
BRANCH  12  24
HETATM   24  O7  UNL     1       5.479  23.527  22.794  1.00  0.00    -0.386 OA
ATOM     25  H7  UNL     1       5.456  24.462  22.631  1.00  0.00     0.210 HD
ENDBRANCH  12  24
BRANCH  13  26
HETATM   26  O8  UNL     1       2.717  24.206  21.686  1.00  0.00    -0.391 OA
ATOM     27  H8  UNL     1       2.515  24.837  22.367  1.00  0.00     0.210 HD
ENDBRANCH  13  26
BRANCH   1  28
HETATM   28  C4  UNL     1       1.058  22.058  21.517  1.00  0.00     0.278 C 
HETATM   29  O2  UNL     1       0.195  21.435  22.213  1.00  0.00    -0.264 OA
BRANCH  28  30
HETATM   30  O1  UNL     1       0.560  22.986  20.633  1.00  0.00    -0.316 OA
BRANCH  30  31
HETATM   31  C2  UNL     1      -0.732  22.931  20.131  1.00  0.00     0.123 C 
HETATM   32  C1  UNL     1      -0.761  22.145  18.839  1.00  0.00     0.040 C 
HETATM   33  C3  UNL     1      -1.385  24.273  19.940  1.00  0.00     0.040 C 
ENDBRANCH  30  31
ENDBRANCH  28  30
ENDBRANCH   1  28
TORSDOF 10
ENDMDL
