MODEL 1
REMARK VINA RESULT: -8.014903674      0.000      0.000
REMARK  10 active torsions:
REMARK  status: ('A' for Active; 'I' for Inactive)
REMARK    1  A    between atoms: C2_2  and  C5_8 
REMARK    2  A    between atoms: C3_3  and  C4_4 
REMARK    3  A    between atoms: C4_4  and  N1_5 
REMARK    4  A    between atoms: C5_8  and  C6_9 
REMARK    5  A    between atoms: C6_9  and  C7_10 
REMARK    6  A    between atoms: C7_10  and  C8_11 
REMARK    7  A    between atoms: C9_12  and  O1_13 
REMARK    8  A    between atoms: C11_16  and  O2_17 
REMARK    9  A    between atoms: O2_17  and  S1_18 
REMARK   10  A    between atoms: C13_24  and  C14_25 
ROOT
HETATM    1  C8  UNL     1       3.975  23.506  21.382  1.00  0.00     0.069 C 
HETATM    2  C9  UNL     1       2.467  23.471  21.189  1.00  0.00     0.131 C 
HETATM    3  C10 UNL     1       1.987  22.117  20.724  1.00  0.00     0.068 C 
HETATM    4  C11 UNL     1       2.631  21.687  19.429  1.00  0.00     0.179 C 
HETATM    5  C12 UNL     1       4.078  22.064  19.424  1.00  0.00     0.185 C 
HETATM    6  O6  UNL     1       4.935  21.068  19.030  1.00  0.00    -0.346 OA
HETATM    7  C13 UNL     1       6.158  21.511  19.533  1.00  0.00     0.302 C 
HETATM    8  O7  UNL     1       5.892  22.200  20.710  1.00  0.00    -0.348 OA
HETATM    9  C18 UNL     1       4.516  22.203  20.891  1.00  0.00     0.166 C 
ENDROOT
BRANCH   1  10
HETATM   10  C7  UNL     1       4.351  23.811  22.770  1.00  0.00    -0.017 C 
BRANCH  10  11
HETATM   11  C6  UNL     1       4.826  24.972  23.173  1.00  0.00    -0.003 C 
BRANCH  11  12
HETATM   12  C5  UNL     1       6.159  25.075  23.736  1.00  0.00     0.007 C 
BRANCH  12  13
HETATM   13  C2  UNL     1       6.431  24.499  24.913  1.00  0.00    -0.053 C 
HETATM   14  C1  UNL     1       5.753  24.960  26.131  1.00  0.00     0.049 C 
HETATM   15  C3  UNL     1       7.397  23.427  24.946  1.00  0.00     0.081 C 
BRANCH  15  16
HETATM   16  C4  UNL     1       7.168  22.345  24.271  1.00  0.00    -0.048 C 
BRANCH  16  17
HETATM   17  N1  UNL     1       7.015  21.364  23.451  1.00  0.00    -0.366 N 
ATOM     18  H12 UNL     1       7.391  21.982  22.733  1.00  0.00     0.165 HD
ATOM     19  H11 UNL     1       6.840  20.510  22.922  1.00  0.00     0.165 HD
ENDBRANCH  16  17
ENDBRANCH  15  16
ENDBRANCH  12  13
ENDBRANCH  11  12
ENDBRANCH  10  11
ENDBRANCH   1  10
BRANCH   2  20
HETATM   20  O1  UNL     1       2.008  24.492  20.379  1.00  0.00    -0.395 OA
ATOM     21  H1  UNL     1       1.360  24.198  19.750  1.00  0.00     0.210 HD
ENDBRANCH   2  20
BRANCH   4  22
HETATM   22  O2  UNL     1       2.008  22.433  18.409  1.00  0.00    -0.249 OA
BRANCH  22  23
HETATM   23  S1  UNL     1       0.906  21.502  17.563  1.00  0.00     0.252 S 
HETATM   24  O3  UNL     1      -0.371  21.487  18.364  1.00  0.00    -0.572 OA
HETATM   25  O4  UNL     1       0.577  22.165  16.250  1.00  0.00    -0.572 OA
HETATM   26  O5  UNL     1       1.430  19.933  17.345  1.00  0.00    -0.572 OA
ENDBRANCH  22  23
ENDBRANCH   4  22
BRANCH   7  27
HETATM   27  C14 UNL     1       7.013  20.331  19.939  1.00  0.00     0.037 A 
HETATM   28  C15 UNL     1       8.349  20.334  20.228  1.00  0.00     0.020 A 
HETATM   29  C16 UNL     1       8.912  19.161  20.569  1.00  0.00     0.008 A 
HETATM   30  C17 UNL     1       8.096  18.063  20.598  1.00  0.00     0.050 A 
HETATM   31  S2  UNL     1       6.579  18.697  20.151  1.00  0.00    -0.102 SA
ENDBRANCH   7  27
TORSDOF 10
ENDMDL
MODEL 2
REMARK VINA RESULT: -7.922861586      1.133      1.410
REMARK  10 active torsions:
REMARK  status: ('A' for Active; 'I' for Inactive)
REMARK    1  A    between atoms: C2_2  and  C5_8 
REMARK    2  A    between atoms: C3_3  and  C4_4 
REMARK    3  A    between atoms: C4_4  and  N1_5 
REMARK    4  A    between atoms: C5_8  and  C6_9 
REMARK    5  A    between atoms: C6_9  and  C7_10 
REMARK    6  A    between atoms: C7_10  and  C8_11 
REMARK    7  A    between atoms: C9_12  and  O1_13 
REMARK    8  A    between atoms: C11_16  and  O2_17 
REMARK    9  A    between atoms: O2_17  and  S1_18 
REMARK   10  A    between atoms: C13_24  and  C14_25 
ROOT
HETATM    1  C8  UNL     1       3.879  23.949  20.885  1.00  0.00     0.069 C 
HETATM    2  C9  UNL     1       2.359  23.936  20.894  1.00  0.00     0.131 C 
HETATM    3  C10 UNL     1       1.804  22.541  20.728  1.00  0.00     0.068 C 
HETATM    4  C11 UNL     1       2.267  21.882  19.452  1.00  0.00     0.179 C 
HETATM    5  C12 UNL     1       3.705  22.201  19.200  1.00  0.00     0.185 C 
HETATM    6  O6  UNL     1       4.489  21.125  18.873  1.00  0.00    -0.346 OA
HETATM    7  C13 UNL     1       5.773  21.601  19.135  1.00  0.00     0.302 C 
HETATM    8  O7  UNL     1       5.675  22.484  20.204  1.00  0.00    -0.348 OA
HETATM    9  C18 UNL     1       4.334  22.565  20.555  1.00  0.00     0.166 C 
ENDROOT
BRANCH   1  10
HETATM   10  C7  UNL     1       4.439  24.466  22.143  1.00  0.00    -0.017 C 
BRANCH  10  11
HETATM   11  C6  UNL     1       4.757  23.715  23.177  1.00  0.00    -0.003 C 
BRANCH  11  12
HETATM   12  C5  UNL     1       6.145  23.464  23.515  1.00  0.00     0.007 C 
BRANCH  12  13
HETATM   13  C2  UNL     1       6.536  22.229  23.851  1.00  0.00    -0.053 C 
HETATM   14  C1  UNL     1       5.793  21.063  23.359  1.00  0.00     0.049 C 
HETATM   15  C3  UNL     1       7.693  22.083  24.701  1.00  0.00     0.081 C 
BRANCH  15  16
HETATM   16  C4  UNL     1       8.841  22.525  24.292  1.00  0.00    -0.048 C 
BRANCH  16  17
HETATM   17  N1  UNL     1      10.056  22.822  23.987  1.00  0.00    -0.366 N 
ATOM     18  H12 UNL     1       9.776  22.712  23.012  1.00  0.00     0.165 HD
ATOM     19  H11 UNL     1      11.042  23.069  23.895  1.00  0.00     0.165 HD
ENDBRANCH  16  17
ENDBRANCH  15  16
ENDBRANCH  12  13
ENDBRANCH  11  12
ENDBRANCH  10  11
ENDBRANCH   1  10
BRANCH   2  20
HETATM   20  O1  UNL     1       1.811  24.824  19.990  1.00  0.00    -0.395 OA
ATOM     21  H1  UNL     1       1.390  24.391  19.257  1.00  0.00     0.210 HD
ENDBRANCH   2  20
BRANCH   4  22
HETATM   22  O2  UNL     1       1.524  22.470  18.410  1.00  0.00    -0.249 OA
BRANCH  22  23
HETATM   23  S1  UNL     1       0.640  21.324  17.572  1.00  0.00     0.252 S 
HETATM   24  O3  UNL     1      -0.628  21.084  18.350  1.00  0.00    -0.572 OA
HETATM   25  O4  UNL     1       0.220  21.880  16.235  1.00  0.00    -0.572 OA
HETATM   26  O5  UNL     1       1.459  19.881  17.408  1.00  0.00    -0.572 OA
ENDBRANCH  22  23
ENDBRANCH   4  22
BRANCH   7  27
HETATM   27  C14 UNL     1       6.659  20.476  19.621  1.00  0.00     0.037 A 
HETATM   28  C15 UNL     1       7.883  20.581  20.221  1.00  0.00     0.020 A 
HETATM   29  C16 UNL     1       8.501  19.440  20.575  1.00  0.00     0.008 A 
HETATM   30  C17 UNL     1       7.848  18.269  20.304  1.00  0.00     0.050 A 
HETATM   31  S2  UNL     1       6.403  18.792  19.567  1.00  0.00    -0.102 SA
ENDBRANCH   7  27
TORSDOF 10
ENDMDL
MODEL 3
REMARK VINA RESULT: -7.774320043      3.775      6.343
REMARK  10 active torsions:
REMARK  status: ('A' for Active; 'I' for Inactive)
REMARK    1  A    between atoms: C2_2  and  C5_8 
REMARK    2  A    between atoms: C3_3  and  C4_4 
REMARK    3  A    between atoms: C4_4  and  N1_5 
REMARK    4  A    between atoms: C5_8  and  C6_9 
REMARK    5  A    between atoms: C6_9  and  C7_10 
REMARK    6  A    between atoms: C7_10  and  C8_11 
REMARK    7  A    between atoms: C9_12  and  O1_13 
REMARK    8  A    between atoms: C11_16  and  O2_17 
REMARK    9  A    between atoms: O2_17  and  S1_18 
REMARK   10  A    between atoms: C13_24  and  C14_25 
ROOT
HETATM    1  C8  UNL     1       3.532  21.387  21.766  1.00  0.00     0.069 C 
HETATM    2  C9  UNL     1       2.872  22.745  21.938  1.00  0.00     0.131 C 
HETATM    3  C10 UNL     1       3.866  23.877  21.820  1.00  0.00     0.068 C 
HETATM    4  C11 UNL     1       4.983  23.773  22.829  1.00  0.00     0.179 C 
HETATM    5  C12 UNL     1       5.412  22.349  22.976  1.00  0.00     0.185 C 
HETATM    6  O6  UNL     1       6.767  22.144  22.931  1.00  0.00    -0.346 OA
HETATM    7  C13 UNL     1       6.854  20.783  22.642  1.00  0.00     0.302 C 
HETATM    8  O7  UNL     1       5.762  20.462  21.844  1.00  0.00    -0.348 OA
HETATM    9  C18 UNL     1       5.007  21.616  21.687  1.00  0.00     0.166 C 
ENDROOT
BRANCH   1  10
HETATM   10  C7  UNL     1       2.992  20.647  20.616  1.00  0.00    -0.017 C 
BRANCH  10  11
HETATM   11  C6  UNL     1       3.401  20.804  19.374  1.00  0.00    -0.003 C 
BRANCH  11  12
HETATM   12  C5  UNL     1       2.749  21.752  18.491  1.00  0.00     0.007 C 
BRANCH  12  13
HETATM   13  C2  UNL     1       1.434  21.651  18.260  1.00  0.00    -0.053 C 
HETATM   14  C1  UNL     1       0.511  22.646  18.819  1.00  0.00     0.049 C 
HETATM   15  C3  UNL     1       0.961  20.549  17.457  1.00  0.00     0.081 C 
BRANCH  15  16
HETATM   16  C4  UNL     1       1.364  20.440  16.230  1.00  0.00    -0.048 C 
BRANCH  16  17
HETATM   17  N1  UNL     1       1.856  20.176  15.070  1.00  0.00    -0.366 N 
ATOM     18  H12 UNL     1       0.947  20.439  14.690  1.00  0.00     0.165 HD
ATOM     19  H11 UNL     1       2.374  19.931  14.226  1.00  0.00     0.165 HD
ENDBRANCH  16  17
ENDBRANCH  15  16
ENDBRANCH  12  13
ENDBRANCH  11  12
ENDBRANCH  10  11
ENDBRANCH   1  10
BRANCH   2  20
HETATM   20  O1  UNL     1       2.119  22.832  23.092  1.00  0.00    -0.395 OA
ATOM     21  H1  UNL     1       2.653  22.890  23.875  1.00  0.00     0.210 HD
ENDBRANCH   2  20
BRANCH   4  22
HETATM   22  O2  UNL     1       4.439  24.171  24.066  1.00  0.00    -0.249 OA
BRANCH  22  23
HETATM   23  S1  UNL     1       4.982  25.689  24.508  1.00  0.00     0.252 S 
HETATM   24  O3  UNL     1       5.083  25.705  26.012  1.00  0.00    -0.572 OA
HETATM   25  O4  UNL     1       6.379  25.905  23.985  1.00  0.00    -0.572 OA
HETATM   26  O5  UNL     1       3.948  26.903  24.020  1.00  0.00    -0.572 OA
ENDBRANCH  22  23
ENDBRANCH   4  22
BRANCH   7  27
HETATM   27  C14 UNL     1       8.073  20.506  21.790  1.00  0.00     0.037 A 
HETATM   28  C15 UNL     1       9.384  20.687  22.132  1.00  0.00     0.020 A 
HETATM   29  C16 UNL     1      10.314  20.373  21.212  1.00  0.00     0.008 A 
HETATM   30  C17 UNL     1       9.865  19.899  20.009  1.00  0.00     0.050 A 
HETATM   31  S2  UNL     1       8.171  19.906  20.198  1.00  0.00    -0.102 SA
ENDBRANCH   7  27
TORSDOF 10
ENDMDL
MODEL 4
REMARK VINA RESULT: -7.727112876      1.683      2.057
REMARK  10 active torsions:
REMARK  status: ('A' for Active; 'I' for Inactive)
REMARK    1  A    between atoms: C2_2  and  C5_8 
REMARK    2  A    between atoms: C3_3  and  C4_4 
REMARK    3  A    between atoms: C4_4  and  N1_5 
REMARK    4  A    between atoms: C5_8  and  C6_9 
REMARK    5  A    between atoms: C6_9  and  C7_10 
REMARK    6  A    between atoms: C7_10  and  C8_11 
REMARK    7  A    between atoms: C9_12  and  O1_13 
REMARK    8  A    between atoms: C11_16  and  O2_17 
REMARK    9  A    between atoms: O2_17  and  S1_18 
REMARK   10  A    between atoms: C13_24  and  C14_25 
ROOT
HETATM    1  C8  UNL     1       3.746  23.659  21.366  1.00  0.00     0.069 C 
HETATM    2  C9  UNL     1       2.260  23.686  21.047  1.00  0.00     0.131 C 
HETATM    3  C10 UNL     1       1.724  22.310  20.731  1.00  0.00     0.068 C 
HETATM    4  C11 UNL     1       2.436  21.663  19.569  1.00  0.00     0.179 C 
HETATM    5  C12 UNL     1       3.902  21.949  19.641  1.00  0.00     0.185 C 
HETATM    6  O6  UNL     1       4.714  20.859  19.464  1.00  0.00    -0.346 OA
HETATM    7  C13 UNL     1       5.922  21.296  20.007  1.00  0.00     0.302 C 
HETATM    8  O7  UNL     1       5.614  22.160  21.051  1.00  0.00    -0.348 OA
HETATM    9  C18 UNL     1       4.231  22.270  21.107  1.00  0.00     0.166 C 
ENDROOT
BRANCH   1  10
HETATM   10  C7  UNL     1       4.032  24.136  22.727  1.00  0.00    -0.017 C 
BRANCH  10  11
HETATM   11  C6  UNL     1       4.194  25.403  23.051  1.00  0.00    -0.003 C 
BRANCH  11  12
HETATM   12  C5  UNL     1       4.598  25.781  24.392  1.00  0.00     0.007 C 
BRANCH  12  13
HETATM   13  C2  UNL     1       5.815  25.448  24.840  1.00  0.00    -0.053 C 
HETATM   14  C1  UNL     1       6.993  25.654  23.989  1.00  0.00     0.049 C 
HETATM   15  C3  UNL     1       5.929  24.889  26.165  1.00  0.00     0.081 C 
BRANCH  15  16
HETATM   16  C4  UNL     1       5.554  25.594  27.186  1.00  0.00    -0.048 C 
BRANCH  16  17
HETATM   17  N1  UNL     1       5.245  26.150  28.306  1.00  0.00    -0.366 N 
ATOM     18  H12 UNL     1       4.368  26.421  27.861  1.00  0.00     0.165 HD
ATOM     19  H11 UNL     1       5.135  26.541  29.241  1.00  0.00     0.165 HD
ENDBRANCH  16  17
ENDBRANCH  15  16
ENDBRANCH  12  13
ENDBRANCH  11  12
ENDBRANCH  10  11
ENDBRANCH   1  10
BRANCH   2  20
HETATM   20  O1  UNL     1       1.940  24.606  20.068  1.00  0.00    -0.395 OA
ATOM     21  H1  UNL     1       1.471  24.219  19.339  1.00  0.00     0.210 HD
ENDBRANCH   2  20
BRANCH   4  22
HETATM   22  O2  UNL     1       1.950  22.291  18.406  1.00  0.00    -0.249 OA
BRANCH  22  23
HETATM   23  S1  UNL     1       0.850  21.319  17.605  1.00  0.00     0.252 S 
HETATM   24  O3  UNL     1       0.653  21.907  16.232  1.00  0.00    -0.572 OA
HETATM   25  O4  UNL     1       1.436  19.945  17.400  1.00  0.00    -0.572 OA
HETATM   26  O5  UNL     1      -0.624  21.248  18.383  1.00  0.00    -0.572 OA
ENDBRANCH  22  23
ENDBRANCH   4  22
BRANCH   7  27
HETATM   27  C14 UNL     1       6.657  20.138  20.646  1.00  0.00     0.037 A 
HETATM   28  C15 UNL     1       7.456  20.170  21.754  1.00  0.00     0.020 A 
HETATM   29  C16 UNL     1       8.015  19.013  22.150  1.00  0.00     0.008 A 
HETATM   30  C17 UNL     1       7.734  17.899  21.406  1.00  0.00     0.050 A 
HETATM   31  S2  UNL     1       6.706  18.498  20.186  1.00  0.00    -0.102 SA
ENDBRANCH   7  27
TORSDOF 10
ENDMDL
MODEL 5
REMARK VINA RESULT: -7.583269922      1.240      1.794
REMARK  10 active torsions:
REMARK  status: ('A' for Active; 'I' for Inactive)
REMARK    1  A    between atoms: C2_2  and  C5_8 
REMARK    2  A    between atoms: C3_3  and  C4_4 
REMARK    3  A    between atoms: C4_4  and  N1_5 
REMARK    4  A    between atoms: C5_8  and  C6_9 
REMARK    5  A    between atoms: C6_9  and  C7_10 
REMARK    6  A    between atoms: C7_10  and  C8_11 
REMARK    7  A    between atoms: C9_12  and  O1_13 
REMARK    8  A    between atoms: C11_16  and  O2_17 
REMARK    9  A    between atoms: O2_17  and  S1_18 
REMARK   10  A    between atoms: C13_24  and  C14_25 
ROOT
HETATM    1  C8  UNL     1       4.119  23.576  21.053  1.00  0.00     0.069 C 
HETATM    2  C9  UNL     1       2.602  23.505  20.987  1.00  0.00     0.131 C 
HETATM    3  C10 UNL     1       2.115  22.120  20.630  1.00  0.00     0.068 C 
HETATM    4  C11 UNL     1       2.660  21.637  19.309  1.00  0.00     0.179 C 
HETATM    5  C12 UNL     1       4.093  22.038  19.166  1.00  0.00     0.185 C 
HETATM    6  O6  UNL     1       4.936  21.040  18.752  1.00  0.00    -0.346 OA
HETATM    7  C13 UNL     1       6.186  21.529  19.129  1.00  0.00     0.302 C 
HETATM    8  O7  UNL     1       6.003  22.273  20.289  1.00  0.00    -0.348 OA
HETATM    9  C18 UNL     1       4.647  22.260  20.582  1.00  0.00     0.166 C 
ENDROOT
BRANCH   1  10
HETATM   10  C7  UNL     1       4.601  23.958  22.388  1.00  0.00    -0.017 C 
BRANCH  10  11
HETATM   11  C6  UNL     1       5.332  23.184  23.162  1.00  0.00    -0.003 C 
BRANCH  11  12
HETATM   12  C5  UNL     1       6.719  23.507  23.440  1.00  0.00     0.007 C 
BRANCH  12  13
HETATM   13  C2  UNL     1       7.167  23.490  24.701  1.00  0.00    -0.053 C 
HETATM   14  C1  UNL     1       8.524  23.010  24.993  1.00  0.00     0.049 C 
HETATM   15  C3  UNL     1       6.287  23.948  25.749  1.00  0.00     0.081 C 
BRANCH  15  16
HETATM   16  C4  UNL     1       5.864  25.173  25.730  1.00  0.00    -0.048 C 
BRANCH  16  17
HETATM   17  N1  UNL     1       5.284  26.322  25.790  1.00  0.00    -0.366 N 
ATOM     18  H12 UNL     1       4.634  25.892  26.448  1.00  0.00     0.165 HD
ATOM     19  H11 UNL     1       4.930  27.277  25.738  1.00  0.00     0.165 HD
ENDBRANCH  16  17
ENDBRANCH  15  16
ENDBRANCH  12  13
ENDBRANCH  11  12
ENDBRANCH  10  11
ENDBRANCH   1  10
BRANCH   2  20
HETATM   20  O1  UNL     1       2.055  24.474  20.169  1.00  0.00    -0.395 OA
ATOM     21  H1  UNL     1       1.654  24.112  19.388  1.00  0.00     0.210 HD
ENDBRANCH   2  20
BRANCH   4  22
HETATM   22  O2  UNL     1       1.939  22.317  18.310  1.00  0.00    -0.249 OA
BRANCH  22  23
HETATM   23  S1  UNL     1       0.818  21.314  17.580  1.00  0.00     0.252 S 
HETATM   24  O3  UNL     1       0.583  21.846  16.189  1.00  0.00    -0.572 OA
HETATM   25  O4  UNL     1       1.398  19.933  17.415  1.00  0.00    -0.572 OA
HETATM   26  O5  UNL     1      -0.634  21.276  18.400  1.00  0.00    -0.572 OA
ENDBRANCH  22  23
ENDBRANCH   4  22
BRANCH   7  27
HETATM   27  C14 UNL     1       7.098  20.388  19.520  1.00  0.00     0.037 A 
HETATM   28  C15 UNL     1       8.379  20.471  19.991  1.00  0.00     0.020 A 
HETATM   29  C16 UNL     1       9.010  19.319  20.279  1.00  0.00     0.008 A 
HETATM   30  C17 UNL     1       8.313  18.159  20.074  1.00  0.00     0.050 A 
HETATM   31  S2  UNL     1       6.809  18.709  19.491  1.00  0.00    -0.102 SA
ENDBRANCH   7  27
TORSDOF 10
ENDMDL
