MODEL 1
REMARK VINA RESULT: -6.008985239      0.000      0.000
REMARK  6 active torsions:
REMARK  status: ('A' for Active; 'I' for Inactive)
REMARK    1  A    between atoms: N1_2  and  C3_4 
REMARK    2  A    between atoms: C3_4  and  C4_5 
REMARK    3  A    between atoms: C4_5  and  C5_6 
REMARK    4  A    between atoms: C10_11  and  N2_12 
REMARK    5  A    between atoms: N2_12  and  N3_14 
REMARK    6  A    between atoms: N3_14  and  C11_16 
ROOT
HETATM    1  C5  UNL     1      68.937 -10.742  32.820  1.00  0.00    -0.025 A 
HETATM    2  C6  UNL     1      67.664 -10.718  33.329  1.00  0.00     0.010 A 
HETATM    3  C7  UNL     1      66.910 -11.848  33.480  1.00  0.00     0.001 A 
HETATM    4  C8  UNL     1      67.414 -13.099  33.119  1.00  0.00     0.002 A 
HETATM    5  C9  UNL     1      68.688 -13.153  32.606  1.00  0.00     0.031 A 
HETATM    6  C10 UNL     1      69.448 -11.984  32.453  1.00  0.00     0.054 A 
ENDROOT
BRANCH   6   7
HETATM    7  N2  UNL     1      70.689 -12.116  31.822  1.00  0.00    -0.298 N 
ATOM      8  H2  UNL     1      71.290 -11.292  31.784  1.00  0.00     0.187 HD
BRANCH   7   9
HETATM    9  N3  UNL     1      71.160 -13.280  31.247  1.00  0.00    -0.278 N 
ATOM     10  H3  UNL     1      70.790 -13.608  30.356  1.00  0.00     0.189 HD
BRANCH   9  11
HETATM   11  C11 UNL     1      72.199 -14.029  31.942  1.00  0.00     0.199 C 
HETATM   12  N4  UNL     1      72.365 -13.868  33.329  1.00  0.00    -0.068 NA
HETATM   13  S1  UNL     1      73.109 -15.038  31.090  1.00  0.00    -0.043 SA
ENDBRANCH   9  11
ENDBRANCH   7   9
ENDBRANCH   6   7
BRANCH   1  14
HETATM   14  C4  UNL     1      69.813  -9.568  32.710  1.00  0.00     0.085 C 
BRANCH  14  15
HETATM   15  C3  UNL     1      69.544  -8.521  33.744  1.00  0.00     0.061 C 
BRANCH  15  16
HETATM   16  N1  UNL     1      69.021  -7.344  33.193  1.00  0.00    -0.402 N 
HETATM   17  C1  UNL     1      69.039  -7.219  31.771  1.00  0.00     0.148 C 
HETATM   18  C2  UNL     1      68.479  -6.320  33.966  1.00  0.00     0.148 C 
ENDBRANCH  15  16
ENDBRANCH  14  15
ENDBRANCH   1  14
TORSDOF 6
ENDMDL
MODEL 2
REMARK VINA RESULT: -5.788370703      6.039     10.089
REMARK  6 active torsions:
REMARK  status: ('A' for Active; 'I' for Inactive)
REMARK    1  A    between atoms: N1_2  and  C3_4 
REMARK    2  A    between atoms: C3_4  and  C4_5 
REMARK    3  A    between atoms: C4_5  and  C5_6 
REMARK    4  A    between atoms: C10_11  and  N2_12 
REMARK    5  A    between atoms: N2_12  and  N3_14 
REMARK    6  A    between atoms: N3_14  and  C11_16 
ROOT
HETATM    1  C5  UNL     1      69.642  -3.472  32.138  1.00  0.00    -0.025 A 
HETATM    2  C6  UNL     1      70.634  -3.749  31.232  1.00  0.00     0.010 A 
HETATM    3  C7  UNL     1      71.695  -2.912  31.023  1.00  0.00     0.001 A 
HETATM    4  C8  UNL     1      71.818  -1.719  31.738  1.00  0.00     0.002 A 
HETATM    5  C9  UNL     1      70.837  -1.416  32.653  1.00  0.00     0.031 A 
HETATM    6  C10 UNL     1      69.753  -2.283  32.853  1.00  0.00     0.054 A 
ENDROOT
BRANCH   6   7
HETATM    7  N2  UNL     1      68.747  -1.845  33.721  1.00  0.00    -0.298 N 
ATOM      8  H2  UNL     1      68.506  -2.448  34.508  1.00  0.00     0.187 HD
BRANCH   7   9
HETATM    9  N3  UNL     1      68.056  -0.656  33.589  1.00  0.00    -0.278 N 
ATOM     10  H3  UNL     1      67.964  -0.016  34.377  1.00  0.00     0.189 HD
BRANCH   9  11
HETATM   11  C11 UNL     1      67.461  -0.336  32.298  1.00  0.00     0.199 C 
HETATM   12  N4  UNL     1      66.121  -0.678  32.044  1.00  0.00    -0.068 NA
HETATM   13  S1  UNL     1      68.365   0.421  31.211  1.00  0.00    -0.043 SA
ENDBRANCH   9  11
ENDBRANCH   7   9
ENDBRANCH   6   7
BRANCH   1  14
HETATM   14  C4  UNL     1      68.526  -4.373  32.452  1.00  0.00     0.085 C 
BRANCH  14  15
HETATM   15  C3  UNL     1      68.621  -5.704  31.776  1.00  0.00     0.061 C 
BRANCH  15  16
HETATM   16  N1  UNL     1      68.846  -6.750  32.681  1.00  0.00    -0.402 N 
HETATM   17  C1  UNL     1      69.364  -7.972  32.158  1.00  0.00     0.148 C 
HETATM   18  C2  UNL     1      68.603  -6.635  34.048  1.00  0.00     0.148 C 
ENDBRANCH  15  16
ENDBRANCH  14  15
ENDBRANCH   1  14
TORSDOF 6
ENDMDL
MODEL 3
REMARK VINA RESULT: -5.476148675      0.995      1.354
REMARK  6 active torsions:
REMARK  status: ('A' for Active; 'I' for Inactive)
REMARK    1  A    between atoms: N1_2  and  C3_4 
REMARK    2  A    between atoms: C3_4  and  C4_5 
REMARK    3  A    between atoms: C4_5  and  C5_6 
REMARK    4  A    between atoms: C10_11  and  N2_12 
REMARK    5  A    between atoms: N2_12  and  N3_14 
REMARK    6  A    between atoms: N3_14  and  C11_16 
ROOT
HETATM    1  C5  UNL     1      69.035 -10.751  32.765  1.00  0.00    -0.025 A 
HETATM    2  C6  UNL     1      67.771 -10.698  33.296  1.00  0.00     0.010 A 
HETATM    3  C7  UNL     1      66.991 -11.809  33.454  1.00  0.00     0.001 A 
HETATM    4  C8  UNL     1      67.457 -13.071  33.079  1.00  0.00     0.002 A 
HETATM    5  C9  UNL     1      68.721 -13.155  32.544  1.00  0.00     0.031 A 
HETATM    6  C10 UNL     1      69.508 -12.004  32.385  1.00  0.00     0.054 A 
ENDROOT
BRANCH   6   7
HETATM    7  N2  UNL     1      70.735 -12.164  31.733  1.00  0.00    -0.298 N 
ATOM      8  H2  UNL     1      71.089 -11.376  31.190  1.00  0.00     0.187 HD
BRANCH   7   9
HETATM    9  N3  UNL     1      71.502 -13.313  31.770  1.00  0.00    -0.278 N 
ATOM     10  H3  UNL     1      71.967 -13.601  32.631  1.00  0.00     0.189 HD
BRANCH   9  11
HETATM   11  C11 UNL     1      71.633 -14.102  30.552  1.00  0.00     0.199 C 
HETATM   12  N4  UNL     1      72.053 -13.483  29.362  1.00  0.00    -0.068 NA
HETATM   13  S1  UNL     1      71.308 -15.671  30.626  1.00  0.00    -0.043 SA
ENDBRANCH   9  11
ENDBRANCH   7   9
ENDBRANCH   6   7
BRANCH   1  14
HETATM   14  C4  UNL     1      69.938  -9.600  32.646  1.00  0.00     0.085 C 
BRANCH  14  15
HETATM   15  C3  UNL     1      69.364  -8.467  31.856  1.00  0.00     0.061 C 
BRANCH  15  16
HETATM   16  N1  UNL     1      69.143  -7.325  32.637  1.00  0.00    -0.402 N 
HETATM   17  C1  UNL     1      68.840  -6.109  31.955  1.00  0.00     0.148 C 
HETATM   18  C2  UNL     1      69.189  -7.339  34.030  1.00  0.00     0.148 C 
ENDBRANCH  15  16
ENDBRANCH  14  15
ENDBRANCH   1  14
TORSDOF 6
ENDMDL
MODEL 4
REMARK VINA RESULT: -5.222730693      2.734      5.722
REMARK  6 active torsions:
REMARK  status: ('A' for Active; 'I' for Inactive)
REMARK    1  A    between atoms: N1_2  and  C3_4 
REMARK    2  A    between atoms: C3_4  and  C4_5 
REMARK    3  A    between atoms: C4_5  and  C5_6 
REMARK    4  A    between atoms: C10_11  and  N2_12 
REMARK    5  A    between atoms: N2_12  and  N3_14 
REMARK    6  A    between atoms: N3_14  and  C11_16 
ROOT
HETATM    1  C5  UNL     1      69.318 -12.959  32.407  1.00  0.00    -0.025 A 
HETATM    2  C6  UNL     1      68.328 -13.837  32.768  1.00  0.00     0.010 A 
HETATM    3  C7  UNL     1      67.157 -13.430  33.344  1.00  0.00     0.001 A 
HETATM    4  C8  UNL     1      66.913 -12.077  33.593  1.00  0.00     0.002 A 
HETATM    5  C9  UNL     1      67.889 -11.174  33.241  1.00  0.00     0.031 A 
HETATM    6  C10 UNL     1      69.087 -11.609  32.654  1.00  0.00     0.054 A 
ENDROOT
BRANCH   6   7
HETATM    7  N2  UNL     1      70.068 -10.637  32.430  1.00  0.00    -0.298 N 
ATOM      8  H2  UNL     1      70.725 -10.796  31.667  1.00  0.00     0.187 HD
BRANCH   7   9
HETATM    9  N3  UNL     1      70.211  -9.478  33.169  1.00  0.00    -0.278 N 
ATOM     10  H3  UNL     1      70.795  -9.461  34.004  1.00  0.00     0.189 HD
BRANCH   9  11
HETATM   11  C11 UNL     1      69.510  -8.280  32.727  1.00  0.00     0.199 C 
HETATM   12  N4  UNL     1      69.222  -8.105  31.362  1.00  0.00    -0.068 NA
HETATM   13  S1  UNL     1      69.070  -7.205  33.833  1.00  0.00    -0.043 SA
ENDBRANCH   9  11
ENDBRANCH   7   9
ENDBRANCH   6   7
BRANCH   1  14
HETATM   14  C4  UNL     1      70.558 -13.338  31.717  1.00  0.00     0.085 C 
BRANCH  14  15
HETATM   15  C3  UNL     1      70.874 -14.798  31.813  1.00  0.00     0.061 C 
BRANCH  15  16
HETATM   16  N1  UNL     1      71.705 -15.096  32.900  1.00  0.00    -0.402 N 
HETATM   17  C1  UNL     1      71.175 -15.939  33.922  1.00  0.00     0.148 C 
HETATM   18  C2  UNL     1      73.012 -14.624  33.008  1.00  0.00     0.148 C 
ENDBRANCH  15  16
ENDBRANCH  14  15
ENDBRANCH   1  14
TORSDOF 6
ENDMDL
MODEL 5
REMARK VINA RESULT: -5.099213927      2.861      5.688
REMARK  6 active torsions:
REMARK  status: ('A' for Active; 'I' for Inactive)
REMARK    1  A    between atoms: N1_2  and  C3_4 
REMARK    2  A    between atoms: C3_4  and  C4_5 
REMARK    3  A    between atoms: C4_5  and  C5_6 
REMARK    4  A    between atoms: C10_11  and  N2_12 
REMARK    5  A    between atoms: N2_12  and  N3_14 
REMARK    6  A    between atoms: N3_14  and  C11_16 
ROOT
HETATM    1  C5  UNL     1      69.374 -13.011  32.365  1.00  0.00    -0.025 A 
HETATM    2  C6  UNL     1      68.417 -13.927  32.717  1.00  0.00     0.010 A 
HETATM    3  C7  UNL     1      67.238 -13.568  33.311  1.00  0.00     0.001 A 
HETATM    4  C8  UNL     1      66.953 -12.230  33.587  1.00  0.00     0.002 A 
HETATM    5  C9  UNL     1      67.896 -11.289  33.244  1.00  0.00     0.031 A 
HETATM    6  C10 UNL     1      69.102 -11.673  32.638  1.00  0.00     0.054 A 
ENDROOT
BRANCH   6   7
HETATM    7  N2  UNL     1      70.049 -10.666  32.424  1.00  0.00    -0.298 N 
ATOM      8  H2  UNL     1      70.702 -10.788  31.650  1.00  0.00     0.187 HD
BRANCH   7   9
HETATM    9  N3  UNL     1      70.164  -9.519  33.185  1.00  0.00    -0.278 N 
ATOM     10  H3  UNL     1      70.719  -9.514  34.040  1.00  0.00     0.189 HD
BRANCH   9  11
HETATM   11  C11 UNL     1      69.475  -8.315  32.738  1.00  0.00     0.199 C 
HETATM   12  N4  UNL     1      69.196  -8.139  31.371  1.00  0.00    -0.068 NA
HETATM   13  S1  UNL     1      69.039  -7.235  33.840  1.00  0.00    -0.043 SA
ENDBRANCH   9  11
ENDBRANCH   7   9
ENDBRANCH   6   7
BRANCH   1  14
HETATM   14  C4  UNL     1      70.619 -13.337  31.657  1.00  0.00     0.085 C 
BRANCH  14  15
HETATM   15  C3  UNL     1      70.406 -14.121  30.400  1.00  0.00     0.061 C 
BRANCH  15  16
HETATM   16  N1  UNL     1      71.572 -14.228  29.631  1.00  0.00    -0.402 N 
HETATM   17  C1  UNL     1      72.737 -14.748  30.270  1.00  0.00     0.148 C 
HETATM   18  C2  UNL     1      71.628 -13.869  28.286  1.00  0.00     0.148 C 
ENDBRANCH  15  16
ENDBRANCH  14  15
ENDBRANCH   1  14
TORSDOF 6
ENDMDL
