MODEL 1
REMARK VINA RESULT: -8.109426658      0.000      0.000
REMARK  6 active torsions:
REMARK  status: ('A' for Active; 'I' for Inactive)
REMARK    1  A    between atoms: O1_2  and  C2_3 
REMARK    2  A    between atoms: C6_7  and  C7_8 
REMARK    3  A    between atoms: C7_8  and  C8_9 
REMARK    4  A    between atoms: C8_9  and  N1_10 
REMARK    5  A    between atoms: C8_9  and  C9_14 
REMARK    6  A    between atoms: C9_14  and  N2_15 
REMARK       I    between atoms: N2_15  and  C10_17 
REMARK       I    between atoms: C10_17  and  N4_21 
ROOT
HETATM    1  C8  UNL     1      69.066  -5.672  32.065  1.00  0.00     0.206 C 
ENDROOT
BRANCH   1   2
HETATM    2  C7  UNL     1      70.143  -4.914  32.819  1.00  0.00     0.073 C 
BRANCH   2   3
HETATM    3  C6  UNL     1      70.304  -3.522  32.370  1.00  0.00    -0.053 A 
HETATM    4  C5  UNL     1      71.245  -3.202  31.416  1.00  0.00     0.007 A 
HETATM    5  C4  UNL     1      71.434  -1.910  30.968  1.00  0.00     0.003 A 
HETATM    6  C3  UNL     1      70.657  -0.899  31.492  1.00  0.00     0.037 A 
HETATM    7  C2  UNL     1      69.701  -1.190  32.456  1.00  0.00     0.068 A 
HETATM    8  C13 UNL     1      69.535  -2.504  32.886  1.00  0.00     0.044 A 
BRANCH   7   9
HETATM    9  O1  UNL     1      68.936  -0.171  32.966  1.00  0.00    -0.356 OA
HETATM   10  C1  UNL     1      67.624   0.114  32.567  1.00  0.00     0.210 C 
ENDBRANCH   7   9
ENDBRANCH   2   3
ENDBRANCH   1   2
BRANCH   1  11
HETATM   11  N1  UNL     1      67.945  -4.816  31.732  1.00  0.00    -0.073 N 
ATOM     12  H13 UNL     1      67.297  -4.729  32.515  1.00  0.00     0.274 HD
ATOM     13  H12 UNL     1      68.231  -3.840  31.654  1.00  0.00     0.274 HD
ATOM     14  H11 UNL     1      67.469  -5.133  30.888  1.00  0.00     0.274 HD
ENDBRANCH   1  11
BRANCH   1  15
HETATM   15  C9  UNL     1      68.584  -6.750  33.002  1.00  0.00     0.171 C 
BRANCH  15  16
HETATM   16  N2  UNL     1      68.667  -8.080  32.536  1.00  0.00    -0.225 N 
HETATM   17  C10 UNL     1      69.186  -9.167  33.263  1.00  0.00     0.668 C 
HETATM   18  N3  UNL     1      70.034  -8.976  34.212  1.00  0.00    -0.235 N 
HETATM   19  N4  UNL     1      68.810 -10.517  33.000  1.00  0.00    -0.227 N 
ATOM     20  H32 UNL     1      70.303  -8.010  34.400  1.00  0.00     0.174 HD
ATOM     21  H31 UNL     1      70.410  -9.764  34.738  1.00  0.00     0.174 HD
HETATM   22  C11 UNL     1      67.478 -10.958  33.271  1.00  0.00     0.168 C 
HETATM   23  C12 UNL     1      69.778 -11.436  32.460  1.00  0.00     0.168 C 
ATOM     24  H2  UNL     1      68.321  -8.267  31.595  1.00  0.00     0.177 HD
ENDBRANCH  15  16
ENDBRANCH   1  15
TORSDOF 6
ENDMDL
MODEL 2
REMARK VINA RESULT: -7.248199865      0.962      1.221
REMARK  6 active torsions:
REMARK  status: ('A' for Active; 'I' for Inactive)
REMARK    1  A    between atoms: O1_2  and  C2_3 
REMARK    2  A    between atoms: C6_7  and  C7_8 
REMARK    3  A    between atoms: C7_8  and  C8_9 
REMARK    4  A    between atoms: C8_9  and  N1_10 
REMARK    5  A    between atoms: C8_9  and  C9_14 
REMARK    6  A    between atoms: C9_14  and  N2_15 
REMARK       I    between atoms: N2_15  and  C10_17 
REMARK       I    between atoms: C10_17  and  N4_21 
ROOT
HETATM    1  C8  UNL     1      68.707  -5.272  32.184  1.00  0.00     0.206 C 
ENDROOT
BRANCH   1   2
HETATM    2  C7  UNL     1      70.095  -4.771  32.538  1.00  0.00     0.073 C 
BRANCH   2   3
HETATM    3  C6  UNL     1      70.287  -3.336  32.273  1.00  0.00    -0.053 A 
HETATM    4  C5  UNL     1      71.357  -2.904  31.521  1.00  0.00     0.007 A 
HETATM    5  C4  UNL     1      71.580  -1.569  31.250  1.00  0.00     0.003 A 
HETATM    6  C3  UNL     1      70.703  -0.629  31.750  1.00  0.00     0.037 A 
HETATM    7  C2  UNL     1      69.616  -1.034  32.512  1.00  0.00     0.068 A 
HETATM    8  C13 UNL     1      69.419  -2.389  32.766  1.00  0.00     0.044 A 
BRANCH   7   9
HETATM    9  O1  UNL     1      68.753  -0.085  33.000  1.00  0.00    -0.356 OA
HETATM   10  C1  UNL     1      67.610   0.369  32.331  1.00  0.00     0.210 C 
ENDBRANCH   7   9
ENDBRANCH   2   3
ENDBRANCH   1   2
BRANCH   1  11
HETATM   11  N1  UNL     1      67.964  -5.662  33.366  1.00  0.00    -0.073 N 
ATOM     12  H13 UNL     1      67.475  -4.867  33.778  1.00  0.00     0.274 HD
ATOM     13  H12 UNL     1      67.157  -6.237  33.127  1.00  0.00     0.274 HD
ATOM     14  H11 UNL     1      68.562  -6.125  34.050  1.00  0.00     0.274 HD
ENDBRANCH   1  11
BRANCH   1  15
HETATM   15  C9  UNL     1      68.912  -6.492  31.324  1.00  0.00     0.171 C 
BRANCH  15  16
HETATM   16  N2  UNL     1      68.617  -7.741  31.913  1.00  0.00    -0.225 N 
HETATM   17  C10 UNL     1      69.543  -8.775  32.140  1.00  0.00     0.668 C 
HETATM   18  N3  UNL     1      70.616  -8.860  31.433  1.00  0.00    -0.235 N 
HETATM   19  N4  UNL     1      69.356  -9.768  33.146  1.00  0.00    -0.227 N 
ATOM     20  H32 UNL     1      70.750  -8.150  30.713  1.00  0.00     0.174 HD
ATOM     21  H31 UNL     1      71.287  -9.610  31.598  1.00  0.00     0.174 HD
HETATM   22  C11 UNL     1      69.403  -9.408  34.528  1.00  0.00     0.168 C 
HETATM   23  C12 UNL     1      69.121 -11.136  32.764  1.00  0.00     0.168 C 
ATOM     24  H2  UNL     1      67.651  -7.907  32.197  1.00  0.00     0.177 HD
ENDBRANCH  15  16
ENDBRANCH   1  15
TORSDOF 6
ENDMDL
MODEL 3
REMARK VINA RESULT: -7.085641829      2.350      4.215
REMARK  6 active torsions:
REMARK  status: ('A' for Active; 'I' for Inactive)
REMARK    1  A    between atoms: O1_2  and  C2_3 
REMARK    2  A    between atoms: C6_7  and  C7_8 
REMARK    3  A    between atoms: C7_8  and  C8_9 
REMARK    4  A    between atoms: C8_9  and  N1_10 
REMARK    5  A    between atoms: C8_9  and  C9_14 
REMARK    6  A    between atoms: C9_14  and  N2_15 
REMARK       I    between atoms: N2_15  and  C10_17 
REMARK       I    between atoms: C10_17  and  N4_21 
ROOT
HETATM    1  C8  UNL     1      70.237  -9.112  32.447  1.00  0.00     0.206 C 
ENDROOT
BRANCH   1   2
HETATM    2  C7  UNL     1      69.909  -8.306  33.690  1.00  0.00     0.073 C 
BRANCH   2   3
HETATM    3  C6  UNL     1      69.605  -6.893  33.410  1.00  0.00    -0.053 A 
HETATM    4  C5  UNL     1      68.357  -6.381  33.691  1.00  0.00     0.007 A 
HETATM    5  C4  UNL     1      68.025  -5.064  33.442  1.00  0.00     0.003 A 
HETATM    6  C3  UNL     1      68.973  -4.227  32.891  1.00  0.00     0.037 A 
HETATM    7  C2  UNL     1      70.238  -4.715  32.596  1.00  0.00     0.068 A 
HETATM    8  C13 UNL     1      70.541  -6.048  32.860  1.00  0.00     0.044 A 
BRANCH   7   9
HETATM    9  O1  UNL     1      71.168  -3.868  32.049  1.00  0.00    -0.356 OA
HETATM   10  C1  UNL     1      70.868  -2.812  31.179  1.00  0.00     0.210 C 
ENDBRANCH   7   9
ENDBRANCH   2   3
ENDBRANCH   1   2
BRANCH   1  11
HETATM   11  N1  UNL     1      69.730  -8.475  31.248  1.00  0.00    -0.073 N 
ATOM     12  H13 UNL     1      68.782  -8.786  31.033  1.00  0.00     0.274 HD
ATOM     13  H12 UNL     1      69.540  -7.485  31.404  1.00  0.00     0.274 HD
ATOM     14  H11 UNL     1      70.356  -8.613  30.456  1.00  0.00     0.274 HD
ENDBRANCH   1  11
BRANCH   1  15
HETATM   15  C9  UNL     1      69.540 -10.438  32.616  1.00  0.00     0.171 C 
BRANCH  15  16
HETATM   16  N2  UNL     1      70.342 -11.594  32.512  1.00  0.00    -0.225 N 
HETATM   17  C10 UNL     1      69.875 -12.884  32.194  1.00  0.00     0.668 C 
HETATM   18  N3  UNL     1      68.651 -13.211  32.418  1.00  0.00    -0.235 N 
HETATM   19  N4  UNL     1      70.712 -13.883  31.615  1.00  0.00    -0.227 N 
ATOM     20  H32 UNL     1      68.052 -12.496  32.832  1.00  0.00     0.174 HD
ATOM     21  H31 UNL     1      68.314 -14.146  32.188  1.00  0.00     0.174 HD
HETATM   22  C11 UNL     1      71.207 -13.722  30.285  1.00  0.00     0.168 C 
HETATM   23  C12 UNL     1      71.056 -15.056  32.377  1.00  0.00     0.168 C 
ATOM     24  H2  UNL     1      71.342 -11.487  32.681  1.00  0.00     0.177 HD
ENDBRANCH  15  16
ENDBRANCH   1  15
TORSDOF 6
ENDMDL
MODEL 4
REMARK VINA RESULT: -6.939221849      3.449      7.749
REMARK  6 active torsions:
REMARK  status: ('A' for Active; 'I' for Inactive)
REMARK    1  A    between atoms: O1_2  and  C2_3 
REMARK    2  A    between atoms: C6_7  and  C7_8 
REMARK    3  A    between atoms: C7_8  and  C8_9 
REMARK    4  A    between atoms: C8_9  and  N1_10 
REMARK    5  A    between atoms: C8_9  and  C9_14 
REMARK    6  A    between atoms: C9_14  and  N2_15 
REMARK       I    between atoms: N2_15  and  C10_17 
REMARK       I    between atoms: C10_17  and  N4_21 
ROOT
HETATM    1  C8  UNL     1      69.533  -5.438  32.401  1.00  0.00     0.206 C 
ENDROOT
BRANCH   1   2
HETATM    2  C7  UNL     1      69.169  -6.339  33.567  1.00  0.00     0.073 C 
BRANCH   2   3
HETATM    3  C6  UNL     1      69.232  -7.773  33.243  1.00  0.00    -0.053 A 
HETATM    4  C5  UNL     1      70.413  -8.339  32.819  1.00  0.00     0.007 A 
HETATM    5  C4  UNL     1      70.520  -9.678  32.500  1.00  0.00     0.003 A 
HETATM    6  C3  UNL     1      69.404 -10.482  32.607  1.00  0.00     0.037 A 
HETATM    7  C2  UNL     1      68.199  -9.940  33.031  1.00  0.00     0.068 A 
HETATM    8  C13 UNL     1      68.126  -8.585  33.345  1.00  0.00     0.044 A 
BRANCH   7   9
HETATM    9  O1  UNL     1      67.100 -10.755  33.132  1.00  0.00    -0.356 OA
HETATM   10  C1  UNL     1      67.134 -12.086  33.565  1.00  0.00     0.210 C 
ENDBRANCH   7   9
ENDBRANCH   2   3
ENDBRANCH   1   2
BRANCH   1  11
HETATM   11  N1  UNL     1      70.735  -4.675  32.672  1.00  0.00    -0.073 N 
ATOM     12  H13 UNL     1      71.305  -4.567  31.833  1.00  0.00     0.274 HD
ATOM     13  H12 UNL     1      70.522  -3.693  32.846  1.00  0.00     0.274 HD
ATOM     14  H11 UNL     1      71.272  -5.080  33.438  1.00  0.00     0.274 HD
ENDBRANCH   1  11
BRANCH   1  15
HETATM   15  C9  UNL     1      68.382  -4.478  32.243  1.00  0.00     0.171 C 
BRANCH  15  16
HETATM   16  N2  UNL     1      68.682  -3.214  31.691  1.00  0.00    -0.225 N 
HETATM   17  C10 UNL     1      69.000  -2.058  32.428  1.00  0.00     0.668 C 
HETATM   18  N3  UNL     1      68.606  -1.928  33.647  1.00  0.00    -0.235 N 
HETATM   19  N4  UNL     1      69.763  -0.984  31.882  1.00  0.00    -0.227 N 
ATOM     20  H32 UNL     1      68.060  -2.697  34.038  1.00  0.00     0.174 HD
ATOM     21  H31 UNL     1      68.837  -1.090  34.180  1.00  0.00     0.174 HD
HETATM   22  C11 UNL     1      71.143  -1.173  31.563  1.00  0.00     0.168 C 
HETATM   23  C12 UNL     1      69.138   0.293  31.655  1.00  0.00     0.168 C 
ATOM     24  H2  UNL     1      68.666  -3.131  30.675  1.00  0.00     0.177 HD
ENDBRANCH  15  16
ENDBRANCH   1  15
TORSDOF 6
ENDMDL
MODEL 5
REMARK VINA RESULT: -6.916502249      2.542      4.634
REMARK  6 active torsions:
REMARK  status: ('A' for Active; 'I' for Inactive)
REMARK    1  A    between atoms: O1_2  and  C2_3 
REMARK    2  A    between atoms: C6_7  and  C7_8 
REMARK    3  A    between atoms: C7_8  and  C8_9 
REMARK    4  A    between atoms: C8_9  and  N1_10 
REMARK    5  A    between atoms: C8_9  and  C9_14 
REMARK    6  A    between atoms: C9_14  and  N2_15 
REMARK       I    between atoms: N2_15  and  C10_17 
REMARK       I    between atoms: C10_17  and  N4_21 
ROOT
HETATM    1  C8  UNL     1      69.102  -9.714  32.764  1.00  0.00     0.206 C 
ENDROOT
BRANCH   1   2
HETATM    2  C7  UNL     1      69.710  -8.805  33.815  1.00  0.00     0.073 C 
BRANCH   2   3
HETATM    3  C6  UNL     1      69.436  -7.377  33.586  1.00  0.00    -0.053 A 
HETATM    4  C5  UNL     1      68.249  -6.819  34.010  1.00  0.00     0.007 A 
HETATM    5  C4  UNL     1      67.946  -5.487  33.814  1.00  0.00     0.003 A 
HETATM    6  C3  UNL     1      68.861  -4.680  33.169  1.00  0.00     0.037 A 
HETATM    7  C2  UNL     1      70.065  -5.214  32.730  1.00  0.00     0.068 A 
HETATM    8  C13 UNL     1      70.339  -6.562  32.944  1.00  0.00     0.044 A 
BRANCH   7   9
HETATM    9  O1  UNL     1      70.963  -4.396  32.092  1.00  0.00    -0.356 OA
HETATM   10  C1  UNL     1      70.683  -3.095  31.657  1.00  0.00     0.210 C 
ENDBRANCH   7   9
ENDBRANCH   2   3
ENDBRANCH   1   2
BRANCH   1  11
HETATM   11  N1  UNL     1      67.903 -10.366  33.252  1.00  0.00    -0.073 N 
ATOM     12  H13 UNL     1      67.061  -9.883  32.937  1.00  0.00     0.274 HD
ATOM     13  H12 UNL     1      67.752 -11.263  32.790  1.00  0.00     0.274 HD
ATOM     14  H11 UNL     1      67.917 -10.467  34.266  1.00  0.00     0.274 HD
ENDBRANCH   1  11
BRANCH   1  15
HETATM   15  C9  UNL     1      70.139 -10.770  32.479  1.00  0.00     0.171 C 
BRANCH  15  16
HETATM   16  N2  UNL     1      69.664 -12.076  32.234  1.00  0.00    -0.225 N 
HETATM   17  C10 UNL     1      70.425 -13.136  31.706  1.00  0.00     0.668 C 
HETATM   18  N3  UNL     1      71.464 -12.899  30.984  1.00  0.00    -0.235 N 
HETATM   19  N4  UNL     1      70.101 -14.505  31.936  1.00  0.00    -0.227 N 
ATOM     20  H32 UNL     1      71.696 -11.919  30.819  1.00  0.00     0.174 HD
ATOM     21  H31 UNL     1      72.015 -13.667  30.601  1.00  0.00     0.174 HD
HETATM   22  C11 UNL     1      70.218 -15.061  33.247  1.00  0.00     0.168 C 
HETATM   23  C12 UNL     1      69.656 -15.327  30.841  1.00  0.00     0.168 C 
ATOM     24  H2  UNL     1      68.688 -12.268  32.459  1.00  0.00     0.177 HD
ENDBRANCH  15  16
ENDBRANCH   1  15
TORSDOF 6
ENDMDL
