MODEL 1
REMARK VINA RESULT: -7.190267888      0.000      0.000
REMARK  6 active torsions:
REMARK  status: ('A' for Active; 'I' for Inactive)
REMARK    1  A    between atoms: C4_7  and  C5_8 
REMARK    2  A    between atoms: C5_8  and  O2_18 
REMARK    3  A    between atoms: N2_9  and  C6_11 
REMARK    4  A    between atoms: C6_11  and  N3_13 
REMARK    5  A    between atoms: N3_13  and  C7_15 
REMARK    6  A    between atoms: O2_18  and  C10_19 
ROOT
HETATM    1  C5  UNL     1      -5.035   5.426  12.208  1.00  0.00     0.183 C 
HETATM    2  N2  UNL     1      -4.053   4.708  12.150  1.00  0.00    -0.311 N 
ATOM      3  H2  UNL     1      -3.714   4.857  11.200  1.00  0.00     0.170 HD
ENDROOT
BRANCH   1   4
HETATM    4  C4  UNL     1      -5.460   6.254  11.035  1.00  0.00     0.149 A 
HETATM    5  C2  UNL     1      -4.898   7.467  10.749  1.00  0.00     0.045 A 
HETATM    6  C1  UNL     1      -3.838   8.157  11.479  1.00  0.00     0.071 C 
HETATM    7  N1  UNL     1      -5.514   7.943   9.626  1.00  0.00    -0.348 N 
HETATM    8  C3  UNL     1      -6.431   6.998   9.271  1.00  0.00     0.234 A 
ATOM      9  H1  UNL     1      -5.327   8.824   9.150  1.00  0.00     0.167 HD
HETATM   10  O1  UNL     1      -6.359   5.997  10.154  1.00  0.00    -0.300 OA
ENDBRANCH   1   4
BRANCH   1  11
HETATM   11  O2  UNL     1      -5.755   5.469  13.384  1.00  0.00    -0.299 OA
BRANCH  11  12
HETATM   12  C10 UNL     1      -5.730   4.651  14.470  1.00  0.00     0.295 C 
HETATM   13  C11 UNL     1      -6.174   5.439  15.719  1.00  0.00     0.232 C 
HETATM   14  O3  UNL     1      -6.514   4.422  16.605  1.00  0.00    -0.350 OA
HETATM   15  C12 UNL     1      -6.412   3.222  15.904  1.00  0.00     0.167 C 
HETATM   16  C13 UNL     1      -5.011   2.690  16.104  1.00  0.00     0.068 C 
HETATM   17  C16 UNL     1      -7.344   2.177  16.398  1.00  0.00     0.068 C 
HETATM   18  O4  UNL     1      -6.587   3.581  14.558  1.00  0.00    -0.323 OA
HETATM   19  C14 UNL     1      -5.106   1.507  17.027  1.00  0.00     0.006 C 
HETATM   20  C15 UNL     1      -6.550   1.280  17.324  1.00  0.00     0.006 C 
ENDBRANCH  11  12
ENDBRANCH   1  11
BRANCH   2  21
HETATM   21  C6  UNL     1      -3.170   3.824  12.654  1.00  0.00     0.173 C 
HETATM   22  S1  UNL     1      -1.868   4.410  13.501  1.00  0.00    -0.041 SA
BRANCH  21  23
HETATM   23  N3  UNL     1      -3.254   2.404  12.553  1.00  0.00    -0.363 N 
ATOM     24  H3  UNL     1      -2.401   1.854  12.448  1.00  0.00     0.162 HD
BRANCH  23  25
HETATM   25  C7  UNL     1      -4.524   1.740  12.597  1.00  0.00     0.075 C 
HETATM   26  C8  UNL     1      -5.176   1.568  11.238  1.00  0.00     0.032 C 
HETATM   27  C9  UNL     1      -4.326   0.391  13.251  1.00  0.00     0.032 C 
ENDBRANCH  23  25
ENDBRANCH  21  23
ENDBRANCH   2  21
TORSDOF 6
ENDMDL
MODEL 2
REMARK VINA RESULT: -7.176837029      2.649      6.618
REMARK  6 active torsions:
REMARK  status: ('A' for Active; 'I' for Inactive)
REMARK    1  A    between atoms: C4_7  and  C5_8 
REMARK    2  A    between atoms: C5_8  and  O2_18 
REMARK    3  A    between atoms: N2_9  and  C6_11 
REMARK    4  A    between atoms: C6_11  and  N3_13 
REMARK    5  A    between atoms: N3_13  and  C7_15 
REMARK    6  A    between atoms: O2_18  and  C10_19 
ROOT
HETATM    1  C5  UNL     1      -4.848   2.540  15.024  1.00  0.00     0.183 C 
HETATM    2  N2  UNL     1      -4.137   3.498  15.275  1.00  0.00    -0.311 N 
ATOM      3  H2  UNL     1      -4.162   3.543  16.293  1.00  0.00     0.170 HD
ENDROOT
BRANCH   1   4
HETATM    4  C4  UNL     1      -5.503   1.754  16.117  1.00  0.00     0.149 A 
HETATM    5  C2  UNL     1      -6.460   2.289  16.934  1.00  0.00     0.045 A 
HETATM    6  C1  UNL     1      -7.003   3.644  16.911  1.00  0.00     0.071 C 
HETATM    7  N1  UNL     1      -6.837   1.308  17.808  1.00  0.00    -0.348 N 
HETATM    8  C3  UNL     1      -6.093   0.212  17.487  1.00  0.00     0.234 A 
ATOM      9  H1  UNL     1      -7.533   1.381  18.549  1.00  0.00     0.167 HD
HETATM   10  O1  UNL     1      -5.303   0.532  16.459  1.00  0.00    -0.300 OA
ENDBRANCH   1   4
BRANCH   1  11
HETATM   11  O2  UNL     1      -5.038   2.186  13.704  1.00  0.00    -0.299 OA
BRANCH  11  12
HETATM   12  C10 UNL     1      -4.454   2.650  12.567  1.00  0.00     0.295 C 
HETATM   13  C11 UNL     1      -5.029   1.901  11.349  1.00  0.00     0.232 C 
HETATM   14  O3  UNL     1      -4.692   2.745  10.296  1.00  0.00    -0.350 OA
HETATM   15  C12 UNL     1      -4.127   3.889  10.857  1.00  0.00     0.167 C 
HETATM   16  C13 UNL     1      -2.633   3.673  10.934  1.00  0.00     0.068 C 
HETATM   17  C16 UNL     1      -4.345   5.108  10.040  1.00  0.00     0.068 C 
HETATM   18  O4  UNL     1      -4.658   3.945  12.157  1.00  0.00    -0.323 OA
HETATM   19  C14 UNL     1      -1.998   4.543   9.884  1.00  0.00     0.006 C 
HETATM   20  C15 UNL     1      -3.084   5.327   9.229  1.00  0.00     0.006 C 
ENDBRANCH  11  12
ENDBRANCH   1  11
BRANCH   2  21
HETATM   21  C6  UNL     1      -3.336   4.529  14.944  1.00  0.00     0.173 C 
HETATM   22  S1  UNL     1      -1.712   4.236  14.763  1.00  0.00    -0.041 SA
BRANCH  21  23
HETATM   23  N3  UNL     1      -3.754   5.872  14.704  1.00  0.00    -0.363 N 
ATOM     24  H3  UNL     1      -4.694   6.163  14.971  1.00  0.00     0.162 HD
BRANCH  23  25
HETATM   25  C7  UNL     1      -2.866   6.817  14.091  1.00  0.00     0.075 C 
HETATM   26  C8  UNL     1      -3.368   7.366  12.770  1.00  0.00     0.032 C 
HETATM   27  C9  UNL     1      -2.635   7.946  15.068  1.00  0.00     0.032 C 
ENDBRANCH  23  25
ENDBRANCH  21  23
ENDBRANCH   2  21
TORSDOF 6
ENDMDL
MODEL 3
REMARK VINA RESULT: -7.157503966      3.340      6.511
REMARK  6 active torsions:
REMARK  status: ('A' for Active; 'I' for Inactive)
REMARK    1  A    between atoms: C4_7  and  C5_8 
REMARK    2  A    between atoms: C5_8  and  O2_18 
REMARK    3  A    between atoms: N2_9  and  C6_11 
REMARK    4  A    between atoms: C6_11  and  N3_13 
REMARK    5  A    between atoms: N3_13  and  C7_15 
REMARK    6  A    between atoms: O2_18  and  C10_19 
ROOT
HETATM    1  C5  UNL     1      -4.484   2.551  14.140  1.00  0.00     0.183 C 
HETATM    2  N2  UNL     1      -5.457   2.909  14.781  1.00  0.00    -0.311 N 
ATOM      3  H2  UNL     1      -6.132   2.164  14.609  1.00  0.00     0.170 HD
ENDROOT
BRANCH   1   4
HETATM    4  C4  UNL     1      -4.499   1.275  13.356  1.00  0.00     0.149 A 
HETATM    5  C2  UNL     1      -4.808   1.234  12.025  1.00  0.00     0.045 A 
HETATM    6  C1  UNL     1      -5.162   2.350  11.153  1.00  0.00     0.071 C 
HETATM    7  N1  UNL     1      -4.726  -0.072  11.632  1.00  0.00    -0.348 N 
HETATM    8  C3  UNL     1      -4.370  -0.777  12.744  1.00  0.00     0.234 A 
ATOM      9  H1  UNL     1      -4.897  -0.444  10.699  1.00  0.00     0.167 HD
HETATM   10  O1  UNL     1      -4.245   0.083  13.759  1.00  0.00    -0.300 OA
ENDBRANCH   1   4
BRANCH   1  11
HETATM   11  O2  UNL     1      -3.357   3.347  14.150  1.00  0.00    -0.299 OA
BRANCH  11  12
HETATM   12  C10 UNL     1      -2.624   3.860  13.126  1.00  0.00     0.295 C 
HETATM   13  C11 UNL     1      -1.784   5.048  13.638  1.00  0.00     0.232 C 
HETATM   14  O3  UNL     1      -0.810   5.169  12.652  1.00  0.00    -0.350 OA
HETATM   15  C12 UNL     1      -0.990   4.104  11.772  1.00  0.00     0.167 C 
HETATM   16  C13 UNL     1      -1.916   4.567  10.671  1.00  0.00     0.068 C 
HETATM   17  C16 UNL     1       0.270   3.668  11.120  1.00  0.00     0.068 C 
HETATM   18  O4  UNL     1      -1.632   3.116  12.537  1.00  0.00    -0.323 OA
HETATM   19  C14 UNL     1      -1.087   4.738   9.428  1.00  0.00     0.006 C 
HETATM   20  C15 UNL     1       0.306   4.316   9.751  1.00  0.00     0.006 C 
ENDBRANCH  11  12
ENDBRANCH   1  11
BRANCH   2  21
HETATM   21  C6  UNL     1      -6.128   3.749  15.593  1.00  0.00     0.173 C 
HETATM   22  S1  UNL     1      -6.151   5.363  15.207  1.00  0.00    -0.041 SA
BRANCH  21  23
HETATM   23  N3  UNL     1      -6.858   3.381  16.762  1.00  0.00    -0.363 N 
ATOM     24  H3  UNL     1      -7.600   3.991  17.105  1.00  0.00     0.162 HD
BRANCH  23  25
HETATM   25  C7  UNL     1      -6.560   2.164  17.459  1.00  0.00     0.075 C 
HETATM   26  C8  UNL     1      -6.442   2.329  18.962  1.00  0.00     0.032 C 
HETATM   27  C9  UNL     1      -7.641   1.159  17.131  1.00  0.00     0.032 C 
ENDBRANCH  23  25
ENDBRANCH  21  23
ENDBRANCH   2  21
TORSDOF 6
ENDMDL
MODEL 4
REMARK VINA RESULT: -7.144982952      2.858      5.754
REMARK  6 active torsions:
REMARK  status: ('A' for Active; 'I' for Inactive)
REMARK    1  A    between atoms: C4_7  and  C5_8 
REMARK    2  A    between atoms: C5_8  and  O2_18 
REMARK    3  A    between atoms: N2_9  and  C6_11 
REMARK    4  A    between atoms: C6_11  and  N3_13 
REMARK    5  A    between atoms: N3_13  and  C7_15 
REMARK    6  A    between atoms: O2_18  and  C10_19 
ROOT
HETATM    1  C5  UNL     1      -4.608   2.957  13.939  1.00  0.00     0.183 C 
HETATM    2  N2  UNL     1      -5.585   3.313  14.575  1.00  0.00    -0.311 N 
ATOM      3  H2  UNL     1      -6.355   2.853  14.091  1.00  0.00     0.170 HD
ENDROOT
BRANCH   1   4
HETATM    4  C4  UNL     1      -4.742   2.047  12.758  1.00  0.00     0.149 A 
HETATM    5  C2  UNL     1      -4.725   2.507  11.471  1.00  0.00     0.045 A 
HETATM    6  C1  UNL     1      -4.581   3.887  11.014  1.00  0.00     0.071 C 
HETATM    7  N1  UNL     1      -4.869   1.422  10.652  1.00  0.00    -0.348 N 
HETATM    8  C3  UNL     1      -4.970   0.340  11.477  1.00  0.00     0.234 A 
ATOM      9  H1  UNL     1      -4.897   1.421   9.633  1.00  0.00     0.167 HD
HETATM   10  O1  UNL     1      -4.887   0.771  12.739  1.00  0.00    -0.300 OA
ENDBRANCH   1   4
BRANCH   1  11
HETATM   11  O2  UNL     1      -3.364   3.406  14.331  1.00  0.00    -0.299 OA
BRANCH  11  12
HETATM   12  C10 UNL     1      -2.788   4.633  14.220  1.00  0.00     0.295 C 
HETATM   13  C11 UNL     1      -1.528   4.533  13.337  1.00  0.00     0.232 C 
HETATM   14  O3  UNL     1      -1.320   5.857  12.966  1.00  0.00    -0.350 OA
HETATM   15  C12 UNL     1      -2.399   6.590  13.456  1.00  0.00     0.167 C 
HETATM   16  C13 UNL     1      -2.024   7.098  14.829  1.00  0.00     0.068 C 
HETATM   17  C16 UNL     1      -2.719   7.780  12.628  1.00  0.00     0.068 C 
HETATM   18  O4  UNL     1      -3.440   5.654  13.572  1.00  0.00    -0.323 OA
HETATM   19  C14 UNL     1      -1.781   8.577  14.711  1.00  0.00     0.006 C 
HETATM   20  C15 UNL     1      -2.073   8.973  13.303  1.00  0.00     0.006 C 
ENDBRANCH  11  12
ENDBRANCH   1  11
BRANCH   2  21
HETATM   21  C6  UNL     1      -6.204   3.983  15.566  1.00  0.00     0.173 C 
HETATM   22  S1  UNL     1      -6.171   5.643  15.534  1.00  0.00    -0.041 SA
BRANCH  21  23
HETATM   23  N3  UNL     1      -6.922   3.399  16.652  1.00  0.00    -0.363 N 
ATOM     24  H3  UNL     1      -7.757   3.862  17.011  1.00  0.00     0.162 HD
BRANCH  23  25
HETATM   25  C7  UNL     1      -6.482   2.169  17.244  1.00  0.00     0.075 C 
HETATM   26  C8  UNL     1      -6.246   2.257  18.740  1.00  0.00     0.032 C 
HETATM   27  C9  UNL     1      -7.516   1.108  16.943  1.00  0.00     0.032 C 
ENDBRANCH  23  25
ENDBRANCH  21  23
ENDBRANCH   2  21
TORSDOF 6
ENDMDL
MODEL 5
REMARK VINA RESULT: -7.127103963      2.795      5.912
REMARK  6 active torsions:
REMARK  status: ('A' for Active; 'I' for Inactive)
REMARK    1  A    between atoms: C4_7  and  C5_8 
REMARK    2  A    between atoms: C5_8  and  O2_18 
REMARK    3  A    between atoms: N2_9  and  C6_11 
REMARK    4  A    between atoms: C6_11  and  N3_13 
REMARK    5  A    between atoms: N3_13  and  C7_15 
REMARK    6  A    between atoms: O2_18  and  C10_19 
ROOT
HETATM    1  C5  UNL     1      -4.451   3.050  14.547  1.00  0.00     0.183 C 
HETATM    2  N2  UNL     1      -4.655   2.713  13.394  1.00  0.00    -0.311 N 
ATOM      3  H2  UNL     1      -5.607   2.347  13.426  1.00  0.00     0.170 HD
ENDROOT
BRANCH   1   4
HETATM    4  C4  UNL     1      -5.499   2.879  15.602  1.00  0.00     0.149 A 
HETATM    5  C2  UNL     1      -6.305   3.904  16.010  1.00  0.00     0.045 A 
HETATM    6  C1  UNL     1      -6.311   5.284  15.533  1.00  0.00     0.071 C 
HETATM    7  N1  UNL     1      -7.135   3.405  16.975  1.00  0.00    -0.348 N 
HETATM    8  C3  UNL     1      -6.800   2.091  17.116  1.00  0.00     0.234 A 
ATOM      9  H1  UNL     1      -7.858   3.912  17.485  1.00  0.00     0.167 HD
HETATM   10  O1  UNL     1      -5.806   1.822  16.265  1.00  0.00    -0.300 OA
ENDBRANCH   1   4
BRANCH   1  11
HETATM   11  O2  UNL     1      -3.228   3.602  14.867  1.00  0.00    -0.299 OA
BRANCH  11  12
HETATM   12  C10 UNL     1      -2.713   4.833  14.603  1.00  0.00     0.295 C 
HETATM   13  C11 UNL     1      -1.345   4.682  13.908  1.00  0.00     0.232 C 
HETATM   14  O3  UNL     1      -1.167   5.935  13.329  1.00  0.00    -0.350 OA
HETATM   15  C12 UNL     1      -2.341   6.654  13.548  1.00  0.00     0.167 C 
HETATM   16  C13 UNL     1      -2.177   7.419  14.841  1.00  0.00     0.068 C 
HETATM   17  C16 UNL     1      -2.618   7.653  12.487  1.00  0.00     0.068 C 
HETATM   18  O4  UNL     1      -3.332   5.672  13.709  1.00  0.00    -0.323 OA
HETATM   19  C14 UNL     1      -2.005   8.870  14.486  1.00  0.00     0.006 C 
HETATM   20  C15 UNL     1      -2.135   8.992  13.005  1.00  0.00     0.006 C 
ENDBRANCH  11  12
ENDBRANCH   1  11
BRANCH   2  21
HETATM   21  C6  UNL     1      -4.313   2.558  12.100  1.00  0.00     0.173 C 
HETATM   22  S1  UNL     1      -5.162   1.459  11.189  1.00  0.00    -0.041 SA
BRANCH  21  23
HETATM   23  N3  UNL     1      -3.290   3.274  11.412  1.00  0.00    -0.363 N 
ATOM     24  H3  UNL     1      -2.314   3.140  11.677  1.00  0.00     0.162 HD
BRANCH  23  25
HETATM   25  C7  UNL     1      -3.618   4.182  10.351  1.00  0.00     0.075 C 
HETATM   26  C8  UNL     1      -4.694   5.188  10.712  1.00  0.00     0.032 C 
HETATM   27  C9  UNL     1      -2.353   4.900   9.940  1.00  0.00     0.032 C 
ENDBRANCH  23  25
ENDBRANCH  21  23
ENDBRANCH   2  21
TORSDOF 6
ENDMDL
