MODEL 1
REMARK VINA RESULT: -7.466416144      0.000      0.000
REMARK  4 active torsions:
REMARK  status: ('A' for Active; 'I' for Inactive)
REMARK    1  A    between atoms: O1_1  and  C1_3 
REMARK    2  A    between atoms: N1_6  and  C4_7 
REMARK    3  A    between atoms: C5_10  and  N3_11 
REMARK    4  A    between atoms: C11_19  and  N5_20 
ROOT
HETATM    1  C4  UNL     1      -4.307   3.602  13.665  1.00  0.00     0.709 A 
HETATM    2  N2  UNL     1      -3.010   3.534  13.262  1.00  0.00    -0.021 N 
ATOM      3  H2  UNL     1      -2.423   2.755  13.560  1.00  0.00     0.203 HD
HETATM    4  C5  UNL     1      -2.503   4.494  12.472  1.00  0.00     0.709 A 
HETATM    5  N4  UNL     1      -3.279   5.534  12.072  1.00  0.00    -0.021 N 
ATOM      6  H4  UNL     1      -2.886   6.259  11.472  1.00  0.00     0.203 HD
HETATM    7  C11 UNL     1      -4.573   5.612  12.467  1.00  0.00     0.709 A 
HETATM    8  N6  UNL     1      -5.041   4.633  13.256  1.00  0.00    -0.021 N 
ATOM      9  H6  UNL     1      -6.013   4.683  13.558  1.00  0.00     0.203 HD
ENDROOT
BRANCH   1  10
HETATM   10  N1  UNL     1      -4.860   2.591  14.505  1.00  0.00    -0.216 N 
HETATM   11  C3  UNL     1      -5.918   2.964  15.388  1.00  0.00     0.143 C 
HETATM   12  C2  UNL     1      -6.172   2.011  16.506  1.00  0.00     0.052 C 
HETATM   13  C1  UNL     1      -5.037   1.088  16.815  1.00  0.00     0.121 C 
HETATM   14  C17 UNL     1      -4.428   0.430  15.623  1.00  0.00     0.052 C 
HETATM   15  C16 UNL     1      -4.318   1.272  14.405  1.00  0.00     0.143 C 
BRANCH  13  16
HETATM   16  O1  UNL     1      -5.516   0.091  17.666  1.00  0.00    -0.395 OA
ATOM     17  H1  UNL     1      -4.976   0.091  18.448  1.00  0.00     0.210 HD
ENDBRANCH  13  16
ENDBRANCH   1  10
BRANCH   4  18
HETATM   18  N3  UNL     1      -1.135   4.397  12.062  1.00  0.00    -0.217 N 
HETATM   19  C6  UNL     1      -0.702   3.259  11.315  1.00  0.00     0.141 C 
HETATM   20  C7  UNL     1       0.562   3.429  10.550  1.00  0.00     0.020 C 
HETATM   21  C8  UNL     1       1.483   4.473  11.076  1.00  0.00     0.003 C 
HETATM   22  C9  UNL     1       0.664   5.756  11.259  1.00  0.00     0.020 C 
HETATM   23  C10 UNL     1      -0.249   5.484  12.441  1.00  0.00     0.141 C 
ENDBRANCH   4  18
BRANCH   7  24
HETATM   24  N5  UNL     1      -5.406   6.696  12.060  1.00  0.00    -0.217 N 
HETATM   25  C12 UNL     1      -4.913   7.858  11.359  1.00  0.00     0.141 C 
HETATM   26  C13 UNL     1      -6.130   8.620  10.890  1.00  0.00     0.022 C 
HETATM   27  C14 UNL     1      -7.331   7.965  11.535  1.00  0.00     0.022 C 
HETATM   28  C15 UNL     1      -6.816   6.770  12.291  1.00  0.00     0.141 C 
ENDBRANCH   7  24
TORSDOF 4
ENDMDL
MODEL 2
REMARK VINA RESULT: -7.337711404      0.552      5.068
REMARK  4 active torsions:
REMARK  status: ('A' for Active; 'I' for Inactive)
REMARK    1  A    between atoms: O1_1  and  C1_3 
REMARK    2  A    between atoms: N1_6  and  C4_7 
REMARK    3  A    between atoms: C5_10  and  N3_11 
REMARK    4  A    between atoms: C11_19  and  N5_20 
ROOT
HETATM    1  C4  UNL     1      -4.067   3.621  13.332  1.00  0.00     0.709 A 
HETATM    2  N2  UNL     1      -4.760   4.749  13.023  1.00  0.00    -0.021 N 
ATOM      3  H2  UNL     1      -5.714   4.872  13.363  1.00  0.00     0.203 HD
HETATM    4  C5  UNL     1      -4.188   5.701  12.267  1.00  0.00     0.709 A 
HETATM    5  N4  UNL     1      -2.919   5.544  11.810  1.00  0.00    -0.021 N 
ATOM      6  H4  UNL     1      -2.492   6.271  11.237  1.00  0.00     0.203 HD
HETATM    7  C11 UNL     1      -2.218   4.424  12.113  1.00  0.00     0.709 A 
HETATM    8  N6  UNL     1      -2.825   3.498  12.870  1.00  0.00    -0.021 N 
ATOM      9  H6  UNL     1      -2.306   2.652  13.104  1.00  0.00     0.203 HD
ENDROOT
BRANCH   1  10
HETATM   10  N1  UNL     1      -4.660   2.601  14.133  1.00  0.00    -0.216 N 
HETATM   11  C3  UNL     1      -5.613   2.997  15.120  1.00  0.00     0.143 C 
HETATM   12  C2  UNL     1      -5.883   1.984  16.178  1.00  0.00     0.052 C 
HETATM   13  C1  UNL     1      -4.828   0.936  16.329  1.00  0.00     0.121 C 
HETATM   14  C17 UNL     1      -4.370   0.324  15.048  1.00  0.00     0.052 C 
HETATM   15  C16 UNL     1      -4.261   1.249  13.892  1.00  0.00     0.143 C 
BRANCH  13  16
HETATM   16  O1  UNL     1      -5.344  -0.079  17.136  1.00  0.00    -0.395 OA
ATOM     17  H1  UNL     1      -4.631  -0.666  17.358  1.00  0.00     0.210 HD
ENDBRANCH  13  16
ENDBRANCH   1  10
BRANCH   4  18
HETATM   18  N3  UNL     1      -4.940   6.878  11.957  1.00  0.00    -0.217 N 
HETATM   19  C6  UNL     1      -4.269   8.027  11.437  1.00  0.00     0.141 C 
HETATM   20  C7  UNL     1      -5.127   9.012  10.725  1.00  0.00     0.020 C 
HETATM   21  C8  UNL     1      -6.562   8.999  11.118  1.00  0.00     0.003 C 
HETATM   22  C9  UNL     1      -7.047   7.547  11.037  1.00  0.00     0.020 C 
HETATM   23  C10 UNL     1      -6.372   6.834  12.195  1.00  0.00     0.141 C 
ENDBRANCH   4  18
BRANCH   7  24
HETATM   24  N5  UNL     1      -0.884   4.237  11.644  1.00  0.00    -0.217 N 
HETATM   25  C12 UNL     1      -0.479   3.118  10.826  1.00  0.00     0.141 C 
HETATM   26  C13 UNL     1       0.916   3.432  10.337  1.00  0.00     0.022 C 
HETATM   27  C14 UNL     1       1.372   4.667  11.081  1.00  0.00     0.022 C 
HETATM   28  C15 UNL     1       0.207   5.120  11.920  1.00  0.00     0.141 C 
ENDBRANCH   7  24
TORSDOF 4
ENDMDL
MODEL 3
REMARK VINA RESULT: -7.312550181      2.433      5.917
REMARK  4 active torsions:
REMARK  status: ('A' for Active; 'I' for Inactive)
REMARK    1  A    between atoms: O1_1  and  C1_3 
REMARK    2  A    between atoms: N1_6  and  C4_7 
REMARK    3  A    between atoms: C5_10  and  N3_11 
REMARK    4  A    between atoms: C11_19  and  N5_20 
ROOT
HETATM    1  C4  UNL     1      -2.846   4.114  12.674  1.00  0.00     0.709 A 
HETATM    2  N2  UNL     1      -3.312   3.385  13.722  1.00  0.00    -0.021 N 
ATOM      3  H2  UNL     1      -2.766   2.604  14.085  1.00  0.00     0.203 HD
HETATM    4  C5  UNL     1      -4.495   3.694  14.279  1.00  0.00     0.709 A 
HETATM    5  N4  UNL     1      -5.229   4.732  13.801  1.00  0.00    -0.021 N 
ATOM      6  H4  UNL     1      -6.126   4.959  14.229  1.00  0.00     0.203 HD
HETATM    7  C11 UNL     1      -4.773   5.466  12.757  1.00  0.00     0.709 A 
HETATM    8  N6  UNL     1      -3.588   5.125  12.229  1.00  0.00    -0.021 N 
ATOM      9  H6  UNL     1      -3.236   5.672  11.444  1.00  0.00     0.203 HD
ENDROOT
BRANCH   1  10
HETATM   10  N1  UNL     1      -1.592   3.799  12.071  1.00  0.00    -0.216 N 
HETATM   11  C3  UNL     1      -0.520   4.727  12.238  1.00  0.00     0.143 C 
HETATM   12  C2  UNL     1       0.606   4.569  11.274  1.00  0.00     0.052 C 
HETATM   13  C1  UNL     1       0.268   3.814  10.030  1.00  0.00     0.121 C 
HETATM   14  C17 UNL     1      -0.480   2.544  10.256  1.00  0.00     0.052 C 
HETATM   15  C16 UNL     1      -1.494   2.574  11.340  1.00  0.00     0.143 C 
BRANCH  13  16
HETATM   16  O1  UNL     1       1.462   3.506   9.377  1.00  0.00    -0.395 OA
ATOM     17  H1  UNL     1       2.123   3.345  10.039  1.00  0.00     0.210 HD
ENDBRANCH  13  16
ENDBRANCH   1  10
BRANCH   4  18
HETATM   18  N3  UNL     1      -4.962   2.909  15.381  1.00  0.00    -0.217 N 
HETATM   19  C6  UNL     1      -6.293   3.097  15.865  1.00  0.00     0.141 C 
HETATM   20  C7  UNL     1      -6.853   1.978  16.670  1.00  0.00     0.020 C 
HETATM   21  C8  UNL     1      -5.843   1.114  17.339  1.00  0.00     0.003 C 
HETATM   22  C9  UNL     1      -4.823   0.693  16.275  1.00  0.00     0.020 C 
HETATM   23  C10 UNL     1      -4.035   1.950  15.955  1.00  0.00     0.141 C 
ENDBRANCH   4  18
BRANCH   7  24
HETATM   24  N5  UNL     1      -5.527   6.560  12.238  1.00  0.00    -0.217 N 
HETATM   25  C12 UNL     1      -4.942   7.636  11.473  1.00  0.00     0.141 C 
HETATM   26  C13 UNL     1      -6.096   8.426  10.900  1.00  0.00     0.022 C 
HETATM   27  C14 UNL     1      -7.355   7.891  11.544  1.00  0.00     0.022 C 
HETATM   28  C15 UNL     1      -6.937   6.729  12.407  1.00  0.00     0.141 C 
ENDBRANCH   7  24
TORSDOF 4
ENDMDL
MODEL 4
REMARK VINA RESULT: -7.232984185      0.959      5.085
REMARK  4 active torsions:
REMARK  status: ('A' for Active; 'I' for Inactive)
REMARK    1  A    between atoms: O1_1  and  C1_3 
REMARK    2  A    between atoms: N1_6  and  C4_7 
REMARK    3  A    between atoms: C5_10  and  N3_11 
REMARK    4  A    between atoms: C11_19  and  N5_20 
ROOT
HETATM    1  C4  UNL     1      -4.193   3.522  13.207  1.00  0.00     0.709 A 
HETATM    2  N2  UNL     1      -4.993   4.439  12.603  1.00  0.00    -0.021 N 
ATOM      3  H2  UNL     1      -5.988   4.474  12.823  1.00  0.00     0.203 HD
HETATM    4  C5  UNL     1      -4.472   5.301  11.714  1.00  0.00     0.709 A 
HETATM    5  N4  UNL     1      -3.148   5.261  11.414  1.00  0.00    -0.021 N 
ATOM      6  H4  UNL     1      -2.760   5.918  10.738  1.00  0.00     0.203 HD
HETATM    7  C11 UNL     1      -2.340   4.351  12.011  1.00  0.00     0.709 A 
HETATM    8  N6  UNL     1      -2.900   3.509  12.893  1.00  0.00    -0.021 N 
ATOM      9  H6  UNL     1      -2.300   2.821  13.348  1.00  0.00     0.203 HD
ENDROOT
BRANCH   1  10
HETATM   10  N1  UNL     1      -4.730   2.600  14.153  1.00  0.00    -0.216 N 
HETATM   11  C3  UNL     1      -5.694   3.088  15.087  1.00  0.00     0.143 C 
HETATM   12  C2  UNL     1      -5.907   2.224  16.283  1.00  0.00     0.052 C 
HETATM   13  C1  UNL     1      -4.802   1.259  16.566  1.00  0.00     0.121 C 
HETATM   14  C17 UNL     1      -4.326   0.492  15.378  1.00  0.00     0.052 C 
HETATM   15  C16 UNL     1      -4.269   1.247  14.101  1.00  0.00     0.143 C 
BRANCH  13  16
HETATM   16  O1  UNL     1      -5.263   0.346  17.516  1.00  0.00    -0.395 OA
ATOM     17  H1  UNL     1      -4.688   0.395  18.270  1.00  0.00     0.210 HD
ENDBRANCH  13  16
ENDBRANCH   1  10
BRANCH   4  18
HETATM   18  N3  UNL     1      -5.337   6.256  11.092  1.00  0.00    -0.217 N 
HETATM   19  C6  UNL     1      -5.659   6.120   9.707  1.00  0.00     0.141 C 
HETATM   20  C7  UNL     1      -6.879   6.838   9.251  1.00  0.00     0.020 C 
HETATM   21  C8  UNL     1      -7.266   8.013  10.078  1.00  0.00     0.003 C 
HETATM   22  C9  UNL     1      -7.299   7.554  11.541  1.00  0.00     0.020 C 
HETATM   23  C10 UNL     1      -5.846   7.332  11.924  1.00  0.00     0.141 C 
ENDBRANCH   4  18
BRANCH   7  24
HETATM   24  N5  UNL     1      -0.947   4.290  11.712  1.00  0.00    -0.217 N 
HETATM   25  C12 UNL     1      -0.333   3.191  11.007  1.00  0.00     0.141 C 
HETATM   26  C13 UNL     1       1.072   3.633  10.669  1.00  0.00     0.022 C 
HETATM   27  C14 UNL     1       1.306   4.938  11.398  1.00  0.00     0.022 C 
HETATM   28  C15 UNL     1       0.006   5.296  12.069  1.00  0.00     0.141 C 
ENDBRANCH   7  24
TORSDOF 4
ENDMDL
MODEL 5
REMARK VINA RESULT: -7.163425748      0.551      5.036
REMARK  4 active torsions:
REMARK  status: ('A' for Active; 'I' for Inactive)
REMARK    1  A    between atoms: O1_1  and  C1_3 
REMARK    2  A    between atoms: N1_6  and  C4_7 
REMARK    3  A    between atoms: C5_10  and  N3_11 
REMARK    4  A    between atoms: C11_19  and  N5_20 
ROOT
HETATM    1  C4  UNL     1      -4.091   3.621  13.298  1.00  0.00     0.709 A 
HETATM    2  N2  UNL     1      -4.836   4.645  12.805  1.00  0.00    -0.021 N 
ATOM      3  H2  UNL     1      -5.814   4.743  13.077  1.00  0.00     0.203 HD
HETATM    4  C5  UNL     1      -4.283   5.528  11.957  1.00  0.00     0.709 A 
HETATM    5  N4  UNL     1      -2.982   5.404  11.589  1.00  0.00    -0.021 N 
ATOM      6  H4  UNL     1      -2.569   6.078  10.944  1.00  0.00     0.203 HD
HETATM    7  C11 UNL     1      -2.229   4.387  12.075  1.00  0.00     0.709 A 
HETATM    8  N6  UNL     1      -2.819   3.527  12.919  1.00  0.00    -0.021 N 
ATOM      9  H6  UNL     1      -2.261   2.759  13.292  1.00  0.00     0.203 HD
ENDROOT
BRANCH   1  10
HETATM   10  N1  UNL     1      -4.663   2.675  14.199  1.00  0.00    -0.216 N 
HETATM   11  C3  UNL     1      -5.657   3.141  15.112  1.00  0.00     0.143 C 
HETATM   12  C2  UNL     1      -5.914   2.245  16.276  1.00  0.00     0.052 C 
HETATM   13  C1  UNL     1      -4.822   1.269  16.570  1.00  0.00     0.121 C 
HETATM   14  C17 UNL     1      -4.306   0.534  15.379  1.00  0.00     0.052 C 
HETATM   15  C16 UNL     1      -4.203   1.323  14.126  1.00  0.00     0.143 C 
BRANCH  13  16
HETATM   16  O1  UNL     1      -5.317   0.332  17.478  1.00  0.00    -0.395 OA
ATOM     17  H1  UNL     1      -4.791  -0.455  17.402  1.00  0.00     0.210 HD
ENDBRANCH  13  16
ENDBRANCH   1  10
BRANCH   4  18
HETATM   18  N3  UNL     1      -5.090   6.596  11.452  1.00  0.00    -0.217 N 
HETATM   19  C6  UNL     1      -6.449   6.715  11.878  1.00  0.00     0.141 C 
HETATM   20  C7  UNL     1      -7.072   8.053  11.693  1.00  0.00     0.020 C 
HETATM   21  C8  UNL     1      -6.464   8.890  10.622  1.00  0.00     0.003 C 
HETATM   22  C9  UNL     1      -4.950   8.912  10.862  1.00  0.00     0.020 C 
HETATM   23  C10 UNL     1      -4.468   7.515  10.515  1.00  0.00     0.141 C 
ENDBRANCH   4  18
BRANCH   7  24
HETATM   24  N5  UNL     1      -0.861   4.236  11.703  1.00  0.00    -0.217 N 
HETATM   25  C12 UNL     1      -0.352   3.087  10.992  1.00  0.00     0.141 C 
HETATM   26  C13 UNL     1       1.055   3.437  10.568  1.00  0.00     0.022 C 
HETATM   27  C14 UNL     1       1.405   4.740  11.250  1.00  0.00     0.022 C 
HETATM   28  C15 UNL     1       0.169   5.190  11.982  1.00  0.00     0.141 C 
ENDBRANCH   7  24
TORSDOF 4
ENDMDL
