MODEL 1
REMARK VINA RESULT: -8.032087187      0.000      0.000
REMARK  10 active torsions:
REMARK  status: ('A' for Active; 'I' for Inactive)
REMARK    1  A    between atoms: C2_2  and  C3_3 
REMARK    2  A    between atoms: C2_2  and  C19_26 
REMARK    3  A    between atoms: C2_2  and  N1_29 
REMARK    4  A    between atoms: C3_3  and  C4_4 
REMARK    5  A    between atoms: C7_7  and  O1_8 
REMARK    6  A    between atoms: O1_8  and  C8_9 
REMARK    7  A    between atoms: C8_9  and  C9_10 
REMARK    8  A    between atoms: C9_10  and  C10_11 
REMARK    9  A    between atoms: C10_11  and  O2_12 
REMARK   10  A    between atoms: O2_12  and  C11_13 
ROOT
HETATM    1  C4  UNL     1     -69.225 -11.486  21.382  1.00  0.00    -0.032 A 
HETATM    2  C5  UNL     1     -68.405 -12.156  22.315  1.00  0.00     0.012 A 
HETATM    3  C6  UNL     1     -67.041 -12.065  22.316  1.00  0.00     0.039 A 
HETATM    4  C7  UNL     1     -66.380 -11.299  21.384  1.00  0.00     0.092 A 
HETATM    5  C17 UNL     1     -67.144 -10.632  20.462  1.00  0.00     0.089 A 
HETATM    6 CL4  UNL     1     -66.388  -9.632  19.238  1.00  0.00    -0.080 Cl
HETATM    7  C18 UNL     1     -68.537 -10.728  20.469  1.00  0.00     0.065 A 
HETATM    8 CL5  UNL     1     -69.459  -9.759  19.308  1.00  0.00    -0.082 Cl
ENDROOT
BRANCH   4   9
HETATM    9  O1  UNL     1     -64.991 -11.196  21.370  1.00  0.00    -0.349 OA
BRANCH   9  10
HETATM   10  C8  UNL     1     -64.260 -12.073  20.537  1.00  0.00     0.178 C 
BRANCH  10  11
HETATM   11  C9  UNL     1     -63.593 -13.152  21.327  1.00  0.00     0.053 C 
BRANCH  11  12
HETATM   12  C10 UNL     1     -64.352 -14.445  21.125  1.00  0.00     0.178 C 
BRANCH  12  13
HETATM   13  O2  UNL     1     -64.328 -14.849  19.760  1.00  0.00    -0.348 OA
BRANCH  13  14
HETATM   14  C11 UNL     1     -65.166 -15.897  19.405  1.00  0.00     0.112 A 
HETATM   15  C12 UNL     1     -66.497 -15.678  19.113  1.00  0.00     0.070 A 
HETATM   16 CL1  UNL     1     -67.109 -14.051  19.198  1.00  0.00    -0.081 Cl
HETATM   17  C13 UNL     1     -67.361 -16.682  18.758  1.00  0.00     0.050 A 
HETATM   18  C14 UNL     1     -66.879 -17.969  18.691  1.00  0.00     0.037 A 
HETATM   19 CL2  UNL     1     -67.876 -19.335  18.252  1.00  0.00    -0.084 Cl
HETATM   20  C15 UNL     1     -65.533 -18.222  18.982  1.00  0.00     0.050 A 
HETATM   21  C16 UNL     1     -64.679 -17.202  19.337  1.00  0.00     0.070 A 
HETATM   22 CL3  UNL     1     -62.986 -17.510  19.704  1.00  0.00    -0.081 Cl
ENDBRANCH  13  14
ENDBRANCH  12  13
ENDBRANCH  11  12
ENDBRANCH  10  11
ENDBRANCH   9  10
ENDBRANCH   4   9
BRANCH   1  23
HETATM   23  C3  UNL     1     -70.662 -11.702  21.455  1.00  0.00     0.093 C 
BRANCH  23  24
HETATM   24  C2  UNL     1     -71.209 -12.887  20.749  1.00  0.00     0.246 C 
HETATM   25  C1  UNL     1     -70.201 -13.702  20.004  1.00  0.00     0.062 C 
BRANCH  24  26
HETATM   26  C19 UNL     1     -71.865 -13.802  21.751  1.00  0.00     0.213 C 
HETATM   27  O3  UNL     1     -72.466 -13.373  22.764  1.00  0.00    -0.646 OA
HETATM   28  O4  UNL     1     -71.805 -15.164  21.547  1.00  0.00    -0.646 OA
ENDBRANCH  24  26
BRANCH  24  29
HETATM   29  N1  UNL     1     -72.295 -12.444  19.861  1.00  0.00     0.113 N 
HETATM   30  C20 UNL     1     -72.515 -11.002  19.951  1.00  0.00     0.300 C 
HETATM   31  C21 UNL     1     -73.657 -10.730  18.954  1.00  0.00     0.198 C 
HETATM   32  O5  UNL     1     -73.330 -11.068  17.666  1.00  0.00    -0.388 OA
HETATM   33  C22 UNL     1     -73.041 -12.450  17.602  1.00  0.00     0.198 C 
HETATM   34  C23 UNL     1     -71.830 -12.642  18.488  1.00  0.00     0.300 C 
ENDBRANCH  24  29
ENDBRANCH  23  24
ENDBRANCH   1  23
TORSDOF 10
ENDMDL
MODEL 2
REMARK VINA RESULT: -7.835418658      3.585      8.256
REMARK  10 active torsions:
REMARK  status: ('A' for Active; 'I' for Inactive)
REMARK    1  A    between atoms: C2_2  and  C3_3 
REMARK    2  A    between atoms: C2_2  and  C19_26 
REMARK    3  A    between atoms: C2_2  and  N1_29 
REMARK    4  A    between atoms: C3_3  and  C4_4 
REMARK    5  A    between atoms: C7_7  and  O1_8 
REMARK    6  A    between atoms: O1_8  and  C8_9 
REMARK    7  A    between atoms: C8_9  and  C9_10 
REMARK    8  A    between atoms: C9_10  and  C10_11 
REMARK    9  A    between atoms: C10_11  and  O2_12 
REMARK   10  A    between atoms: O2_12  and  C11_13 
ROOT
HETATM    1  C4  UNL     1     -66.263 -15.055  19.961  1.00  0.00    -0.032 A 
HETATM    2  C5  UNL     1     -65.113 -14.270  20.190  1.00  0.00     0.012 A 
HETATM    3  C6  UNL     1     -65.040 -12.940  19.879  1.00  0.00     0.039 A 
HETATM    4  C7  UNL     1     -66.108 -12.283  19.313  1.00  0.00     0.092 A 
HETATM    5  C17 UNL     1     -67.243 -13.014  19.077  1.00  0.00     0.089 A 
HETATM    6 CL4  UNL     1     -68.652 -12.260  18.360  1.00  0.00    -0.080 Cl
HETATM    7  C18 UNL     1     -67.311 -14.371  19.399  1.00  0.00     0.065 A 
HETATM    8 CL5  UNL     1     -68.844 -15.224  19.156  1.00  0.00    -0.082 Cl
ENDROOT
BRANCH   4   9
HETATM    9  O1  UNL     1     -66.049 -10.930  18.989  1.00  0.00    -0.349 OA
BRANCH   9  10
HETATM   10  C8  UNL     1     -66.566  -9.994  19.913  1.00  0.00     0.178 C 
BRANCH  10  11
HETATM   11  C9  UNL     1     -67.005  -8.737  19.234  1.00  0.00     0.053 C 
BRANCH  11  12
HETATM   12  C10 UNL     1     -68.504  -8.790  19.032  1.00  0.00     0.178 C 
BRANCH  12  13
HETATM   13  O2  UNL     1     -69.196  -8.365  20.202  1.00  0.00    -0.348 OA
BRANCH  13  14
HETATM   14  C11 UNL     1     -70.575  -8.248  20.101  1.00  0.00     0.112 A 
HETATM   15  C12 UNL     1     -71.407  -9.295  20.442  1.00  0.00     0.070 A 
HETATM   16 CL1  UNL     1     -70.687 -10.777  21.005  1.00  0.00    -0.081 Cl
HETATM   17  C13 UNL     1     -72.773  -9.225  20.359  1.00  0.00     0.050 A 
HETATM   18  C14 UNL     1     -73.344  -8.055  19.914  1.00  0.00     0.037 A 
HETATM   19 CL2  UNL     1     -75.072  -7.838  19.762  1.00  0.00    -0.084 Cl
HETATM   20  C15 UNL     1     -72.526  -6.975  19.560  1.00  0.00     0.050 A 
HETATM   21  C16 UNL     1     -71.155  -7.063  19.650  1.00  0.00     0.070 A 
HETATM   22 CL3  UNL     1     -70.119  -5.710  19.208  1.00  0.00    -0.081 Cl
ENDBRANCH  13  14
ENDBRANCH  12  13
ENDBRANCH  11  12
ENDBRANCH  10  11
ENDBRANCH   9  10
ENDBRANCH   4   9
BRANCH   1  23
HETATM   23  C3  UNL     1     -66.200 -16.472  20.289  1.00  0.00     0.093 C 
BRANCH  23  24
HETATM   24  C2  UNL     1     -65.613 -17.380  19.275  1.00  0.00     0.246 C 
HETATM   25  C1  UNL     1     -65.410 -16.775  17.922  1.00  0.00     0.062 C 
BRANCH  24  26
HETATM   26  C19 UNL     1     -64.263 -17.853  19.754  1.00  0.00     0.213 C 
HETATM   27  O3  UNL     1     -63.191 -17.319  19.385  1.00  0.00    -0.646 OA
HETATM   28  O4  UNL     1     -64.204 -18.913  20.633  1.00  0.00    -0.646 OA
ENDBRANCH  24  26
BRANCH  24  29
HETATM   29  N1  UNL     1     -66.441 -18.593  19.195  1.00  0.00     0.113 N 
HETATM   30  C20 UNL     1     -67.639 -18.486  20.024  1.00  0.00     0.300 C 
HETATM   31  C21 UNL     1     -68.375 -19.821  19.800  1.00  0.00     0.198 C 
HETATM   32  O5  UNL     1     -68.736 -20.016  18.491  1.00  0.00    -0.388 OA
HETATM   33  C22 UNL     1     -67.576 -20.039  17.684  1.00  0.00     0.198 C 
HETATM   34  C23 UNL     1     -66.965 -18.662  17.830  1.00  0.00     0.300 C 
ENDBRANCH  24  29
ENDBRANCH  23  24
ENDBRANCH   1  23
TORSDOF 10
ENDMDL
MODEL 3
REMARK VINA RESULT: -7.781511771      2.999      7.115
REMARK  10 active torsions:
REMARK  status: ('A' for Active; 'I' for Inactive)
REMARK    1  A    between atoms: C2_2  and  C3_3 
REMARK    2  A    between atoms: C2_2  and  C19_26 
REMARK    3  A    between atoms: C2_2  and  N1_29 
REMARK    4  A    between atoms: C3_3  and  C4_4 
REMARK    5  A    between atoms: C7_7  and  O1_8 
REMARK    6  A    between atoms: O1_8  and  C8_9 
REMARK    7  A    between atoms: C8_9  and  C9_10 
REMARK    8  A    between atoms: C9_10  and  C10_11 
REMARK    9  A    between atoms: C10_11  and  O2_12 
REMARK   10  A    between atoms: O2_12  and  C11_13 
ROOT
HETATM    1  C4  UNL     1     -68.285 -10.931  18.759  1.00  0.00    -0.032 A 
HETATM    2  C5  UNL     1     -69.508 -11.360  18.203  1.00  0.00     0.012 A 
HETATM    3  C6  UNL     1     -70.593 -10.541  18.057  1.00  0.00     0.039 A 
HETATM    4  C7  UNL     1     -70.549  -9.225  18.456  1.00  0.00     0.092 A 
HETATM    5  C17 UNL     1     -69.376  -8.772  18.999  1.00  0.00     0.089 A 
HETATM    6 CL4  UNL     1     -69.228  -7.110  19.534  1.00  0.00    -0.080 Cl
HETATM    7  C18 UNL     1     -68.270  -9.613  19.143  1.00  0.00     0.065 A 
HETATM    8 CL5  UNL     1     -66.760  -8.929  19.763  1.00  0.00    -0.082 Cl
ENDROOT
BRANCH   4   9
HETATM    9  O1  UNL     1     -71.645  -8.379  18.315  1.00  0.00    -0.349 OA
BRANCH   9  10
HETATM   10  C8  UNL     1     -72.940  -8.924  18.468  1.00  0.00     0.178 C 
BRANCH  10  11
HETATM   11  C9  UNL     1     -73.458  -8.728  19.856  1.00  0.00     0.053 C 
BRANCH  11  12
HETATM   12  C10 UNL     1     -73.093  -9.938  20.688  1.00  0.00     0.178 C 
BRANCH  12  13
HETATM   13  O2  UNL     1     -73.790 -11.098  20.245  1.00  0.00    -0.348 OA
BRANCH  13  14
HETATM   14  C11 UNL     1     -73.082 -12.291  20.252  1.00  0.00     0.112 A 
HETATM   15  C12 UNL     1     -72.828 -12.976  19.081  1.00  0.00     0.070 A 
HETATM   16 CL1  UNL     1     -73.418 -12.310  17.584  1.00  0.00    -0.081 Cl
HETATM   17  C13 UNL     1     -72.133 -14.157  19.039  1.00  0.00     0.050 A 
HETATM   18  C14 UNL     1     -71.666 -14.685  20.221  1.00  0.00     0.037 A 
HETATM   19 CL2  UNL     1     -70.767 -16.182  20.302  1.00  0.00    -0.084 Cl
HETATM   20  C15 UNL     1     -71.908 -14.013  21.425  1.00  0.00     0.050 A 
HETATM   21  C16 UNL     1     -72.608 -12.828  21.448  1.00  0.00     0.070 A 
HETATM   22 CL3  UNL     1     -72.917 -11.976  22.957  1.00  0.00    -0.081 Cl
ENDBRANCH  13  14
ENDBRANCH  12  13
ENDBRANCH  11  12
ENDBRANCH  10  11
ENDBRANCH   9  10
ENDBRANCH   4   9
BRANCH   1  23
HETATM   23  C3  UNL     1     -67.219 -11.910  18.906  1.00  0.00     0.093 C 
BRANCH  23  24
HETATM   24  C2  UNL     1     -67.311 -12.849  20.051  1.00  0.00     0.246 C 
HETATM   25  C1  UNL     1     -68.486 -12.638  20.952  1.00  0.00     0.062 C 
BRANCH  24  26
HETATM   26  C19 UNL     1     -67.401 -14.261  19.529  1.00  0.00     0.213 C 
HETATM   27  O3  UNL     1     -68.335 -14.647  18.788  1.00  0.00    -0.646 OA
HETATM   28  O4  UNL     1     -66.419 -15.163  19.878  1.00  0.00    -0.646 OA
ENDBRANCH  24  26
BRANCH  24  29
HETATM   29  N1  UNL     1     -66.048 -12.795  20.805  1.00  0.00     0.113 N 
HETATM   30  C20 UNL     1     -64.960 -12.244  20.000  1.00  0.00     0.300 C 
HETATM   31  C21 UNL     1     -63.746 -12.251  20.949  1.00  0.00     0.198 C 
HETATM   32  O5  UNL     1     -63.938 -11.474  22.063  1.00  0.00    -0.388 OA
HETATM   33  C22 UNL     1     -65.041 -11.967  22.795  1.00  0.00     0.198 C 
HETATM   34  C23 UNL     1     -66.230 -11.811  21.871  1.00  0.00     0.300 C 
ENDBRANCH  24  29
ENDBRANCH  23  24
ENDBRANCH   1  23
TORSDOF 10
ENDMDL
MODEL 4
REMARK VINA RESULT: -7.769550142      3.001      7.129
REMARK  10 active torsions:
REMARK  status: ('A' for Active; 'I' for Inactive)
REMARK    1  A    between atoms: C2_2  and  C3_3 
REMARK    2  A    between atoms: C2_2  and  C19_26 
REMARK    3  A    between atoms: C2_2  and  N1_29 
REMARK    4  A    between atoms: C3_3  and  C4_4 
REMARK    5  A    between atoms: C7_7  and  O1_8 
REMARK    6  A    between atoms: O1_8  and  C8_9 
REMARK    7  A    between atoms: C8_9  and  C9_10 
REMARK    8  A    between atoms: C9_10  and  C10_11 
REMARK    9  A    between atoms: C10_11  and  O2_12 
REMARK   10  A    between atoms: O2_12  and  C11_13 
ROOT
HETATM    1  C4  UNL     1     -68.282 -10.955  18.756  1.00  0.00    -0.032 A 
HETATM    2  C5  UNL     1     -69.513 -11.380  18.211  1.00  0.00     0.012 A 
HETATM    3  C6  UNL     1     -70.592 -10.553  18.064  1.00  0.00     0.039 A 
HETATM    4  C7  UNL     1     -70.534  -9.234  18.450  1.00  0.00     0.092 A 
HETATM    5  C17 UNL     1     -69.354  -8.786  18.982  1.00  0.00     0.089 A 
HETATM    6 CL4  UNL     1     -69.189  -7.120  19.500  1.00  0.00    -0.080 Cl
HETATM    7  C18 UNL     1     -68.255  -9.635  19.127  1.00  0.00     0.065 A 
HETATM    8 CL5  UNL     1     -66.735  -8.958  19.732  1.00  0.00    -0.082 Cl
ENDROOT
BRANCH   4   9
HETATM    9  O1  UNL     1     -71.625  -8.380  18.308  1.00  0.00    -0.349 OA
BRANCH   9  10
HETATM   10  C8  UNL     1     -72.923  -8.916  18.460  1.00  0.00     0.178 C 
BRANCH  10  11
HETATM   11  C9  UNL     1     -73.433  -8.731  19.853  1.00  0.00     0.053 C 
BRANCH  11  12
HETATM   12  C10 UNL     1     -73.019  -9.924  20.686  1.00  0.00     0.178 C 
BRANCH  12  13
HETATM   13  O2  UNL     1     -73.758 -11.086  20.325  1.00  0.00    -0.348 OA
BRANCH  13  14
HETATM   14  C11 UNL     1     -73.067 -12.290  20.326  1.00  0.00     0.112 A 
HETATM   15  C12 UNL     1     -72.593 -12.839  21.500  1.00  0.00     0.070 A 
HETATM   16 CL1  UNL     1     -72.882 -11.987  22.991  1.00  0.00    -0.081 Cl
HETATM   17  C13 UNL     1     -71.906 -14.024  21.550  1.00  0.00     0.050 A 
HETATM   18  C14 UNL     1     -71.677 -14.698  20.372  1.00  0.00     0.037 A 
HETATM   19 CL2  UNL     1     -70.814 -16.217  20.300  1.00  0.00    -0.084 Cl
HETATM   20  C15 UNL     1     -72.144 -14.165  19.165  1.00  0.00     0.050 A 
HETATM   21  C16 UNL     1     -72.833 -12.974  19.134  1.00  0.00     0.070 A 
HETATM   22 CL3  UNL     1     -73.425 -12.297  17.622  1.00  0.00    -0.081 Cl
ENDBRANCH  13  14
ENDBRANCH  12  13
ENDBRANCH  11  12
ENDBRANCH  10  11
ENDBRANCH   9  10
ENDBRANCH   4   9
BRANCH   1  23
HETATM   23  C3  UNL     1     -67.224 -11.943  18.906  1.00  0.00     0.093 C 
BRANCH  23  24
HETATM   24  C2  UNL     1     -67.317 -12.871  20.059  1.00  0.00     0.246 C 
HETATM   25  C1  UNL     1     -68.496 -12.655  20.953  1.00  0.00     0.062 C 
BRANCH  24  26
HETATM   26  C19 UNL     1     -67.402 -14.288  19.550  1.00  0.00     0.213 C 
HETATM   27  O3  UNL     1     -68.342 -14.687  18.822  1.00  0.00    -0.646 OA
HETATM   28  O4  UNL     1     -66.410 -15.179  19.895  1.00  0.00    -0.646 OA
ENDBRANCH  24  26
BRANCH  24  29
HETATM   29  N1  UNL     1     -66.057 -12.808  20.816  1.00  0.00     0.113 N 
HETATM   30  C20 UNL     1     -64.964 -12.278  20.005  1.00  0.00     0.300 C 
HETATM   31  C21 UNL     1     -63.754 -12.271  20.959  1.00  0.00     0.198 C 
HETATM   32  O5  UNL     1     -63.946 -11.470  22.056  1.00  0.00    -0.388 OA
HETATM   33  C22 UNL     1     -65.055 -11.943  22.793  1.00  0.00     0.198 C 
HETATM   34  C23 UNL     1     -66.239 -11.800  21.861  1.00  0.00     0.300 C 
ENDBRANCH  24  29
ENDBRANCH  23  24
ENDBRANCH   1  23
TORSDOF 10
ENDMDL
MODEL 5
REMARK VINA RESULT: -7.736412044      3.571      8.569
REMARK  10 active torsions:
REMARK  status: ('A' for Active; 'I' for Inactive)
REMARK    1  A    between atoms: C2_2  and  C3_3 
REMARK    2  A    between atoms: C2_2  and  C19_26 
REMARK    3  A    between atoms: C2_2  and  N1_29 
REMARK    4  A    between atoms: C3_3  and  C4_4 
REMARK    5  A    between atoms: C7_7  and  O1_8 
REMARK    6  A    between atoms: O1_8  and  C8_9 
REMARK    7  A    between atoms: C8_9  and  C9_10 
REMARK    8  A    between atoms: C9_10  and  C10_11 
REMARK    9  A    between atoms: C10_11  and  O2_12 
REMARK   10  A    between atoms: O2_12  and  C11_13 
ROOT
HETATM    1  C4  UNL     1     -66.503 -15.034  19.852  1.00  0.00    -0.032 A 
HETATM    2  C5  UNL     1     -67.721 -14.628  19.267  1.00  0.00     0.012 A 
HETATM    3  C6  UNL     1     -67.978 -13.339  18.890  1.00  0.00     0.039 A 
HETATM    4  C7  UNL     1     -67.042 -12.346  19.067  1.00  0.00     0.092 A 
HETATM    5  C17 UNL     1     -65.845 -12.704  19.632  1.00  0.00     0.089 A 
HETATM    6 CL4  UNL     1     -64.594 -11.507  19.895  1.00  0.00    -0.080 Cl
HETATM    7  C18 UNL     1     -65.589 -14.023  20.013  1.00  0.00     0.065 A 
HETATM    8 CL5  UNL     1     -63.984 -14.426  20.644  1.00  0.00    -0.082 Cl
ENDROOT
BRANCH   4   9
HETATM    9  O1  UNL     1     -67.288 -11.029  18.690  1.00  0.00    -0.349 OA
BRANCH   9  10
HETATM   10  C8  UNL     1     -68.068 -10.219  19.546  1.00  0.00     0.178 C 
BRANCH  10  11
HETATM   11  C9  UNL     1     -68.116  -8.803  19.068  1.00  0.00     0.053 C 
BRANCH  11  12
HETATM   12  C10 UNL     1     -69.555  -8.436  18.776  1.00  0.00     0.178 C 
BRANCH  12  13
HETATM   13  O2  UNL     1     -70.202  -7.925  19.937  1.00  0.00    -0.348 OA
BRANCH  13  14
HETATM   14  C11 UNL     1     -71.589  -7.963  19.945  1.00  0.00     0.112 A 
HETATM   15  C12 UNL     1     -72.269  -9.092  20.352  1.00  0.00     0.070 A 
HETATM   16 CL1  UNL     1     -71.347 -10.479  20.859  1.00  0.00    -0.081 Cl
HETATM   17  C13 UNL     1     -73.637  -9.175  20.376  1.00  0.00     0.050 A 
HETATM   18  C14 UNL     1     -74.368  -8.081  19.975  1.00  0.00     0.037 A 
HETATM   19 CL2  UNL     1     -76.116  -8.059  19.959  1.00  0.00    -0.084 Cl
HETATM   20  C15 UNL     1     -73.706  -6.920  19.556  1.00  0.00     0.050 A 
HETATM   21  C16 UNL     1     -72.331  -6.854  19.538  1.00  0.00     0.070 A 
HETATM   22 CL3  UNL     1     -71.490  -5.400  19.014  1.00  0.00    -0.081 Cl
ENDBRANCH  13  14
ENDBRANCH  12  13
ENDBRANCH  11  12
ENDBRANCH  10  11
ENDBRANCH   9  10
ENDBRANCH   4   9
BRANCH   1  23
HETATM   23  C3  UNL     1     -66.368 -16.426  20.256  1.00  0.00     0.093 C 
BRANCH  23  24
HETATM   24  C2  UNL     1     -65.825 -17.375  19.254  1.00  0.00     0.246 C 
HETATM   25  C1  UNL     1     -65.598 -16.800  17.892  1.00  0.00     0.062 C 
BRANCH  24  26
HETATM   26  C19 UNL     1     -64.497 -17.901  19.739  1.00  0.00     0.213 C 
HETATM   27  O3  UNL     1     -64.402 -18.890  20.503  1.00  0.00    -0.646 OA
HETATM   28  O4  UNL     1     -63.342 -17.272  19.326  1.00  0.00    -0.646 OA
ENDBRANCH  24  26
BRANCH  24  29
HETATM   29  N1  UNL     1     -66.707 -18.551  19.195  1.00  0.00     0.113 N 
HETATM   30  C20 UNL     1     -67.963 -18.321  19.904  1.00  0.00     0.300 C 
HETATM   31  C21 UNL     1     -68.748 -19.635  19.718  1.00  0.00     0.198 C 
HETATM   32  O5  UNL     1     -69.006 -19.918  18.401  1.00  0.00    -0.388 OA
HETATM   33  C22 UNL     1     -67.785 -20.060  17.705  1.00  0.00     0.198 C 
HETATM   34  C23 UNL     1     -67.116 -18.706  17.798  1.00  0.00     0.300 C 
ENDBRANCH  24  29
ENDBRANCH  23  24
ENDBRANCH   1  23
TORSDOF 10
ENDMDL
