MODEL 1
REMARK VINA RESULT: -4.465236013      0.000      0.000
REMARK  5 active torsions:
REMARK  status: ('A' for Active; 'I' for Inactive)
REMARK    1  A    between atoms: N1_1  and  C1_4 
REMARK    2  A    between atoms: C2_9  and  S1_10 
REMARK    3  A    between atoms: S1_10  and  C3_11 
REMARK    4  A    between atoms: C3_11  and  C4_12 
REMARK    5  A    between atoms: C4_12  and  N4_13 
ROOT
HETATM    1  C1  UNL     1      -3.274 -18.152 -34.686  1.00  0.00     0.692 A 
HETATM    2  N2  UNL     1      -4.145 -18.961 -35.317  1.00  0.00    -0.130 N 
ATOM      3  H2  UNL     1      -5.151 -18.809 -35.388  1.00  0.00     0.205 HD
HETATM    4  N3  UNL     1      -3.480 -19.993 -35.835  1.00  0.00    -0.265 N 
ATOM      5  H3  UNL     1      -3.898 -20.757 -36.367  1.00  0.00     0.189 HD
HETATM    6  C2  UNL     1      -2.174 -19.871 -35.549  1.00  0.00     0.174 A 
HETATM    7  N5  UNL     1      -2.071 -18.727 -34.839  1.00  0.00    -0.168 N 
ATOM      8  H5  UNL     1      -1.198 -18.350 -34.469  1.00  0.00     0.186 HD
ENDROOT
BRANCH   6   9
HETATM    9  S1  UNL     1      -0.877 -21.002 -36.026  1.00  0.00    -0.090 SA
BRANCH   9  10
HETATM   10  C3  UNL     1      -1.374 -22.030 -37.421  1.00  0.00     0.109 C 
BRANCH  10  11
HETATM   11  C4  UNL     1      -0.352 -23.088 -37.756  1.00  0.00     0.240 C 
BRANCH  11  12
HETATM   12  N4  UNL     1      -0.950 -24.400 -37.833  1.00  0.00    -0.079 N 
ATOM     13  H43 UNL     1      -1.242 -24.730 -36.913  1.00  0.00     0.274 HD
ATOM     14  H42 UNL     1      -1.863 -24.367 -38.287  1.00  0.00     0.274 HD
ATOM     15  H41 UNL     1      -0.331 -25.069 -38.289  1.00  0.00     0.274 HD
ENDBRANCH  11  12
ENDBRANCH  10  11
ENDBRANCH   9  10
ENDBRANCH   6   9
BRANCH   1  16
HETATM   16  N1  UNL     1      -3.591 -17.067 -34.079  1.00  0.00    -0.233 N 
ATOM     17  H12 UNL     1      -4.323 -16.391 -34.296  1.00  0.00     0.174 HD
ATOM     18  H11 UNL     1      -3.125 -16.709 -33.245  1.00  0.00     0.174 HD
ENDBRANCH   1  16
TORSDOF 5
ENDMDL
MODEL 2
REMARK VINA RESULT: -4.347885632      1.706      5.471
REMARK  5 active torsions:
REMARK  status: ('A' for Active; 'I' for Inactive)
REMARK    1  A    between atoms: N1_1  and  C1_4 
REMARK    2  A    between atoms: C2_9  and  S1_10 
REMARK    3  A    between atoms: S1_10  and  C3_11 
REMARK    4  A    between atoms: C3_11  and  C4_12 
REMARK    5  A    between atoms: C4_12  and  N4_13 
ROOT
HETATM    1  C1  UNL     1      -0.471 -22.789 -37.567  1.00  0.00     0.692 A 
HETATM    2  N2  UNL     1      -1.738 -22.561 -37.957  1.00  0.00    -0.130 N 
ATOM      3  H2  UNL     1      -2.243 -23.087 -38.670  1.00  0.00     0.205 HD
HETATM    4  N3  UNL     1      -2.227 -21.536 -37.261  1.00  0.00    -0.265 N 
ATOM      5  H3  UNL     1      -3.169 -21.153 -37.357  1.00  0.00     0.189 HD
HETATM    6  C2  UNL     1      -1.290 -21.084 -36.412  1.00  0.00     0.174 A 
HETATM    7  N5  UNL     1      -0.214 -21.874 -36.620  1.00  0.00    -0.168 N 
ATOM      8  H5  UNL     1       0.674 -21.786 -36.124  1.00  0.00     0.186 HD
ENDROOT
BRANCH   6   9
HETATM    9  S1  UNL     1      -1.466 -19.726 -35.267  1.00  0.00    -0.090 SA
BRANCH   9  10
HETATM   10  C3  UNL     1      -3.180 -19.185 -35.139  1.00  0.00     0.109 C 
BRANCH  10  11
HETATM   11  C4  UNL     1      -3.305 -17.753 -34.680  1.00  0.00     0.240 C 
BRANCH  11  12
HETATM   12  N4  UNL     1      -4.037 -16.951 -35.632  1.00  0.00    -0.079 N 
ATOM     13  H43 UNL     1      -3.482 -16.767 -36.467  1.00  0.00     0.274 HD
ATOM     14  H42 UNL     1      -4.797 -17.481 -36.060  1.00  0.00     0.274 HD
ATOM     15  H41 UNL     1      -4.377 -16.086 -35.213  1.00  0.00     0.274 HD
ENDBRANCH  11  12
ENDBRANCH  10  11
ENDBRANCH   9  10
ENDBRANCH   6   9
BRANCH   1  16
HETATM   16  N1  UNL     1       0.287 -23.709 -38.042  1.00  0.00    -0.233 N 
ATOM     17  H12 UNL     1       0.036 -24.588 -38.495  1.00  0.00     0.174 HD
ATOM     18  H11 UNL     1       1.307 -23.686 -38.033  1.00  0.00     0.174 HD
ENDBRANCH   1  16
TORSDOF 5
ENDMDL
MODEL 3
REMARK VINA RESULT: -4.306776046      1.844      5.401
REMARK  5 active torsions:
REMARK  status: ('A' for Active; 'I' for Inactive)
REMARK    1  A    between atoms: N1_1  and  C1_4 
REMARK    2  A    between atoms: C2_9  and  S1_10 
REMARK    3  A    between atoms: S1_10  and  C3_11 
REMARK    4  A    between atoms: C3_11  and  C4_12 
REMARK    5  A    between atoms: C4_12  and  N4_13 
ROOT
HETATM    1  C1  UNL     1      -0.752 -22.887 -37.379  1.00  0.00     0.692 A 
HETATM    2  N2  UNL     1       0.325 -22.968 -36.578  1.00  0.00    -0.130 N 
ATOM      3  H2  UNL     1       0.972 -23.756 -36.534  1.00  0.00     0.205 HD
HETATM    4  N3  UNL     1       0.411 -21.854 -35.853  1.00  0.00    -0.265 N 
ATOM      5  H3  UNL     1       1.136 -21.654 -35.164  1.00  0.00     0.189 HD
HETATM    6  C2  UNL     1      -0.606 -21.036 -36.170  1.00  0.00     0.174 A 
HETATM    7  N5  UNL     1      -1.310 -21.695 -37.114  1.00  0.00    -0.168 N 
ATOM      8  H5  UNL     1      -2.152 -21.336 -37.566  1.00  0.00     0.186 HD
ENDROOT
BRANCH   6   9
HETATM    9  S1  UNL     1      -0.924 -19.425 -35.469  1.00  0.00    -0.090 SA
BRANCH   9  10
HETATM   10  C3  UNL     1      -2.416 -19.425 -34.457  1.00  0.00     0.109 C 
BRANCH  10  11
HETATM   11  C4  UNL     1      -3.300 -18.233 -34.727  1.00  0.00     0.240 C 
BRANCH  11  12
HETATM   12  N4  UNL     1      -4.455 -18.594 -35.514  1.00  0.00    -0.079 N 
ATOM     13  H43 UNL     1      -4.214 -18.706 -36.498  1.00  0.00     0.274 HD
ATOM     14  H42 UNL     1      -4.759 -19.547 -35.314  1.00  0.00     0.274 HD
ATOM     15  H41 UNL     1      -5.217 -17.927 -35.391  1.00  0.00     0.274 HD
ENDBRANCH  11  12
ENDBRANCH  10  11
ENDBRANCH   9  10
ENDBRANCH   6   9
BRANCH   1  16
HETATM   16  N1  UNL     1      -1.121 -23.796 -38.206  1.00  0.00    -0.233 N 
ATOM     17  H12 UNL     1      -0.725 -24.721 -38.373  1.00  0.00     0.174 HD
ATOM     18  H11 UNL     1      -1.908 -23.713 -38.850  1.00  0.00     0.174 HD
ENDBRANCH   1  16
TORSDOF 5
ENDMDL
MODEL 4
REMARK VINA RESULT: -4.053619073      1.577      1.577
REMARK  5 active torsions:
REMARK  status: ('A' for Active; 'I' for Inactive)
REMARK    1  A    between atoms: N1_1  and  C1_4 
REMARK    2  A    between atoms: C2_9  and  S1_10 
REMARK    3  A    between atoms: S1_10  and  C3_11 
REMARK    4  A    between atoms: C3_11  and  C4_12 
REMARK    5  A    between atoms: C4_12  and  N4_13 
ROOT
HETATM    1  C1  UNL     1      -3.411 -18.376 -34.840  1.00  0.00     0.692 A 
HETATM    2  N2  UNL     1      -4.452 -19.018 -35.400  1.00  0.00    -0.130 N 
ATOM      3  H2  UNL     1      -5.430 -18.737 -35.328  1.00  0.00     0.205 HD
HETATM    4  N3  UNL     1      -3.999 -20.080 -36.065  1.00  0.00    -0.265 N 
ATOM      5  H3  UNL     1      -4.578 -20.742 -36.584  1.00  0.00     0.189 HD
HETATM    6  C2  UNL     1      -2.664 -20.144 -35.947  1.00  0.00     0.174 A 
HETATM    7  N5  UNL     1      -2.323 -19.082 -35.186  1.00  0.00    -0.168 N 
ATOM      8  H5  UNL     1      -1.368 -18.847 -34.912  1.00  0.00     0.186 HD
ENDROOT
BRANCH   6   9
HETATM    9  S1  UNL     1      -1.597 -21.387 -36.660  1.00  0.00    -0.090 SA
BRANCH   9  10
HETATM   10  C3  UNL     1       0.057 -21.331 -35.945  1.00  0.00     0.109 C 
BRANCH  10  11
HETATM   11  C4  UNL     1       0.851 -22.583 -36.220  1.00  0.00     0.240 C 
BRANCH  11  12
HETATM   12  N4  UNL     1       1.155 -23.298 -35.003  1.00  0.00    -0.079 N 
ATOM     13  H43 UNL     1       2.095 -23.083 -34.670  1.00  0.00     0.274 HD
ATOM     14  H42 UNL     1       0.620 -22.935 -34.213  1.00  0.00     0.274 HD
ATOM     15  H41 UNL     1       1.020 -24.303 -35.113  1.00  0.00     0.274 HD
ENDBRANCH  11  12
ENDBRANCH  10  11
ENDBRANCH   9  10
ENDBRANCH   6   9
BRANCH   1  16
HETATM   16  N1  UNL     1      -3.503 -17.312 -34.130  1.00  0.00    -0.233 N 
ATOM     17  H12 UNL     1      -4.286 -16.966 -33.576  1.00  0.00     0.174 HD
ATOM     18  H11 UNL     1      -2.760 -16.622 -34.016  1.00  0.00     0.174 HD
ENDBRANCH   1  16
TORSDOF 5
ENDMDL
MODEL 5
REMARK VINA RESULT: -3.977612259      0.969      1.575
REMARK  5 active torsions:
REMARK  status: ('A' for Active; 'I' for Inactive)
REMARK    1  A    between atoms: N1_1  and  C1_4 
REMARK    2  A    between atoms: C2_9  and  S1_10 
REMARK    3  A    between atoms: S1_10  and  C3_11 
REMARK    4  A    between atoms: C3_11  and  C4_12 
REMARK    5  A    between atoms: C4_12  and  N4_13 
ROOT
HETATM    1  C1  UNL     1      -3.359 -19.176 -35.396  1.00  0.00     0.692 A 
HETATM    2  N2  UNL     1      -2.397 -18.422 -34.834  1.00  0.00    -0.130 N 
ATOM      3  H2  UNL     1      -2.540 -17.516 -34.386  1.00  0.00     0.205 HD
HETATM    4  N3  UNL     1      -1.228 -19.048 -34.956  1.00  0.00    -0.265 N 
ATOM      5  H3  UNL     1      -0.333 -18.698 -34.615  1.00  0.00     0.189 HD
HETATM    6  C2  UNL     1      -1.412 -20.214 -35.596  1.00  0.00     0.174 A 
HETATM    7  N5  UNL     1      -2.735 -20.271 -35.858  1.00  0.00    -0.168 N 
ATOM      8  H5  UNL     1      -3.198 -21.041 -36.341  1.00  0.00     0.186 HD
ENDROOT
BRANCH   6   9
HETATM    9  S1  UNL     1      -0.148 -21.410 -35.998  1.00  0.00    -0.090 SA
BRANCH   9  10
HETATM   10  C3  UNL     1      -0.593 -22.382 -37.450  1.00  0.00     0.109 C 
BRANCH  10  11
HETATM   11  C4  UNL     1       0.019 -23.760 -37.435  1.00  0.00     0.240 C 
BRANCH  11  12
HETATM   12  N4  UNL     1      -0.944 -24.774 -37.795  1.00  0.00    -0.079 N 
ATOM     13  H43 UNL     1      -0.547 -25.710 -37.714  1.00  0.00     0.274 HD
ATOM     14  H42 UNL     1      -1.682 -24.853 -37.095  1.00  0.00     0.274 HD
ATOM     15  H41 UNL     1      -1.329 -24.613 -38.726  1.00  0.00     0.274 HD
ENDBRANCH  11  12
ENDBRANCH  10  11
ENDBRANCH   9  10
ENDBRANCH   6   9
BRANCH   1  16
HETATM   16  N1  UNL     1      -4.601 -18.859 -35.449  1.00  0.00    -0.233 N 
ATOM     17  H12 UNL     1      -5.057 -17.976 -35.217  1.00  0.00     0.174 HD
ATOM     18  H11 UNL     1      -5.349 -19.484 -35.748  1.00  0.00     0.174 HD
ENDBRANCH   1  16
TORSDOF 5
ENDMDL
