MODEL 1
REMARK VINA RESULT: -5.830747240      0.000      0.000
REMARK  9 active torsions:
REMARK  status: ('A' for Active; 'I' for Inactive)
REMARK    1  A    between atoms: C2_2  and  C3_3 
REMARK    2  A    between atoms: C3_3  and  C4_4 
REMARK    3  A    between atoms: C4_4  and  C5_5 
REMARK    4  A    between atoms: C5_5  and  C6_6 
REMARK    5  A    between atoms: C7_7  and  C8_8 
REMARK    6  A    between atoms: C9_9  and  C10_10 
REMARK    7  A    between atoms: C10_10  and  O1_11 
REMARK    8  A    between atoms: C15_20  and  C16_21 
REMARK    9  A    between atoms: C16_21  and  O5_22 
ROOT
HETATM    1  C10 UNL     1      -5.472  36.144   5.330  1.00  0.00     0.197 C 
HETATM    2  C11 UNL     1      -5.473  37.342   6.220  1.00  0.00     0.241 C 
HETATM    3  O2  UNL     1      -6.597  37.597   6.775  1.00  0.00    -0.285 OA
HETATM    4  C12 UNL     1      -4.304  38.167   6.453  1.00  0.00     0.201 C 
HETATM    5  O3  UNL     1      -4.314  39.015   7.359  1.00  0.00    -0.289 OA
HETATM    6  C13 UNL     1      -3.117  37.974   5.595  1.00  0.00     0.119 C 
HETATM    7  C14 UNL     1      -3.079  36.540   5.187  1.00  0.00     0.138 C 
HETATM    8  O4  UNL     1      -2.103  36.213   4.281  1.00  0.00    -0.377 OA
HETATM    9  C15 UNL     1      -2.493  34.936   3.880  1.00  0.00     0.149 C 
HETATM   10  C17 UNL     1      -3.979  35.032   3.636  1.00  0.00     0.023 C 
HETATM   11  C18 UNL     1      -4.244  35.287   2.147  1.00  0.00     0.013 C 
HETATM   12  C19 UNL     1      -4.349  36.286   4.363  1.00  0.00     0.076 C 
ENDROOT
BRANCH   1  13
HETATM   13  C9  UNL     1      -5.366  34.908   6.106  1.00  0.00    -0.045 C 
HETATM   14  C8  UNL     1      -5.264  33.886   6.766  1.00  0.00    -0.011 C 
BRANCH  14  15
HETATM   15  C7  UNL     1      -5.131  32.714   7.547  1.00  0.00    -0.015 C 
HETATM   16  C6  UNL     1      -5.005  31.725   8.226  1.00  0.00    -0.092 C 
BRANCH  16  17
HETATM   17  C5  UNL     1      -4.849  30.522   9.084  1.00  0.00     0.095 C 
BRANCH  17  18
HETATM   18  C4  UNL     1      -4.866  30.953  10.533  1.00  0.00     0.012 C 
BRANCH  18  19
HETATM   19  C3  UNL     1      -3.616  31.630  10.980  1.00  0.00     0.000 C 
BRANCH  19  20
HETATM   20  C2  UNL     1      -3.837  33.127  10.957  1.00  0.00    -0.005 C 
HETATM   21  C1  UNL     1      -2.667  33.770  10.238  1.00  0.00     0.005 C 
ENDBRANCH  19  20
ENDBRANCH  18  19
ENDBRANCH  17  18
ENDBRANCH  16  17
ENDBRANCH  14  15
ENDBRANCH   1  13
BRANCH   1  22
HETATM   22  O1  UNL     1      -6.694  36.133   4.645  1.00  0.00    -0.370 OA
ATOM     23  H1  UNL     1      -6.583  36.599   3.825  1.00  0.00     0.212 HD
ENDBRANCH   1  22
BRANCH   9  24
HETATM   24  C16 UNL     1      -1.735  34.479   2.656  1.00  0.00     0.196 C 
BRANCH  24  25
HETATM   25  O5  UNL     1      -1.178  33.226   2.986  1.00  0.00    -0.398 OA
ATOM     26  H5  UNL     1      -0.259  33.386   3.165  1.00  0.00     0.209 HD
ENDBRANCH  24  25
ENDBRANCH   9  24
TORSDOF 9
ENDMDL
MODEL 2
REMARK VINA RESULT: -5.685200105      1.512      2.102
REMARK  9 active torsions:
REMARK  status: ('A' for Active; 'I' for Inactive)
REMARK    1  A    between atoms: C2_2  and  C3_3 
REMARK    2  A    between atoms: C3_3  and  C4_4 
REMARK    3  A    between atoms: C4_4  and  C5_5 
REMARK    4  A    between atoms: C5_5  and  C6_6 
REMARK    5  A    between atoms: C7_7  and  C8_8 
REMARK    6  A    between atoms: C9_9  and  C10_10 
REMARK    7  A    between atoms: C10_10  and  O1_11 
REMARK    8  A    between atoms: C15_20  and  C16_21 
REMARK    9  A    between atoms: C16_21  and  O5_22 
ROOT
HETATM    1  C10 UNL     1      -5.180  37.064   5.693  1.00  0.00     0.197 C 
HETATM    2  C11 UNL     1      -4.058  37.771   6.378  1.00  0.00     0.241 C 
HETATM    3  O2  UNL     1      -4.331  38.202   7.550  1.00  0.00    -0.285 OA
HETATM    4  C12 UNL     1      -2.752  37.965   5.780  1.00  0.00     0.201 C 
HETATM    5  O3  UNL     1      -1.806  38.368   6.475  1.00  0.00    -0.289 OA
HETATM    6  C13 UNL     1      -2.578  37.674   4.342  1.00  0.00     0.119 C 
HETATM    7  C14 UNL     1      -3.524  36.578   3.983  1.00  0.00     0.138 C 
HETATM    8  O4  UNL     1      -3.582  36.267   2.649  1.00  0.00    -0.377 OA
HETATM    9  C15 UNL     1      -4.718  35.460   2.587  1.00  0.00     0.149 C 
HETATM   10  C17 UNL     1      -5.760  36.176   3.411  1.00  0.00     0.023 C 
HETATM   11  C18 UNL     1      -6.647  37.029   2.495  1.00  0.00     0.013 C 
HETATM   12  C19 UNL     1      -4.939  37.124   4.225  1.00  0.00     0.076 C 
ENDROOT
BRANCH   1  13
HETATM   13  C9  UNL     1      -5.306  35.686   6.167  1.00  0.00    -0.045 C 
HETATM   14  C8  UNL     1      -5.392  34.537   6.570  1.00  0.00    -0.011 C 
BRANCH  14  15
HETATM   15  C7  UNL     1      -5.470  33.209   7.050  1.00  0.00    -0.015 C 
HETATM   16  C6  UNL     1      -5.523  32.081   7.475  1.00  0.00    -0.092 C 
BRANCH  16  17
HETATM   17  C5  UNL     1      -5.582  30.701   8.021  1.00  0.00     0.095 C 
BRANCH  17  18
HETATM   18  C4  UNL     1      -4.559  30.572   9.126  1.00  0.00     0.012 C 
BRANCH  18  19
HETATM   19  C3  UNL     1      -4.925  31.289  10.380  1.00  0.00     0.000 C 
BRANCH  19  20
HETATM   20  C2  UNL     1      -3.757  32.151  10.808  1.00  0.00    -0.005 C 
HETATM   21  C1  UNL     1      -4.152  33.605  10.642  1.00  0.00     0.005 C 
ENDBRANCH  19  20
ENDBRANCH  18  19
ENDBRANCH  17  18
ENDBRANCH  16  17
ENDBRANCH  14  15
ENDBRANCH   1  13
BRANCH   1  22
HETATM   22  O1  UNL     1      -6.360  37.751   6.011  1.00  0.00    -0.370 OA
ATOM     23  H1  UNL     1      -6.158  38.406   6.669  1.00  0.00     0.212 HD
ENDBRANCH   1  22
BRANCH   9  24
HETATM   24  C16 UNL     1      -5.164  35.232   1.161  1.00  0.00     0.196 C 
BRANCH  24  25
HETATM   25  O5  UNL     1      -5.783  33.965   1.144  1.00  0.00    -0.398 OA
ATOM     26  H5  UNL     1      -6.488  34.008   1.779  1.00  0.00     0.209 HD
ENDBRANCH  24  25
ENDBRANCH   9  24
TORSDOF 9
ENDMDL
MODEL 3
REMARK VINA RESULT: -5.662780923      1.415      4.173
REMARK  9 active torsions:
REMARK  status: ('A' for Active; 'I' for Inactive)
REMARK    1  A    between atoms: C2_2  and  C3_3 
REMARK    2  A    between atoms: C3_3  and  C4_4 
REMARK    3  A    between atoms: C4_4  and  C5_5 
REMARK    4  A    between atoms: C5_5  and  C6_6 
REMARK    5  A    between atoms: C7_7  and  C8_8 
REMARK    6  A    between atoms: C9_9  and  C10_10 
REMARK    7  A    between atoms: C10_10  and  O1_11 
REMARK    8  A    between atoms: C15_20  and  C16_21 
REMARK    9  A    between atoms: C16_21  and  O5_22 
ROOT
HETATM    1  C10 UNL     1      -3.786  35.859   4.926  1.00  0.00     0.197 C 
HETATM    2  C11 UNL     1      -4.384  35.624   3.578  1.00  0.00     0.241 C 
HETATM    3  O2  UNL     1      -3.720  34.830   2.828  1.00  0.00    -0.285 OA
HETATM    4  C12 UNL     1      -5.621  36.236   3.134  1.00  0.00     0.201 C 
HETATM    5  O3  UNL     1      -6.170  35.839   2.095  1.00  0.00    -0.289 OA
HETATM    6  C13 UNL     1      -6.201  37.330   3.939  1.00  0.00     0.119 C 
HETATM    7  C14 UNL     1      -5.836  37.087   5.365  1.00  0.00     0.138 C 
HETATM    8  O4  UNL     1      -6.193  38.081   6.240  1.00  0.00    -0.377 OA
HETATM    9  C15 UNL     1      -5.483  37.728   7.388  1.00  0.00     0.149 C 
HETATM   10  C17 UNL     1      -4.096  37.380   6.906  1.00  0.00     0.023 C 
HETATM   11  C18 UNL     1      -3.179  38.602   7.043  1.00  0.00     0.013 C 
HETATM   12  C19 UNL     1      -4.304  37.156   5.443  1.00  0.00     0.076 C 
ENDROOT
BRANCH   1  13
HETATM   13  C9  UNL     1      -4.083  34.754   5.837  1.00  0.00    -0.045 C 
HETATM   14  C8  UNL     1      -4.311  33.825   6.595  1.00  0.00    -0.011 C 
BRANCH  14  15
HETATM   15  C7  UNL     1      -4.552  32.742   7.473  1.00  0.00    -0.015 C 
HETATM   16  C6  UNL     1      -4.738  31.821   8.230  1.00  0.00    -0.092 C 
BRANCH  16  17
HETATM   17  C5  UNL     1      -4.950  30.698   9.179  1.00  0.00     0.095 C 
BRANCH  17  18
HETATM   18  C4  UNL     1      -4.905  31.239  10.589  1.00  0.00     0.012 C 
BRANCH  18  19
HETATM   19  C3  UNL     1      -3.573  31.768  10.995  1.00  0.00     0.000 C 
BRANCH  19  20
HETATM   20  C2  UNL     1      -3.646  33.279  11.057  1.00  0.00    -0.005 C 
HETATM   21  C1  UNL     1      -2.423  33.843  10.361  1.00  0.00     0.005 C 
ENDBRANCH  19  20
ENDBRANCH  18  19
ENDBRANCH  17  18
ENDBRANCH  16  17
ENDBRANCH  14  15
ENDBRANCH   1  13
BRANCH   1  22
HETATM   22  O1  UNL     1      -2.397  35.933   4.756  1.00  0.00    -0.370 OA
ATOM     23  H1  UNL     1      -2.211  36.558   4.065  1.00  0.00     0.212 HD
ENDBRANCH   1  22
BRANCH   9  24
HETATM   24  C16 UNL     1      -5.478  38.844   8.407  1.00  0.00     0.196 C 
BRANCH  24  25
HETATM   25  O5  UNL     1      -6.711  38.757   9.086  1.00  0.00    -0.398 OA
ATOM     26  H5  UNL     1      -6.545  38.242   9.867  1.00  0.00     0.209 HD
ENDBRANCH  24  25
ENDBRANCH   9  24
TORSDOF 9
ENDMDL
MODEL 4
REMARK VINA RESULT: -5.595417525      3.276      6.786
REMARK  9 active torsions:
REMARK  status: ('A' for Active; 'I' for Inactive)
REMARK    1  A    between atoms: C2_2  and  C3_3 
REMARK    2  A    between atoms: C3_3  and  C4_4 
REMARK    3  A    between atoms: C4_4  and  C5_5 
REMARK    4  A    between atoms: C5_5  and  C6_6 
REMARK    5  A    between atoms: C7_7  and  C8_8 
REMARK    6  A    between atoms: C9_9  and  C10_10 
REMARK    7  A    between atoms: C10_10  and  O1_11 
REMARK    8  A    between atoms: C15_20  and  C16_21 
REMARK    9  A    between atoms: C16_21  and  O5_22 
ROOT
HETATM    1  C10 UNL     1      -4.260  36.225   4.561  1.00  0.00     0.197 C 
HETATM    2  C11 UNL     1      -4.741  37.636   4.623  1.00  0.00     0.241 C 
HETATM    3  O2  UNL     1      -4.460  38.345   3.597  1.00  0.00    -0.285 OA
HETATM    4  C12 UNL     1      -5.473  38.183   5.749  1.00  0.00     0.201 C 
HETATM    5  O3  UNL     1      -6.024  39.290   5.651  1.00  0.00    -0.289 OA
HETATM    6  C13 UNL     1      -5.544  37.399   6.999  1.00  0.00     0.119 C 
HETATM    7  C14 UNL     1      -5.503  35.953   6.631  1.00  0.00     0.138 C 
HETATM    8  O4  UNL     1      -5.435  35.081   7.686  1.00  0.00    -0.377 OA
HETATM    9  C15 UNL     1      -5.116  33.880   7.052  1.00  0.00     0.149 C 
HETATM   10  C17 UNL     1      -4.022  34.226   6.072  1.00  0.00     0.023 C 
HETATM   11  C18 UNL     1      -2.653  33.943   6.703  1.00  0.00     0.013 C 
HETATM   12  C19 UNL     1      -4.146  35.711   5.954  1.00  0.00     0.076 C 
ENDROOT
BRANCH   1  13
HETATM   13  C9  UNL     1      -5.151  35.397   3.749  1.00  0.00    -0.045 C 
HETATM   14  C8  UNL     1      -5.879  34.695   3.065  1.00  0.00    -0.011 C 
BRANCH  14  15
HETATM   15  C7  UNL     1      -6.702  33.867   2.267  1.00  0.00    -0.015 C 
HETATM   16  C6  UNL     1      -7.388  33.151   1.578  1.00  0.00    -0.092 C 
BRANCH  16  17
HETATM   17  C5  UNL     1      -8.213  32.251   0.733  1.00  0.00     0.095 C 
BRANCH  17  18
HETATM   18  C4  UNL     1      -8.101  32.700  -0.707  1.00  0.00     0.012 C 
BRANCH  18  19
HETATM   19  C3  UNL     1      -6.702  32.779  -1.211  1.00  0.00     0.000 C 
BRANCH  19  20
HETATM   20  C2  UNL     1      -6.698  33.537  -2.521  1.00  0.00    -0.005 C 
HETATM   21  C1  UNL     1      -8.077  33.427  -3.139  1.00  0.00     0.005 C 
ENDBRANCH  19  20
ENDBRANCH  18  19
ENDBRANCH  17  18
ENDBRANCH  16  17
ENDBRANCH  14  15
ENDBRANCH   1  13
BRANCH   1  22
HETATM   22  O1  UNL     1      -2.996  36.243   3.955  1.00  0.00    -0.370 OA
ATOM     23  H1  UNL     1      -2.775  37.143   3.747  1.00  0.00     0.212 HD
ENDBRANCH   1  22
BRANCH   9  24
HETATM   24  C16 UNL     1      -4.692  32.821   8.042  1.00  0.00     0.196 C 
BRANCH  24  25
HETATM   25  O5  UNL     1      -5.458  31.676   7.742  1.00  0.00    -0.398 OA
ATOM     26  H5  UNL     1      -4.858  31.052   7.352  1.00  0.00     0.209 HD
ENDBRANCH  24  25
ENDBRANCH   9  24
TORSDOF 9
ENDMDL
MODEL 5
REMARK VINA RESULT: -5.557489345      2.092      3.172
REMARK  9 active torsions:
REMARK  status: ('A' for Active; 'I' for Inactive)
REMARK    1  A    between atoms: C2_2  and  C3_3 
REMARK    2  A    between atoms: C3_3  and  C4_4 
REMARK    3  A    between atoms: C4_4  and  C5_5 
REMARK    4  A    between atoms: C5_5  and  C6_6 
REMARK    5  A    between atoms: C7_7  and  C8_8 
REMARK    6  A    between atoms: C9_9  and  C10_10 
REMARK    7  A    between atoms: C10_10  and  O1_11 
REMARK    8  A    between atoms: C15_20  and  C16_21 
REMARK    9  A    between atoms: C16_21  and  O5_22 
ROOT
HETATM    1  C10 UNL     1      -5.021  36.839   4.023  1.00  0.00     0.197 C 
HETATM    2  C11 UNL     1      -3.648  37.385   4.230  1.00  0.00     0.241 C 
HETATM    3  O2  UNL     1      -3.504  38.089   5.288  1.00  0.00    -0.285 OA
HETATM    4  C12 UNL     1      -2.547  37.148   3.317  1.00  0.00     0.201 C 
HETATM    5  O3  UNL     1      -1.390  37.449   3.651  1.00  0.00    -0.289 OA
HETATM    6  C13 UNL     1      -2.834  36.549   1.998  1.00  0.00     0.119 C 
HETATM    7  C14 UNL     1      -4.018  35.655   2.154  1.00  0.00     0.138 C 
HETATM    8  O4  UNL     1      -4.498  35.109   0.991  1.00  0.00    -0.377 OA
HETATM    9  C15 UNL     1      -5.729  34.593   1.398  1.00  0.00     0.149 C 
HETATM   10  C17 UNL     1      -6.359  35.680   2.234  1.00  0.00     0.023 C 
HETATM   11  C18 UNL     1      -7.304  36.520   1.365  1.00  0.00     0.013 C 
HETATM   12  C19 UNL     1      -5.192  36.551   2.572  1.00  0.00     0.076 C 
ENDROOT
BRANCH   1  13
HETATM   13  C9  UNL     1      -5.247  35.649   4.842  1.00  0.00    -0.045 C 
HETATM   14  C8  UNL     1      -5.416  34.650   5.524  1.00  0.00    -0.011 C 
BRANCH  14  15
HETATM   15  C7  UNL     1      -5.587  33.488   6.312  1.00  0.00    -0.015 C 
HETATM   16  C6  UNL     1      -5.719  32.487   6.973  1.00  0.00    -0.092 C 
BRANCH  16  17
HETATM   17  C5  UNL     1      -5.857  31.248   7.780  1.00  0.00     0.095 C 
BRANCH  17  18
HETATM   18  C4  UNL     1      -4.650  31.119   8.681  1.00  0.00     0.012 C 
BRANCH  18  19
HETATM   19  C3  UNL     1      -4.985  30.919  10.119  1.00  0.00     0.000 C 
BRANCH  19  20
HETATM   20  C2  UNL     1      -3.950  31.630  10.964  1.00  0.00    -0.005 C 
HETATM   21  C1  UNL     1      -3.886  33.078  10.520  1.00  0.00     0.005 C 
ENDBRANCH  19  20
ENDBRANCH  18  19
ENDBRANCH  17  18
ENDBRANCH  16  17
ENDBRANCH  14  15
ENDBRANCH   1  13
BRANCH   1  22
HETATM   22  O1  UNL     1      -5.928  37.831   4.423  1.00  0.00    -0.370 OA
ATOM     23  H1  UNL     1      -5.780  38.605   3.891  1.00  0.00     0.212 HD
ENDBRANCH   1  22
BRANCH   9  24
HETATM   24  C16 UNL     1      -6.587  34.201   0.218  1.00  0.00     0.196 C 
BRANCH  24  25
HETATM   25  O5  UNL     1      -7.008  32.878   0.464  1.00  0.00    -0.398 OA
ATOM     26  H5  UNL     1      -6.626  32.348  -0.226  1.00  0.00     0.209 HD
ENDBRANCH  24  25
ENDBRANCH   9  24
TORSDOF 9
ENDMDL
