MODEL 1
REMARK VINA RESULT: -5.370857216      0.000      0.000
REMARK  11 active torsions:
REMARK  status: ('A' for Active; 'I' for Inactive)
REMARK    1  A    between atoms: O1_2  and  C2_3 
REMARK    2  A    between atoms: C2_3  and  C3_4 
REMARK    3  A    between atoms: C3_4  and  N1_5 
REMARK    4  A    between atoms: C3_4  and  C28_51 
REMARK    5  A    between atoms: N1_5  and  C4_7 
REMARK    6  A    between atoms: C6_9  and  C7_10 
REMARK    7  A    between atoms: C10_14  and  N2_15 
REMARK    8  A    between atoms: N2_15  and  C11_17 
REMARK    9  A    between atoms: C17_26  and  C18_27 
REMARK   10  A    between atoms: C20_33  and  C21_34 
REMARK   11  A    between atoms: C23_40  and  C24_41 
ROOT
HETATM    1  C7  UNL     1      -9.796  12.617  47.139  1.00  0.00     0.026 A 
HETATM    2  C8  UNL     1      -8.957  11.550  46.892  1.00  0.00     0.130 A 
HETATM    3  F1  UNL     1      -9.374  10.596  46.011  1.00  0.00    -0.205 F 
HETATM    4  C9  UNL     1      -7.730  11.460  47.524  1.00  0.00     0.072 A 
HETATM    5  C10 UNL     1      -7.291  12.415  48.418  1.00  0.00     0.032 A 
HETATM    6  C16 UNL     1      -8.120  13.478  48.668  1.00  0.00     0.044 A 
HETATM    7  C17 UNL     1      -9.364  13.575  48.030  1.00  0.00     0.010 A 
ENDROOT
BRANCH   7   8
HETATM    8  C18 UNL     1     -10.241  14.695  48.290  1.00  0.00     0.086 A 
HETATM    9  N4  UNL     1     -11.233  14.667  49.186  1.00  0.00    -0.349 N 
HETATM   10  C19 UNL     1     -12.008  15.747  49.375  1.00  0.00     0.181 A 
ATOM     11  H4  UNL     1     -11.402  13.820  49.729  1.00  0.00     0.166 HD
HETATM   12  N5  UNL     1     -11.818  16.875  48.680  1.00  0.00    -0.348 N 
HETATM   13  C20 UNL     1     -10.847  16.994  47.760  1.00  0.00     0.103 A 
ATOM     14  H5  UNL     1     -12.432  17.671  48.855  1.00  0.00     0.167 HD
HETATM   15  C25 UNL     1     -10.045  15.858  47.573  1.00  0.00     0.172 A 
HETATM   16  F5  UNL     1      -9.049  15.954  46.641  1.00  0.00    -0.201 F 
BRANCH  13  17
HETATM   17  C21 UNL     1     -10.588  18.174  46.980  1.00  0.00     0.095 A 
HETATM   18  N6  UNL     1      -9.543  19.028  47.176  1.00  0.00    -0.349 N 
HETATM   19  C22 UNL     1      -9.605  20.007  46.284  1.00  0.00     0.181 A 
ATOM     20  H6  UNL     1      -8.826  18.930  47.895  1.00  0.00     0.167 HD
HETATM   21  N7  UNL     1     -10.666  19.837  45.491  1.00  0.00    -0.347 N 
HETATM   22  C23 UNL     1     -11.279  18.698  45.921  1.00  0.00     0.146 A 
ATOM     23  H7  UNL     1     -10.959  20.437  44.720  1.00  0.00     0.166 HD
BRANCH  22  24
HETATM   24  C24 UNL     1     -12.525  18.140  45.295  1.00  0.00     0.434 C 
HETATM   25  F2  UNL     1     -12.303  16.784  44.995  1.00  0.00    -0.165 F 
HETATM   26  F3  UNL     1     -13.593  18.137  46.179  1.00  0.00    -0.165 F 
HETATM   27  F4  UNL     1     -12.812  18.726  44.090  1.00  0.00    -0.165 F 
ENDBRANCH  22  24
ENDBRANCH  13  17
ENDBRANCH   7   8
BRANCH   1  28
HETATM   28  C6  UNL     1     -11.099  12.748  46.494  1.00  0.00    -0.017 A 
HETATM   29  C5  UNL     1     -11.241  13.301  45.243  1.00  0.00     0.060 A 
HETATM   30  C4  UNL     1     -12.515  13.406  44.650  1.00  0.00     0.102 A 
HETATM   31  N8  UNL     1     -13.620  12.975  45.278  1.00  0.00    -0.353 N 
HETATM   32  C27 UNL     1     -13.494  12.432  46.502  1.00  0.00     0.090 A 
ATOM     33  H8  UNL     1     -14.536  13.057  44.837  1.00  0.00     0.166 HD
HETATM   34  C26 UNL     1     -12.262  12.320  47.098  1.00  0.00     0.029 A 
BRANCH  30  35
HETATM   35  N1  UNL     1     -12.558  13.931  43.497  1.00  0.00    -0.369 N 
ATOM     36  H1  UNL     1     -13.493  14.152  43.151  1.00  0.00     0.161 HD
BRANCH  35  37
HETATM   37  C3  UNL     1     -11.494  14.255  42.622  1.00  0.00     0.110 C 
BRANCH  37  38
HETATM   38  C2  UNL     1     -11.446  13.198  41.538  1.00  0.00     0.192 C 
BRANCH  38  39
HETATM   39  O1  UNL     1     -10.491  12.239  41.751  1.00  0.00    -0.394 OA
HETATM   40  C1  UNL     1     -10.483  11.245  40.800  1.00  0.00     0.201 C 
ENDBRANCH  38  39
ENDBRANCH  37  38
BRANCH  37  41
HETATM   41  C28 UNL     1     -11.709  15.593  41.912  1.00  0.00     0.002 C 
HETATM   42  C29 UNL     1     -13.178  15.958  41.896  1.00  0.00     0.011 C 
HETATM   43  C30 UNL     1     -11.251  15.469  40.473  1.00  0.00     0.011 C 
ENDBRANCH  37  41
ENDBRANCH  35  37
ENDBRANCH  30  35
ENDBRANCH   1  28
BRANCH   5  44
HETATM   44  N2  UNL     1      -6.003  12.248  49.041  1.00  0.00    -0.385 N 
ATOM     45  H2  UNL     1      -5.250  12.884  48.782  1.00  0.00     0.160 HD
BRANCH  44  46
HETATM   46  C11 UNL     1      -5.735  11.224  50.011  1.00  0.00     0.085 C 
HETATM   47  C12 UNL     1      -4.449  10.525  49.641  1.00  0.00     0.052 C 
HETATM   48  C13 UNL     1      -3.298  11.513  49.704  1.00  0.00     0.234 C 
HETATM   49  N3  UNL     1      -3.031  11.781  51.099  1.00  0.00    -0.075 N 
HETATM   50  C14 UNL     1      -4.144  11.460  51.945  1.00  0.00     0.234 C 
ATOM     51  H32 UNL     1      -2.185  11.302  51.409  1.00  0.00     0.277 HD
ATOM     52  H31 UNL     1      -2.732  12.747  51.236  1.00  0.00     0.277 HD
HETATM   53  C15 UNL     1      -5.484  11.867  51.371  1.00  0.00     0.052 C 
ENDBRANCH  44  46
ENDBRANCH   5  44
TORSDOF 11
ENDMDL
MODEL 2
REMARK VINA RESULT: -5.340186727      0.924      1.651
REMARK  11 active torsions:
REMARK  status: ('A' for Active; 'I' for Inactive)
REMARK    1  A    between atoms: O1_2  and  C2_3 
REMARK    2  A    between atoms: C2_3  and  C3_4 
REMARK    3  A    between atoms: C3_4  and  N1_5 
REMARK    4  A    between atoms: C3_4  and  C28_51 
REMARK    5  A    between atoms: N1_5  and  C4_7 
REMARK    6  A    between atoms: C6_9  and  C7_10 
REMARK    7  A    between atoms: C10_14  and  N2_15 
REMARK    8  A    between atoms: N2_15  and  C11_17 
REMARK    9  A    between atoms: C17_26  and  C18_27 
REMARK   10  A    between atoms: C20_33  and  C21_34 
REMARK   11  A    between atoms: C23_40  and  C24_41 
ROOT
HETATM    1  C7  UNL     1      -9.808  12.737  47.066  1.00  0.00     0.026 A 
HETATM    2  C8  UNL     1      -8.953  11.672  46.864  1.00  0.00     0.130 A 
HETATM    3  F1  UNL     1      -9.329  10.708  45.976  1.00  0.00    -0.205 F 
HETATM    4  C9  UNL     1      -7.752  11.596  47.546  1.00  0.00     0.072 A 
HETATM    5  C10 UNL     1      -7.356  12.562  48.448  1.00  0.00     0.032 A 
HETATM    6  C16 UNL     1      -8.201  13.622  48.654  1.00  0.00     0.044 A 
HETATM    7  C17 UNL     1      -9.418  13.705  47.965  1.00  0.00     0.010 A 
ENDROOT
BRANCH   7   8
HETATM    8  C18 UNL     1     -10.312  14.822  48.179  1.00  0.00     0.086 A 
HETATM    9  N4  UNL     1     -11.361  14.783  49.006  1.00  0.00    -0.349 N 
HETATM   10  C19 UNL     1     -12.149  15.861  49.156  1.00  0.00     0.181 A 
ATOM     11  H4  UNL     1     -11.565  13.930  49.527  1.00  0.00     0.166 HD
HETATM   12  N5  UNL     1     -11.914  16.997  48.488  1.00  0.00    -0.348 N 
HETATM   13  C20 UNL     1     -10.883  17.126  47.637  1.00  0.00     0.103 A 
ATOM     14  H5  UNL     1     -12.538  17.791  48.630  1.00  0.00     0.167 HD
HETATM   15  C25 UNL     1     -10.069  15.993  47.490  1.00  0.00     0.172 A 
HETATM   16  F5  UNL     1      -9.013  16.100  46.628  1.00  0.00    -0.201 F 
BRANCH  13  17
HETATM   17  C21 UNL     1     -10.575  18.316  46.889  1.00  0.00     0.095 A 
HETATM   18  N6  UNL     1      -9.491  19.116  47.104  1.00  0.00    -0.349 N 
HETATM   19  C22 UNL     1      -9.512  20.121  46.240  1.00  0.00     0.181 A 
ATOM     20  H6  UNL     1      -8.777  18.965  47.816  1.00  0.00     0.167 HD
HETATM   21  N7  UNL     1     -10.583  20.022  45.447  1.00  0.00    -0.347 N 
HETATM   22  C23 UNL     1     -11.245  18.900  45.848  1.00  0.00     0.146 A 
ATOM     23  H7  UNL     1     -10.850  20.656  44.695  1.00  0.00     0.166 HD
BRANCH  22  24
HETATM   24  C24 UNL     1     -12.516  18.416  45.213  1.00  0.00     0.434 C 
HETATM   25  F2  UNL     1     -12.793  19.227  44.098  1.00  0.00    -0.165 F 
HETATM   26  F3  UNL     1     -12.385  17.136  44.697  1.00  0.00    -0.165 F 
HETATM   27  F4  UNL     1     -13.602  18.567  46.037  1.00  0.00    -0.165 F 
ENDBRANCH  22  24
ENDBRANCH  13  17
ENDBRANCH   7   8
BRANCH   1  28
HETATM   28  C6  UNL     1     -11.085  12.853  46.368  1.00  0.00    -0.017 A 
HETATM   29  C5  UNL     1     -11.206  13.537  45.181  1.00  0.00     0.060 A 
HETATM   30  C4  UNL     1     -12.454  13.624  44.533  1.00  0.00     0.102 A 
HETATM   31  N8  UNL     1     -13.554  13.049  45.046  1.00  0.00    -0.353 N 
HETATM   32  C27 UNL     1     -13.448  12.377  46.206  1.00  0.00     0.090 A 
ATOM     33  H8  UNL     1     -14.451  13.119  44.566  1.00  0.00     0.166 HD
HETATM   34  C26 UNL     1     -12.241  12.280  46.854  1.00  0.00     0.029 A 
BRANCH  30  35
HETATM   35  N1  UNL     1     -12.481  14.275  43.446  1.00  0.00    -0.369 N 
ATOM     36  H1  UNL     1     -12.346  15.282  43.536  1.00  0.00     0.161 HD
BRANCH  35  37
HETATM   37  C3  UNL     1     -12.671  13.803  42.125  1.00  0.00     0.110 C 
BRANCH  37  38
HETATM   38  C2  UNL     1     -13.658  14.725  41.439  1.00  0.00     0.192 C 
BRANCH  38  39
HETATM   39  O1  UNL     1     -13.943  15.855  42.160  1.00  0.00    -0.394 OA
HETATM   40  C1  UNL     1     -13.647  17.022  41.496  1.00  0.00     0.201 C 
ENDBRANCH  38  39
ENDBRANCH  37  38
BRANCH  37  41
HETATM   41  C28 UNL     1     -11.385  13.851  41.298  1.00  0.00     0.002 C 
HETATM   42  C29 UNL     1     -10.601  12.567  41.454  1.00  0.00     0.011 C 
HETATM   43  C30 UNL     1     -10.516  14.985  41.802  1.00  0.00     0.011 C 
ENDBRANCH  37  41
ENDBRANCH  35  37
ENDBRANCH  30  35
ENDBRANCH   1  28
BRANCH   5  44
HETATM   44  N2  UNL     1      -6.093  12.409  49.125  1.00  0.00    -0.385 N 
ATOM     45  H2  UNL     1      -5.344  13.068  48.914  1.00  0.00     0.160 HD
BRANCH  44  46
HETATM   46  C11 UNL     1      -5.844  11.369  50.082  1.00  0.00     0.085 C 
HETATM   47  C12 UNL     1      -4.607  10.609  49.669  1.00  0.00     0.052 C 
HETATM   48  C13 UNL     1      -3.408  11.539  49.698  1.00  0.00     0.234 C 
HETATM   49  N3  UNL     1      -3.083  11.787  51.084  1.00  0.00    -0.075 N 
HETATM   50  C14 UNL     1      -4.182  11.517  51.965  1.00  0.00     0.234 C 
ATOM     51  H32 UNL     1      -2.252  11.266  51.365  1.00  0.00     0.277 HD
ATOM     52  H31 UNL     1      -2.733  12.736  51.215  1.00  0.00     0.277 HD
HETATM   53  C15 UNL     1      -5.519  11.991  51.435  1.00  0.00     0.052 C 
ENDBRANCH  44  46
ENDBRANCH   5  44
TORSDOF 11
ENDMDL
MODEL 3
REMARK VINA RESULT: -5.253357760      1.419      1.722
REMARK  11 active torsions:
REMARK  status: ('A' for Active; 'I' for Inactive)
REMARK    1  A    between atoms: O1_2  and  C2_3 
REMARK    2  A    between atoms: C2_3  and  C3_4 
REMARK    3  A    between atoms: C3_4  and  N1_5 
REMARK    4  A    between atoms: C3_4  and  C28_51 
REMARK    5  A    between atoms: N1_5  and  C4_7 
REMARK    6  A    between atoms: C6_9  and  C7_10 
REMARK    7  A    between atoms: C10_14  and  N2_15 
REMARK    8  A    between atoms: N2_15  and  C11_17 
REMARK    9  A    between atoms: C17_26  and  C18_27 
REMARK   10  A    between atoms: C20_33  and  C21_34 
REMARK   11  A    between atoms: C23_40  and  C24_41 
ROOT
HETATM    1  C7  UNL     1      -9.077  11.392  47.178  1.00  0.00     0.026 A 
HETATM    2  C8  UNL     1      -8.056  10.540  46.807  1.00  0.00     0.130 A 
HETATM    3  F1  UNL     1      -8.308   9.623  45.830  1.00  0.00    -0.205 F 
HETATM    4  C9  UNL     1      -6.816  10.623  47.416  1.00  0.00     0.072 A 
HETATM    5  C10 UNL     1      -6.543  11.544  48.406  1.00  0.00     0.032 A 
HETATM    6  C16 UNL     1      -7.554  12.393  48.778  1.00  0.00     0.044 A 
HETATM    7  C17 UNL     1      -8.811  12.314  48.166  1.00  0.00     0.010 A 
ENDROOT
BRANCH   7   8
HETATM    8  C18 UNL     1      -9.879  13.208  48.555  1.00  0.00     0.086 A 
HETATM    9  N4  UNL     1     -10.819  12.893  49.452  1.00  0.00    -0.349 N 
HETATM   10  C19 UNL     1     -11.782  13.775  49.766  1.00  0.00     0.181 A 
ATOM     11  H4  UNL     1     -10.805  11.977  49.901  1.00  0.00     0.166 HD
HETATM   12  N5  UNL     1     -11.834  14.985  49.197  1.00  0.00    -0.348 N 
HETATM   13  C20 UNL     1     -10.933  15.387  48.286  1.00  0.00     0.103 A 
ATOM     14  H5  UNL     1     -12.584  15.624  49.463  1.00  0.00     0.167 HD
HETATM   15  C25 UNL     1      -9.933  14.456  47.967  1.00  0.00     0.172 A 
HETATM   16  F5  UNL     1      -9.003  14.841  47.042  1.00  0.00    -0.201 F 
BRANCH  13  17
HETATM   17  C21 UNL     1     -10.931  16.671  47.637  1.00  0.00     0.095 A 
HETATM   18  N6  UNL     1     -10.459  17.826  48.188  1.00  0.00    -0.349 N 
HETATM   19  C22 UNL     1     -10.609  18.817  47.321  1.00  0.00     0.181 A 
ATOM     20  H6  UNL     1     -10.053  17.913  49.120  1.00  0.00     0.167 HD
HETATM   21  N7  UNL     1     -11.171  18.362  46.198  1.00  0.00    -0.347 N 
HETATM   22  C23 UNL     1     -11.372  17.028  46.391  1.00  0.00     0.146 A 
ATOM     23  H7  UNL     1     -11.403  18.903  45.365  1.00  0.00     0.166 HD
BRANCH  22  24
HETATM   24  C24 UNL     1     -11.990  16.125  45.363  1.00  0.00     0.434 C 
HETATM   25  F2  UNL     1     -11.012  15.213  44.927  1.00  0.00    -0.165 F 
HETATM   26  F3  UNL     1     -12.996  15.337  45.901  1.00  0.00    -0.165 F 
HETATM   27  F4  UNL     1     -12.369  16.803  44.233  1.00  0.00    -0.165 F 
ENDBRANCH  22  24
ENDBRANCH  13  17
ENDBRANCH   7   8
BRANCH   1  28
HETATM   28  C6  UNL     1     -10.399  11.334  46.562  1.00  0.00    -0.017 A 
HETATM   29  C5  UNL     1     -10.675  11.958  45.368  1.00  0.00     0.060 A 
HETATM   30  C4  UNL     1     -11.962  11.877  44.801  1.00  0.00     0.102 A 
HETATM   31  N8  UNL     1     -12.952  11.196  45.400  1.00  0.00    -0.353 N 
HETATM   32  C27 UNL     1     -12.695  10.581  46.569  1.00  0.00     0.090 A 
ATOM     33  H8  UNL     1     -13.879  11.145  44.979  1.00  0.00     0.166 HD
HETATM   34  C26 UNL     1     -11.447  10.648  47.138  1.00  0.00     0.029 A 
BRANCH  30  35
HETATM   35  N1  UNL     1     -12.133  12.484  43.701  1.00  0.00    -0.369 N 
ATOM     36  H1  UNL     1     -13.066  12.872  43.555  1.00  0.00     0.161 HD
BRANCH  35  37
HETATM   37  C3  UNL     1     -11.214  12.699  42.647  1.00  0.00     0.110 C 
BRANCH  37  38
HETATM   38  C2  UNL     1     -11.168  11.440  41.806  1.00  0.00     0.192 C 
BRANCH  38  39
HETATM   39  O1  UNL     1     -10.159  11.436  40.880  1.00  0.00    -0.394 OA
HETATM   40  C1  UNL     1     -10.579  11.132  39.606  1.00  0.00     0.201 C 
ENDBRANCH  38  39
ENDBRANCH  37  38
BRANCH  37  41
HETATM   41  C28 UNL     1     -11.652  13.828  41.712  1.00  0.00     0.002 C 
HETATM   42  C29 UNL     1     -10.660  14.970  41.753  1.00  0.00     0.011 C 
HETATM   43  C30 UNL     1     -12.990  14.364  42.178  1.00  0.00     0.011 C 
ENDBRANCH  37  41
ENDBRANCH  35  37
ENDBRANCH  30  35
ENDBRANCH   1  28
BRANCH   5  44
HETATM   44  N2  UNL     1      -5.229  11.565  48.996  1.00  0.00    -0.385 N 
ATOM     45  H2  UNL     1      -4.739  12.457  49.064  1.00  0.00     0.160 HD
BRANCH  44  46
HETATM   46  C11 UNL     1      -4.580  10.385  49.493  1.00  0.00     0.085 C 
HETATM   47  C12 UNL     1      -3.138  10.710  49.793  1.00  0.00     0.052 C 
HETATM   48  C13 UNL     1      -3.071  11.753  50.894  1.00  0.00     0.234 C 
HETATM   49  N3  UNL     1      -3.431  11.102  52.133  1.00  0.00    -0.075 N 
HETATM   50  C14 UNL     1      -4.168   9.889  51.924  1.00  0.00     0.234 C 
ATOM     51  H32 UNL     1      -2.609  10.936  52.713  1.00  0.00     0.277 HD
ATOM     52  H31 UNL     1      -3.940  11.738  52.748  1.00  0.00     0.277 HD
HETATM   53  C15 UNL     1      -5.205   9.986  50.826  1.00  0.00     0.052 C 
ENDBRANCH  44  46
ENDBRANCH   5  44
TORSDOF 11
ENDMDL
MODEL 4
REMARK VINA RESULT: -5.158638287      1.318      1.776
REMARK  11 active torsions:
REMARK  status: ('A' for Active; 'I' for Inactive)
REMARK    1  A    between atoms: O1_2  and  C2_3 
REMARK    2  A    between atoms: C2_3  and  C3_4 
REMARK    3  A    between atoms: C3_4  and  N1_5 
REMARK    4  A    between atoms: C3_4  and  C28_51 
REMARK    5  A    between atoms: N1_5  and  C4_7 
REMARK    6  A    between atoms: C6_9  and  C7_10 
REMARK    7  A    between atoms: C10_14  and  N2_15 
REMARK    8  A    between atoms: N2_15  and  C11_17 
REMARK    9  A    between atoms: C17_26  and  C18_27 
REMARK   10  A    between atoms: C20_33  and  C21_34 
REMARK   11  A    between atoms: C23_40  and  C24_41 
ROOT
HETATM    1  C7  UNL     1     -10.993  12.857  46.190  1.00  0.00     0.026 A 
HETATM    2  C8  UNL     1     -10.336  11.676  45.909  1.00  0.00     0.130 A 
HETATM    3  F1  UNL     1     -10.724  10.974  44.806  1.00  0.00    -0.205 F 
HETATM    4  C9  UNL     1      -9.317  11.227  46.728  1.00  0.00     0.072 A 
HETATM    5  C10 UNL     1      -8.912  11.923  47.848  1.00  0.00     0.032 A 
HETATM    6  C16 UNL     1      -9.560  13.098  48.133  1.00  0.00     0.044 A 
HETATM    7  C17 UNL     1     -10.594  13.559  47.306  1.00  0.00     0.010 A 
ENDROOT
BRANCH   7   8
HETATM    8  C18 UNL     1     -11.279  14.796  47.602  1.00  0.00     0.086 A 
HETATM    9  N4  UNL     1     -12.392  14.869  48.339  1.00  0.00    -0.349 N 
HETATM   10  C19 UNL     1     -12.975  16.056  48.574  1.00  0.00     0.181 A 
ATOM     11  H4  UNL     1     -12.802  14.018  48.724  1.00  0.00     0.166 HD
HETATM   12  N5  UNL     1     -12.468  17.194  48.084  1.00  0.00    -0.348 N 
HETATM   13  C20 UNL     1     -11.354  17.216  47.335  1.00  0.00     0.103 A 
ATOM     14  H5  UNL     1     -12.944  18.073  48.286  1.00  0.00     0.167 HD
HETATM   15  C25 UNL     1     -10.756  15.970  47.096  1.00  0.00     0.172 A 
HETATM   16  F5  UNL     1      -9.620  15.966  46.336  1.00  0.00    -0.201 F 
BRANCH  13  17
HETATM   17  C21 UNL     1     -10.757  18.401  46.778  1.00  0.00     0.095 A 
HETATM   18  N6  UNL     1      -9.599  18.973  47.215  1.00  0.00    -0.349 N 
HETATM   19  C22 UNL     1      -9.338  20.046  46.482  1.00  0.00     0.181 A 
ATOM     20  H6  UNL     1      -9.023  18.628  47.984  1.00  0.00     0.167 HD
HETATM   21  N7  UNL     1     -10.291  20.215  45.562  1.00  0.00    -0.347 N 
HETATM   22  C23 UNL     1     -11.175  19.193  45.742  1.00  0.00     0.146 A 
ATOM     23  H7  UNL     1     -10.346  20.958  44.865  1.00  0.00     0.166 HD
BRANCH  22  24
HETATM   24  C24 UNL     1     -12.408  19.006  44.907  1.00  0.00     0.434 C 
HETATM   25  F2  UNL     1     -12.410  19.980  43.893  1.00  0.00    -0.165 F 
HETATM   26  F3  UNL     1     -12.401  17.793  44.236  1.00  0.00    -0.165 F 
HETATM   27  F4  UNL     1     -13.559  19.233  45.617  1.00  0.00    -0.165 F 
ENDBRANCH  22  24
ENDBRANCH  13  17
ENDBRANCH   7   8
BRANCH   1  28
HETATM   28  C6  UNL     1     -12.075  13.364  45.351  1.00  0.00    -0.017 A 
HETATM   29  C5  UNL     1     -11.833  14.062  44.191  1.00  0.00     0.060 A 
HETATM   30  C4  UNL     1     -12.903  14.532  43.405  1.00  0.00     0.102 A 
HETATM   31  N8  UNL     1     -14.181  14.317  43.757  1.00  0.00    -0.353 N 
HETATM   32  C27 UNL     1     -14.431  13.636  44.890  1.00  0.00     0.090 A 
ATOM     33  H8  UNL     1     -14.946  14.663  43.178  1.00  0.00     0.166 HD
HETATM   34  C26 UNL     1     -13.402  13.169  45.671  1.00  0.00     0.029 A 
BRANCH  30  35
HETATM   35  N1  UNL     1     -12.594  15.169  42.354  1.00  0.00    -0.369 N 
ATOM     36  H1  UNL     1     -13.013  16.095  42.263  1.00  0.00     0.161 HD
BRANCH  35  37
HETATM   37  C3  UNL     1     -11.749  14.777  41.288  1.00  0.00     0.110 C 
BRANCH  37  38
HETATM   38  C2  UNL     1     -12.426  13.638  40.553  1.00  0.00     0.192 C 
BRANCH  38  39
HETATM   39  O1  UNL     1     -11.956  12.401  40.908  1.00  0.00    -0.394 OA
HETATM   40  C1  UNL     1     -10.597  12.366  41.116  1.00  0.00     0.201 C 
ENDBRANCH  38  39
ENDBRANCH  37  38
BRANCH  37  41
HETATM   41  C28 UNL     1     -11.546  15.894  40.263  1.00  0.00     0.002 C 
HETATM   42  C29 UNL     1     -12.752  16.807  40.224  1.00  0.00     0.011 C 
HETATM   43  C30 UNL     1     -11.389  15.280  38.887  1.00  0.00     0.011 C 
ENDBRANCH  37  41
ENDBRANCH  35  37
ENDBRANCH  30  35
ENDBRANCH   1  28
BRANCH   5  44
HETATM   44  N2  UNL     1      -7.846  11.388  48.656  1.00  0.00    -0.385 N 
ATOM     45  H2  UNL     1      -8.016  11.238  49.650  1.00  0.00     0.160 HD
BRANCH  44  46
HETATM   46  C11 UNL     1      -6.556  11.056  48.121  1.00  0.00     0.085 C 
HETATM   47  C12 UNL     1      -5.937  12.300  47.531  1.00  0.00     0.052 C 
HETATM   48  C13 UNL     1      -5.716  13.326  48.627  1.00  0.00     0.234 C 
HETATM   49  N3  UNL     1      -4.607  12.869  49.434  1.00  0.00    -0.075 N 
HETATM   50  C14 UNL     1      -4.368  11.462  49.295  1.00  0.00     0.234 C 
ATOM     51  H32 UNL     1      -3.764  13.406  49.236  1.00  0.00     0.277 HD
ATOM     52  H31 UNL     1      -4.737  13.123  50.414  1.00  0.00     0.277 HD
HETATM   53  C15 UNL     1      -5.631  10.628  49.255  1.00  0.00     0.052 C 
ENDBRANCH  44  46
ENDBRANCH   5  44
TORSDOF 11
ENDMDL
MODEL 5
REMARK VINA RESULT: -5.026473412      2.412      6.893
REMARK  11 active torsions:
REMARK  status: ('A' for Active; 'I' for Inactive)
REMARK    1  A    between atoms: O1_2  and  C2_3 
REMARK    2  A    between atoms: C2_3  and  C3_4 
REMARK    3  A    between atoms: C3_4  and  N1_5 
REMARK    4  A    between atoms: C3_4  and  C28_51 
REMARK    5  A    between atoms: N1_5  and  C4_7 
REMARK    6  A    between atoms: C6_9  and  C7_10 
REMARK    7  A    between atoms: C10_14  and  N2_15 
REMARK    8  A    between atoms: N2_15  and  C11_17 
REMARK    9  A    between atoms: C17_26  and  C18_27 
REMARK   10  A    between atoms: C20_33  and  C21_34 
REMARK   11  A    between atoms: C23_40  and  C24_41 
ROOT
HETATM    1  C7  UNL     1     -10.882  12.619  46.602  1.00  0.00     0.026 A 
HETATM    2  C8  UNL     1     -10.562  11.491  45.874  1.00  0.00     0.130 A 
HETATM    3  F1  UNL     1      -9.677  10.607  46.419  1.00  0.00    -0.205 F 
HETATM    4  C9  UNL     1     -11.127  11.272  44.631  1.00  0.00     0.072 A 
HETATM    5  C10 UNL     1     -12.023  12.155  44.065  1.00  0.00     0.032 A 
HETATM    6  C16 UNL     1     -12.346  13.278  44.783  1.00  0.00     0.044 A 
HETATM    7  C17 UNL     1     -11.777  13.505  46.043  1.00  0.00     0.010 A 
ENDROOT
BRANCH   7   8
HETATM    8  C18 UNL     1     -12.115  14.687  46.803  1.00  0.00     0.086 A 
HETATM    9  N4  UNL     1     -13.024  14.704  47.783  1.00  0.00    -0.349 N 
HETATM   10  C19 UNL     1     -13.287  15.840  48.448  1.00  0.00     0.181 A 
ATOM     11  H4  UNL     1     -13.523  13.847  48.026  1.00  0.00     0.166 HD
HETATM   12  N5  UNL     1     -12.655  16.984  48.156  1.00  0.00    -0.348 N 
HETATM   13  C20 UNL     1     -11.727  17.061  47.188  1.00  0.00     0.103 A 
ATOM     14  H5  UNL     1     -12.886  17.824  48.685  1.00  0.00     0.167 HD
HETATM   15  C25 UNL     1     -11.463  15.866  46.501  1.00  0.00     0.172 A 
HETATM   16  F5  UNL     1     -10.522  15.919  45.511  1.00  0.00    -0.201 F 
BRANCH  13  17
HETATM   17  C21 UNL     1     -11.012  18.255  46.824  1.00  0.00     0.095 A 
HETATM   18  N6  UNL     1      -9.881  18.707  47.436  1.00  0.00    -0.349 N 
HETATM   19  C22 UNL     1      -9.486  19.829  46.851  1.00  0.00     0.181 A 
ATOM     20  H6  UNL     1      -9.412  18.254  48.221  1.00  0.00     0.167 HD
HETATM   21  N7  UNL     1     -10.322  20.147  45.859  1.00  0.00    -0.347 N 
HETATM   22  C23 UNL     1     -11.272  19.170  45.839  1.00  0.00     0.146 A 
ATOM     23  H7  UNL     1     -10.262  20.957  45.242  1.00  0.00     0.166 HD
BRANCH  22  24
HETATM   24  C24 UNL     1     -12.413  19.144  44.865  1.00  0.00     0.434 C 
HETATM   25  F2  UNL     1     -12.263  20.221  43.973  1.00  0.00    -0.165 F 
HETATM   26  F3  UNL     1     -12.386  18.013  44.063  1.00  0.00    -0.165 F 
HETATM   27  F4  UNL     1     -13.624  19.355  45.473  1.00  0.00    -0.165 F 
ENDBRANCH  22  24
ENDBRANCH  13  17
ENDBRANCH   7   8
BRANCH   1  28
HETATM   28  C6  UNL     1     -10.306  12.887  47.916  1.00  0.00    -0.017 A 
HETATM   29  C5  UNL     1      -9.183  13.666  48.075  1.00  0.00     0.060 A 
HETATM   30  C4  UNL     1      -8.658  13.906  49.360  1.00  0.00     0.102 A 
HETATM   31  N8  UNL     1      -9.229  13.390  50.460  1.00  0.00    -0.353 N 
HETATM   32  C27 UNL     1     -10.328  12.627  50.318  1.00  0.00     0.090 A 
ATOM     33  H8  UNL     1      -8.839  13.573  51.384  1.00  0.00     0.166 HD
HETATM   34  C26 UNL     1     -10.855  12.380  49.074  1.00  0.00     0.029 A 
BRANCH  30  35
HETATM   35  N1  UNL     1      -7.620  14.631  49.418  1.00  0.00    -0.369 N 
ATOM     36  H1  UNL     1      -7.790  15.632  49.520  1.00  0.00     0.161 HD
BRANCH  35  37
HETATM   37  C3  UNL     1      -6.258  14.248  49.362  1.00  0.00     0.110 C 
BRANCH  37  38
HETATM   38  C2  UNL     1      -6.143  12.856  49.948  1.00  0.00     0.192 C 
BRANCH  38  39
HETATM   39  O1  UNL     1      -5.195  12.753  50.932  1.00  0.00    -0.394 OA
HETATM   40  C1  UNL     1      -4.267  11.764  50.703  1.00  0.00     0.201 C 
ENDBRANCH  38  39
ENDBRANCH  37  38
BRANCH  37  41
HETATM   41  C28 UNL     1      -5.737  14.158  47.927  1.00  0.00     0.002 C 
HETATM   42  C29 UNL     1      -5.725  12.722  47.452  1.00  0.00     0.011 C 
HETATM   43  C30 UNL     1      -4.310  14.668  47.887  1.00  0.00     0.011 C 
ENDBRANCH  37  41
ENDBRANCH  35  37
ENDBRANCH  30  35
ENDBRANCH   1  28
BRANCH   5  44
HETATM   44  N2  UNL     1     -12.565  11.861  42.763  1.00  0.00    -0.385 N 
ATOM     45  H2  UNL     1     -12.995  10.950  42.609  1.00  0.00     0.160 HD
BRANCH  44  46
HETATM   46  C11 UNL     1     -12.525  12.795  41.675  1.00  0.00     0.085 C 
HETATM   47  C12 UNL     1     -11.084  13.085  41.332  1.00  0.00     0.052 C 
HETATM   48  C13 UNL     1     -10.411  11.812  40.852  1.00  0.00     0.234 C 
HETATM   49  N3  UNL     1     -10.917  11.524  39.529  1.00  0.00    -0.075 N 
HETATM   50  C14 UNL     1     -12.166  12.176  39.263  1.00  0.00     0.234 C 
ATOM     51  H32 UNL     1     -10.225  11.750  38.815  1.00  0.00     0.277 HD
ATOM     52  H31 UNL     1     -10.989  10.518  39.375  1.00  0.00     0.277 HD
HETATM   53  C15 UNL     1     -13.129  12.153  40.431  1.00  0.00     0.052 C 
ENDBRANCH  44  46
ENDBRANCH   5  44
TORSDOF 11
ENDMDL
