MODEL 1
REMARK VINA RESULT: -7.683798494      0.000      0.000
REMARK  5 active torsions:
REMARK  status: ('A' for Active; 'I' for Inactive)
REMARK    1  A    between atoms: C2_2  and  O1_3 
REMARK    2  A    between atoms: C2_2  and  C10_15 
REMARK    3  A    between atoms: O1_3  and  C3_4 
REMARK    4  A    between atoms: C6_8  and  O3_9 
REMARK    5  A    between atoms: C13_19  and  O5_21 
ROOT
HETATM    1  C1  UNL     1      -7.779  39.259   7.681  1.00  0.00     0.040 C 
HETATM    2  C2  UNL     1      -8.100  38.448   8.902  1.00  0.00     0.127 C 
ENDROOT
BRANCH   2   3
HETATM    3  O1  UNL     1      -8.212  39.348   9.971  1.00  0.00    -0.334 OA
BRANCH   3   4
HETATM    4  C3  UNL     1      -7.684  38.876  11.144  1.00  0.00     0.414 C 
HETATM    5  O2  UNL     1      -7.083  39.973  11.800  1.00  0.00    -0.331 OA
HETATM    6  C4  UNL     1      -6.156  39.430  12.680  1.00  0.00     0.154 C 
HETATM    7  C5  UNL     1      -5.449  40.576  13.381  1.00  0.00     0.042 C 
HETATM    8  C6  UNL     1      -6.920  38.612  13.692  1.00  0.00     0.180 C 
HETATM    9  C7  UNL     1      -7.999  37.780  13.082  1.00  0.00     0.087 C 
HETATM   10  C8  UNL     1      -7.436  36.477  12.518  1.00  0.00     0.048 C 
HETATM   11  C9  UNL     1      -8.981  37.417  14.191  1.00  0.00     0.048 C 
HETATM   12  O4  UNL     1      -8.662  38.411  12.034  1.00  0.00    -0.326 OA
BRANCH   8  13
HETATM   13  O3  UNL     1      -6.057  37.812  14.428  1.00  0.00    -0.390 OA
ATOM     14  H3  UNL     1      -6.276  37.843  15.352  1.00  0.00     0.210 HD
ENDBRANCH   8  13
ENDBRANCH   3   4
ENDBRANCH   2   3
BRANCH   2  15
HETATM   15  C10 UNL     1      -9.441  37.758   8.819  1.00  0.00     0.023 C 
HETATM   16  C11 UNL     1     -10.099  38.325   7.579  1.00  0.00     0.026 C 
HETATM   17  C12 UNL     1     -11.463  37.746   7.324  1.00  0.00     0.092 C 
HETATM   18 BR1  UNL     1     -12.819  38.543   8.456  1.00  0.00    -0.088 Br
HETATM   19  C13 UNL     1     -11.448  36.254   7.411  1.00  0.00     0.068 C 
HETATM   20  C14 UNL     1     -11.873  35.658   6.068  1.00  0.00     0.047 C 
HETATM   21  C15 UNL     1     -10.085  35.680   7.693  1.00  0.00     0.048 C 
HETATM   22  C16 UNL     1      -9.426  36.297   8.913  1.00  0.00    -0.039 C 
HETATM   23  C17 UNL     1     -10.228  35.824  10.138  1.00  0.00     0.015 C 
HETATM   24  C18 UNL     1      -8.086  35.642   9.035  1.00  0.00     0.015 C 
BRANCH  19  25
HETATM   25  O5  UNL     1     -12.402  35.767   8.335  1.00  0.00    -0.389 OA
ATOM     26  H5  UNL     1     -12.996  35.141   7.937  1.00  0.00     0.210 HD
ENDBRANCH  19  25
ENDBRANCH   2  15
TORSDOF 5
ENDMDL
MODEL 2
REMARK VINA RESULT: -6.525076842      0.695      1.988
REMARK  5 active torsions:
REMARK  status: ('A' for Active; 'I' for Inactive)
REMARK    1  A    between atoms: C2_2  and  O1_3 
REMARK    2  A    between atoms: C2_2  and  C10_15 
REMARK    3  A    between atoms: O1_3  and  C3_4 
REMARK    4  A    between atoms: C6_8  and  O3_9 
REMARK    5  A    between atoms: C13_19  and  O5_21 
ROOT
HETATM    1  C1  UNL     1      -8.250  39.754   8.072  1.00  0.00     0.040 C 
HETATM    2  C2  UNL     1      -8.549  38.867   9.244  1.00  0.00     0.127 C 
ENDROOT
BRANCH   2   3
HETATM    3  O1  UNL     1      -8.886  39.706  10.315  1.00  0.00    -0.334 OA
BRANCH   3   4
HETATM    4  C3  UNL     1      -8.136  39.486  11.441  1.00  0.00     0.414 C 
HETATM    5  O2  UNL     1      -8.606  38.290  12.027  1.00  0.00    -0.331 OA
HETATM    6  C4  UNL     1      -8.222  38.342  13.361  1.00  0.00     0.154 C 
HETATM    7  C5  UNL     1      -8.744  37.092  14.047  1.00  0.00     0.042 C 
HETATM    8  C6  UNL     1      -6.713  38.344  13.395  1.00  0.00     0.180 C 
HETATM    9  C7  UNL     1      -6.103  39.242  12.371  1.00  0.00     0.087 C 
HETATM   10  C8  UNL     1      -6.074  40.690  12.856  1.00  0.00     0.048 C 
HETATM   11  C9  UNL     1      -4.659  38.793  12.168  1.00  0.00     0.048 C 
HETATM   12  O4  UNL     1      -6.784  39.246  11.157  1.00  0.00    -0.326 OA
BRANCH   8  13
HETATM   13  O3  UNL     1      -6.252  38.679  14.661  1.00  0.00    -0.390 OA
ATOM     14  H3  UNL     1      -5.316  38.525  14.729  1.00  0.00     0.210 HD
ENDBRANCH   8  13
ENDBRANCH   3   4
ENDBRANCH   2   3
BRANCH   2  15
HETATM   15  C10 UNL     1      -9.760  37.989   9.029  1.00  0.00     0.023 C 
HETATM   16  C11 UNL     1     -10.409  38.516   7.767  1.00  0.00     0.026 C 
HETATM   17  C12 UNL     1     -11.646  37.755   7.383  1.00  0.00     0.092 C 
HETATM   18 BR1  UNL     1     -13.185  38.279   8.438  1.00  0.00    -0.088 Br
HETATM   19  C13 UNL     1     -11.410  36.279   7.409  1.00  0.00     0.068 C 
HETATM   20  C14 UNL     1     -11.644  35.697   6.014  1.00  0.00     0.047 C 
HETATM   21  C15 UNL     1      -9.999  35.900   7.772  1.00  0.00     0.048 C 
HETATM   22  C16 UNL     1      -9.529  36.544   9.064  1.00  0.00    -0.039 C 
HETATM   23  C17 UNL     1     -10.333  35.893  10.202  1.00  0.00     0.015 C 
HETATM   24  C18 UNL     1      -8.117  36.091   9.262  1.00  0.00     0.015 C 
BRANCH  19  25
HETATM   25  O5  UNL     1     -12.341  35.607   8.235  1.00  0.00    -0.389 OA
ATOM     26  H5  UNL     1     -12.783  36.202   8.830  1.00  0.00     0.210 HD
ENDBRANCH  19  25
ENDBRANCH   2  15
TORSDOF 5
ENDMDL
MODEL 3
REMARK VINA RESULT: -5.776061586      4.218      8.361
REMARK  5 active torsions:
REMARK  status: ('A' for Active; 'I' for Inactive)
REMARK    1  A    between atoms: C2_2  and  O1_3 
REMARK    2  A    between atoms: C2_2  and  C10_15 
REMARK    3  A    between atoms: O1_3  and  C3_4 
REMARK    4  A    between atoms: C6_8  and  O3_9 
REMARK    5  A    between atoms: C13_19  and  O5_21 
ROOT
HETATM    1  C1  UNL     1     -13.563  39.829   8.804  1.00  0.00     0.040 C 
HETATM    2  C2  UNL     1     -13.975  38.406   8.571  1.00  0.00     0.127 C 
ENDROOT
BRANCH   2   3
HETATM    3  O1  UNL     1     -14.859  38.411   7.483  1.00  0.00    -0.334 OA
BRANCH   3   4
HETATM    4  C3  UNL     1     -15.966  37.625   7.670  1.00  0.00     0.414 C 
HETATM    5  O2  UNL     1     -17.020  38.209   6.935  1.00  0.00    -0.331 OA
HETATM    6  C4  UNL     1     -18.193  37.736   7.507  1.00  0.00     0.154 C 
HETATM    7  C5  UNL     1     -19.361  38.372   6.776  1.00  0.00     0.042 C 
HETATM    8  C6  UNL     1     -18.223  36.241   7.303  1.00  0.00     0.180 C 
HETATM    9  C7  UNL     1     -16.907  35.585   7.563  1.00  0.00     0.087 C 
HETATM   10  C8  UNL     1     -16.703  35.335   9.055  1.00  0.00     0.048 C 
HETATM   11  C9  UNL     1     -16.924  34.230   6.864  1.00  0.00     0.048 C 
HETATM   12  O4  UNL     1     -15.817  36.338   7.135  1.00  0.00    -0.326 OA
BRANCH   8  13
HETATM   13  O3  UNL     1     -19.210  35.658   8.087  1.00  0.00    -0.390 OA
ATOM     14  H3  UNL     1     -19.141  35.953   8.988  1.00  0.00     0.210 HD
ENDBRANCH   8  13
ENDBRANCH   3   4
ENDBRANCH   2   3
BRANCH   2  15
HETATM   15  C10 UNL     1     -12.829  37.518   8.149  1.00  0.00     0.023 C 
HETATM   16  C11 UNL     1     -11.608  38.414   8.169  1.00  0.00     0.026 C 
HETATM   17  C12 UNL     1     -10.348  37.696   7.775  1.00  0.00     0.092 C 
HETATM   18 BR1  UNL     1     -10.201  37.475   5.856  1.00  0.00    -0.088 Br
HETATM   19  C13 UNL     1     -10.201  36.405   8.514  1.00  0.00     0.068 C 
HETATM   20  C14 UNL     1      -8.919  36.434   9.347  1.00  0.00     0.047 C 
HETATM   21  C15 UNL     1     -11.313  36.142   9.494  1.00  0.00     0.048 C 
HETATM   22  C16 UNL     1     -12.690  36.250   8.867  1.00  0.00    -0.039 C 
HETATM   23  C17 UNL     1     -12.833  35.060   7.901  1.00  0.00     0.015 C 
HETATM   24  C18 UNL     1     -13.669  35.989   9.969  1.00  0.00     0.015 C 
BRANCH  19  25
HETATM   25  O5  UNL     1     -10.031  35.309   7.637  1.00  0.00    -0.389 OA
ATOM     26  H5  UNL     1      -9.191  34.881   7.759  1.00  0.00     0.210 HD
ENDBRANCH  19  25
ENDBRANCH   2  15
TORSDOF 5
ENDMDL
MODEL 4
REMARK VINA RESULT: -5.562377304      3.280      5.334
REMARK  5 active torsions:
REMARK  status: ('A' for Active; 'I' for Inactive)
REMARK    1  A    between atoms: C2_2  and  O1_3 
REMARK    2  A    between atoms: C2_2  and  C10_15 
REMARK    3  A    between atoms: O1_3  and  C3_4 
REMARK    4  A    between atoms: C6_8  and  O3_9 
REMARK    5  A    between atoms: C13_19  and  O5_21 
ROOT
HETATM    1  C1  UNL     1     -13.459  35.087  11.952  1.00  0.00     0.040 C 
HETATM    2  C2  UNL     1     -12.887  35.648  10.684  1.00  0.00     0.127 C 
ENDROOT
BRANCH   2   3
HETATM    3  O1  UNL     1     -11.635  35.044  10.499  1.00  0.00    -0.334 OA
BRANCH   3   4
HETATM    4  C3  UNL     1     -10.623  35.938  10.269  1.00  0.00     0.414 C 
HETATM    5  O2  UNL     1      -9.540  35.564  11.096  1.00  0.00    -0.331 OA
HETATM    6  C4  UNL     1      -8.757  36.701  11.237  1.00  0.00     0.154 C 
HETATM    7  C5  UNL     1      -7.599  36.360  12.157  1.00  0.00     0.042 C 
HETATM    8  C6  UNL     1      -8.228  37.056   9.869  1.00  0.00     0.180 C 
HETATM    9  C7  UNL     1      -9.256  36.945   8.793  1.00  0.00     0.087 C 
HETATM   10  C8  UNL     1     -10.128  38.198   8.734  1.00  0.00     0.048 C 
HETATM   11  C9  UNL     1      -8.519  36.832   7.463  1.00  0.00     0.048 C 
HETATM   12  O4  UNL     1     -10.122  35.868   8.961  1.00  0.00    -0.326 OA
BRANCH   8  13
HETATM   13  O3  UNL     1      -7.675  38.330   9.872  1.00  0.00    -0.390 OA
ATOM     14  H3  UNL     1      -7.892  38.792   9.071  1.00  0.00     0.210 HD
ENDBRANCH   8  13
ENDBRANCH   3   4
ENDBRANCH   2   3
BRANCH   2  15
HETATM   15  C10 UNL     1     -13.690  35.282   9.458  1.00  0.00     0.023 C 
HETATM   16  C11 UNL     1     -14.980  34.698   9.993  1.00  0.00     0.026 C 
HETATM   17  C12 UNL     1     -15.926  34.273   8.905  1.00  0.00     0.092 C 
HETATM   18 BR1  UNL     1     -15.431  32.567   8.130  1.00  0.00    -0.088 Br
HETATM   19  C13 UNL     1     -16.092  35.344   7.876  1.00  0.00     0.068 C 
HETATM   20  C14 UNL     1     -17.557  35.776   7.816  1.00  0.00     0.047 C 
HETATM   21  C15 UNL     1     -15.314  36.597   8.179  1.00  0.00     0.048 C 
HETATM   22  C16 UNL     1     -13.844  36.329   8.446  1.00  0.00    -0.039 C 
HETATM   23  C17 UNL     1     -13.223  35.888   7.110  1.00  0.00     0.015 C 
HETATM   24  C18 UNL     1     -13.230  37.659   8.753  1.00  0.00     0.015 C 
BRANCH  19  25
HETATM   25  O5  UNL     1     -15.805  34.876   6.572  1.00  0.00    -0.389 OA
ATOM     26  H5  UNL     1     -15.264  34.094   6.585  1.00  0.00     0.210 HD
ENDBRANCH  19  25
ENDBRANCH   2  15
TORSDOF 5
ENDMDL
MODEL 5
REMARK VINA RESULT: -5.516870149      2.027      6.110
REMARK  5 active torsions:
REMARK  status: ('A' for Active; 'I' for Inactive)
REMARK    1  A    between atoms: C2_2  and  O1_3 
REMARK    2  A    between atoms: C2_2  and  C10_15 
REMARK    3  A    between atoms: O1_3  and  C3_4 
REMARK    4  A    between atoms: C6_8  and  O3_9 
REMARK    5  A    between atoms: C13_19  and  O5_21 
ROOT
HETATM    1  C1  UNL     1      -7.523  38.740   8.084  1.00  0.00     0.040 C 
HETATM    2  C2  UNL     1      -8.313  39.433   9.154  1.00  0.00     0.127 C 
ENDROOT
BRANCH   2   3
HETATM    3  O1  UNL     1      -9.589  39.677   8.626  1.00  0.00    -0.334 OA
BRANCH   3   4
HETATM    4  C3  UNL     1     -10.241  38.543   8.218  1.00  0.00     0.414 C 
HETATM    5  O2  UNL     1     -11.625  38.779   8.375  1.00  0.00    -0.331 OA
HETATM    6  C4  UNL     1     -12.219  37.527   8.450  1.00  0.00     0.154 C 
HETATM    7  C5  UNL     1     -13.708  37.728   8.664  1.00  0.00     0.042 C 
HETATM    8  C6  UNL     1     -11.987  36.838   7.128  1.00  0.00     0.180 C 
HETATM    9  C7  UNL     1     -10.598  37.013   6.609  1.00  0.00     0.087 C 
HETATM   10  C8  UNL     1      -9.641  36.011   7.251  1.00  0.00     0.048 C 
HETATM   11  C9  UNL     1     -10.628  36.728   5.111  1.00  0.00     0.048 C 
HETATM   12  O4  UNL     1     -10.069  38.278   6.852  1.00  0.00    -0.326 OA
BRANCH   8  13
HETATM   13  O3  UNL     1     -12.296  35.487   7.217  1.00  0.00    -0.390 OA
ATOM     14  H3  UNL     1     -11.606  35.013   7.668  1.00  0.00     0.210 HD
ENDBRANCH   8  13
ENDBRANCH   3   4
ENDBRANCH   2   3
BRANCH   2  15
HETATM   15  C10 UNL     1      -8.546  38.571  10.373  1.00  0.00     0.023 C 
HETATM   16  C11 UNL     1      -8.108  37.182   9.960  1.00  0.00     0.026 C 
HETATM   17  C12 UNL     1      -8.263  36.169  11.060  1.00  0.00     0.092 C 
HETATM   18 BR1  UNL     1     -10.097  35.575  11.255  1.00  0.00    -0.088 Br
HETATM   19  C13 UNL     1      -7.680  36.664  12.345  1.00  0.00     0.068 C 
HETATM   20  C14 UNL     1      -6.557  35.729  12.794  1.00  0.00     0.047 C 
HETATM   21  C15 UNL     1      -7.051  38.027  12.236  1.00  0.00     0.048 C 
HETATM   22  C16 UNL     1      -7.983  39.061  11.632  1.00  0.00    -0.039 C 
HETATM   23  C17 UNL     1      -9.097  39.311  12.664  1.00  0.00     0.015 C 
HETATM   24  C18 UNL     1      -7.203  40.337  11.571  1.00  0.00     0.015 C 
BRANCH  19  25
HETATM   25  O5  UNL     1      -8.620  36.626  13.402  1.00  0.00    -0.389 OA
ATOM     26  H5  UNL     1      -8.787  37.490  13.762  1.00  0.00     0.210 HD
ENDBRANCH  19  25
ENDBRANCH   2  15
TORSDOF 5
ENDMDL
