MODEL 1
REMARK VINA RESULT: -6.823727734      0.000      0.000
REMARK  5 active torsions:
REMARK  status: ('A' for Active; 'I' for Inactive)
REMARK    1  A    between atoms: C4_10  and  N4_11 
REMARK    2  A    between atoms: C6_17  and  S2_18 
REMARK    3  A    between atoms: S2_18  and  C7_19 
REMARK    4  A    between atoms: C7_19  and  C8_20 
REMARK    5  A    between atoms: C8_20  and  C9_21 
ROOT
HETATM    1  N1  UNL     1      60.213  19.990  27.825  1.00  0.00    -0.190 NA
HETATM    2  C1  UNL     1      60.523  20.578  26.878  1.00  0.00     0.120 C 
HETATM    3  C2  UNL     1      60.901  21.292  25.699  1.00  0.00     0.148 A 
HETATM    4  N2  UNL     1      60.223  22.352  25.230  1.00  0.00    -0.337 N 
ATOM      5  H2  UNL     1      59.397  22.671  25.736  1.00  0.00     0.167 HD
HETATM    6  C3  UNL     1      60.603  23.021  24.096  1.00  0.00     0.122 A 
HETATM    7  S1  UNL     1      60.029  24.358  23.212  1.00  0.00     0.008 SA
HETATM    8  N3  UNL     1      61.174  24.394  21.985  1.00  0.00    -0.309 N 
ATOM      9  H3  UNL     1      61.235  25.044  21.202  1.00  0.00     0.176 HD
HETATM   10  C4  UNL     1      61.981  23.380  22.270  1.00  0.00     0.135 A 
HETATM   11  C5  UNL     1      61.699  22.643  23.378  1.00  0.00     0.113 A 
HETATM   12  N5  UNL     1      62.400  21.552  23.857  1.00  0.00    -0.343 N 
ATOM     13  H5  UNL     1      63.227  21.231  23.354  1.00  0.00     0.167 HD
HETATM   14  C6  UNL     1      62.022  20.908  24.961  1.00  0.00     0.108 A 
ENDROOT
BRANCH  14  15
HETATM   15  S2  UNL     1      62.936  19.512  25.558  1.00  0.00    -0.109 SA
BRANCH  15  16
HETATM   16  C7  UNL     1      64.674  19.787  25.785  1.00  0.00     0.081 C 
BRANCH  16  17
HETATM   17  C8  UNL     1      65.590  19.309  24.727  1.00  0.00     0.015 C 
BRANCH  17  18
HETATM   18  C9  UNL     1      66.286  20.303  23.891  1.00  0.00    -0.014 C 
HETATM   19  C10 UNL     1      65.893  20.272  22.426  1.00  0.00     0.005 C 
HETATM   20  C11 UNL     1      66.386  21.614  21.870  1.00  0.00     0.000 C 
HETATM   21  C12 UNL     1      66.948  22.369  23.061  1.00  0.00     0.000 C 
HETATM   22  C13 UNL     1      66.117  21.742  24.206  1.00  0.00     0.005 C 
ENDBRANCH  17  18
ENDBRANCH  16  17
ENDBRANCH  15  16
ENDBRANCH  14  15
BRANCH  10  23
HETATM   23  N4  UNL     1      63.026  23.105  21.493  1.00  0.00    -0.383 N 
ATOM     24  H42 UNL     1      63.961  23.452  21.707  1.00  0.00     0.157 HD
ATOM     25  H41 UNL     1      62.914  22.534  20.655  1.00  0.00     0.157 HD
ENDBRANCH  10  23
TORSDOF 5
ENDMDL
MODEL 2
REMARK VINA RESULT: -6.715285724      2.661      4.613
REMARK  5 active torsions:
REMARK  status: ('A' for Active; 'I' for Inactive)
REMARK    1  A    between atoms: C4_10  and  N4_11 
REMARK    2  A    between atoms: C6_17  and  S2_18 
REMARK    3  A    between atoms: S2_18  and  C7_19 
REMARK    4  A    between atoms: C7_19  and  C8_20 
REMARK    5  A    between atoms: C8_20  and  C9_21 
ROOT
HETATM    1  N1  UNL     1      66.991  25.451  21.968  1.00  0.00    -0.190 NA
HETATM    2  C1  UNL     1      65.891  25.098  21.995  1.00  0.00     0.120 C 
HETATM    3  C2  UNL     1      64.534  24.651  22.041  1.00  0.00     0.148 A 
HETATM    4  N2  UNL     1      63.536  25.376  22.571  1.00  0.00    -0.337 N 
ATOM      5  H2  UNL     1      63.749  26.294  22.963  1.00  0.00     0.167 HD
HETATM    6  C3  UNL     1      62.242  24.927  22.605  1.00  0.00     0.122 A 
HETATM    7  S1  UNL     1      60.751  25.526  23.171  1.00  0.00     0.008 SA
HETATM    8  N3  UNL     1      59.757  24.239  22.752  1.00  0.00    -0.309 N 
ATOM      9  H3  UNL     1      58.752  24.149  22.900  1.00  0.00     0.176 HD
HETATM   10  C4  UNL     1      60.581  23.369  22.184  1.00  0.00     0.135 A 
HETATM   11  C5  UNL     1      61.895  23.711  22.096  1.00  0.00     0.113 A 
HETATM   12  N5  UNL     1      62.920  22.960  21.548  1.00  0.00    -0.343 N 
ATOM     13  H5  UNL     1      62.709  22.043  21.155  1.00  0.00     0.167 HD
HETATM   14  C6  UNL     1      64.175  23.406  21.520  1.00  0.00     0.108 A 
ENDROOT
BRANCH  14  15
HETATM   15  S2  UNL     1      65.472  22.428  20.813  1.00  0.00    -0.109 SA
BRANCH  15  16
HETATM   16  C7  UNL     1      66.109  21.144  21.860  1.00  0.00     0.081 C 
BRANCH  16  17
HETATM   17  C8  UNL     1      66.481  21.508  23.244  1.00  0.00     0.015 C 
BRANCH  17  18
HETATM   18  C9  UNL     1      65.769  20.863  24.361  1.00  0.00    -0.014 C 
HETATM   19  C10 UNL     1      64.257  20.923  24.256  1.00  0.00     0.005 C 
HETATM   20  C11 UNL     1      63.762  19.858  25.244  1.00  0.00     0.000 C 
HETATM   21  C12 UNL     1      65.013  19.191  25.786  1.00  0.00     0.000 C 
HETATM   22  C13 UNL     1      65.984  19.416  24.604  1.00  0.00     0.005 C 
ENDBRANCH  17  18
ENDBRANCH  16  17
ENDBRANCH  15  16
ENDBRANCH  14  15
BRANCH  10  23
HETATM   23  N4  UNL     1      60.127  22.207  21.720  1.00  0.00    -0.383 N 
ATOM     24  H42 UNL     1      59.244  21.809  22.042  1.00  0.00     0.157 HD
ATOM     25  H41 UNL     1      60.656  21.682  21.025  1.00  0.00     0.157 HD
ENDBRANCH  10  23
TORSDOF 5
ENDMDL
MODEL 3
REMARK VINA RESULT: -6.533723377      4.054      6.458
REMARK  5 active torsions:
REMARK  status: ('A' for Active; 'I' for Inactive)
REMARK    1  A    between atoms: C4_10  and  N4_11 
REMARK    2  A    between atoms: C6_17  and  S2_18 
REMARK    3  A    between atoms: S2_18  and  C7_19 
REMARK    4  A    between atoms: C7_19  and  C8_20 
REMARK    5  A    between atoms: C8_20  and  C9_21 
ROOT
HETATM    1  N1  UNL     1      63.413  23.204  22.149  1.00  0.00    -0.190 NA
HETATM    2  C1  UNL     1      64.543  23.448  22.127  1.00  0.00     0.120 C 
HETATM    3  C2  UNL     1      65.941  23.743  22.086  1.00  0.00     0.148 A 
HETATM    4  N2  UNL     1      66.429  24.970  21.841  1.00  0.00    -0.337 N 
ATOM      5  H2  UNL     1      65.776  25.735  21.676  1.00  0.00     0.167 HD
HETATM    6  C3  UNL     1      67.774  25.229  21.805  1.00  0.00     0.122 A 
HETATM    7  S1  UNL     1      68.752  26.597  21.537  1.00  0.00     0.008 SA
HETATM    8  N3  UNL     1      70.267  25.894  21.701  1.00  0.00    -0.309 N 
ATOM      9  H3  UNL     1      71.180  26.342  21.620  1.00  0.00     0.176 HD
HETATM   10  C4  UNL     1      70.004  24.620  21.960  1.00  0.00     0.135 A 
HETATM   11  C5  UNL     1      68.697  24.247  22.019  1.00  0.00     0.113 A 
HETATM   12  N5  UNL     1      68.198  22.982  22.272  1.00  0.00    -0.343 N 
ATOM     13  H5  UNL     1      68.849  22.215  22.439  1.00  0.00     0.167 HD
HETATM   14  C6  UNL     1      66.888  22.741  22.305  1.00  0.00     0.108 A 
ENDROOT
BRANCH  14  15
HETATM   15  S2  UNL     1      66.272  21.112  22.632  1.00  0.00    -0.109 SA
BRANCH  15  16
HETATM   16  C7  UNL     1      66.208  20.657  24.346  1.00  0.00     0.081 C 
BRANCH  16  17
HETATM   17  C8  UNL     1      65.342  19.520  24.725  1.00  0.00     0.015 C 
BRANCH  17  18
HETATM   18  C9  UNL     1      64.061  19.800  25.395  1.00  0.00    -0.014 C 
HETATM   19  C10 UNL     1      63.117  20.679  24.597  1.00  0.00     0.005 C 
HETATM   20  C11 UNL     1      61.750  20.476  25.264  1.00  0.00     0.000 C 
HETATM   21  C12 UNL     1      61.971  19.429  26.340  1.00  0.00     0.000 C 
HETATM   22  C13 UNL     1      63.174  18.663  25.741  1.00  0.00     0.005 C 
ENDBRANCH  17  18
ENDBRANCH  16  17
ENDBRANCH  15  16
ENDBRANCH  14  15
BRANCH  10  23
HETATM   23  N4  UNL     1      70.990  23.748  22.153  1.00  0.00    -0.383 N 
ATOM     24  H42 UNL     1      71.042  23.173  22.994  1.00  0.00     0.157 HD
ATOM     25  H41 UNL     1      71.727  23.633  21.457  1.00  0.00     0.157 HD
ENDBRANCH  10  23
TORSDOF 5
ENDMDL
MODEL 4
REMARK VINA RESULT: -6.524111650      4.243      6.740
REMARK  5 active torsions:
REMARK  status: ('A' for Active; 'I' for Inactive)
REMARK    1  A    between atoms: C4_10  and  N4_11 
REMARK    2  A    between atoms: C6_17  and  S2_18 
REMARK    3  A    between atoms: S2_18  and  C7_19 
REMARK    4  A    between atoms: C7_19  and  C8_20 
REMARK    5  A    between atoms: C8_20  and  C9_21 
ROOT
HETATM    1  N1  UNL     1      63.539  23.220  20.117  1.00  0.00    -0.190 NA
HETATM    2  C1  UNL     1      64.641  23.453  20.375  1.00  0.00     0.120 C 
HETATM    3  C2  UNL     1      66.010  23.732  20.681  1.00  0.00     0.148 A 
HETATM    4  N2  UNL     1      66.595  24.914  20.429  1.00  0.00    -0.337 N 
ATOM      5  H2  UNL     1      66.043  25.655  19.997  1.00  0.00     0.167 HD
HETATM    6  C3  UNL     1      67.909  25.159  20.730  1.00  0.00     0.122 A 
HETATM    7  S1  UNL     1      68.979  26.475  20.571  1.00  0.00     0.008 SA
HETATM    8  N3  UNL     1      70.363  25.790  21.230  1.00  0.00    -0.309 N 
ATOM      9  H3  UNL     1      71.281  26.220  21.346  1.00  0.00     0.176 HD
HETATM   10  C4  UNL     1      69.987  24.563  21.563  1.00  0.00     0.135 A 
HETATM   11  C5  UNL     1      68.699  24.208  21.308  1.00  0.00     0.113 A 
HETATM   12  N5  UNL     1      68.098  22.990  21.570  1.00  0.00    -0.343 N 
ATOM     13  H5  UNL     1      68.648  22.248  22.002  1.00  0.00     0.167 HD
HETATM   14  C6  UNL     1      66.820  22.762  21.273  1.00  0.00     0.108 A 
ENDROOT
BRANCH  14  15
HETATM   15  S2  UNL     1      66.072  21.193  21.619  1.00  0.00    -0.109 SA
BRANCH  15  16
HETATM   16  C7  UNL     1      66.156  20.672  23.313  1.00  0.00     0.081 C 
BRANCH  16  17
HETATM   17  C8  UNL     1      65.326  21.398  24.298  1.00  0.00     0.015 C 
BRANCH  17  18
HETATM   18  C9  UNL     1      64.111  22.086  23.830  1.00  0.00    -0.014 C 
HETATM   19  C10 UNL     1      62.815  21.468  24.321  1.00  0.00     0.005 C 
HETATM   20  C11 UNL     1      61.760  22.557  24.085  1.00  0.00     0.000 C 
HETATM   21  C12 UNL     1      62.523  23.760  23.560  1.00  0.00     0.000 C 
HETATM   22  C13 UNL     1      63.910  23.508  24.196  1.00  0.00     0.005 C 
ENDBRANCH  17  18
ENDBRANCH  16  17
ENDBRANCH  15  16
ENDBRANCH  14  15
BRANCH  10  23
HETATM   23  N4  UNL     1      70.848  23.718  22.125  1.00  0.00    -0.383 N 
ATOM     24  H42 UNL     1      71.109  22.840  21.677  1.00  0.00     0.157 HD
ATOM     25  H41 UNL     1      71.272  23.932  23.028  1.00  0.00     0.157 HD
ENDBRANCH  10  23
TORSDOF 5
ENDMDL
MODEL 5
REMARK VINA RESULT: -6.499092696      2.049      2.838
REMARK  5 active torsions:
REMARK  status: ('A' for Active; 'I' for Inactive)
REMARK    1  A    between atoms: C4_10  and  N4_11 
REMARK    2  A    between atoms: C6_17  and  S2_18 
REMARK    3  A    between atoms: S2_18  and  C7_19 
REMARK    4  A    between atoms: C7_19  and  C8_20 
REMARK    5  A    between atoms: C8_20  and  C9_21 
ROOT
HETATM    1  N1  UNL     1      60.172  22.815  26.780  1.00  0.00    -0.190 NA
HETATM    2  C1  UNL     1      60.102  23.199  25.691  1.00  0.00     0.120 C 
HETATM    3  C2  UNL     1      60.015  23.658  24.340  1.00  0.00     0.148 A 
HETATM    4  N2  UNL     1      58.884  24.136  23.795  1.00  0.00    -0.337 N 
ATOM      5  H2  UNL     1      58.041  24.176  24.367  1.00  0.00     0.167 HD
HETATM    6  C3  UNL     1      58.824  24.570  22.497  1.00  0.00     0.122 A 
HETATM    7  S1  UNL     1      57.626  25.218  21.476  1.00  0.00     0.008 SA
HETATM    8  N3  UNL     1      58.533  25.427  20.079  1.00  0.00    -0.309 N 
ATOM      9  H3  UNL     1      58.224  25.798  19.180  1.00  0.00     0.176 HD
HETATM   10  C4  UNL     1      59.742  24.998  20.414  1.00  0.00     0.135 A 
HETATM   11  C5  UNL     1      59.918  24.542  21.683  1.00  0.00     0.113 A 
HETATM   12  N5  UNL     1      61.085  24.051  22.241  1.00  0.00    -0.343 N 
ATOM     13  H5  UNL     1      61.930  24.010  21.672  1.00  0.00     0.167 HD
HETATM   14  C6  UNL     1      61.133  23.631  23.505  1.00  0.00     0.108 A 
ENDROOT
BRANCH  14  15
HETATM   15  S2  UNL     1      62.639  23.006  24.199  1.00  0.00    -0.109 SA
BRANCH  15  16
HETATM   16  C7  UNL     1      62.714  21.242  24.378  1.00  0.00     0.081 C 
BRANCH  16  17
HETATM   17  C8  UNL     1      64.033  20.591  24.228  1.00  0.00     0.015 C 
BRANCH  17  18
HETATM   18  C9  UNL     1      65.070  21.268  23.429  1.00  0.00    -0.014 C 
HETATM   19  C10 UNL     1      66.276  21.722  24.229  1.00  0.00     0.005 C 
HETATM   20  C11 UNL     1      67.357  21.985  23.172  1.00  0.00     0.000 C 
HETATM   21  C12 UNL     1      66.740  21.581  21.845  1.00  0.00     0.000 C 
HETATM   22  C13 UNL     1      65.718  20.523  22.324  1.00  0.00     0.005 C 
ENDBRANCH  17  18
ENDBRANCH  16  17
ENDBRANCH  15  16
ENDBRANCH  14  15
BRANCH  10  23
HETATM   23  N4  UNL     1      60.738  25.018  19.532  1.00  0.00    -0.383 N 
ATOM     24  H42 UNL     1      60.711  24.461  18.678  1.00  0.00     0.157 HD
ATOM     25  H41 UNL     1      61.562  25.599  19.691  1.00  0.00     0.157 HD
ENDBRANCH  10  23
TORSDOF 5
ENDMDL
