MODEL 1
REMARK VINA RESULT: -6.453662147      0.000      0.000
REMARK  6 active torsions:
REMARK  status: ('A' for Active; 'I' for Inactive)
REMARK    1  A    between atoms: C2_2  and  C4_4 
REMARK    2  A    between atoms: C4_4  and  C5_5 
REMARK    3  A    between atoms: C5_5  and  C6_7 
REMARK    4  A    between atoms: C6_7  and  N1_8 
REMARK    5  A    between atoms: C7_9  and  O2_10 
REMARK    6  A    between atoms: C10_14  and  O3_15 
ROOT
HETATM    1  N1  UNL     1      65.334  21.843  24.080  1.00  0.00    -0.301 N 
HETATM    2  C7  UNL     1      66.217  22.018  23.111  1.00  0.00     0.152 A 
HETATM    3  C8  UNL     1      65.660  22.792  22.134  1.00  0.00     0.009 A 
HETATM    4  C9  UNL     1      64.367  23.098  22.548  1.00  0.00     0.018 A 
HETATM    5  C10 UNL     1      64.195  22.496  23.758  1.00  0.00     0.152 A 
HETATM    6  C11 UNL     1      63.572  23.943  21.620  1.00  0.00     0.085 C 
HETATM    7  C12 UNL     1      63.613  23.273  20.260  1.00  0.00     0.021 C 
HETATM    8  C13 UNL     1      65.009  22.998  19.803  1.00  0.00     0.011 C 
HETATM    9  C14 UNL     1      66.068  23.354  20.816  1.00  0.00     0.033 C 
HETATM   10  C15 UNL     1      66.238  24.848  20.987  1.00  0.00     0.084 C 
HETATM   11  S1  UNL     1      64.564  25.478  21.425  1.00  0.00    -0.159 SA
ENDROOT
BRANCH   1  12
HETATM   12  C6  UNL     1      65.498  21.104  25.303  1.00  0.00     0.211 C 
BRANCH  12  13
HETATM   13  C5  UNL     1      65.297  19.659  25.158  1.00  0.00     0.145 C 
HETATM   14  O1  UNL     1      65.887  19.065  24.240  1.00  0.00    -0.296 OA
BRANCH  13  15
HETATM   15  C4  UNL     1      64.435  18.837  26.032  1.00  0.00     0.084 C 
BRANCH  15  16
HETATM   16  C2  UNL     1      63.021  18.688  25.534  1.00  0.00    -0.016 C 
HETATM   17  C1  UNL     1      62.083  19.745  26.058  1.00  0.00     0.010 C 
HETATM   18  C3  UNL     1      62.458  17.337  25.934  1.00  0.00     0.010 C 
ENDBRANCH  15  16
ENDBRANCH  13  15
ENDBRANCH  12  13
ENDBRANCH   1  12
BRANCH   2  19
HETATM   19  O2  UNL     1      67.492  21.510  23.074  1.00  0.00    -0.345 OA
ATOM     20  H2  UNL     1      67.746  20.615  23.263  1.00  0.00     0.219 HD
ENDBRANCH   2  19
BRANCH   5  21
HETATM   21  O3  UNL     1      63.013  22.585  24.478  1.00  0.00    -0.345 OA
ATOM     22  H3  UNL     1      62.305  23.212  24.384  1.00  0.00     0.219 HD
ENDBRANCH   5  21
TORSDOF 6
ENDMDL
MODEL 2
REMARK VINA RESULT: -6.381419333      1.509      2.408
REMARK  6 active torsions:
REMARK  status: ('A' for Active; 'I' for Inactive)
REMARK    1  A    between atoms: C2_2  and  C4_4 
REMARK    2  A    between atoms: C4_4  and  C5_5 
REMARK    3  A    between atoms: C5_5  and  C6_7 
REMARK    4  A    between atoms: C6_7  and  N1_8 
REMARK    5  A    between atoms: C7_9  and  O2_10 
REMARK    6  A    between atoms: C10_14  and  O3_15 
ROOT
HETATM    1  N1  UNL     1      64.395  20.503  24.780  1.00  0.00    -0.301 N 
HETATM    2  C7  UNL     1      65.512  20.257  24.117  1.00  0.00     0.152 A 
HETATM    3  C8  UNL     1      65.642  21.168  23.108  1.00  0.00     0.009 A 
HETATM    4  C9  UNL     1      64.534  22.008  23.177  1.00  0.00     0.018 A 
HETATM    5  C10 UNL     1      63.780  21.570  24.224  1.00  0.00     0.152 A 
HETATM    6  C11 UNL     1      64.474  23.086  22.156  1.00  0.00     0.085 C 
HETATM    7  C12 UNL     1      64.630  22.426  20.800  1.00  0.00     0.021 C 
HETATM    8  C13 UNL     1      65.852  21.567  20.721  1.00  0.00     0.011 C 
HETATM    9  C14 UNL     1      66.614  21.465  22.019  1.00  0.00     0.033 C 
HETATM   10  C15 UNL     1      67.331  22.747  22.382  1.00  0.00     0.084 C 
HETATM   11  S1  UNL     1      66.024  24.043  22.401  1.00  0.00    -0.159 SA
ENDROOT
BRANCH   1  12
HETATM   12  C6  UNL     1      63.869  19.798  25.919  1.00  0.00     0.211 C 
BRANCH  12  13
HETATM   13  C5  UNL     1      62.633  19.059  25.645  1.00  0.00     0.145 C 
HETATM   14  O1  UNL     1      61.578  19.698  25.495  1.00  0.00    -0.296 OA
BRANCH  13  15
HETATM   15  C4  UNL     1      62.539  17.589  25.529  1.00  0.00     0.084 C 
BRANCH  15  16
HETATM   16  C2  UNL     1      62.297  16.885  26.839  1.00  0.00    -0.016 C 
HETATM   17  C1  UNL     1      62.424  15.387  26.750  1.00  0.00     0.010 C 
HETATM   18  C3  UNL     1      60.906  17.197  27.359  1.00  0.00     0.010 C 
ENDBRANCH  15  16
ENDBRANCH  13  15
ENDBRANCH  12  13
ENDBRANCH   1  12
BRANCH   2  19
HETATM   19  O2  UNL     1      66.409  19.252  24.383  1.00  0.00    -0.345 OA
ATOM     20  H2  UNL     1      67.350  19.347  24.466  1.00  0.00     0.219 HD
ENDBRANCH   2  19
BRANCH   5  21
HETATM   21  O3  UNL     1      62.589  22.177  24.594  1.00  0.00    -0.345 OA
ATOM     22  H3  UNL     1      62.453  22.918  25.173  1.00  0.00     0.219 HD
ENDBRANCH   5  21
TORSDOF 6
ENDMDL
MODEL 3
REMARK VINA RESULT: -6.309253742      2.655      4.382
REMARK  6 active torsions:
REMARK  status: ('A' for Active; 'I' for Inactive)
REMARK    1  A    between atoms: C2_2  and  C4_4 
REMARK    2  A    between atoms: C4_4  and  C5_5 
REMARK    3  A    between atoms: C5_5  and  C6_7 
REMARK    4  A    between atoms: C6_7  and  N1_8 
REMARK    5  A    between atoms: C7_9  and  O2_10 
REMARK    6  A    between atoms: C10_14  and  O3_15 
ROOT
HETATM    1  N1  UNL     1      65.970  23.766  21.995  1.00  0.00    -0.301 N 
HETATM    2  C7  UNL     1      66.216  25.065  21.974  1.00  0.00     0.152 A 
HETATM    3  C8  UNL     1      67.516  25.267  21.612  1.00  0.00     0.009 A 
HETATM    4  C9  UNL     1      68.079  24.011  21.404  1.00  0.00     0.018 A 
HETATM    5  C10 UNL     1      67.095  23.101  21.649  1.00  0.00     0.152 A 
HETATM    6  C11 UNL     1      69.508  24.000  20.998  1.00  0.00     0.085 C 
HETATM    7  C12 UNL     1      70.269  24.824  22.019  1.00  0.00     0.021 C 
HETATM    8  C13 UNL     1      69.687  26.190  22.195  1.00  0.00     0.011 C 
HETATM    9  C14 UNL     1      68.427  26.427  21.400  1.00  0.00     0.033 C 
HETATM   10  C15 UNL     1      68.684  26.543  19.913  1.00  0.00     0.084 C 
HETATM   11  S1  UNL     1      69.559  24.990  19.451  1.00  0.00    -0.159 SA
ENDROOT
BRANCH   1  12
HETATM   12  C6  UNL     1      64.733  23.105  22.313  1.00  0.00     0.211 C 
BRANCH  12  13
HETATM   13  C5  UNL     1      64.527  22.881  23.748  1.00  0.00     0.145 C 
HETATM   14  O1  UNL     1      63.701  23.588  24.348  1.00  0.00    -0.296 OA
BRANCH  13  15
HETATM   15  C4  UNL     1      65.236  21.863  24.550  1.00  0.00     0.084 C 
BRANCH  15  16
HETATM   16  C2  UNL     1      64.829  20.445  24.240  1.00  0.00    -0.016 C 
HETATM   17  C1  UNL     1      63.659  19.962  25.057  1.00  0.00     0.010 C 
HETATM   18  C3  UNL     1      65.986  19.496  24.491  1.00  0.00     0.010 C 
ENDBRANCH  15  16
ENDBRANCH  13  15
ENDBRANCH  12  13
ENDBRANCH   1  12
BRANCH   2  19
HETATM   19  O2  UNL     1      65.321  26.064  22.266  1.00  0.00    -0.345 OA
ATOM     20  H2  UNL     1      65.535  26.946  22.547  1.00  0.00     0.219 HD
ENDBRANCH   2  19
BRANCH   5  21
HETATM   21  O3  UNL     1      67.296  21.733  21.539  1.00  0.00    -0.345 OA
ATOM     22  H3  UNL     1      67.871  21.261  20.947  1.00  0.00     0.219 HD
ENDBRANCH   5  21
TORSDOF 6
ENDMDL
MODEL 4
REMARK VINA RESULT: -6.292083631      1.027      2.606
REMARK  6 active torsions:
REMARK  status: ('A' for Active; 'I' for Inactive)
REMARK    1  A    between atoms: C2_2  and  C4_4 
REMARK    2  A    between atoms: C4_4  and  C5_5 
REMARK    3  A    between atoms: C5_5  and  C6_7 
REMARK    4  A    between atoms: C6_7  and  N1_8 
REMARK    5  A    between atoms: C7_9  and  O2_10 
REMARK    6  A    between atoms: C10_14  and  O3_15 
ROOT
HETATM    1  N1  UNL     1      65.580  22.202  24.098  1.00  0.00    -0.301 N 
HETATM    2  C7  UNL     1      64.622  23.077  23.848  1.00  0.00     0.152 A 
HETATM    3  C8  UNL     1      64.951  23.793  22.733  1.00  0.00     0.009 A 
HETATM    4  C9  UNL     1      66.181  23.312  22.292  1.00  0.00     0.018 A 
HETATM    5  C10 UNL     1      66.544  22.326  23.159  1.00  0.00     0.152 A 
HETATM    6  C11 UNL     1      66.732  23.962  21.074  1.00  0.00     0.085 C 
HETATM    7  C12 UNL     1      66.741  25.457  21.330  1.00  0.00     0.021 C 
HETATM    8  C13 UNL     1      65.401  25.970  21.753  1.00  0.00     0.011 C 
HETATM    9  C14 UNL     1      64.358  24.894  21.923  1.00  0.00     0.033 C 
HETATM   10  C15 UNL     1      63.905  24.301  20.606  1.00  0.00     0.084 C 
HETATM   11  S1  UNL     1      65.443  23.706  19.789  1.00  0.00    -0.159 SA
ENDROOT
BRANCH   1  12
HETATM   12  C6  UNL     1      65.644  21.241  25.167  1.00  0.00     0.211 C 
BRANCH  12  13
HETATM   13  C5  UNL     1      65.467  19.852  24.732  1.00  0.00     0.145 C 
HETATM   14  O1  UNL     1      66.478  19.160  24.522  1.00  0.00    -0.296 OA
BRANCH  13  15
HETATM   15  C4  UNL     1      64.161  19.195  24.521  1.00  0.00     0.084 C 
BRANCH  15  16
HETATM   16  C2  UNL     1      63.251  19.239  25.722  1.00  0.00    -0.016 C 
HETATM   17  C1  UNL     1      62.699  17.891  26.108  1.00  0.00     0.010 C 
HETATM   18  C3  UNL     1      62.073  20.159  25.461  1.00  0.00     0.010 C 
ENDBRANCH  15  16
ENDBRANCH  13  15
ENDBRANCH  12  13
ENDBRANCH   1  12
BRANCH   2  19
HETATM   19  O2  UNL     1      63.474  23.254  24.580  1.00  0.00    -0.345 OA
ATOM     20  H2  UNL     1      62.989  22.577  25.037  1.00  0.00     0.219 HD
ENDBRANCH   2  19
BRANCH   5  21
HETATM   21  O3  UNL     1      67.727  21.614  23.029  1.00  0.00    -0.345 OA
ATOM     22  H3  UNL     1      68.459  21.558  23.633  1.00  0.00     0.219 HD
ENDBRANCH   5  21
TORSDOF 6
ENDMDL
MODEL 5
REMARK VINA RESULT: -6.256755644      2.466      3.799
REMARK  6 active torsions:
REMARK  status: ('A' for Active; 'I' for Inactive)
REMARK    1  A    between atoms: C2_2  and  C4_4 
REMARK    2  A    between atoms: C4_4  and  C5_5 
REMARK    3  A    between atoms: C5_5  and  C6_7 
REMARK    4  A    between atoms: C6_7  and  N1_8 
REMARK    5  A    between atoms: C7_9  and  O2_10 
REMARK    6  A    between atoms: C10_14  and  O3_15 
ROOT
HETATM    1  N1  UNL     1      66.303  22.494  21.323  1.00  0.00    -0.301 N 
HETATM    2  C7  UNL     1      65.439  23.201  20.616  1.00  0.00     0.152 A 
HETATM    3  C8  UNL     1      65.920  24.469  20.462  1.00  0.00     0.009 A 
HETATM    4  C9  UNL     1      67.147  24.519  21.117  1.00  0.00     0.018 A 
HETATM    5  C10 UNL     1      67.357  23.278  21.640  1.00  0.00     0.152 A 
HETATM    6  C11 UNL     1      67.853  25.826  21.073  1.00  0.00     0.085 C 
HETATM    7  C12 UNL     1      66.877  26.876  21.568  1.00  0.00     0.021 C 
HETATM    8  C13 UNL     1      65.582  26.848  20.821  1.00  0.00     0.011 C 
HETATM    9  C14 UNL     1      65.483  25.735  19.808  1.00  0.00     0.033 C 
HETATM   10  C15 UNL     1      66.369  25.958  18.602  1.00  0.00     0.084 C 
HETATM   11  S1  UNL     1      68.065  26.178  19.282  1.00  0.00    -0.159 SA
ENDROOT
BRANCH   1  12
HETATM   12  C6  UNL     1      66.206  21.113  21.715  1.00  0.00     0.211 C 
BRANCH  12  13
HETATM   13  C5  UNL     1      66.051  20.912  23.160  1.00  0.00     0.145 C 
HETATM   14  O1  UNL     1      67.072  20.866  23.867  1.00  0.00    -0.296 OA
BRANCH  13  15
HETATM   15  C4  UNL     1      64.757  20.758  23.854  1.00  0.00     0.084 C 
BRANCH  15  16
HETATM   16  C2  UNL     1      63.775  21.866  23.575  1.00  0.00    -0.016 C 
HETATM   17  C1  UNL     1      64.207  23.204  24.118  1.00  0.00     0.010 C 
HETATM   18  C3  UNL     1      62.422  21.541  24.181  1.00  0.00     0.010 C 
ENDBRANCH  15  16
ENDBRANCH  13  15
ENDBRANCH  12  13
ENDBRANCH   1  12
BRANCH   2  19
HETATM   19  O2  UNL     1      64.244  22.751  20.110  1.00  0.00    -0.345 OA
ATOM     20  H2  UNL     1      63.539  22.353  20.606  1.00  0.00     0.219 HD
ENDBRANCH   2  19
BRANCH   5  21
HETATM   21  O3  UNL     1      68.493  22.955  22.368  1.00  0.00    -0.345 OA
ATOM     22  H3  UNL     1      69.348  22.690  22.049  1.00  0.00     0.219 HD
ENDBRANCH   5  21
TORSDOF 6
ENDMDL
