MODEL 1
REMARK VINA RESULT: -5.191314396      0.000      0.000
REMARK  9 active torsions:
REMARK  status: ('A' for Active; 'I' for Inactive)
REMARK    1  A    between atoms: C2_2  and  C4_4 
REMARK    2  A    between atoms: C4_4  and  C5_5 
REMARK    3  A    between atoms: C5_5  and  C6_6 
REMARK    4  A    between atoms: C5_5  and  N1_8 
REMARK    5  A    between atoms: N1_8  and  C7_11 
REMARK    6  A    between atoms: C7_11  and  O2_12 
REMARK    7  A    between atoms: C7_11  and  N2_14 
REMARK    8  A    between atoms: N2_14  and  C8_17 
REMARK    9  A    between atoms: C8_17  and  C10_20 
ROOT
HETATM    1  C8  UNL     1      19.346  -7.972  10.711  1.00  0.00     0.327 C 
HETATM    2  C9  UNL     1      20.043  -7.311  11.821  1.00  0.00     0.095 C 
HETATM    3  N3  UNL     1      20.577  -6.785  12.727  1.00  0.00    -0.195 NA
ENDROOT
BRANCH   1   4
HETATM    4  N2  UNL     1      19.820  -7.478   9.476  1.00  0.00    -0.004 N 
ATOM      5  H22 UNL     1      20.225  -6.548   9.581  1.00  0.00     0.284 HD
ATOM      6  H21 UNL     1      19.048  -7.248   8.850  1.00  0.00     0.284 HD
BRANCH   4   7
HETATM    7  C7  UNL     1      20.748  -8.383   8.847  1.00  0.00     0.524 C 
BRANCH   7   8
HETATM    8  N1  UNL     1      21.283  -7.973   7.604  1.00  0.00    -0.013 N 
ATOM      9  H12 UNL     1      21.238  -8.728   6.920  1.00  0.00     0.283 HD
ATOM     10  H11 UNL     1      22.296  -7.862   7.661  1.00  0.00     0.283 HD
BRANCH   8  11
HETATM   11  C5  UNL     1      20.668  -6.790   7.101  1.00  0.00     0.252 C 
BRANCH  11  12
HETATM   12  C4  UNL     1      19.845  -7.089   5.849  1.00  0.00     0.044 C 
BRANCH  12  13
HETATM   13  C2  UNL     1      18.409  -7.379   6.091  1.00  0.00    -0.020 C 
HETATM   14  C1  UNL     1      17.887  -6.215   6.963  1.00  0.00     0.009 C 
HETATM   15  C3  UNL     1      17.526  -7.336   4.852  1.00  0.00     0.009 C 
ENDBRANCH  12  13
ENDBRANCH  11  12
BRANCH  11  16
HETATM   16  C6  UNL     1      21.534  -5.628   6.902  1.00  0.00     0.264 C 
HETATM   17  O1  UNL     1      21.359  -4.661   6.206  1.00  0.00    -0.305 OA
ENDBRANCH  11  16
ENDBRANCH   8  11
ENDBRANCH   7   8
BRANCH   7  18
HETATM   18  O2  UNL     1      20.152  -9.645   8.806  1.00  0.00    -0.349 OA
ATOM     19  H2  UNL     1      20.756 -10.354   8.991  1.00  0.00     0.213 HD
ENDBRANCH   7  18
ENDBRANCH   4   7
ENDBRANCH   1   4
BRANCH   1  20
HETATM   20  C10 UNL     1      17.868  -7.773  10.960  1.00  0.00     0.240 C 
HETATM   21  C11 UNL     1      17.001  -8.361   9.893  1.00  0.00     0.111 C 
HETATM   22  S1  UNL     1      16.457  -9.912  10.711  1.00  0.00    -0.140 SA
HETATM   23  C12 UNL     1      17.177  -9.533  12.362  1.00  0.00     0.306 C 
HETATM   24  N4  UNL     1      17.411  -8.141  12.249  1.00  0.00    -0.059 N 
ATOM     25  H42 UNL     1      18.053  -7.816  12.973  1.00  0.00     0.278 HD
ATOM     26  H41 UNL     1      16.584  -7.606  12.512  1.00  0.00     0.278 HD
ENDBRANCH   1  20
TORSDOF 9
ENDMDL
MODEL 2
REMARK VINA RESULT: -5.071554299      1.422      1.584
REMARK  9 active torsions:
REMARK  status: ('A' for Active; 'I' for Inactive)
REMARK    1  A    between atoms: C2_2  and  C4_4 
REMARK    2  A    between atoms: C4_4  and  C5_5 
REMARK    3  A    between atoms: C5_5  and  C6_6 
REMARK    4  A    between atoms: C5_5  and  N1_8 
REMARK    5  A    between atoms: N1_8  and  C7_11 
REMARK    6  A    between atoms: C7_11  and  O2_12 
REMARK    7  A    between atoms: C7_11  and  N2_14 
REMARK    8  A    between atoms: N2_14  and  C8_17 
REMARK    9  A    between atoms: C8_17  and  C10_20 
ROOT
HETATM    1  C8  UNL     1      19.581  -7.104  10.677  1.00  0.00     0.327 C 
HETATM    2  C9  UNL     1      19.869  -5.665  10.662  1.00  0.00     0.095 C 
HETATM    3  N3  UNL     1      20.087  -4.509  10.677  1.00  0.00    -0.195 NA
ENDROOT
BRANCH   1   4
HETATM    4  N2  UNL     1      19.407  -7.579   9.358  1.00  0.00    -0.004 N 
ATOM      5  H22 UNL     1      19.227  -6.813   8.710  1.00  0.00     0.284 HD
ATOM      6  H21 UNL     1      18.526  -8.084   9.261  1.00  0.00     0.284 HD
BRANCH   4   7
HETATM    7  C7  UNL     1      20.519  -8.383   8.918  1.00  0.00     0.524 C 
BRANCH   7   8
HETATM    8  N1  UNL     1      21.136  -7.995   7.706  1.00  0.00    -0.013 N 
ATOM      9  H12 UNL     1      21.133  -8.761   7.033  1.00  0.00     0.283 HD
ATOM     10  H11 UNL     1      22.143  -7.886   7.828  1.00  0.00     0.283 HD
BRANCH   8  11
HETATM   11  C5  UNL     1      20.559  -6.819   7.145  1.00  0.00     0.252 C 
BRANCH  11  12
HETATM   12  C4  UNL     1      19.797  -7.140   5.860  1.00  0.00     0.044 C 
BRANCH  12  13
HETATM   13  C2  UNL     1      18.344  -7.388   6.033  1.00  0.00    -0.020 C 
HETATM   14  C1  UNL     1      17.809  -6.192   6.852  1.00  0.00     0.009 C 
HETATM   15  C3  UNL     1      17.527  -7.349   4.749  1.00  0.00     0.009 C 
ENDBRANCH  12  13
ENDBRANCH  11  12
BRANCH  11  16
HETATM   16  C6  UNL     1      21.447  -5.670   6.963  1.00  0.00     0.264 C 
HETATM   17  O1  UNL     1      21.300  -4.700   6.264  1.00  0.00    -0.305 OA
ENDBRANCH  11  16
ENDBRANCH   8  11
ENDBRANCH   7   8
BRANCH   7  18
HETATM   18  O2  UNL     1      20.112  -9.718   8.931  1.00  0.00    -0.349 OA
ATOM     19  H2  UNL     1      19.923 -10.048   9.802  1.00  0.00     0.213 HD
ENDBRANCH   7  18
ENDBRANCH   4   7
ENDBRANCH   1   4
BRANCH   1  20
HETATM   20  C10 UNL     1      18.390  -7.289  11.589  1.00  0.00     0.240 C 
HETATM   21  C11 UNL     1      17.975  -8.717  11.743  1.00  0.00     0.111 C 
HETATM   22  S1  UNL     1      18.704  -9.110  13.382  1.00  0.00    -0.140 SA
HETATM   23  C12 UNL     1      19.232  -7.394  13.785  1.00  0.00     0.306 C 
HETATM   24  N4  UNL     1      18.480  -6.645  12.847  1.00  0.00    -0.059 N 
ATOM     25  H42 UNL     1      18.850  -5.699  12.751  1.00  0.00     0.278 HD
ATOM     26  H41 UNL     1      17.554  -6.423  13.213  1.00  0.00     0.278 HD
ENDBRANCH   1  20
TORSDOF 9
ENDMDL
MODEL 3
REMARK VINA RESULT: -4.961918164      2.173      3.254
REMARK  9 active torsions:
REMARK  status: ('A' for Active; 'I' for Inactive)
REMARK    1  A    between atoms: C2_2  and  C4_4 
REMARK    2  A    between atoms: C4_4  and  C5_5 
REMARK    3  A    between atoms: C5_5  and  C6_6 
REMARK    4  A    between atoms: C5_5  and  N1_8 
REMARK    5  A    between atoms: N1_8  and  C7_11 
REMARK    6  A    between atoms: C7_11  and  O2_12 
REMARK    7  A    between atoms: C7_11  and  N2_14 
REMARK    8  A    between atoms: N2_14  and  C8_17 
REMARK    9  A    between atoms: C8_17  and  C10_20 
ROOT
HETATM    1  C8  UNL     1      17.745  -8.416  10.410  1.00  0.00     0.327 C 
HETATM    2  C9  UNL     1      17.208  -9.727  10.791  1.00  0.00     0.095 C 
HETATM    3  N3  UNL     1      16.753 -10.764  11.108  1.00  0.00    -0.195 NA
ENDROOT
BRANCH   1   4
HETATM    4  N2  UNL     1      19.157  -8.433  10.464  1.00  0.00    -0.004 N 
ATOM      5  H22 UNL     1      19.496  -9.233  10.999  1.00  0.00     0.284 HD
ATOM      6  H21 UNL     1      19.513  -7.682  11.054  1.00  0.00     0.284 HD
BRANCH   4   7
HETATM    7  C7  UNL     1      19.753  -8.393   9.153  1.00  0.00     0.524 C 
BRANCH   7   8
HETATM    8  N1  UNL     1      18.883  -8.112   8.074  1.00  0.00    -0.013 N 
ATOM      9  H12 UNL     1      17.966  -7.821   8.411  1.00  0.00     0.283 HD
ATOM     10  H11 UNL     1      18.616  -8.969   7.588  1.00  0.00     0.283 HD
BRANCH   8  11
HETATM   11  C5  UNL     1      19.420  -7.155   7.165  1.00  0.00     0.252 C 
BRANCH  11  12
HETATM   12  C4  UNL     1      19.083  -5.731   7.603  1.00  0.00     0.044 C 
BRANCH  12  13
HETATM   13  C2  UNL     1      20.253  -4.853   7.856  1.00  0.00    -0.020 C 
HETATM   14  C1  UNL     1      20.413  -4.800   9.392  1.00  0.00     0.009 C 
HETATM   15  C3  UNL     1      21.586  -5.400   7.365  1.00  0.00     0.009 C 
ENDBRANCH  12  13
ENDBRANCH  11  12
BRANCH  11  16
HETATM   16  C6  UNL     1      19.131  -7.358   5.745  1.00  0.00     0.264 C 
HETATM   17  O1  UNL     1      18.367  -8.134   5.229  1.00  0.00    -0.305 OA
ENDBRANCH  11  16
ENDBRANCH   8  11
ENDBRANCH   7   8
BRANCH   7  18
HETATM   18  O2  UNL     1      20.488  -9.566   8.982  1.00  0.00    -0.349 OA
ATOM     19  H2  UNL     1      21.164  -9.688   9.639  1.00  0.00     0.213 HD
ENDBRANCH   7  18
ENDBRANCH   4   7
ENDBRANCH   1   4
BRANCH   1  20
HETATM   20  C10 UNL     1      17.080  -7.405  11.316  1.00  0.00     0.240 C 
HETATM   21  C11 UNL     1      17.440  -5.990  10.994  1.00  0.00     0.111 C 
HETATM   22  S1  UNL     1      15.943  -5.458  10.072  1.00  0.00    -0.140 SA
HETATM   23  C12 UNL     1      14.955  -6.975  10.400  1.00  0.00     0.306 C 
HETATM   24  N4  UNL     1      15.680  -7.552  11.470  1.00  0.00    -0.059 N 
ATOM     25  H42 UNL     1      15.425  -8.532  11.600  1.00  0.00     0.278 HD
ATOM     26  H41 UNL     1      15.368  -7.182  12.368  1.00  0.00     0.278 HD
ENDBRANCH   1  20
TORSDOF 9
ENDMDL
MODEL 4
REMARK VINA RESULT: -4.902648745      2.200      3.399
REMARK  9 active torsions:
REMARK  status: ('A' for Active; 'I' for Inactive)
REMARK    1  A    between atoms: C2_2  and  C4_4 
REMARK    2  A    between atoms: C4_4  and  C5_5 
REMARK    3  A    between atoms: C5_5  and  C6_6 
REMARK    4  A    between atoms: C5_5  and  N1_8 
REMARK    5  A    between atoms: N1_8  and  C7_11 
REMARK    6  A    between atoms: C7_11  and  O2_12 
REMARK    7  A    between atoms: C7_11  and  N2_14 
REMARK    8  A    between atoms: N2_14  and  C8_17 
REMARK    9  A    between atoms: C8_17  and  C10_20 
ROOT
HETATM    1  C8  UNL     1      17.823  -8.604  10.808  1.00  0.00     0.327 C 
HETATM    2  C9  UNL     1      17.078  -9.867  10.746  1.00  0.00     0.095 C 
HETATM    3  N3  UNL     1      16.460 -10.867  10.713  1.00  0.00    -0.195 NA
ENDROOT
BRANCH   1   4
HETATM    4  N2  UNL     1      19.211  -8.854  10.736  1.00  0.00    -0.004 N 
ATOM      5  H22 UNL     1      19.425  -9.821  10.976  1.00  0.00     0.284 HD
ATOM      6  H21 UNL     1      19.709  -8.386  11.493  1.00  0.00     0.284 HD
BRANCH   4   7
HETATM    7  C7  UNL     1      19.763  -8.500   9.453  1.00  0.00     0.524 C 
BRANCH   7   8
HETATM    8  N1  UNL     1      18.880  -7.885   8.536  1.00  0.00    -0.013 N 
ATOM      9  H12 UNL     1      18.213  -7.283   9.019  1.00  0.00     0.283 HD
ATOM     10  H11 UNL     1      18.232  -8.566   8.140  1.00  0.00     0.283 HD
BRANCH   8  11
HETATM   11  C5  UNL     1      19.561  -7.170   7.508  1.00  0.00     0.252 C 
BRANCH  11  12
HETATM   12  C4  UNL     1      19.180  -5.691   7.521  1.00  0.00     0.044 C 
BRANCH  12  13
HETATM   13  C2  UNL     1      20.283  -4.757   7.859  1.00  0.00    -0.020 C 
HETATM   14  C1  UNL     1      20.416  -4.803   9.398  1.00  0.00     0.009 C 
HETATM   15  C3  UNL     1      21.658  -5.176   7.357  1.00  0.00     0.009 C 
ENDBRANCH  12  13
ENDBRANCH  11  12
BRANCH  11  16
HETATM   16  C6  UNL     1      19.486  -7.726   6.156  1.00  0.00     0.264 C 
HETATM   17  O1  UNL     1      19.770  -8.833   5.774  1.00  0.00    -0.305 OA
ENDBRANCH  11  16
ENDBRANCH   8  11
ENDBRANCH   7   8
BRANCH   7  18
HETATM   18  O2  UNL     1      20.401  -9.629   8.938  1.00  0.00    -0.349 OA
ATOM     19  H2  UNL     1      21.089  -9.424   8.316  1.00  0.00     0.213 HD
ENDBRANCH   7  18
ENDBRANCH   4   7
ENDBRANCH   1   4
BRANCH   1  20
HETATM   20  C10 UNL     1      17.359  -7.900  12.063  1.00  0.00     0.240 C 
HETATM   21  C11 UNL     1      18.460  -7.645  13.042  1.00  0.00     0.111 C 
HETATM   22  S1  UNL     1      18.796  -5.868  12.725  1.00  0.00    -0.140 SA
HETATM   23  C12 UNL     1      17.376  -5.594  11.587  1.00  0.00     0.306 C 
HETATM   24  N4  UNL     1      16.581  -6.735  11.856  1.00  0.00    -0.059 N 
ATOM     25  H42 UNL     1      15.888  -6.881  11.121  1.00  0.00     0.278 HD
ATOM     26  H41 UNL     1      15.954  -6.568  12.642  1.00  0.00     0.278 HD
ENDBRANCH   1  20
TORSDOF 9
ENDMDL
MODEL 5
REMARK VINA RESULT: -4.855235160      1.507      2.050
REMARK  9 active torsions:
REMARK  status: ('A' for Active; 'I' for Inactive)
REMARK    1  A    between atoms: C2_2  and  C4_4 
REMARK    2  A    between atoms: C4_4  and  C5_5 
REMARK    3  A    between atoms: C5_5  and  C6_6 
REMARK    4  A    between atoms: C5_5  and  N1_8 
REMARK    5  A    between atoms: N1_8  and  C7_11 
REMARK    6  A    between atoms: C7_11  and  O2_12 
REMARK    7  A    between atoms: C7_11  and  N2_14 
REMARK    8  A    between atoms: N2_14  and  C8_17 
REMARK    9  A    between atoms: C8_17  and  C10_20 
ROOT
HETATM    1  C8  UNL     1      18.626  -8.747  10.753  1.00  0.00     0.327 C 
HETATM    2  C9  UNL     1      19.453  -7.770  11.472  1.00  0.00     0.095 C 
HETATM    3  N3  UNL     1      20.098  -6.991  12.072  1.00  0.00    -0.195 NA
ENDROOT
BRANCH   1   4
HETATM    4  N2  UNL     1      18.600  -8.443   9.374  1.00  0.00    -0.004 N 
ATOM      5  H22 UNL     1      18.054  -7.601   9.193  1.00  0.00     0.284 HD
ATOM      6  H21 UNL     1      18.035  -9.116   8.859  1.00  0.00     0.284 HD
BRANCH   4   7
HETATM    7  C7  UNL     1      19.924  -8.336   8.815  1.00  0.00     0.524 C 
BRANCH   7   8
HETATM    8  N1  UNL     1      20.022  -7.732   7.541  1.00  0.00    -0.013 N 
ATOM      9  H12 UNL     1      19.196  -7.932   6.976  1.00  0.00     0.283 HD
ATOM     10  H11 UNL     1      20.729  -8.195   6.970  1.00  0.00     0.283 HD
BRANCH   8  11
HETATM   11  C5  UNL     1      20.263  -6.328   7.612  1.00  0.00     0.252 C 
BRANCH  11  12
HETATM   12  C4  UNL     1      18.961  -5.540   7.482  1.00  0.00     0.044 C 
BRANCH  12  13
HETATM   13  C2  UNL     1      18.703  -4.562   8.570  1.00  0.00    -0.020 C 
HETATM   14  C1  UNL     1      17.502  -5.124   9.364  1.00  0.00     0.009 C 
HETATM   15  C3  UNL     1      19.810  -4.448   9.608  1.00  0.00     0.009 C 
ENDBRANCH  12  13
ENDBRANCH  11  12
BRANCH  11  16
HETATM   16  C6  UNL     1      21.299  -5.791   6.730  1.00  0.00     0.264 C 
HETATM   17  O1  UNL     1      21.464  -4.658   6.355  1.00  0.00    -0.305 OA
ENDBRANCH  11  16
ENDBRANCH   8  11
ENDBRANCH   7   8
BRANCH   7  18
HETATM   18  O2  UNL     1      20.516  -9.598   8.878  1.00  0.00    -0.349 OA
ATOM     19  H2  UNL     1      19.911 -10.288   9.122  1.00  0.00     0.213 HD
ENDBRANCH   7  18
ENDBRANCH   4   7
ENDBRANCH   1   4
BRANCH   1  20
HETATM   20  C10 UNL     1      17.278  -8.747  11.438  1.00  0.00     0.240 C 
HETATM   21  C11 UNL     1      16.171  -9.256  10.570  1.00  0.00     0.111 C 
HETATM   22  S1  UNL     1      15.984 -10.962  11.221  1.00  0.00    -0.140 SA
HETATM   23  C12 UNL     1      17.134 -10.764  12.643  1.00  0.00     0.306 C 
HETATM   24  N4  UNL     1      17.244  -9.354  12.717  1.00  0.00    -0.059 N 
ATOM     25  H42 UNL     1      18.050  -9.077  13.278  1.00  0.00     0.278 HD
ATOM     26  H41 UNL     1      16.500  -8.957  13.292  1.00  0.00     0.278 HD
ENDBRANCH   1  20
TORSDOF 9
ENDMDL
