MODEL 1
REMARK VINA RESULT: -10.676473116      0.000      0.000
REMARK  11 active torsions:
REMARK  status: ('A' for Active; 'I' for Inactive)
REMARK    1  A    between atoms: C2_2  and  C4_4 
REMARK    2  A    between atoms: C4_4  and  N1_6 
REMARK    3  A    between atoms: N1_6  and  C6_8 
REMARK    4  A    between atoms: C7_11  and  N3_12 
REMARK    5  A    between atoms: N3_12  and  C8_13 
REMARK    6  A    between atoms: C8_13  and  C9_14 
REMARK    7  A    between atoms: N4_17  and  C12_18 
REMARK    8  A    between atoms: C12_18  and  C13_19 
REMARK    9  A    between atoms: C13_19  and  N5_20 
REMARK   10  A    between atoms: C22_31  and  N7_32 
REMARK   11  A    between atoms: N7_32  and  C23_34 
ROOT
HETATM    1  C6  UNL     1      -9.083  55.065  -4.141  1.00  0.00     0.696 A 
HETATM    2  N2  UNL     1      -7.886  54.690  -4.571  1.00  0.00    -0.148 N 
ATOM      3  H2  UNL     1      -7.829  53.978  -5.299  1.00  0.00     0.188 HD
HETATM    4  C7  UNL     1      -6.713  55.223  -4.073  1.00  0.00     0.287 A 
HETATM    5  N6  UNL     1      -6.866  56.156  -3.113  1.00  0.00    -0.148 N 
ATOM      6  H6  UNL     1      -6.031  56.582  -2.711  1.00  0.00     0.188 HD
HETATM    7  C22 UNL     1      -8.061  56.548  -2.665  1.00  0.00     0.700 A 
HETATM    8  N8  UNL     1      -9.164  56.001  -3.181  1.00  0.00    -0.022 N 
ATOM      9  H8  UNL     1     -10.078  56.297  -2.842  1.00  0.00     0.203 HD
ENDROOT
BRANCH   4  10
HETATM   10  N3  UNL     1      -5.672  54.840  -4.514  1.00  0.00    -0.387 NA
BRANCH  10  11
HETATM   11  C8  UNL     1      -4.527  54.367  -5.008  1.00  0.00     0.164 C 
BRANCH  11  12
HETATM   12  C9  UNL     1      -4.700  53.162  -5.924  1.00  0.00     0.047 C 
HETATM   13  C10 UNL     1      -3.966  51.944  -5.450  1.00  0.00     0.056 C 
HETATM   14  C11 UNL     1      -4.485  50.775  -6.251  1.00  0.00     0.069 C 
HETATM   15  N4  UNL     1      -4.577  51.009  -7.631  1.00  0.00    -0.352 N 
HETATM   16  C20 UNL     1      -4.206  52.236  -8.161  1.00  0.00     0.069 C 
HETATM   17  C21 UNL     1      -4.276  53.457  -7.323  1.00  0.00     0.056 C 
BRANCH  15  18
HETATM   18  C12 UNL     1      -5.182  50.015  -8.417  1.00  0.00     0.098 C 
BRANCH  18  19
HETATM   19  C13 UNL     1      -6.684  49.927  -8.288  1.00  0.00     0.317 C 
BRANCH  19  20
HETATM   20  N5  UNL     1      -7.315  49.384  -9.455  1.00  0.00     0.093 N 
HETATM   21  C14 UNL     1      -8.326  50.205 -10.031  1.00  0.00     0.273 C 
HETATM   22  C15 UNL     1      -9.072  49.374 -11.080  1.00  0.00     0.030 C 
HETATM   23  C16 UNL     1      -8.244  49.369 -12.331  1.00  0.00     0.002 C 
HETATM   24  C17 UNL     1      -7.504  48.043 -12.405  1.00  0.00     0.002 C 
HETATM   25  C18 UNL     1      -6.711  47.771 -11.165  1.00  0.00     0.030 C 
HETATM   26  C19 UNL     1      -6.308  49.039 -10.443  1.00  0.00     0.273 C 
ENDBRANCH  19  20
ENDBRANCH  18  19
ENDBRANCH  15  18
ENDBRANCH  11  12
ENDBRANCH  10  11
ENDBRANCH   4  10
BRANCH   1  27
HETATM   27  N1  UNL     1     -10.160  54.586  -4.602  1.00  0.00    -0.221 N 
ATOM     28  H1  UNL     1     -10.796  55.263  -5.023  1.00  0.00     0.178 HD
BRANCH  27  29
HETATM   29  C4  UNL     1     -10.611  53.223  -4.614  1.00  0.00     0.098 C 
HETATM   30  C5  UNL     1     -12.024  53.074  -4.088  1.00  0.00     0.033 C 
BRANCH  29  31
HETATM   31  C2  UNL     1     -10.490  52.660  -6.020  1.00  0.00     0.000 C 
HETATM   32  C1  UNL     1     -11.782  52.638  -6.765  1.00  0.00     0.011 C 
HETATM   33  C3  UNL     1      -9.926  51.251  -5.972  1.00  0.00     0.011 C 
ENDBRANCH  29  31
ENDBRANCH  27  29
ENDBRANCH   1  27
BRANCH   7  34
HETATM   34  N7  UNL     1      -8.077  57.444  -1.745  1.00  0.00    -0.189 N 
ATOM     35  H7  UNL     1      -8.251  57.120  -0.794  1.00  0.00     0.184 HD
BRANCH  34  36
HETATM   36  C23 UNL     1      -7.879  58.827  -1.915  1.00  0.00     0.072 A 
HETATM   37  C24 UNL     1      -8.171  59.481  -3.102  1.00  0.00     0.057 A 
HETATM   38  C25 UNL     1      -7.976  60.837  -3.246  1.00  0.00     0.058 A 
HETATM   39 CL1  UNL     1      -8.347  61.649  -4.748  1.00  0.00    -0.082 Cl
HETATM   40  C26 UNL     1      -7.480  61.606  -2.204  1.00  0.00     0.057 A 
HETATM   41 CL2  UNL     1      -7.233  63.325  -2.379  1.00  0.00    -0.082 Cl
HETATM   42  C27 UNL     1      -7.192  60.941  -1.021  1.00  0.00     0.051 A 
HETATM   43  C28 UNL     1      -7.383  59.583  -0.865  1.00  0.00     0.063 A 
HETATM   44 CL3  UNL     1      -6.981  58.865   0.679  1.00  0.00    -0.082 Cl
ENDBRANCH  34  36
ENDBRANCH   7  34
TORSDOF 11
ENDMDL
MODEL 2
REMARK VINA RESULT: -10.595389871      4.240     10.865
REMARK  11 active torsions:
REMARK  status: ('A' for Active; 'I' for Inactive)
REMARK    1  A    between atoms: C2_2  and  C4_4 
REMARK    2  A    between atoms: C4_4  and  N1_6 
REMARK    3  A    between atoms: N1_6  and  C6_8 
REMARK    4  A    between atoms: C7_11  and  N3_12 
REMARK    5  A    between atoms: N3_12  and  C8_13 
REMARK    6  A    between atoms: C8_13  and  C9_14 
REMARK    7  A    between atoms: N4_17  and  C12_18 
REMARK    8  A    between atoms: C12_18  and  C13_19 
REMARK    9  A    between atoms: C13_19  and  N5_20 
REMARK   10  A    between atoms: C22_31  and  N7_32 
REMARK   11  A    between atoms: N7_32  and  C23_34 
ROOT
HETATM    1  C6  UNL     1      -8.608  53.308  -5.971  1.00  0.00     0.696 A 
HETATM    2  N2  UNL     1      -7.802  54.017  -5.193  1.00  0.00    -0.148 N 
ATOM      3  H2  UNL     1      -8.215  54.638  -4.498  1.00  0.00     0.188 HD
HETATM    4  C7  UNL     1      -6.426  53.947  -5.284  1.00  0.00     0.287 A 
HETATM    5  N6  UNL     1      -5.951  53.107  -6.223  1.00  0.00    -0.148 N 
ATOM      6  H6  UNL     1      -4.941  53.018  -6.332  1.00  0.00     0.188 HD
HETATM    7  C22 UNL     1      -6.745  52.384  -7.018  1.00  0.00     0.700 A 
HETATM    8  N8  UNL     1      -8.069  52.489  -6.889  1.00  0.00    -0.022 N 
ATOM      9  H8  UNL     1      -8.679  51.940  -7.494  1.00  0.00     0.203 HD
ENDROOT
BRANCH   4  10
HETATM   10  N3  UNL     1      -5.764  54.610  -4.543  1.00  0.00    -0.387 NA
BRANCH  10  11
HETATM   11  C8  UNL     1      -5.049  55.391  -3.731  1.00  0.00     0.164 C 
BRANCH  11  12
HETATM   12  C9  UNL     1      -5.660  56.767  -3.500  1.00  0.00     0.047 C 
HETATM   13  C10 UNL     1      -6.960  56.723  -2.755  1.00  0.00     0.056 C 
HETATM   14  C11 UNL     1      -7.268  58.136  -2.321  1.00  0.00     0.069 C 
HETATM   15  N4  UNL     1      -7.101  59.103  -3.323  1.00  0.00    -0.352 N 
HETATM   16  C20 UNL     1      -6.682  58.733  -4.593  1.00  0.00     0.069 C 
HETATM   17  C21 UNL     1      -5.870  57.508  -4.778  1.00  0.00     0.056 C 
BRANCH  15  18
HETATM   18  C12 UNL     1      -7.235  60.451  -2.950  1.00  0.00     0.098 C 
BRANCH  18  19
HETATM   19  C13 UNL     1      -8.437  60.757  -2.089  1.00  0.00     0.317 C 
BRANCH  19  20
HETATM   20  N5  UNL     1      -8.420  62.090  -1.560  1.00  0.00     0.093 N 
HETATM   21  C14 UNL     1      -7.166  62.757  -1.646  1.00  0.00     0.273 C 
HETATM   22  C15 UNL     1      -7.248  64.035  -0.806  1.00  0.00     0.030 C 
HETATM   23  C16 UNL     1      -7.953  65.074  -1.625  1.00  0.00     0.002 C 
HETATM   24  C17 UNL     1      -9.394  65.158  -1.147  1.00  0.00     0.002 C 
HETATM   25  C18 UNL     1     -10.072  63.824  -1.168  1.00  0.00     0.030 C 
HETATM   26  C19 UNL     1      -9.466  62.879  -2.184  1.00  0.00     0.273 C 
ENDBRANCH  19  20
ENDBRANCH  18  19
ENDBRANCH  15  18
ENDBRANCH  11  12
ENDBRANCH  10  11
ENDBRANCH   4  10
BRANCH   1  27
HETATM   27  N1  UNL     1      -9.869  53.361  -5.884  1.00  0.00    -0.221 N 
ATOM     28  H1  UNL     1     -10.289  54.254  -6.144  1.00  0.00     0.178 HD
BRANCH  27  29
HETATM   29  C4  UNL     1     -10.792  52.341  -5.471  1.00  0.00     0.098 C 
HETATM   30  C5  UNL     1     -11.754  52.826  -4.405  1.00  0.00     0.033 C 
BRANCH  29  31
HETATM   31  C2  UNL     1     -11.540  51.811  -6.682  1.00  0.00     0.000 C 
HETATM   32  C1  UNL     1     -10.694  50.984  -7.589  1.00  0.00     0.011 C 
HETATM   33  C3  UNL     1     -12.131  52.963  -7.476  1.00  0.00     0.011 C 
ENDBRANCH  29  31
ENDBRANCH  27  29
ENDBRANCH   1  27
BRANCH   7  34
HETATM   34  N7  UNL     1      -6.173  51.620  -7.878  1.00  0.00    -0.189 N 
ATOM     35  H7  UNL     1      -5.249  51.265  -7.632  1.00  0.00     0.184 HD
BRANCH  34  36
HETATM   36  C23 UNL     1      -6.691  51.221  -9.125  1.00  0.00     0.072 A 
HETATM   37  C24 UNL     1      -6.519  51.974 -10.276  1.00  0.00     0.057 A 
HETATM   38  C25 UNL     1      -7.028  51.563 -11.489  1.00  0.00     0.058 A 
HETATM   39 CL1  UNL     1      -6.805  52.521 -12.933  1.00  0.00    -0.082 Cl
HETATM   40  C26 UNL     1      -7.736  50.375 -11.606  1.00  0.00     0.057 A 
HETATM   41 CL2  UNL     1      -8.381  49.849 -13.139  1.00  0.00    -0.082 Cl
HETATM   42  C27 UNL     1      -7.900  49.632 -10.447  1.00  0.00     0.051 A 
HETATM   43  C28 UNL     1      -7.395  50.033  -9.227  1.00  0.00     0.063 A 
HETATM   44 CL3  UNL     1      -7.672  49.003  -7.840  1.00  0.00    -0.082 Cl
ENDBRANCH  34  36
ENDBRANCH   7  34
TORSDOF 11
ENDMDL
MODEL 3
REMARK VINA RESULT: -10.546209981      4.415     11.081
REMARK  11 active torsions:
REMARK  status: ('A' for Active; 'I' for Inactive)
REMARK    1  A    between atoms: C2_2  and  C4_4 
REMARK    2  A    between atoms: C4_4  and  N1_6 
REMARK    3  A    between atoms: N1_6  and  C6_8 
REMARK    4  A    between atoms: C7_11  and  N3_12 
REMARK    5  A    between atoms: N3_12  and  C8_13 
REMARK    6  A    between atoms: C8_13  and  C9_14 
REMARK    7  A    between atoms: N4_17  and  C12_18 
REMARK    8  A    between atoms: C12_18  and  C13_19 
REMARK    9  A    between atoms: C13_19  and  N5_20 
REMARK   10  A    between atoms: C22_31  and  N7_32 
REMARK   11  A    between atoms: N7_32  and  C23_34 
ROOT
HETATM    1  C6  UNL     1      -8.220  53.154  -6.547  1.00  0.00     0.696 A 
HETATM    2  N2  UNL     1      -7.488  53.835  -5.676  1.00  0.00    -0.148 N 
ATOM      3  H2  UNL     1      -7.963  54.348  -4.934  1.00  0.00     0.188 HD
HETATM    4  C7  UNL     1      -6.109  53.879  -5.734  1.00  0.00     0.287 A 
HETATM    5  N6  UNL     1      -5.551  53.180  -6.741  1.00  0.00    -0.148 N 
ATOM      6  H6  UNL     1      -4.535  53.178  -6.829  1.00  0.00     0.188 HD
HETATM    7  C22 UNL     1      -6.269  52.488  -7.629  1.00  0.00     0.700 A 
HETATM    8  N8  UNL     1      -7.600  52.479  -7.528  1.00  0.00    -0.022 N 
ATOM      9  H8  UNL     1      -8.153  51.952  -8.204  1.00  0.00     0.203 HD
ENDROOT
BRANCH   4  10
HETATM   10  N3  UNL     1      -5.517  54.508  -4.910  1.00  0.00    -0.387 NA
BRANCH  10  11
HETATM   11  C8  UNL     1      -4.885  55.194  -3.956  1.00  0.00     0.164 C 
BRANCH  11  12
HETATM   12  C9  UNL     1      -5.663  56.398  -3.441  1.00  0.00     0.047 C 
HETATM   13  C10 UNL     1      -7.055  56.062  -2.999  1.00  0.00     0.056 C 
HETATM   14  C11 UNL     1      -7.574  57.252  -2.228  1.00  0.00     0.069 C 
HETATM   15  N4  UNL     1      -7.345  58.491  -2.844  1.00  0.00    -0.352 N 
HETATM   16  C20 UNL     1      -6.689  58.557  -4.065  1.00  0.00     0.069 C 
HETATM   17  C21 UNL     1      -5.736  57.491  -4.453  1.00  0.00     0.056 C 
BRANCH  15  18
HETATM   18  C12 UNL     1      -7.675  59.646  -2.116  1.00  0.00     0.098 C 
BRANCH  18  19
HETATM   19  C13 UNL     1      -7.684  60.924  -2.920  1.00  0.00     0.317 C 
BRANCH  19  20
HETATM   20  N5  UNL     1      -7.930  62.087  -2.117  1.00  0.00     0.093 N 
HETATM   21  C14 UNL     1      -6.846  63.005  -2.037  1.00  0.00     0.273 C 
HETATM   22  C15 UNL     1      -7.168  64.028  -0.943  1.00  0.00     0.030 C 
HETATM   23  C16 UNL     1      -8.099  65.046  -1.530  1.00  0.00     0.002 C 
HETATM   24  C17 UNL     1      -9.511  64.721  -1.069  1.00  0.00     0.002 C 
HETATM   25  C18 UNL     1      -9.895  63.310  -1.386  1.00  0.00     0.030 C 
HETATM   26  C19 UNL     1      -9.136  62.753  -2.572  1.00  0.00     0.273 C 
ENDBRANCH  19  20
ENDBRANCH  18  19
ENDBRANCH  15  18
ENDBRANCH  11  12
ENDBRANCH  10  11
ENDBRANCH   4  10
BRANCH   1  27
HETATM   27  N1  UNL     1      -9.484  53.104  -6.492  1.00  0.00    -0.221 N 
ATOM     28  H1  UNL     1      -9.972  53.903  -6.896  1.00  0.00     0.178 HD
BRANCH  27  29
HETATM   29  C4  UNL     1     -10.325  52.079  -5.940  1.00  0.00     0.098 C 
HETATM   30  C5  UNL     1     -11.217  52.596  -4.830  1.00  0.00     0.033 C 
BRANCH  29  31
HETATM   31  C2  UNL     1     -11.146  51.443  -7.048  1.00  0.00     0.000 C 
HETATM   32  C1  UNL     1     -10.317  50.790  -8.102  1.00  0.00     0.011 C 
HETATM   33  C3  UNL     1     -12.039  52.484  -7.701  1.00  0.00     0.011 C 
ENDBRANCH  29  31
ENDBRANCH  27  29
ENDBRANCH   1  27
BRANCH   7  34
HETATM   34  N7  UNL     1      -5.623  51.863  -8.546  1.00  0.00    -0.189 N 
ATOM     35  H7  UNL     1      -4.616  52.025  -8.588  1.00  0.00     0.184 HD
BRANCH  34  36
HETATM   36  C23 UNL     1      -6.159  50.976  -9.499  1.00  0.00     0.072 A 
HETATM   37  C24 UNL     1      -6.092  49.599  -9.355  1.00  0.00     0.057 A 
HETATM   38  C25 UNL     1      -6.629  48.748 -10.296  1.00  0.00     0.058 A 
HETATM   39 CL1  UNL     1      -6.537  47.014 -10.103  1.00  0.00    -0.082 Cl
HETATM   40  C26 UNL     1      -7.262  49.238 -11.429  1.00  0.00     0.057 A 
HETATM   41 CL2  UNL     1      -7.946  48.165 -12.624  1.00  0.00    -0.082 Cl
HETATM   42  C27 UNL     1      -7.323  50.617 -11.561  1.00  0.00     0.051 A 
HETATM   43  C28 UNL     1      -6.789  51.479 -10.625  1.00  0.00     0.063 A 
HETATM   44 CL3  UNL     1      -6.933  53.199 -10.911  1.00  0.00    -0.082 Cl
ENDBRANCH  34  36
ENDBRANCH   7  34
TORSDOF 11
ENDMDL
MODEL 4
REMARK VINA RESULT: -10.508162264      1.222      2.167
REMARK  11 active torsions:
REMARK  status: ('A' for Active; 'I' for Inactive)
REMARK    1  A    between atoms: C2_2  and  C4_4 
REMARK    2  A    between atoms: C4_4  and  N1_6 
REMARK    3  A    between atoms: N1_6  and  C6_8 
REMARK    4  A    between atoms: C7_11  and  N3_12 
REMARK    5  A    between atoms: N3_12  and  C8_13 
REMARK    6  A    between atoms: C8_13  and  C9_14 
REMARK    7  A    between atoms: N4_17  and  C12_18 
REMARK    8  A    between atoms: C12_18  and  C13_19 
REMARK    9  A    between atoms: C13_19  and  N5_20 
REMARK   10  A    between atoms: C22_31  and  N7_32 
REMARK   11  A    between atoms: N7_32  and  C23_34 
ROOT
HETATM    1  C6  UNL     1      -9.151  55.395  -4.359  1.00  0.00     0.696 A 
HETATM    2  N2  UNL     1      -7.958  54.826  -4.459  1.00  0.00    -0.148 N 
ATOM      3  H2  UNL     1      -7.903  53.858  -4.775  1.00  0.00     0.188 HD
HETATM    4  C7  UNL     1      -6.787  55.490  -4.154  1.00  0.00     0.287 A 
HETATM    5  N6  UNL     1      -6.936  56.765  -3.744  1.00  0.00    -0.148 N 
ATOM      6  H6  UNL     1      -6.102  57.301  -3.506  1.00  0.00     0.188 HD
HETATM    7  C22 UNL     1      -8.128  57.357  -3.635  1.00  0.00     0.700 A 
HETATM    8  N8  UNL     1      -9.230  56.669  -3.943  1.00  0.00    -0.022 N 
ATOM      9  H8  UNL     1     -10.142  57.117  -3.862  1.00  0.00     0.203 HD
ENDROOT
BRANCH   4  10
HETATM   10  N3  UNL     1      -5.748  54.915  -4.275  1.00  0.00    -0.387 NA
BRANCH  10  11
HETATM   11  C8  UNL     1      -4.588  54.281  -4.459  1.00  0.00     0.164 C 
BRANCH  11  12
HETATM   12  C9  UNL     1      -4.656  53.150  -5.477  1.00  0.00     0.047 C 
HETATM   13  C10 UNL     1      -3.768  51.991  -5.138  1.00  0.00     0.056 C 
HETATM   14  C11 UNL     1      -4.179  50.844  -6.030  1.00  0.00     0.069 C 
HETATM   15  N4  UNL     1      -4.351  51.187  -7.379  1.00  0.00    -0.352 N 
HETATM   16  C20 UNL     1      -4.146  52.492  -7.803  1.00  0.00     0.069 C 
HETATM   17  C21 UNL     1      -4.325  53.616  -6.854  1.00  0.00     0.056 C 
BRANCH  15  18
HETATM   18  C12 UNL     1      -4.868  50.202  -8.236  1.00  0.00     0.098 C 
BRANCH  18  19
HETATM   19  C13 UNL     1      -6.338  50.337  -8.550  1.00  0.00     0.317 C 
BRANCH  19  20
HETATM   20  N5  UNL     1      -6.659  49.961  -9.896  1.00  0.00     0.093 N 
HETATM   21  C14 UNL     1      -7.115  48.622 -10.055  1.00  0.00     0.273 C 
HETATM   22  C15 UNL     1      -7.147  48.306 -11.554  1.00  0.00     0.030 C 
HETATM   23  C16 UNL     1      -8.407  48.892 -12.117  1.00  0.00     0.002 C 
HETATM   24  C17 UNL     1      -8.053  50.194 -12.817  1.00  0.00     0.002 C 
HETATM   25  C18 UNL     1      -7.310  51.133 -11.919  1.00  0.00     0.030 C 
HETATM   26  C19 UNL     1      -7.615  50.900 -10.455  1.00  0.00     0.273 C 
ENDBRANCH  19  20
ENDBRANCH  18  19
ENDBRANCH  15  18
ENDBRANCH  11  12
ENDBRANCH  10  11
ENDBRANCH   4  10
BRANCH   1  27
HETATM   27  N1  UNL     1     -10.226  54.792  -4.648  1.00  0.00    -0.221 N 
ATOM     28  H1  UNL     1     -10.981  55.383  -4.997  1.00  0.00     0.178 HD
BRANCH  27  29
HETATM   29  C4  UNL     1     -10.532  53.392  -4.551  1.00  0.00     0.098 C 
HETATM   30  C5  UNL     1     -11.856  53.133  -3.862  1.00  0.00     0.033 C 
BRANCH  29  31
HETATM   31  C2  UNL     1     -10.507  52.770  -5.936  1.00  0.00     0.000 C 
HETATM   32  C1  UNL     1     -11.840  52.750  -6.604  1.00  0.00     0.011 C 
HETATM   33  C3  UNL     1      -9.974  51.350  -5.862  1.00  0.00     0.011 C 
ENDBRANCH  29  31
ENDBRANCH  27  29
ENDBRANCH   1  27
BRANCH   7  34
HETATM   34  N7  UNL     1      -8.142  58.576  -3.231  1.00  0.00    -0.189 N 
ATOM     35  H7  UNL     1      -8.939  59.145  -3.519  1.00  0.00     0.184 HD
BRANCH  34  36
HETATM   36  C23 UNL     1      -7.172  59.209  -2.431  1.00  0.00     0.072 A 
HETATM   37  C24 UNL     1      -7.115  59.038  -1.057  1.00  0.00     0.057 A 
HETATM   38  C25 UNL     1      -6.153  59.661  -0.292  1.00  0.00     0.058 A 
HETATM   39 CL1  UNL     1      -6.091  59.438   1.440  1.00  0.00    -0.082 Cl
HETATM   40  C26 UNL     1      -5.199  60.487  -0.870  1.00  0.00     0.057 A 
HETATM   41 CL2  UNL     1      -3.977  61.278   0.093  1.00  0.00    -0.082 Cl
HETATM   42  C27 UNL     1      -5.267  60.649  -2.246  1.00  0.00     0.051 A 
HETATM   43  C28 UNL     1      -6.226  60.030  -3.022  1.00  0.00     0.063 A 
HETATM   44 CL3  UNL     1      -6.202  60.318  -4.747  1.00  0.00    -0.082 Cl
ENDBRANCH  34  36
ENDBRANCH   7  34
TORSDOF 11
ENDMDL
MODEL 5
REMARK VINA RESULT: -10.430320187      4.407     10.912
REMARK  11 active torsions:
REMARK  status: ('A' for Active; 'I' for Inactive)
REMARK    1  A    between atoms: C2_2  and  C4_4 
REMARK    2  A    between atoms: C4_4  and  N1_6 
REMARK    3  A    between atoms: N1_6  and  C6_8 
REMARK    4  A    between atoms: C7_11  and  N3_12 
REMARK    5  A    between atoms: N3_12  and  C8_13 
REMARK    6  A    between atoms: C8_13  and  C9_14 
REMARK    7  A    between atoms: N4_17  and  C12_18 
REMARK    8  A    between atoms: C12_18  and  C13_19 
REMARK    9  A    between atoms: C13_19  and  N5_20 
REMARK   10  A    between atoms: C22_31  and  N7_32 
REMARK   11  A    between atoms: N7_32  and  C23_34 
ROOT
HETATM    1  C6  UNL     1      -8.230  53.129  -6.484  1.00  0.00     0.696 A 
HETATM    2  N2  UNL     1      -7.495  53.804  -5.609  1.00  0.00    -0.148 N 
ATOM      3  H2  UNL     1      -7.969  54.321  -4.870  1.00  0.00     0.188 HD
HETATM    4  C7  UNL     1      -6.116  53.834  -5.660  1.00  0.00     0.287 A 
HETATM    5  N6  UNL     1      -5.560  53.129  -6.664  1.00  0.00    -0.148 N 
ATOM      6  H6  UNL     1      -4.543  53.118  -6.748  1.00  0.00     0.188 HD
HETATM    7  C22 UNL     1      -6.280  52.444  -7.556  1.00  0.00     0.700 A 
HETATM    8  N8  UNL     1      -7.612  52.447  -7.461  1.00  0.00    -0.022 N 
ATOM      9  H8  UNL     1      -8.166  51.926  -8.140  1.00  0.00     0.203 HD
ENDROOT
BRANCH   4  10
HETATM   10  N3  UNL     1      -5.521  54.458  -4.834  1.00  0.00    -0.387 NA
BRANCH  10  11
HETATM   11  C8  UNL     1      -4.899  55.167  -3.890  1.00  0.00     0.164 C 
BRANCH  11  12
HETATM   12  C9  UNL     1      -5.586  56.485  -3.555  1.00  0.00     0.047 C 
HETATM   13  C10 UNL     1      -6.938  56.309  -2.932  1.00  0.00     0.056 C 
HETATM   14  C11 UNL     1      -7.342  57.649  -2.365  1.00  0.00     0.069 C 
HETATM   15  N4  UNL     1      -7.136  58.734  -3.231  1.00  0.00    -0.352 N 
HETATM   16  C20 UNL     1      -6.602  58.531  -4.495  1.00  0.00     0.069 C 
HETATM   17  C21 UNL     1      -5.725  57.364  -4.751  1.00  0.00     0.056 C 
BRANCH  15  18
HETATM   18  C12 UNL     1      -7.358  60.022  -2.718  1.00  0.00     0.098 C 
BRANCH  18  19
HETATM   19  C13 UNL     1      -6.112  60.849  -2.513  1.00  0.00     0.317 C 
BRANCH  19  20
HETATM   20  N5  UNL     1      -5.639  60.821  -1.159  1.00  0.00     0.093 N 
HETATM   21  C14 UNL     1      -4.779  61.896  -0.798  1.00  0.00     0.273 C 
HETATM   22  C15 UNL     1      -4.158  61.571   0.564  1.00  0.00     0.030 C 
HETATM   23  C16 UNL     1      -5.167  61.913   1.619  1.00  0.00     0.002 C 
HETATM   24  C17 UNL     1      -5.832  60.623   2.075  1.00  0.00     0.002 C 
HETATM   25  C18 UNL     1      -6.406  59.851   0.929  1.00  0.00     0.030 C 
HETATM   26  C19 UNL     1      -6.765  60.734  -0.247  1.00  0.00     0.273 C 
ENDBRANCH  19  20
ENDBRANCH  18  19
ENDBRANCH  15  18
ENDBRANCH  11  12
ENDBRANCH  10  11
ENDBRANCH   4  10
BRANCH   1  27
HETATM   27  N1  UNL     1      -9.494  53.092  -6.435  1.00  0.00    -0.221 N 
ATOM     28  H1  UNL     1      -9.971  53.922  -6.785  1.00  0.00     0.178 HD
BRANCH  27  29
HETATM   29  C4  UNL     1     -10.350  52.043  -5.954  1.00  0.00     0.098 C 
HETATM   30  C5  UNL     1     -11.283  52.512  -4.857  1.00  0.00     0.033 C 
BRANCH  29  31
HETATM   31  C2  UNL     1     -11.127  51.449  -7.116  1.00  0.00     0.000 C 
HETATM   32  C1  UNL     1     -10.268  50.734  -8.103  1.00  0.00     0.011 C 
HETATM   33  C3  UNL     1     -11.902  52.538  -7.837  1.00  0.00     0.011 C 
ENDBRANCH  29  31
ENDBRANCH  27  29
ENDBRANCH   1  27
BRANCH   7  34
HETATM   34  N7  UNL     1      -5.635  51.812  -8.469  1.00  0.00    -0.189 N 
ATOM     35  H7  UNL     1      -4.625  51.955  -8.499  1.00  0.00     0.184 HD
BRANCH  34  36
HETATM   36  C23 UNL     1      -6.178  50.943  -9.434  1.00  0.00     0.072 A 
HETATM   37  C24 UNL     1      -6.112  49.563  -9.314  1.00  0.00     0.057 A 
HETATM   38  C25 UNL     1      -6.655  48.728 -10.266  1.00  0.00     0.058 A 
HETATM   39 CL1  UNL     1      -6.565  46.991 -10.102  1.00  0.00    -0.082 Cl
HETATM   40  C26 UNL     1      -7.292  49.238 -11.388  1.00  0.00     0.057 A 
HETATM   41 CL2  UNL     1      -7.984  48.187 -12.597  1.00  0.00    -0.082 Cl
HETATM   42  C27 UNL     1      -7.352  50.619 -11.497  1.00  0.00     0.051 A 
HETATM   43  C28 UNL     1      -6.812  51.465 -10.549  1.00  0.00     0.063 A 
HETATM   44 CL3  UNL     1      -6.954  53.190 -10.805  1.00  0.00    -0.082 Cl
ENDBRANCH  34  36
ENDBRANCH   7  34
TORSDOF 11
ENDMDL
