MODEL 1
REMARK VINA RESULT: -4.997107364      0.000      0.000
REMARK  1 active torsions:
REMARK  status: ('A' for Active; 'I' for Inactive)
REMARK    1  A    between atoms: N2_7  and  C3_8 
ROOT
HETATM    1  O1  UNL     1     -47.929  13.227  -7.657  1.00  0.00    -0.245 OA
HETATM    2  C1  UNL     1     -46.704  13.272  -7.981  1.00  0.00     0.343 A 
HETATM    3  N1  UNL     1     -45.989  12.337  -8.652  1.00  0.00    -0.257 N 
ATOM      4  H1  UNL     1     -46.354  11.447  -8.994  1.00  0.00     0.175 HD
HETATM    5  C2  UNL     1     -44.718  12.768  -8.797  1.00  0.00     0.364 A 
HETATM    6  O2  UNL     1     -43.760  12.175  -9.366  1.00  0.00    -0.244 OA
HETATM    7  N2  UNL     1     -44.639  13.978  -8.214  1.00  0.00    -0.026 N 
HETATM    8  N6  UNL     1     -45.829  14.269  -7.730  1.00  0.00    -0.226 N 
ATOM      9  H6  UNL     1     -46.058  15.130  -7.234  1.00  0.00     0.193 HD
ENDROOT
BRANCH   7  10
HETATM   10  C3  UNL     1     -43.478  14.799  -8.132  1.00  0.00     0.723 A 
HETATM   11  N3  UNL     1     -43.458  16.133  -7.829  1.00  0.00    -0.183 N 
HETATM   12  C4  UNL     1     -42.207  16.579  -7.841  1.00  0.00     0.215 A 
ATOM     13  H3  UNL     1     -44.281  16.700  -7.624  1.00  0.00     0.185 HD
HETATM   14  N4  UNL     1     -41.402  15.550  -8.149  1.00  0.00    -0.281 N 
HETATM   15  N5  UNL     1     -42.186  14.477  -8.324  1.00  0.00    -0.129 N 
ATOM     16  H4  UNL     1     -40.386  15.580  -8.234  1.00  0.00     0.188 HD
ATOM     17  H5  UNL     1     -41.849  13.546  -8.568  1.00  0.00     0.205 HD
ENDBRANCH   7  10
TORSDOF 1
ENDMDL
MODEL 2
REMARK VINA RESULT: -4.876875993      2.596      4.736
REMARK  1 active torsions:
REMARK  status: ('A' for Active; 'I' for Inactive)
REMARK    1  A    between atoms: N2_7  and  C3_8 
ROOT
HETATM    1  O1  UNL     1     -40.541  17.725  -7.399  1.00  0.00    -0.245 OA
HETATM    2  C1  UNL     1     -41.473  17.083  -7.971  1.00  0.00     0.343 A 
HETATM    3  N1  UNL     1     -42.092  17.384  -9.138  1.00  0.00    -0.257 N 
ATOM      4  H1  UNL     1     -41.883  18.191  -9.727  1.00  0.00     0.175 HD
HETATM    5  C2  UNL     1     -43.029  16.447  -9.400  1.00  0.00     0.364 A 
HETATM    6  O2  UNL     1     -43.806  16.387 -10.392  1.00  0.00    -0.244 OA
HETATM    7  N2  UNL     1     -42.994  15.557  -8.391  1.00  0.00    -0.026 N 
HETATM    8  N6  UNL     1     -42.063  15.947  -7.544  1.00  0.00    -0.226 N 
ATOM      9  H6  UNL     1     -41.822  15.456  -6.683  1.00  0.00     0.193 HD
ENDROOT
BRANCH   7  10
HETATM   10  C3  UNL     1     -43.816  14.402  -8.260  1.00  0.00     0.723 A 
HETATM   11  N3  UNL     1     -45.180  14.396  -8.151  1.00  0.00    -0.183 N 
HETATM   12  C4  UNL     1     -45.617  13.146  -8.045  1.00  0.00     0.215 A 
ATOM     13  H3  UNL     1     -45.772  15.227  -8.152  1.00  0.00     0.185 HD
HETATM   14  N4  UNL     1     -44.554  12.329  -8.083  1.00  0.00    -0.281 N 
HETATM   15  N5  UNL     1     -43.468  13.103  -8.213  1.00  0.00    -0.129 N 
ATOM     16  H4  UNL     1     -44.569  11.310  -8.025  1.00  0.00     0.188 HD
ATOM     17  H5  UNL     1     -42.510  12.756  -8.268  1.00  0.00     0.205 HD
ENDBRANCH   7  10
TORSDOF 1
ENDMDL
MODEL 3
REMARK VINA RESULT: -4.843303442      1.936      4.534
REMARK  1 active torsions:
REMARK  status: ('A' for Active; 'I' for Inactive)
REMARK    1  A    between atoms: N2_7  and  C3_8 
ROOT
HETATM    1  O1  UNL     1     -43.370  16.671  -7.782  1.00  0.00    -0.245 OA
HETATM    2  C1  UNL     1     -43.837  15.514  -8.010  1.00  0.00     0.343 A 
HETATM    3  N1  UNL     1     -43.225  14.483  -8.643  1.00  0.00    -0.257 N 
ATOM      4  H1  UNL     1     -42.281  14.504  -9.029  1.00  0.00     0.175 HD
HETATM    5  C2  UNL     1     -44.063  13.425  -8.680  1.00  0.00     0.364 A 
HETATM    6  O2  UNL     1     -43.850  12.287  -9.184  1.00  0.00    -0.244 OA
HETATM    7  N2  UNL     1     -45.202  13.796  -8.068  1.00  0.00    -0.026 N 
HETATM    8  N6  UNL     1     -45.056  15.045  -7.674  1.00  0.00    -0.226 N 
ATOM      9  H6  UNL     1     -45.769  15.583  -7.180  1.00  0.00     0.193 HD
ENDROOT
BRANCH   7  10
HETATM   10  C3  UNL     1     -46.359  12.988  -7.881  1.00  0.00     0.723 A 
HETATM   11  N3  UNL     1     -47.135  12.455  -8.874  1.00  0.00    -0.183 N 
HETATM   12  C4  UNL     1     -48.130  11.756  -8.340  1.00  0.00     0.215 A 
ATOM     13  H3  UNL     1     -46.973  12.577  -9.873  1.00  0.00     0.185 HD
HETATM   14  N4  UNL     1     -48.017  11.822  -7.005  1.00  0.00    -0.281 N 
HETATM   15  N5  UNL     1     -46.939  12.573  -6.740  1.00  0.00    -0.129 N 
ATOM     16  H4  UNL     1     -48.634  11.384  -6.321  1.00  0.00     0.188 HD
ATOM     17  H5  UNL     1     -46.605  12.799  -5.803  1.00  0.00     0.205 HD
ENDBRANCH   7  10
TORSDOF 1
ENDMDL
MODEL 4
REMARK VINA RESULT: -4.815921456      2.059      4.374
REMARK  1 active torsions:
REMARK  status: ('A' for Active; 'I' for Inactive)
REMARK    1  A    between atoms: N2_7  and  C3_8 
ROOT
HETATM    1  O1  UNL     1     -42.365  17.663  -9.606  1.00  0.00    -0.245 OA
HETATM    2  C1  UNL     1     -42.686  16.539  -9.116  1.00  0.00     0.343 A 
HETATM    3  N1  UNL     1     -41.863  15.593  -8.601  1.00  0.00    -0.257 N 
ATOM      4  H1  UNL     1     -40.847  15.665  -8.539  1.00  0.00     0.175 HD
HETATM    5  C2  UNL     1     -42.599  14.542  -8.183  1.00  0.00     0.364 A 
HETATM    6  O2  UNL     1     -42.190  13.474  -7.649  1.00  0.00    -0.244 OA
HETATM    7  N2  UNL     1     -43.889  14.832  -8.438  1.00  0.00    -0.026 N 
HETATM    8  N6  UNL     1     -43.928  16.025  -8.995  1.00  0.00    -0.226 N 
ATOM      9  H6  UNL     1     -44.782  16.496  -9.294  1.00  0.00     0.193 HD
ENDROOT
BRANCH   7  10
HETATM   10  C3  UNL     1     -45.010  14.000  -8.157  1.00  0.00     0.723 A 
HETATM   11  N3  UNL     1     -46.271  14.431  -7.848  1.00  0.00    -0.183 N 
HETATM   12  C4  UNL     1     -47.067  13.386  -7.648  1.00  0.00     0.215 A 
ATOM     13  H3  UNL     1     -46.557  15.407  -7.782  1.00  0.00     0.185 HD
HETATM   14  N4  UNL     1     -46.341  12.271  -7.822  1.00  0.00    -0.281 N 
HETATM   15  N5  UNL     1     -45.095  12.657  -8.130  1.00  0.00    -0.129 N 
ATOM     16  H4  UNL     1     -46.674  11.311  -7.737  1.00  0.00     0.188 HD
ATOM     17  H5  UNL     1     -44.320  12.022  -8.318  1.00  0.00     0.205 HD
ENDBRANCH   7  10
TORSDOF 1
ENDMDL
MODEL 5
REMARK VINA RESULT: -4.641896161      1.929      4.982
REMARK  1 active torsions:
REMARK  status: ('A' for Active; 'I' for Inactive)
REMARK    1  A    between atoms: N2_7  and  C3_8 
ROOT
HETATM    1  O1  UNL     1     -42.063  13.785  -8.684  1.00  0.00    -0.245 OA
HETATM    2  C1  UNL     1     -43.301  13.912  -8.446  1.00  0.00     0.343 A 
HETATM    3  N1  UNL     1     -43.998  15.061  -8.270  1.00  0.00    -0.257 N 
ATOM      4  H1  UNL     1     -43.605  16.002  -8.306  1.00  0.00     0.175 HD
HETATM    5  C2  UNL     1     -45.295  14.764  -8.039  1.00  0.00     0.364 A 
HETATM    6  O2  UNL     1     -46.246  15.566  -7.828  1.00  0.00    -0.244 OA
HETATM    7  N2  UNL     1     -45.408  13.423  -8.071  1.00  0.00    -0.026 N 
HETATM    8  N6  UNL     1     -44.213  12.926  -8.314  1.00  0.00    -0.226 N 
ATOM      9  H6  UNL     1     -44.005  11.930  -8.392  1.00  0.00     0.193 HD
ENDROOT
BRANCH   7  10
HETATM   10  C3  UNL     1     -46.604  12.675  -7.877  1.00  0.00     0.723 A 
HETATM   11  N3  UNL     1     -47.470  12.277  -8.859  1.00  0.00    -0.183 N 
HETATM   12  C4  UNL     1     -48.477  11.598  -8.322  1.00  0.00     0.215 A 
ATOM     13  H3  UNL     1     -47.357  12.471  -9.854  1.00  0.00     0.185 HD
HETATM   14  N4  UNL     1     -48.284  11.546  -6.995  1.00  0.00    -0.281 N 
HETATM   15  N5  UNL     1     -47.144  12.203  -6.739  1.00  0.00    -0.129 N 
ATOM     16  H4  UNL     1     -48.889  11.091  -6.311  1.00  0.00     0.188 HD
ATOM     17  H5  UNL     1     -46.743  12.328  -5.809  1.00  0.00     0.205 HD
ENDBRANCH   7  10
TORSDOF 1
ENDMDL
