MODEL 1
REMARK VINA RESULT: -5.160224543      0.000      0.000
REMARK  2 active torsions:
REMARK  status: ('A' for Active; 'I' for Inactive)
REMARK    1  A    between atoms: N1_1  and  C1_4 
REMARK    2  A    between atoms: N4_12  and  C4_13 
ROOT
HETATM    1  C1  UNL     1     -44.288  13.282  -8.241  1.00  0.00     0.702 A 
HETATM    2  N2  UNL     1     -43.255  14.129  -8.400  1.00  0.00    -0.153 N 
ATOM      3  H2  UNL     1     -42.318  13.756  -8.557  1.00  0.00     0.187 HD
HETATM    4  C2  UNL     1     -43.441  15.479  -8.354  1.00  0.00     0.276 A 
HETATM    5  O1  UNL     1     -42.497  16.292  -8.498  1.00  0.00    -0.266 OA
HETATM    6  C3  UNL     1     -44.727  15.915  -8.141  1.00  0.00     0.183 A 
HETATM    7  N3  UNL     1     -45.711  15.040  -7.990  1.00  0.00    -0.284 N 
ATOM      8  H3  UNL     1     -46.654  15.393  -7.832  1.00  0.00     0.187 HD
HETATM    9  N4  UNL     1     -45.524  13.714  -8.035  1.00  0.00    -0.069 N 
ENDROOT
BRANCH   9  10
HETATM   10  C4  UNL     1     -46.646  12.858  -7.862  1.00  0.00     0.161 A 
HETATM   11  C5  UNL     1     -47.487  12.429  -8.887  1.00  0.00     0.071 A 
HETATM   12  C6  UNL     1     -48.464  11.613  -8.354  1.00  0.00     0.111 A 
HETATM   13  N5  UNL     1     -48.197  11.565  -7.034  1.00  0.00    -0.310 N 
HETATM   14  N6  UNL     1     -47.134  12.294  -6.743  1.00  0.00    -0.284 N 
ATOM     15  H5  UNL     1     -48.743  11.038  -6.353  1.00  0.00     0.186 HD
ATOM     16  H6  UNL     1     -46.742  12.411  -5.808  1.00  0.00     0.188 HD
ENDBRANCH   9  10
BRANCH   1  17
HETATM   17  N1  UNL     1     -44.052  12.015  -8.292  1.00  0.00    -0.233 N 
ATOM     18  H12 UNL     1     -44.398  11.467  -9.080  1.00  0.00     0.174 HD
ATOM     19  H11 UNL     1     -43.517  11.593  -7.533  1.00  0.00     0.174 HD
ENDBRANCH   1  17
TORSDOF 2
ENDMDL
MODEL 2
REMARK VINA RESULT: -4.920978856      2.775      5.584
REMARK  2 active torsions:
REMARK  status: ('A' for Active; 'I' for Inactive)
REMARK    1  A    between atoms: N1_1  and  C1_4 
REMARK    2  A    between atoms: N4_12  and  C4_13 
ROOT
HETATM    1  C1  UNL     1     -42.927  14.260  -8.155  1.00  0.00     0.702 A 
HETATM    2  N2  UNL     1     -43.811  13.246  -8.185  1.00  0.00    -0.153 N 
ATOM      3  H2  UNL     1     -43.475  12.284  -8.128  1.00  0.00     0.187 HD
HETATM    4  C2  UNL     1     -45.149  13.486  -8.288  1.00  0.00     0.276 A 
HETATM    5  O1  UNL     1     -45.997  12.562  -8.318  1.00  0.00    -0.266 OA
HETATM    6  C3  UNL     1     -45.534  14.804  -8.358  1.00  0.00     0.183 A 
HETATM    7  N3  UNL     1     -44.624  15.766  -8.325  1.00  0.00    -0.284 N 
ATOM      8  H3  UNL     1     -44.938  16.734  -8.380  1.00  0.00     0.187 HD
HETATM    9  N4  UNL     1     -43.309  15.527  -8.224  1.00  0.00    -0.069 N 
ENDROOT
BRANCH   9  10
HETATM   10  C4  UNL     1     -42.412  16.630  -8.196  1.00  0.00     0.161 A 
HETATM   11  C5  UNL     1     -42.018  17.309  -7.044  1.00  0.00     0.071 A 
HETATM   12  C6  UNL     1     -41.145  18.318  -7.394  1.00  0.00     0.111 A 
HETATM   13  N5  UNL     1     -41.030  18.230  -8.733  1.00  0.00    -0.310 N 
HETATM   14  N6  UNL     1     -41.771  17.244  -9.206  1.00  0.00    -0.284 N 
ATOM     15  H5  UNL     1     -40.448  18.843  -9.305  1.00  0.00     0.186 HD
ATOM     16  H6  UNL     1     -41.845  16.986 -10.190  1.00  0.00     0.188 HD
ENDBRANCH   9  10
BRANCH   1  17
HETATM   17  N1  UNL     1     -41.673  13.973  -8.057  1.00  0.00    -0.233 N 
ATOM     18  H12 UNL     1     -41.184  13.559  -8.851  1.00  0.00     0.174 HD
ATOM     19  H11 UNL     1     -41.200  14.171  -7.175  1.00  0.00     0.174 HD
ENDBRANCH   1  17
TORSDOF 2
ENDMDL
MODEL 3
REMARK VINA RESULT: -4.904835019      1.092      1.942
REMARK  2 active torsions:
REMARK  status: ('A' for Active; 'I' for Inactive)
REMARK    1  A    between atoms: N1_1  and  C1_4 
REMARK    2  A    between atoms: N4_12  and  C4_13 
ROOT
HETATM    1  C1  UNL     1     -44.834  15.124  -8.005  1.00  0.00     0.702 A 
HETATM    2  N2  UNL     1     -43.679  15.810  -7.928  1.00  0.00    -0.153 N 
ATOM      3  H2  UNL     1     -43.703  16.826  -7.833  1.00  0.00     0.187 HD
HETATM    4  C2  UNL     1     -42.478  15.167  -7.973  1.00  0.00     0.276 A 
HETATM    5  O1  UNL     1     -41.385  15.780  -7.904  1.00  0.00    -0.266 OA
HETATM    6  C3  UNL     1     -42.516  13.799  -8.100  1.00  0.00     0.183 A 
HETATM    7  N3  UNL     1     -43.681  13.170  -8.172  1.00  0.00    -0.284 N 
ATOM      8  H3  UNL     1     -43.679  12.155  -8.267  1.00  0.00     0.187 HD
HETATM    9  N4  UNL     1     -44.860  13.805  -8.128  1.00  0.00    -0.069 N 
ENDROOT
BRANCH   9  10
HETATM   10  C4  UNL     1     -46.054  13.038  -8.213  1.00  0.00     0.161 A 
HETATM   11  C5  UNL     1     -46.762  12.792  -9.389  1.00  0.00     0.071 A 
HETATM   12  C6  UNL     1     -47.865  12.016  -9.095  1.00  0.00     0.111 A 
HETATM   13  N5  UNL     1     -47.803  11.812  -7.765  1.00  0.00    -0.310 N 
HETATM   14  N6  UNL     1     -46.745  12.410  -7.245  1.00  0.00    -0.284 N 
ATOM     15  H5  UNL     1     -48.482  11.269  -7.231  1.00  0.00     0.186 HD
ATOM     16  H6  UNL     1     -46.490  12.396  -6.257  1.00  0.00     0.188 HD
ENDBRANCH   9  10
BRANCH   1  17
HETATM   17  N1  UNL     1     -45.941  15.786  -7.958  1.00  0.00    -0.233 N 
ATOM     18  H12 UNL     1     -45.996  16.712  -8.382  1.00  0.00     0.174 HD
ATOM     19  H11 UNL     1     -46.739  15.357  -7.490  1.00  0.00     0.174 HD
ENDBRANCH   1  17
TORSDOF 2
ENDMDL
MODEL 4
REMARK VINA RESULT: -4.841356897      2.952      5.032
REMARK  2 active torsions:
REMARK  status: ('A' for Active; 'I' for Inactive)
REMARK    1  A    between atoms: N1_1  and  C1_4 
REMARK    2  A    between atoms: N4_12  and  C4_13 
ROOT
HETATM    1  C1  UNL     1     -47.490  12.344  -7.675  1.00  0.00     0.702 A 
HETATM    2  N2  UNL     1     -48.662  11.743  -7.947  1.00  0.00    -0.153 N 
ATOM      3  H2  UNL     1     -49.262  11.439  -7.180  1.00  0.00     0.187 HD
HETATM    4  C2  UNL     1     -49.060  11.533  -9.235  1.00  0.00     0.276 A 
HETATM    5  O1  UNL     1     -50.147  10.974  -9.519  1.00  0.00    -0.266 OA
HETATM    6  C3  UNL     1     -48.207  11.967 -10.221  1.00  0.00     0.183 A 
HETATM    7  N3  UNL     1     -47.062  12.554  -9.900  1.00  0.00    -0.284 N 
ATOM      8  H3  UNL     1     -46.448  12.865 -10.652  1.00  0.00     0.187 HD
HETATM    9  N4  UNL     1     -46.674  12.758  -8.634  1.00  0.00    -0.069 N 
ENDROOT
BRANCH   9  10
HETATM   10  C4  UNL     1     -45.428  13.399  -8.394  1.00  0.00     0.161 A 
HETATM   11  C5  UNL     1     -44.186  12.767  -8.436  1.00  0.00     0.071 A 
HETATM   12  C6  UNL     1     -43.202  13.692  -8.153  1.00  0.00     0.111 A 
HETATM   13  N5  UNL     1     -43.860  14.850  -7.949  1.00  0.00    -0.310 N 
HETATM   14  N6  UNL     1     -45.163  14.681  -8.088  1.00  0.00    -0.284 N 
ATOM     15  H5  UNL     1     -43.412  15.736  -7.718  1.00  0.00     0.186 HD
ATOM     16  H6  UNL     1     -45.864  15.415  -7.980  1.00  0.00     0.188 HD
ENDBRANCH   9  10
BRANCH   1  17
HETATM   17  N1  UNL     1     -47.166  12.516  -6.438  1.00  0.00    -0.233 N 
ATOM     18  H12 UNL     1     -47.376  13.401  -5.977  1.00  0.00     0.174 HD
ATOM     19  H11 UNL     1     -46.702  11.749  -5.951  1.00  0.00     0.174 HD
ENDBRANCH   1  17
TORSDOF 2
ENDMDL
MODEL 5
REMARK VINA RESULT: -4.751195150      3.224      6.373
REMARK  2 active torsions:
REMARK  status: ('A' for Active; 'I' for Inactive)
REMARK    1  A    between atoms: N1_1  and  C1_4 
REMARK    2  A    between atoms: N4_12  and  C4_13 
ROOT
HETATM    1  C1  UNL     1     -43.722  16.031  -8.037  1.00  0.00     0.702 A 
HETATM    2  N2  UNL     1     -44.309  14.821  -8.081  1.00  0.00    -0.153 N 
ATOM      3  H2  UNL     1     -45.328  14.756  -8.078  1.00  0.00     0.187 HD
HETATM    4  C2  UNL     1     -43.563  13.681  -8.129  1.00  0.00     0.276 A 
HETATM    5  O1  UNL     1     -44.083  12.540  -8.170  1.00  0.00    -0.266 OA
HETATM    6  C3  UNL     1     -42.198  13.838  -8.131  1.00  0.00     0.183 A 
HETATM    7  N3  UNL     1     -41.668  15.053  -8.087  1.00  0.00    -0.284 N 
ATOM      8  H3  UNL     1     -40.652  15.139  -8.088  1.00  0.00     0.187 HD
HETATM    9  N4  UNL     1     -42.404  16.171  -8.039  1.00  0.00    -0.069 N 
ENDROOT
BRANCH   9  10
HETATM   10  C4  UNL     1     -41.739  17.427  -7.994  1.00  0.00     0.161 A 
HETATM   11  C5  UNL     1     -41.419  18.119  -6.827  1.00  0.00     0.071 A 
HETATM   12  C6  UNL     1     -40.781  19.296  -7.162  1.00  0.00     0.111 A 
HETATM   13  N5  UNL     1     -40.730  19.293  -8.509  1.00  0.00    -0.310 N 
HETATM   14  N6  UNL     1     -41.290  18.201  -8.998  1.00  0.00    -0.284 N 
ATOM     15  H5  UNL     1     -40.314  20.033  -9.073  1.00  0.00     0.186 HD
ATOM     16  H6  UNL     1     -41.371  17.977  -9.991  1.00  0.00     0.188 HD
ENDBRANCH   9  10
BRANCH   1  17
HETATM   17  N1  UNL     1     -44.478  17.075  -7.992  1.00  0.00    -0.233 N 
ATOM     18  H12 UNL     1     -44.126  17.970  -8.331  1.00  0.00     0.174 HD
ATOM     19  H11 UNL     1     -45.419  16.973  -7.612  1.00  0.00     0.174 HD
ENDBRANCH   1  17
TORSDOF 2
ENDMDL
