MODEL 1
REMARK VINA RESULT: -4.935049414      0.000      0.000
REMARK  1 active torsions:
REMARK  status: ('A' for Active; 'I' for Inactive)
REMARK    1  A    between atoms: C3_6  and  N2_7 
ROOT
HETATM    1  O1  UNL     1     -47.650  12.214  -7.410  1.00  0.00    -0.247 OA
HETATM    2  C1  UNL     1     -46.753  13.062  -7.700  1.00  0.00     0.327 A 
HETATM    3  N1  UNL     1     -46.955  14.387  -7.607  1.00  0.00    -0.316 N 
ATOM      4  H1  UNL     1     -47.858  14.741  -7.293  1.00  0.00     0.170 HD
HETATM    5  C2  UNL     1     -45.975  15.249  -7.926  1.00  0.00     0.129 A 
HETATM    6  C3  UNL     1     -44.726  14.828  -8.360  1.00  0.00     0.137 A 
HETATM    7  C6  UNL     1     -44.544  13.463  -8.448  1.00  0.00     0.279 A 
HETATM    8  O2  UNL     1     -43.422  13.038  -8.838  1.00  0.00    -0.265 OA
HETATM    9  N5  UNL     1     -45.557  12.613  -8.117  1.00  0.00    -0.274 N 
ATOM     10  H5  UNL     1     -45.403  11.608  -8.188  1.00  0.00     0.173 HD
ENDROOT
BRANCH   6  11
HETATM   11  N2  UNL     1     -43.686  15.736  -8.699  1.00  0.00    -0.243 N 
HETATM   12  C4  UNL     1     -42.974  16.424  -7.771  1.00  0.00     0.133 A 
HETATM   13  C5  UNL     1     -42.045  17.217  -8.433  1.00  0.00     0.123 A 
HETATM   14  N3  UNL     1     -42.241  16.967  -9.744  1.00  0.00    -0.294 N 
HETATM   15  N4  UNL     1     -43.223  16.084  -9.889  1.00  0.00    -0.016 NA
ATOM     16  H3  UNL     1     -41.716  17.392 -10.508  1.00  0.00     0.183 HD
ENDBRANCH   6  11
TORSDOF 1
ENDMDL
MODEL 2
REMARK VINA RESULT: -4.894347425      2.515      5.017
REMARK  1 active torsions:
REMARK  status: ('A' for Active; 'I' for Inactive)
REMARK    1  A    between atoms: C3_6  and  N2_7 
ROOT
HETATM    1  O1  UNL     1     -41.214  19.194  -9.089  1.00  0.00    -0.247 OA
HETATM    2  C1  UNL     1     -41.853  18.101  -9.004  1.00  0.00     0.327 A 
HETATM    3  N1  UNL     1     -43.026  17.901  -9.627  1.00  0.00    -0.316 N 
ATOM      4  H1  UNL     1     -43.432  18.644 -10.195  1.00  0.00     0.170 HD
HETATM    5  C2  UNL     1     -43.669  16.727  -9.508  1.00  0.00     0.129 A 
HETATM    6  C3  UNL     1     -43.166  15.678  -8.750  1.00  0.00     0.137 A 
HETATM    7  C6  UNL     1     -41.961  15.909  -8.119  1.00  0.00     0.279 A 
HETATM    8  O2  UNL     1     -41.469  14.981  -7.421  1.00  0.00    -0.265 OA
HETATM    9  N5  UNL     1     -41.333  17.111  -8.260  1.00  0.00    -0.274 N 
ATOM     10  H5  UNL     1     -40.443  17.263  -7.786  1.00  0.00     0.173 HD
ENDROOT
BRANCH   6  11
HETATM   11  N2  UNL     1     -43.842  14.434  -8.621  1.00  0.00    -0.243 N 
HETATM   12  C4  UNL     1     -45.133  14.332  -8.218  1.00  0.00     0.133 A 
HETATM   13  C5  UNL     1     -45.481  12.987  -8.199  1.00  0.00     0.123 A 
HETATM   14  N3  UNL     1     -44.370  12.333  -8.597  1.00  0.00    -0.294 N 
HETATM   15  N4  UNL     1     -43.400  13.206  -8.844  1.00  0.00    -0.016 NA
ATOM     16  H3  UNL     1     -44.287  11.321  -8.692  1.00  0.00     0.183 HD
ENDBRANCH   6  11
TORSDOF 1
ENDMDL
MODEL 3
REMARK VINA RESULT: -4.836747981      2.063      4.909
REMARK  1 active torsions:
REMARK  status: ('A' for Active; 'I' for Inactive)
REMARK    1  A    between atoms: C3_6  and  N2_7 
ROOT
HETATM    1  O1  UNL     1     -41.187  15.800  -7.651  1.00  0.00    -0.247 OA
HETATM    2  C1  UNL     1     -42.268  15.173  -7.867  1.00  0.00     0.327 A 
HETATM    3  N1  UNL     1     -42.322  13.832  -7.944  1.00  0.00    -0.316 N 
ATOM      4  H1  UNL     1     -41.470  13.283  -7.827  1.00  0.00     0.170 HD
HETATM    5  C2  UNL     1     -43.490  13.210  -8.174  1.00  0.00     0.129 A 
HETATM    6  C3  UNL     1     -44.681  13.902  -8.341  1.00  0.00     0.137 A 
HETATM    7  C6  UNL     1     -44.600  15.277  -8.259  1.00  0.00     0.279 A 
HETATM    8  O2  UNL     1     -45.660  15.945  -8.404  1.00  0.00    -0.265 OA
HETATM    9  N5  UNL     1     -43.400  15.880  -8.024  1.00  0.00    -0.274 N 
ATOM     10  H5  UNL     1     -43.360  16.897  -7.965  1.00  0.00     0.173 HD
ENDROOT
BRANCH   6  11
HETATM   11  N2  UNL     1     -45.920  13.248  -8.585  1.00  0.00    -0.243 N 
HETATM   12  C4  UNL     1     -46.760  12.863  -7.592  1.00  0.00     0.133 A 
HETATM   13  C5  UNL     1     -47.870  12.258  -8.169  1.00  0.00     0.123 A 
HETATM   14  N3  UNL     1     -47.644  12.307  -9.498  1.00  0.00    -0.294 N 
HETATM   15  N4  UNL     1     -46.479  12.898  -9.733  1.00  0.00    -0.016 NA
ATOM     16  H3  UNL     1     -48.273  11.944 -10.214  1.00  0.00     0.183 HD
ENDBRANCH   6  11
TORSDOF 1
ENDMDL
MODEL 4
REMARK VINA RESULT: -4.681016676      2.473      5.193
REMARK  1 active torsions:
REMARK  status: ('A' for Active; 'I' for Inactive)
REMARK    1  A    between atoms: C3_6  and  N2_7 
ROOT
HETATM    1  O1  UNL     1     -40.774  19.022  -8.859  1.00  0.00    -0.247 OA
HETATM    2  C1  UNL     1     -41.446  17.950  -8.759  1.00  0.00     0.327 A 
HETATM    3  N1  UNL     1     -41.182  17.016  -7.830  1.00  0.00    -0.316 N 
ATOM      4  H1  UNL     1     -40.416  17.158  -7.172  1.00  0.00     0.170 HD
HETATM    5  C2  UNL     1     -41.920  15.896  -7.762  1.00  0.00     0.129 A 
HETATM    6  C3  UNL     1     -42.975  15.646  -8.629  1.00  0.00     0.137 A 
HETATM    7  C6  UNL     1     -43.225  16.620  -9.574  1.00  0.00     0.279 A 
HETATM    8  O2  UNL     1     -44.176  16.433 -10.382  1.00  0.00    -0.265 OA
HETATM    9  N5  UNL     1     -42.459  17.746  -9.618  1.00  0.00    -0.274 N 
ATOM     10  H5  UNL     1     -42.660  18.455 -10.323  1.00  0.00     0.173 HD
ENDROOT
BRANCH   6  11
HETATM   11  N2  UNL     1     -43.759  14.462  -8.561  1.00  0.00    -0.243 N 
HETATM   12  C4  UNL     1     -45.057  14.457  -8.170  1.00  0.00     0.133 A 
HETATM   13  C5  UNL     1     -45.523  13.149  -8.214  1.00  0.00     0.123 A 
HETATM   14  N3  UNL     1     -44.470  12.417  -8.636  1.00  0.00    -0.294 N 
HETATM   15  N4  UNL     1     -43.425  13.211  -8.838  1.00  0.00    -0.016 NA
ATOM     16  H3  UNL     1     -44.477  11.407  -8.778  1.00  0.00     0.183 HD
ENDBRANCH   6  11
TORSDOF 1
ENDMDL
MODEL 5
REMARK VINA RESULT: -4.666557821      1.746      4.623
REMARK  1 active torsions:
REMARK  status: ('A' for Active; 'I' for Inactive)
REMARK    1  A    between atoms: C3_6  and  N2_7 
ROOT
HETATM    1  O1  UNL     1     -41.356  15.707  -7.698  1.00  0.00    -0.247 OA
HETATM    2  C1  UNL     1     -42.503  15.207  -7.907  1.00  0.00     0.327 A 
HETATM    3  N1  UNL     1     -43.617  15.956  -7.966  1.00  0.00    -0.316 N 
ATOM      4  H1  UNL     1     -43.555  16.967  -7.841  1.00  0.00     0.170 HD
HETATM    5  C2  UNL     1     -44.811  15.384  -8.189  1.00  0.00     0.129 A 
HETATM    6  C3  UNL     1     -44.958  14.015  -8.367  1.00  0.00     0.137 A 
HETATM    7  C6  UNL     1     -43.800  13.268  -8.301  1.00  0.00     0.279 A 
HETATM    8  O2  UNL     1     -43.890  12.019  -8.458  1.00  0.00    -0.265 OA
HETATM    9  N5  UNL     1     -42.603  13.878  -8.074  1.00  0.00    -0.274 N 
ATOM     10  H5  UNL     1     -41.758  13.309  -8.029  1.00  0.00     0.173 HD
ENDROOT
BRANCH   6  11
HETATM   11  N2  UNL     1     -46.220  13.405  -8.604  1.00  0.00    -0.243 N 
HETATM   12  C4  UNL     1     -47.086  13.088  -7.609  1.00  0.00     0.133 A 
HETATM   13  C5  UNL     1     -48.214  12.510  -8.179  1.00  0.00     0.123 A 
HETATM   14  N3  UNL     1     -47.973  12.505  -9.506  1.00  0.00    -0.294 N 
HETATM   15  N4  UNL     1     -46.781  13.040  -9.746  1.00  0.00    -0.016 NA
ATOM     16  H3  UNL     1     -48.609  12.145 -10.217  1.00  0.00     0.183 HD
ENDBRANCH   6  11
TORSDOF 1
ENDMDL
