MODEL 1
REMARK VINA RESULT: -5.984772061      0.000      0.000
REMARK  11 active torsions:
REMARK  status: ('A' for Active; 'I' for Inactive)
REMARK    1  A    between atoms: C2_2  and  O1_3 
REMARK    2  A    between atoms: O1_3  and  C3_4 
REMARK       I    between atoms: C3_4  and  N1_6 
REMARK    3  A    between atoms: N1_6  and  C4_8 
REMARK    4  A    between atoms: C4_8  and  C5_9 
REMARK    5  A    between atoms: C5_9  and  N2_11 
REMARK       I    between atoms: N2_11  and  C6_13 
REMARK    6  A    between atoms: C6_13  and  O4_15 
REMARK    7  A    between atoms: O4_15  and  C7_16 
REMARK    8  A    between atoms: C7_16  and  C8_17 
REMARK    9  A    between atoms: C14_23  and  C15_24 
REMARK   10  A    between atoms: C15_24  and  N3_25 
REMARK   11  A    between atoms: N3_25  and  C18_28 
ROOT
HETATM    1  C8  UNL     1     -18.168 -25.708 -14.150  1.00  0.00    -0.014 C 
HETATM    2  C9  UNL     1     -19.272 -26.221 -13.253  1.00  0.00     0.012 C 
HETATM    3  C10 UNL     1     -19.818 -25.023 -12.554  1.00  0.00     0.010 C 
HETATM    4  C11 UNL     1     -18.715 -24.379 -11.683  1.00  0.00    -0.035 C 
HETATM    5  C12 UNL     1     -18.467 -25.497 -10.661  1.00  0.00     0.016 C 
HETATM    6  C13 UNL     1     -19.379 -23.286 -10.946  1.00  0.00     0.016 C 
HETATM    7  C14 UNL     1     -17.512 -24.046 -12.503  1.00  0.00     0.027 C 
HETATM    8  C20 UNL     1     -16.984 -25.261 -13.219  1.00  0.00     0.027 C 
HETATM    9  C21 UNL     1     -18.006 -23.315 -13.776  1.00  0.00     0.124 C 
HETATM   10 CL2  UNL     1     -16.621 -22.526 -14.622  1.00  0.00    -0.101 Cl
HETATM   11 CL3  UNL     1     -19.156 -22.053 -13.553  1.00  0.00    -0.101 Cl
HETATM   12  C22 UNL     1     -18.489 -24.396 -14.727  1.00  0.00     0.054 C 
ENDROOT
BRANCH   1  13
HETATM   13  C7  UNL     1     -17.710 -26.816 -15.012  1.00  0.00     0.190 C 
BRANCH  13  14
HETATM   14  O4  UNL     1     -16.531 -27.390 -14.649  1.00  0.00    -0.303 OA
BRANCH  14  15
HETATM   15  C6  UNL     1     -15.813 -28.474 -14.931  1.00  0.00     0.361 C 
HETATM   16  N2  UNL     1     -14.887 -29.061 -13.977  1.00  0.00    -0.318 N 
ATOM     17  H2  UNL     1     -14.774 -28.638 -13.056  1.00  0.00     0.166 HD
HETATM   18  O3  UNL     1     -15.919 -29.024 -16.043  1.00  0.00    -0.238 OA
BRANCH  16  19
HETATM   19  C5  UNL     1     -14.127 -30.237 -14.320  1.00  0.00     0.201 C 
HETATM   20 CL1  UNL     1     -12.384 -29.967 -14.098  1.00  0.00    -0.101 Cl
BRANCH  19  21
HETATM   21  C4  UNL     1     -14.546 -31.381 -13.454  1.00  0.00     0.166 C 
BRANCH  21  22
HETATM   22  N1  UNL     1     -14.611 -30.971 -12.068  1.00  0.00    -0.334 N 
HETATM   23  C3  UNL     1     -13.819 -31.645 -11.083  1.00  0.00     0.360 C 
HETATM   24  O2  UNL     1     -13.065 -32.595 -11.411  1.00  0.00    -0.239 OA
ATOM     25  H1  UNL     1     -15.220 -30.201 -11.792  1.00  0.00     0.164 HD
BRANCH  23  26
HETATM   26  O1  UNL     1     -13.882 -31.254  -9.768  1.00  0.00    -0.304 OA
BRANCH  26  27
HETATM   27  C2  UNL     1     -13.935 -29.915  -9.359  1.00  0.00     0.176 C 
HETATM   28  C1  UNL     1     -13.589 -29.763  -7.898  1.00  0.00     0.034 C 
ENDBRANCH  26  27
ENDBRANCH  23  26
ENDBRANCH  21  22
ENDBRANCH  19  21
ENDBRANCH  16  19
ENDBRANCH  14  15
ENDBRANCH  13  14
ENDBRANCH   1  13
BRANCH   7  29
HETATM   29  C15 UNL     1     -16.479 -23.223 -11.861  1.00  0.00     0.249 C 
BRANCH  29  30
HETATM   30  N3  UNL     1     -15.617 -23.486 -10.838  1.00  0.00    -0.074 N 
HETATM   31  C16 UNL     1     -15.943 -22.845  -9.533  1.00  0.00     0.272 C 
HETATM   32  C17 UNL     1     -15.087 -24.734 -10.483  1.00  0.00     0.272 C 
BRANCH  30  33
HETATM   33  C18 UNL     1     -14.411 -22.626 -11.137  1.00  0.00     0.232 C 
HETATM   34  C19 UNL     1     -13.805 -22.971 -12.437  1.00  0.00     0.034 C 
ENDBRANCH  30  33
ENDBRANCH  29  30
ENDBRANCH   7  29
TORSDOF 11
ENDMDL
MODEL 2
REMARK VINA RESULT: -5.941338830      1.058      1.283
REMARK  11 active torsions:
REMARK  status: ('A' for Active; 'I' for Inactive)
REMARK    1  A    between atoms: C2_2  and  O1_3 
REMARK    2  A    between atoms: O1_3  and  C3_4 
REMARK       I    between atoms: C3_4  and  N1_6 
REMARK    3  A    between atoms: N1_6  and  C4_8 
REMARK    4  A    between atoms: C4_8  and  C5_9 
REMARK    5  A    between atoms: C5_9  and  N2_11 
REMARK       I    between atoms: N2_11  and  C6_13 
REMARK    6  A    between atoms: C6_13  and  O4_15 
REMARK    7  A    between atoms: O4_15  and  C7_16 
REMARK    8  A    between atoms: C7_16  and  C8_17 
REMARK    9  A    between atoms: C14_23  and  C15_24 
REMARK   10  A    between atoms: C15_24  and  N3_25 
REMARK   11  A    between atoms: N3_25  and  C18_28 
ROOT
HETATM    1  C8  UNL     1     -18.113 -25.797 -14.063  1.00  0.00    -0.014 C 
HETATM    2  C9  UNL     1     -19.185 -26.323 -13.134  1.00  0.00     0.012 C 
HETATM    3  C10 UNL     1     -19.743 -25.127 -12.439  1.00  0.00     0.010 C 
HETATM    4  C11 UNL     1     -18.636 -24.446 -11.602  1.00  0.00    -0.035 C 
HETATM    5  C12 UNL     1     -18.338 -25.544 -10.571  1.00  0.00     0.016 C 
HETATM    6  C13 UNL     1     -19.308 -23.358 -10.865  1.00  0.00     0.016 C 
HETATM    7  C14 UNL     1     -17.459 -24.097 -12.454  1.00  0.00     0.027 C 
HETATM    8  C20 UNL     1     -16.919 -25.310 -13.166  1.00  0.00     0.027 C 
HETATM    9  C21 UNL     1     -17.998 -23.396 -13.725  1.00  0.00     0.124 C 
HETATM   10 CL2  UNL     1     -16.651 -22.588 -14.614  1.00  0.00    -0.101 Cl
HETATM   11 CL3  UNL     1     -19.171 -22.158 -13.494  1.00  0.00    -0.101 Cl
HETATM   12  C22 UNL     1     -18.477 -24.501 -14.651  1.00  0.00     0.054 C 
ENDROOT
BRANCH   1  13
HETATM   13  C7  UNL     1     -17.649 -26.906 -14.920  1.00  0.00     0.190 C 
BRANCH  13  14
HETATM   14  O4  UNL     1     -16.416 -27.398 -14.624  1.00  0.00    -0.303 OA
BRANCH  14  15
HETATM   15  C6  UNL     1     -15.799 -28.572 -14.529  1.00  0.00     0.361 C 
HETATM   16  N2  UNL     1     -14.746 -28.819 -13.557  1.00  0.00    -0.318 N 
ATOM     17  H2  UNL     1     -14.460 -28.075 -12.920  1.00  0.00     0.166 HD
HETATM   18  O3  UNL     1     -16.114 -29.509 -15.285  1.00  0.00    -0.238 OA
BRANCH  16  19
HETATM   19  C5  UNL     1     -14.101 -30.107 -13.484  1.00  0.00     0.201 C 
HETATM   20 CL1  UNL     1     -12.578 -30.119 -14.401  1.00  0.00    -0.101 Cl
BRANCH  19  21
HETATM   21  C4  UNL     1     -13.802 -30.443 -12.058  1.00  0.00     0.166 C 
BRANCH  21  22
HETATM   22  N1  UNL     1     -14.123 -29.327 -11.196  1.00  0.00    -0.334 N 
HETATM   23  C3  UNL     1     -13.954 -29.444  -9.779  1.00  0.00     0.360 C 
HETATM   24  O2  UNL     1     -13.528 -30.512  -9.273  1.00  0.00    -0.239 OA
ATOM     25  H1  UNL     1     -14.469 -28.455 -11.598  1.00  0.00     0.164 HD
BRANCH  23  26
HETATM   26  O1  UNL     1     -14.258 -28.383  -8.961  1.00  0.00    -0.304 OA
BRANCH  26  27
HETATM   27  C2  UNL     1     -15.190 -28.450  -7.917  1.00  0.00     0.176 C 
HETATM   28  C1  UNL     1     -16.089 -27.238  -7.892  1.00  0.00     0.034 C 
ENDBRANCH  26  27
ENDBRANCH  23  26
ENDBRANCH  21  22
ENDBRANCH  19  21
ENDBRANCH  16  19
ENDBRANCH  14  15
ENDBRANCH  13  14
ENDBRANCH   1  13
BRANCH   7  29
HETATM   29  C15 UNL     1     -16.431 -23.242 -11.847  1.00  0.00     0.249 C 
BRANCH  29  30
HETATM   30  N3  UNL     1     -15.529 -23.476 -10.852  1.00  0.00    -0.074 N 
HETATM   31  C16 UNL     1     -15.810 -22.809  -9.551  1.00  0.00     0.272 C 
HETATM   32  C17 UNL     1     -14.977 -24.713 -10.490  1.00  0.00     0.272 C 
BRANCH  30  33
HETATM   33  C18 UNL     1     -14.342 -22.616 -11.216  1.00  0.00     0.232 C 
HETATM   34  C19 UNL     1     -13.783 -22.987 -12.530  1.00  0.00     0.034 C 
ENDBRANCH  30  33
ENDBRANCH  29  30
ENDBRANCH   7  29
TORSDOF 11
ENDMDL
MODEL 3
REMARK VINA RESULT: -5.935861982      3.379      7.069
REMARK  11 active torsions:
REMARK  status: ('A' for Active; 'I' for Inactive)
REMARK    1  A    between atoms: C2_2  and  O1_3 
REMARK    2  A    between atoms: O1_3  and  C3_4 
REMARK       I    between atoms: C3_4  and  N1_6 
REMARK    3  A    between atoms: N1_6  and  C4_8 
REMARK    4  A    between atoms: C4_8  and  C5_9 
REMARK    5  A    between atoms: C5_9  and  N2_11 
REMARK       I    between atoms: N2_11  and  C6_13 
REMARK    6  A    between atoms: C6_13  and  O4_15 
REMARK    7  A    between atoms: O4_15  and  C7_16 
REMARK    8  A    between atoms: C7_16  and  C8_17 
REMARK    9  A    between atoms: C14_23  and  C15_24 
REMARK   10  A    between atoms: C15_24  and  N3_25 
REMARK   11  A    between atoms: N3_25  and  C18_28 
ROOT
HETATM    1  C8  UNL     1     -14.170 -29.661 -13.366  1.00  0.00    -0.014 C 
HETATM    2  C9  UNL     1     -13.683 -29.490 -14.788  1.00  0.00     0.012 C 
HETATM    3  C10 UNL     1     -14.629 -28.532 -15.429  1.00  0.00     0.010 C 
HETATM    4  C11 UNL     1     -16.051 -29.137 -15.449  1.00  0.00    -0.035 C 
HETATM    5  C12 UNL     1     -15.838 -30.341 -16.376  1.00  0.00     0.016 C 
HETATM    6  C13 UNL     1     -16.881 -28.176 -16.203  1.00  0.00     0.016 C 
HETATM    7  C14 UNL     1     -16.490 -29.517 -14.072  1.00  0.00     0.027 C 
HETATM    8  C20 UNL     1     -15.516 -30.469 -13.430  1.00  0.00     0.027 C 
HETATM    9  C21 UNL     1     -16.181 -28.321 -13.139  1.00  0.00     0.124 C 
HETATM   10 CL2  UNL     1     -17.030 -28.523 -11.560  1.00  0.00    -0.101 Cl
HETATM   11 CL3  UNL     1     -16.653 -26.760 -13.690  1.00  0.00    -0.101 Cl
HETATM   12  C22 UNL     1     -14.701 -28.411 -12.809  1.00  0.00     0.054 C 
ENDROOT
BRANCH   1  13
HETATM   13  C7  UNL     1     -13.170 -30.451 -12.620  1.00  0.00     0.190 C 
BRANCH  13  14
HETATM   14  O4  UNL     1     -12.975 -30.077 -11.327  1.00  0.00    -0.303 OA
BRANCH  14  15
HETATM   15  C6  UNL     1     -13.621 -30.107 -10.165  1.00  0.00     0.361 C 
HETATM   16  N2  UNL     1     -13.961 -28.896  -9.434  1.00  0.00    -0.318 N 
ATOM     17  H2  UNL     1     -13.700 -27.987  -9.813  1.00  0.00     0.166 HD
HETATM   18  O3  UNL     1     -13.959 -31.195  -9.663  1.00  0.00    -0.238 OA
BRANCH  16  19
HETATM   19  C5  UNL     1     -14.662 -28.970  -8.177  1.00  0.00     0.201 C 
HETATM   20 CL1  UNL     1     -13.534 -29.173  -6.818  1.00  0.00    -0.101 Cl
BRANCH  19  21
HETATM   21  C4  UNL     1     -15.448 -27.717  -7.961  1.00  0.00     0.166 C 
BRANCH  21  22
HETATM   22  N1  UNL     1     -15.174 -26.760  -9.010  1.00  0.00    -0.334 N 
HETATM   23  C3  UNL     1     -15.581 -25.395  -8.860  1.00  0.00     0.360 C 
HETATM   24  O2  UNL     1     -16.177 -25.018  -7.821  1.00  0.00    -0.239 OA
ATOM     25  H1  UNL     1     -14.691 -27.058  -9.858  1.00  0.00     0.164 HD
BRANCH  23  26
HETATM   26  O1  UNL     1     -15.320 -24.488  -9.857  1.00  0.00    -0.304 OA
BRANCH  26  27
HETATM   27  C2  UNL     1     -14.918 -24.850 -11.150  1.00  0.00     0.176 C 
HETATM   28  C1  UNL     1     -14.477 -23.652 -11.954  1.00  0.00     0.034 C 
ENDBRANCH  26  27
ENDBRANCH  23  26
ENDBRANCH  21  22
ENDBRANCH  19  21
ENDBRANCH  16  19
ENDBRANCH  14  15
ENDBRANCH  13  14
ENDBRANCH   1  13
BRANCH   7  29
HETATM   29  C15 UNL     1     -17.901 -29.890 -13.906  1.00  0.00     0.249 C 
BRANCH  29  30
HETATM   30  N3  UNL     1     -18.600 -30.993 -14.298  1.00  0.00    -0.074 N 
HETATM   31  C16 UNL     1     -19.433 -30.834 -15.522  1.00  0.00     0.272 C 
HETATM   32  C17 UNL     1     -18.121 -32.308 -14.379  1.00  0.00     0.272 C 
BRANCH  30  33
HETATM   33  C18 UNL     1     -19.757 -31.063 -13.329  1.00  0.00     0.232 C 
HETATM   34  C19 UNL     1     -20.246 -29.720 -12.966  1.00  0.00     0.034 C 
ENDBRANCH  30  33
ENDBRANCH  29  30
ENDBRANCH   7  29
TORSDOF 11
ENDMDL
MODEL 4
REMARK VINA RESULT: -5.924856295      4.622      8.395
REMARK  11 active torsions:
REMARK  status: ('A' for Active; 'I' for Inactive)
REMARK    1  A    between atoms: C2_2  and  O1_3 
REMARK    2  A    between atoms: O1_3  and  C3_4 
REMARK       I    between atoms: C3_4  and  N1_6 
REMARK    3  A    between atoms: N1_6  and  C4_8 
REMARK    4  A    between atoms: C4_8  and  C5_9 
REMARK    5  A    between atoms: C5_9  and  N2_11 
REMARK       I    between atoms: N2_11  and  C6_13 
REMARK    6  A    between atoms: C6_13  and  O4_15 
REMARK    7  A    between atoms: O4_15  and  C7_16 
REMARK    8  A    between atoms: C7_16  and  C8_17 
REMARK    9  A    between atoms: C14_23  and  C15_24 
REMARK   10  A    between atoms: C15_24  and  N3_25 
REMARK   11  A    between atoms: N3_25  and  C18_28 
ROOT
HETATM    1  C8  UNL     1     -16.522 -25.394 -12.512  1.00  0.00    -0.014 C 
HETATM    2  C9  UNL     1     -17.808 -25.501 -13.301  1.00  0.00     0.012 C 
HETATM    3  C10 UNL     1     -18.407 -26.814 -12.925  1.00  0.00     0.010 C 
HETATM    4  C11 UNL     1     -17.458 -27.960 -13.346  1.00  0.00    -0.035 C 
HETATM    5  C12 UNL     1     -17.480 -27.806 -14.873  1.00  0.00     0.016 C 
HETATM    6  C13 UNL     1     -18.185 -29.209 -13.045  1.00  0.00     0.016 C 
HETATM    7  C14 UNL     1     -16.099 -27.775 -12.750  1.00  0.00     0.027 C 
HETATM    8  C20 UNL     1     -15.517 -26.437 -13.121  1.00  0.00     0.027 C 
HETATM    9  C21 UNL     1     -16.292 -27.453 -11.248  1.00  0.00     0.124 C 
HETATM   10 CL2  UNL     1     -14.724 -27.609 -10.368  1.00  0.00    -0.101 Cl
HETATM   11 CL3  UNL     1     -17.385 -28.452 -10.370  1.00  0.00    -0.101 Cl
HETATM   12  C22 UNL     1     -16.645 -25.978 -11.171  1.00  0.00     0.054 C 
ENDROOT
BRANCH   1  13
HETATM   13  C7  UNL     1     -15.973 -24.035 -12.693  1.00  0.00     0.190 C 
BRANCH  13  14
HETATM   14  O4  UNL     1     -15.174 -23.588 -11.687  1.00  0.00    -0.303 OA
BRANCH  14  15
HETATM   15  C6  UNL     1     -14.063 -22.875 -11.529  1.00  0.00     0.361 C 
HETATM   16  N2  UNL     1     -13.274 -22.406 -12.657  1.00  0.00    -0.318 N 
ATOM     17  H2  UNL     1     -13.572 -22.624 -13.608  1.00  0.00     0.166 HD
HETATM   18  O3  UNL     1     -13.661 -22.586 -10.387  1.00  0.00    -0.238 OA
BRANCH  16  19
HETATM   19  C5  UNL     1     -12.075 -21.635 -12.445  1.00  0.00     0.201 C 
HETATM   20 CL1  UNL     1     -10.777 -22.142 -13.549  1.00  0.00    -0.101 Cl
BRANCH  19  21
HETATM   21  C4  UNL     1     -12.357 -20.185 -12.675  1.00  0.00     0.166 C 
BRANCH  21  22
HETATM   22  N1  UNL     1     -11.489 -19.658 -13.705  1.00  0.00    -0.334 N 
HETATM   23  C3  UNL     1     -11.112 -18.276 -13.686  1.00  0.00     0.360 C 
HETATM   24  O2  UNL     1     -11.529 -17.513 -12.780  1.00  0.00    -0.239 OA
ATOM     25  H1  UNL     1     -11.146 -20.270 -14.446  1.00  0.00     0.164 HD
BRANCH  23  26
HETATM   26  O1  UNL     1     -10.287 -17.777 -14.665  1.00  0.00    -0.304 OA
BRANCH  26  27
HETATM   27  C2  UNL     1      -9.824 -18.534 -15.750  1.00  0.00     0.176 C 
HETATM   28  C1  UNL     1      -8.447 -19.095 -15.492  1.00  0.00     0.034 C 
ENDBRANCH  26  27
ENDBRANCH  23  26
ENDBRANCH  21  22
ENDBRANCH  19  21
ENDBRANCH  16  19
ENDBRANCH  14  15
ENDBRANCH  13  14
ENDBRANCH   1  13
BRANCH   7  29
HETATM   29  C15 UNL     1     -15.163 -28.900 -12.873  1.00  0.00     0.249 C 
BRANCH  29  30
HETATM   30  N3  UNL     1     -14.547 -29.452 -13.956  1.00  0.00    -0.074 N 
HETATM   31  C16 UNL     1     -15.147 -30.714 -14.471  1.00  0.00     0.272 C 
HETATM   32  C17 UNL     1     -14.113 -28.784 -15.109  1.00  0.00     0.272 C 
BRANCH  30  33
HETATM   33  C18 UNL     1     -13.301 -30.092 -13.389  1.00  0.00     0.232 C 
HETATM   34  C19 UNL     1     -12.432 -30.629 -14.452  1.00  0.00     0.034 C 
ENDBRANCH  30  33
ENDBRANCH  29  30
ENDBRANCH   7  29
TORSDOF 11
ENDMDL
MODEL 5
REMARK VINA RESULT: -5.923364094      3.663      8.085
REMARK  11 active torsions:
REMARK  status: ('A' for Active; 'I' for Inactive)
REMARK    1  A    between atoms: C2_2  and  O1_3 
REMARK    2  A    between atoms: O1_3  and  C3_4 
REMARK       I    between atoms: C3_4  and  N1_6 
REMARK    3  A    between atoms: N1_6  and  C4_8 
REMARK    4  A    between atoms: C4_8  and  C5_9 
REMARK    5  A    between atoms: C5_9  and  N2_11 
REMARK       I    between atoms: N2_11  and  C6_13 
REMARK    6  A    between atoms: C6_13  and  O4_15 
REMARK    7  A    between atoms: O4_15  and  C7_16 
REMARK    8  A    between atoms: C7_16  and  C8_17 
REMARK    9  A    between atoms: C14_23  and  C15_24 
REMARK   10  A    between atoms: C15_24  and  N3_25 
REMARK   11  A    between atoms: N3_25  and  C18_28 
ROOT
HETATM    1  C8  UNL     1     -16.678 -27.555 -13.449  1.00  0.00    -0.014 C 
HETATM    2  C9  UNL     1     -15.186 -27.765 -13.578  1.00  0.00     0.012 C 
HETATM    3  C10 UNL     1     -14.982 -28.429 -14.898  1.00  0.00     0.010 C 
HETATM    4  C11 UNL     1     -15.691 -29.803 -14.907  1.00  0.00    -0.035 C 
HETATM    5  C12 UNL     1     -14.887 -30.547 -13.830  1.00  0.00     0.016 C 
HETATM    6  C13 UNL     1     -15.332 -30.427 -16.195  1.00  0.00     0.016 C 
HETATM    7  C14 UNL     1     -17.140 -29.659 -14.572  1.00  0.00     0.027 C 
HETATM    8  C20 UNL     1     -17.331 -28.969 -13.248  1.00  0.00     0.027 C 
HETATM    9  C21 UNL     1     -17.703 -28.503 -15.435  1.00  0.00     0.124 C 
HETATM   10 CL2  UNL     1     -19.506 -28.517 -15.401  1.00  0.00    -0.101 Cl
HETATM   11 CL3  UNL     1     -17.298 -28.511 -17.108  1.00  0.00    -0.101 Cl
HETATM   12  C22 UNL     1     -17.302 -27.216 -14.734  1.00  0.00     0.054 C 
ENDROOT
BRANCH   1  13
HETATM   13  C7  UNL     1     -16.933 -26.732 -12.250  1.00  0.00     0.190 C 
BRANCH  13  14
HETATM   14  O4  UNL     1     -17.105 -25.402 -12.479  1.00  0.00    -0.303 OA
BRANCH  14  15
HETATM   15  C6  UNL     1     -16.497 -24.250 -12.208  1.00  0.00     0.361 C 
HETATM   16  N2  UNL     1     -16.263 -23.797 -10.847  1.00  0.00    -0.318 N 
ATOM     17  H2  UNL     1     -16.569 -24.372 -10.063  1.00  0.00     0.166 HD
HETATM   18  O3  UNL     1     -16.107 -23.515 -13.134  1.00  0.00    -0.238 OA
BRANCH  16  19
HETATM   19  C5  UNL     1     -15.600 -22.542 -10.595  1.00  0.00     0.201 C 
HETATM   20 CL1  UNL     1     -16.384 -21.652  -9.270  1.00  0.00    -0.101 Cl
BRANCH  19  21
HETATM   21  C4  UNL     1     -14.173 -22.788 -10.224  1.00  0.00     0.166 C 
BRANCH  21  22
HETATM   22  N1  UNL     1     -13.323 -21.751 -10.766  1.00  0.00    -0.334 N 
HETATM   23  C3  UNL     1     -12.718 -21.920 -12.053  1.00  0.00     0.360 C 
HETATM   24  O2  UNL     1     -12.918 -22.966 -12.720  1.00  0.00    -0.239 OA
ATOM     25  H1  UNL     1     -13.154 -20.898 -10.232  1.00  0.00     0.164 HD
BRANCH  23  26
HETATM   26  O1  UNL     1     -11.911 -20.934 -12.567  1.00  0.00    -0.304 OA
BRANCH  26  27
HETATM   27  C2  UNL     1     -11.567 -20.841 -13.922  1.00  0.00     0.176 C 
HETATM   28  C1  UNL     1     -10.243 -21.506 -14.208  1.00  0.00     0.034 C 
ENDBRANCH  26  27
ENDBRANCH  23  26
ENDBRANCH  21  22
ENDBRANCH  19  21
ENDBRANCH  16  19
ENDBRANCH  14  15
ENDBRANCH  13  14
ENDBRANCH   1  13
BRANCH   7  29
HETATM   29  C15 UNL     1     -17.986 -30.844 -14.767  1.00  0.00     0.249 C 
BRANCH  29  30
HETATM   30  N3  UNL     1     -18.073 -32.019 -14.080  1.00  0.00    -0.074 N 
HETATM   31  C16 UNL     1     -17.367 -33.180 -14.687  1.00  0.00     0.272 C 
HETATM   32  C17 UNL     1     -17.908 -32.201 -12.700  1.00  0.00     0.272 C 
BRANCH  30  33
HETATM   33  C18 UNL     1     -19.470 -32.516 -14.370  1.00  0.00     0.232 C 
HETATM   34  C19 UNL     1     -19.947 -32.062 -15.690  1.00  0.00     0.034 C 
ENDBRANCH  30  33
ENDBRANCH  29  30
ENDBRANCH   7  29
TORSDOF 11
ENDMDL
