MODEL 1
REMARK VINA RESULT: -8.279926029      0.000      0.000
REMARK  3 active torsions:
REMARK  status: ('A' for Active; 'I' for Inactive)
REMARK    1  A    between atoms: C3_5  and  N2_6 
REMARK    2  A    between atoms: C7_12  and  N4_13 
REMARK    3  A    between atoms: N4_13  and  C8_15 
ROOT
HETATM    1  C1  UNL     1     -17.432  36.432 -31.829  1.00  0.00     0.019 A 
HETATM    2  C2  UNL     1     -18.491  37.302 -31.962  1.00  0.00     0.090 A 
HETATM    3  N1  UNL     1     -19.491  37.268 -31.095  1.00  0.00    -0.350 N 
ATOM      4  H1  UNL     1     -20.275  37.912 -31.195  1.00  0.00     0.166 HD
HETATM    5  C3  UNL     1     -19.472  36.387 -30.086  1.00  0.00     0.139 A 
HETATM    6  C7  UNL     1     -18.449  35.477 -29.876  1.00  0.00     0.073 A 
HETATM    7  C14 UNL     1     -17.414  35.521 -30.784  1.00  0.00     0.034 A 
ENDROOT
BRANCH   6   8
HETATM    8  N4  UNL     1     -18.450  34.574 -28.795  1.00  0.00    -0.382 N 
ATOM      9  H4  UNL     1     -18.632  34.945 -27.863  1.00  0.00     0.160 HD
BRANCH   8  10
HETATM   10  C8  UNL     1     -18.213  33.179 -28.920  1.00  0.00     0.082 C 
HETATM   11  C9  UNL     1     -16.800  32.799 -29.300  1.00  0.00     0.025 C 
HETATM   12  C10 UNL     1     -16.676  31.314 -29.045  1.00  0.00     0.002 C 
HETATM   13  C11 UNL     1     -17.690  30.517 -29.828  1.00  0.00     0.000 C 
HETATM   14  C12 UNL     1     -19.054  31.109 -29.870  1.00  0.00     0.002 C 
HETATM   15  C13 UNL     1     -19.083  32.610 -30.049  1.00  0.00     0.025 C 
ENDBRANCH   8  10
ENDBRANCH   6   8
BRANCH   5  16
HETATM   16  N2  UNL     1     -20.573  36.378 -29.161  1.00  0.00    -0.301 N 
HETATM   17  C4  UNL     1     -21.315  35.342 -28.745  1.00  0.00     0.116 A 
HETATM   18  C5  UNL     1     -22.281  35.737 -27.853  1.00  0.00     0.106 A 
HETATM   19  N3  UNL     1     -22.108  37.080 -27.729  1.00  0.00    -0.360 N 
HETATM   20  C6  UNL     1     -21.083  37.454 -28.516  1.00  0.00     0.189 A 
ATOM     21  H3  UNL     1     -22.661  37.700 -27.138  1.00  0.00     0.166 HD
ENDBRANCH   5  16
TORSDOF 3
ENDMDL
MODEL 2
REMARK VINA RESULT: -7.999664530      0.843      1.582
REMARK  3 active torsions:
REMARK  status: ('A' for Active; 'I' for Inactive)
REMARK    1  A    between atoms: C3_5  and  N2_6 
REMARK    2  A    between atoms: C7_12  and  N4_13 
REMARK    3  A    between atoms: N4_13  and  C8_15 
ROOT
HETATM    1  C1  UNL     1     -17.415  36.830 -32.023  1.00  0.00     0.019 A 
HETATM    2  C2  UNL     1     -18.399  37.787 -31.916  1.00  0.00     0.090 A 
HETATM    3  N1  UNL     1     -19.373  37.642 -31.031  1.00  0.00    -0.350 N 
ATOM      4  H1  UNL     1     -20.102  38.352 -30.953  1.00  0.00     0.166 HD
HETATM    5  C3  UNL     1     -19.401  36.564 -30.237  1.00  0.00     0.139 A 
HETATM    6  C7  UNL     1     -18.454  35.554 -30.276  1.00  0.00     0.073 A 
HETATM    7  C14 UNL     1     -17.446  35.714 -31.200  1.00  0.00     0.034 A 
ENDROOT
BRANCH   6   8
HETATM    8  N4  UNL     1     -18.501  34.439 -29.415  1.00  0.00    -0.382 N 
ATOM      9  H4  UNL     1     -19.360  34.278 -28.890  1.00  0.00     0.160 HD
BRANCH   8  10
HETATM   10  C8  UNL     1     -17.429  33.526 -29.233  1.00  0.00     0.082 C 
HETATM   11  C9  UNL     1     -17.833  32.073 -29.127  1.00  0.00     0.025 C 
HETATM   12  C10 UNL     1     -16.565  31.266 -29.284  1.00  0.00     0.002 C 
HETATM   13  C11 UNL     1     -15.530  31.626 -28.246  1.00  0.00     0.000 C 
HETATM   14  C12 UNL     1     -15.405  33.083 -27.967  1.00  0.00     0.002 C 
HETATM   15  C13 UNL     1     -16.719  33.827 -27.905  1.00  0.00     0.025 C 
ENDBRANCH   8  10
ENDBRANCH   6   8
BRANCH   5  16
HETATM   16  N2  UNL     1     -20.471  36.439 -29.286  1.00  0.00    -0.301 N 
HETATM   17  C4  UNL     1     -21.102  35.332 -28.869  1.00  0.00     0.116 A 
HETATM   18  C5  UNL     1     -22.078  35.622 -27.946  1.00  0.00     0.106 A 
HETATM   19  N3  UNL     1     -22.027  36.973 -27.804  1.00  0.00    -0.360 N 
HETATM   20  C6  UNL     1     -21.062  37.453 -28.610  1.00  0.00     0.189 A 
ATOM     21  H3  UNL     1     -22.620  37.531 -27.189  1.00  0.00     0.166 HD
ENDBRANCH   5  16
TORSDOF 3
ENDMDL
MODEL 3
REMARK VINA RESULT: -7.826617754      1.261      3.601
REMARK  3 active torsions:
REMARK  status: ('A' for Active; 'I' for Inactive)
REMARK    1  A    between atoms: C3_5  and  N2_6 
REMARK    2  A    between atoms: C7_12  and  N4_13 
REMARK    3  A    between atoms: N4_13  and  C8_15 
ROOT
HETATM    1  C1  UNL     1     -21.654  36.548 -28.205  1.00  0.00     0.019 A 
HETATM    2  C2  UNL     1     -21.159  37.816 -28.412  1.00  0.00     0.090 A 
HETATM    3  N1  UNL     1     -20.227  38.024 -29.329  1.00  0.00    -0.350 N 
ATOM      4  H1  UNL     1     -19.862  38.964 -29.481  1.00  0.00     0.166 HD
HETATM    5  C3  UNL     1     -19.764  37.000 -30.057  1.00  0.00     0.139 A 
HETATM    6  C7  UNL     1     -20.203  35.694 -29.916  1.00  0.00     0.073 A 
HETATM    7  C14 UNL     1     -21.172  35.488 -28.960  1.00  0.00     0.034 A 
ENDROOT
BRANCH   6   8
HETATM    8  N4  UNL     1     -19.708  34.640 -30.710  1.00  0.00    -0.382 N 
ATOM      9  H4  UNL     1     -19.675  34.778 -31.719  1.00  0.00     0.160 HD
BRANCH   8  10
HETATM   10  C8  UNL     1     -19.254  33.398 -30.193  1.00  0.00     0.082 C 
HETATM   11  C9  UNL     1     -17.755  33.274 -30.041  1.00  0.00     0.025 C 
HETATM   12  C10 UNL     1     -17.512  32.057 -29.180  1.00  0.00     0.002 C 
HETATM   13  C11 UNL     1     -18.109  30.808 -29.780  1.00  0.00     0.000 C 
HETATM   14  C12 UNL     1     -19.460  30.986 -30.379  1.00  0.00     0.002 C 
HETATM   15  C13 UNL     1     -19.639  32.268 -31.159  1.00  0.00     0.025 C 
ENDBRANCH   8  10
ENDBRANCH   6   8
BRANCH   5  16
HETATM   16  N2  UNL     1     -18.753  37.261 -31.045  1.00  0.00    -0.301 N 
HETATM   17  C4  UNL     1     -17.633  36.572 -31.307  1.00  0.00     0.116 A 
HETATM   18  C5  UNL     1     -16.917  37.140 -32.332  1.00  0.00     0.106 A 
HETATM   19  N3  UNL     1     -17.648  38.225 -32.704  1.00  0.00    -0.360 N 
HETATM   20  C6  UNL     1     -18.745  38.289 -31.927  1.00  0.00     0.189 A 
ATOM     21  H3  UNL     1     -17.406  38.881 -33.447  1.00  0.00     0.166 HD
ENDBRANCH   5  16
TORSDOF 3
ENDMDL
MODEL 4
REMARK VINA RESULT: -7.701295642      1.378      4.546
REMARK  3 active torsions:
REMARK  status: ('A' for Active; 'I' for Inactive)
REMARK    1  A    between atoms: C3_5  and  N2_6 
REMARK    2  A    between atoms: C7_12  and  N4_13 
REMARK    3  A    between atoms: N4_13  and  C8_15 
ROOT
HETATM    1  C1  UNL     1     -18.275  32.728 -30.259  1.00  0.00     0.019 A 
HETATM    2  C2  UNL     1     -18.707  32.717 -28.951  1.00  0.00     0.090 A 
HETATM    3  N1  UNL     1     -19.464  33.703 -28.494  1.00  0.00    -0.350 N 
ATOM      4  H1  UNL     1     -19.783  33.694 -27.525  1.00  0.00     0.166 HD
HETATM    5  C3  UNL     1     -19.811  34.712 -29.304  1.00  0.00     0.139 A 
HETATM    6  C7  UNL     1     -19.422  34.803 -30.630  1.00  0.00     0.073 A 
HETATM    7  C14 UNL     1     -18.635  33.773 -31.096  1.00  0.00     0.034 A 
ENDROOT
BRANCH   6   8
HETATM    8  N4  UNL     1     -19.817  35.869 -31.463  1.00  0.00    -0.382 N 
ATOM      9  H4  UNL     1     -20.807  35.950 -31.697  1.00  0.00     0.160 HD
BRANCH   8  10
HETATM   10  C8  UNL     1     -18.927  36.838 -31.997  1.00  0.00     0.082 C 
HETATM   11  C9  UNL     1     -17.477  36.661 -31.608  1.00  0.00     0.025 C 
HETATM   12  C10 UNL     1     -16.676  37.552 -32.530  1.00  0.00     0.002 C 
HETATM   13  C11 UNL     1     -17.101  38.997 -32.433  1.00  0.00     0.000 C 
HETATM   14  C12 UNL     1     -18.571  39.214 -32.349  1.00  0.00     0.002 C 
HETATM   15  C13 UNL     1     -19.303  38.228 -31.467  1.00  0.00     0.025 C 
ENDBRANCH   8  10
ENDBRANCH   6   8
BRANCH   5  16
HETATM   16  N2  UNL     1     -20.634  35.765 -28.776  1.00  0.00    -0.301 N 
HETATM   17  C4  UNL     1     -21.927  35.727 -28.425  1.00  0.00     0.116 A 
HETATM   18  C5  UNL     1     -22.362  36.944 -27.959  1.00  0.00     0.106 A 
HETATM   19  N3  UNL     1     -21.271  37.752 -28.036  1.00  0.00    -0.360 N 
HETATM   20  C6  UNL     1     -20.242  37.037 -28.527  1.00  0.00     0.189 A 
ATOM     21  H3  UNL     1     -21.237  38.735 -27.767  1.00  0.00     0.166 HD
ENDBRANCH   5  16
TORSDOF 3
ENDMDL
MODEL 5
REMARK VINA RESULT: -7.642897030      1.215      3.754
REMARK  3 active torsions:
REMARK  status: ('A' for Active; 'I' for Inactive)
REMARK    1  A    between atoms: C3_5  and  N2_6 
REMARK    2  A    between atoms: C7_12  and  N4_13 
REMARK    3  A    between atoms: N4_13  and  C8_15 
ROOT
HETATM    1  C1  UNL     1     -21.339  35.912 -28.380  1.00  0.00     0.019 A 
HETATM    2  C2  UNL     1     -21.105  37.258 -28.551  1.00  0.00     0.090 A 
HETATM    3  N1  UNL     1     -20.236  37.670 -29.461  1.00  0.00    -0.350 N 
ATOM      4  H1  UNL     1     -20.064  38.667 -29.586  1.00  0.00     0.166 HD
HETATM    5  C3  UNL     1     -19.584  36.777 -30.217  1.00  0.00     0.139 A 
HETATM    6  C7  UNL     1     -19.757  35.407 -30.113  1.00  0.00     0.073 A 
HETATM    7  C14 UNL     1     -20.663  34.988 -29.163  1.00  0.00     0.034 A 
ENDROOT
BRANCH   6   8
HETATM    8  N4  UNL     1     -19.069  34.493 -30.935  1.00  0.00    -0.382 N 
ATOM      9  H4  UNL     1     -19.227  34.543 -31.941  1.00  0.00     0.160 HD
BRANCH   8  10
HETATM   10  C8  UNL     1     -18.169  33.507 -30.452  1.00  0.00     0.082 C 
HETATM   11  C9  UNL     1     -18.817  32.311 -29.793  1.00  0.00     0.025 C 
HETATM   12  C10 UNL     1     -17.742  31.256 -29.670  1.00  0.00     0.002 C 
HETATM   13  C11 UNL     1     -16.555  31.745 -28.877  1.00  0.00     0.000 C 
HETATM   14  C12 UNL     1     -16.136  33.142 -29.174  1.00  0.00     0.002 C 
HETATM   15  C13 UNL     1     -17.278  34.115 -29.359  1.00  0.00     0.025 C 
ENDBRANCH   8  10
ENDBRANCH   6   8
BRANCH   5  16
HETATM   16  N2  UNL     1     -18.649  37.259 -31.196  1.00  0.00    -0.301 N 
HETATM   17  C4  UNL     1     -17.434  36.786 -31.504  1.00  0.00     0.116 A 
HETATM   18  C5  UNL     1     -16.841  37.521 -32.502  1.00  0.00     0.106 A 
HETATM   19  N3  UNL     1     -17.752  38.485 -32.807  1.00  0.00    -0.360 N 
HETATM   20  C6  UNL     1     -18.830  38.319 -32.019  1.00  0.00     0.189 A 
ATOM     21  H3  UNL     1     -17.636  39.211 -33.513  1.00  0.00     0.166 HD
ENDBRANCH   5  16
TORSDOF 3
ENDMDL
