MODEL 1
REMARK VINA RESULT: -7.727194466      0.000      0.000
REMARK  6 active torsions:
REMARK  status: ('A' for Active; 'I' for Inactive)
REMARK    1  A    between atoms: C1_2  and  C2_4 
REMARK    2  A    between atoms: C2_4  and  N2_5 
REMARK    3  A    between atoms: C2_4  and  C6_17 
REMARK    4  A    between atoms: N2_5  and  C3_7 
REMARK       I    between atoms: C6_17  and  N6_19 
REMARK    5  A    between atoms: N6_19  and  C7_21 
REMARK    6  A    between atoms: C8_25  and  N8_26 
ROOT
HETATM    1  C6  UNL     1      11.295  19.859  13.586  1.00  0.00     0.251 C 
HETATM    2  O3  UNL     1      10.110  20.243  13.709  1.00  0.00    -0.271 OA
HETATM    3  N6  UNL     1      12.190  20.033  14.646  1.00  0.00    -0.324 N 
ATOM      4  H6  UNL     1      13.148  19.709  14.514  1.00  0.00     0.165 HD
ENDROOT
BRANCH   1   5
HETATM    5  C2  UNL     1      11.699  19.231  12.309  1.00  0.00     0.265 C 
BRANCH   5   6
HETATM    6  C1  UNL     1      13.016  19.710  11.836  1.00  0.00     0.263 C 
HETATM    7  N1  UNL     1      14.264  19.207  12.300  1.00  0.00    -0.060 NA
HETATM    8  O1  UNL     1      13.080  20.617  10.970  1.00  0.00    -0.274 OA
ENDBRANCH   5   6
BRANCH   5   9
HETATM    9  N2  UNL     1      10.718  19.550  11.309  1.00  0.00    -0.354 N 
ATOM     10  H2  UNL     1      10.331  20.494  11.321  1.00  0.00     0.162 HD
BRANCH   9  11
HETATM   11  C3  UNL     1      10.292  18.760  10.414  1.00  0.00     0.123 A 
HETATM   12  C4  UNL     1      10.546  18.990   9.085  1.00  0.00     0.155 A 
HETATM   13  N3  UNL     1      10.065  18.110   8.157  1.00  0.00    -0.304 N 
HETATM   14  N4  UNL     1       9.361  17.041   8.511  1.00  0.00    -0.252 N 
ATOM     15  H3  UNL     1      10.253  18.278   7.169  1.00  0.00     0.186 HD
HETATM   16  C5  UNL     1       9.128  16.839   9.800  1.00  0.00     0.340 A 
ATOM     17  H4  UNL     1       9.009  16.392   7.807  1.00  0.00     0.191 HD
HETATM   18  O2  UNL     1       8.465  15.836  10.159  1.00  0.00    -0.245 OA
HETATM   19  N5  UNL     1       9.580  17.679  10.759  1.00  0.00    -0.292 N 
ATOM     20  H5  UNL     1       9.380  17.490  11.742  1.00  0.00     0.172 HD
ENDBRANCH   9  11
ENDBRANCH   5   9
ENDBRANCH   1   5
BRANCH   3  21
HETATM   21  C7  UNL     1      11.859  20.638  15.916  1.00  0.00     0.384 C 
HETATM   22  N7  UNL     1      11.264  21.944  15.695  1.00  0.00     0.001 N 
HETATM   23  C8  UNL     1      11.365  22.532  17.025  1.00  0.00     0.488 C 
ATOM     24  H72 UNL     1      11.681  22.492  14.943  1.00  0.00     0.284 HD
ATOM     25  H71 UNL     1      10.327  21.934  15.292  1.00  0.00     0.284 HD
HETATM   26  N9  UNL     1      12.640  22.096  17.537  1.00  0.00    -0.308 N 
HETATM   27  C9  UNL     1      13.052  20.984  16.715  1.00  0.00     0.271 C 
ATOM     28  H9  UNL     1      13.151  22.495  18.324  1.00  0.00     0.166 HD
HETATM   29  O4  UNL     1      14.193  20.504  16.759  1.00  0.00    -0.269 OA
BRANCH  23  30
HETATM   30  N8  UNL     1      11.343  23.975  16.838  1.00  0.00    -0.033 N 
ATOM     31  H83 UNL     1      12.252  24.365  16.590  1.00  0.00     0.278 HD
ATOM     32  H82 UNL     1      10.847  24.267  15.995  1.00  0.00     0.278 HD
ATOM     33  H81 UNL     1      10.954  24.370  17.694  1.00  0.00     0.278 HD
ENDBRANCH  23  30
ENDBRANCH   3  21
TORSDOF 6
ENDMDL
MODEL 2
REMARK VINA RESULT: -7.536864941      1.342      1.725
REMARK  6 active torsions:
REMARK  status: ('A' for Active; 'I' for Inactive)
REMARK    1  A    between atoms: C1_2  and  C2_4 
REMARK    2  A    between atoms: C2_4  and  N2_5 
REMARK    3  A    between atoms: C2_4  and  C6_17 
REMARK    4  A    between atoms: N2_5  and  C3_7 
REMARK       I    between atoms: C6_17  and  N6_19 
REMARK    5  A    between atoms: N6_19  and  C7_21 
REMARK    6  A    between atoms: C8_25  and  N8_26 
ROOT
HETATM    1  C6  UNL     1      10.816  19.837  13.849  1.00  0.00     0.251 C 
HETATM    2  O3  UNL     1       9.650  20.145  14.185  1.00  0.00    -0.271 OA
HETATM    3  N6  UNL     1      11.868  20.040  14.746  1.00  0.00    -0.324 N 
ATOM      4  H6  UNL     1      12.806  19.777  14.442  1.00  0.00     0.165 HD
ENDROOT
BRANCH   1   5
HETATM    5  C2  UNL     1      11.027  19.264  12.502  1.00  0.00     0.265 C 
BRANCH   5   6
HETATM    6  C1  UNL     1      11.727  20.200  11.595  1.00  0.00     0.263 C 
HETATM    7  N1  UNL     1      12.255  19.838  10.323  1.00  0.00    -0.060 NA
HETATM    8  O1  UNL     1      11.885  21.400  11.931  1.00  0.00    -0.274 OA
ENDBRANCH   5   6
BRANCH   5   9
HETATM    9  N2  UNL     1       9.748  18.952  11.929  1.00  0.00    -0.354 N 
ATOM     10  H2  UNL     1       9.025  19.670  11.983  1.00  0.00     0.162 HD
BRANCH   9  11
HETATM   11  C3  UNL     1       9.440  17.861  11.360  1.00  0.00     0.123 A 
HETATM   12  C4  UNL     1       8.981  16.789  12.083  1.00  0.00     0.155 A 
HETATM   13  N3  UNL     1       8.662  15.635  11.426  1.00  0.00    -0.304 N 
HETATM   14  N4  UNL     1       8.787  15.527  10.108  1.00  0.00    -0.252 N 
ATOM     15  H3  UNL     1       8.320  14.837  11.960  1.00  0.00     0.186 HD
HETATM   16  C5  UNL     1       9.233  16.575   9.430  1.00  0.00     0.340 A 
ATOM     17  H4  UNL     1       8.545  14.659   9.630  1.00  0.00     0.191 HD
HETATM   18  O2  UNL     1       9.359  16.498   8.183  1.00  0.00    -0.245 OA
HETATM   19  N5  UNL     1       9.562  17.742  10.032  1.00  0.00    -0.292 N 
ATOM     20  H5  UNL     1       9.903  18.527   9.475  1.00  0.00     0.172 HD
ENDBRANCH   9  11
ENDBRANCH   5   9
ENDBRANCH   1   5
BRANCH   3  21
HETATM   21  C7  UNL     1      11.728  20.594  16.074  1.00  0.00     0.384 C 
HETATM   22  N7  UNL     1      11.010  21.854  16.004  1.00  0.00     0.001 N 
HETATM   23  C8  UNL     1      11.306  22.423  17.313  1.00  0.00     0.488 C 
ATOM     24  H72 UNL     1      11.245  22.446  15.207  1.00  0.00     0.284 HD
ATOM     25  H71 UNL     1      10.019  21.780  15.773  1.00  0.00     0.284 HD
HETATM   26  N9  UNL     1      12.681  22.077  17.576  1.00  0.00    -0.308 N 
HETATM   27  C9  UNL     1      13.018  21.015  16.659  1.00  0.00     0.271 C 
ATOM     28  H9  UNL     1      13.295  22.499  18.272  1.00  0.00     0.166 HD
HETATM   29  O4  UNL     1      14.179  20.624  16.484  1.00  0.00    -0.269 OA
BRANCH  23  30
HETATM   30  N8  UNL     1      11.147  23.864  17.179  1.00  0.00    -0.033 N 
ATOM     31  H83 UNL     1      10.341  24.231  17.685  1.00  0.00     0.278 HD
ATOM     32  H82 UNL     1      11.861  24.399  17.674  1.00  0.00     0.278 HD
ATOM     33  H81 UNL     1      11.118  24.057  16.178  1.00  0.00     0.278 HD
ENDBRANCH  23  30
ENDBRANCH   3  21
TORSDOF 6
ENDMDL
MODEL 3
REMARK VINA RESULT: -7.448201551      3.833      8.275
REMARK  6 active torsions:
REMARK  status: ('A' for Active; 'I' for Inactive)
REMARK    1  A    between atoms: C1_2  and  C2_4 
REMARK    2  A    between atoms: C2_4  and  N2_5 
REMARK    3  A    between atoms: C2_4  and  C6_17 
REMARK    4  A    between atoms: N2_5  and  C3_7 
REMARK       I    between atoms: C6_17  and  N6_19 
REMARK    5  A    between atoms: N6_19  and  C7_21 
REMARK    6  A    between atoms: C8_25  and  N8_26 
ROOT
HETATM    1  C6  UNL     1      10.049  16.518   9.453  1.00  0.00     0.251 C 
HETATM    2  O3  UNL     1       9.390  17.035   8.523  1.00  0.00    -0.271 OA
HETATM    3  N6  UNL     1      10.886  15.431   9.183  1.00  0.00    -0.324 N 
ATOM      4  H6  UNL     1      11.409  15.033   9.963  1.00  0.00     0.165 HD
ENDROOT
BRANCH   1   5
HETATM    5  C2  UNL     1       9.911  17.088  10.811  1.00  0.00     0.265 C 
BRANCH   5   6
HETATM    6  C1  UNL     1       8.954  16.331  11.646  1.00  0.00     0.263 C 
HETATM    7  N1  UNL     1       8.508  16.749  12.931  1.00  0.00    -0.060 NA
HETATM    8  O1  UNL     1       8.482  15.243  11.230  1.00  0.00    -0.274 OA
ENDBRANCH   5   6
BRANCH   5   9
HETATM    9  N2  UNL     1       9.438  18.439  10.696  1.00  0.00    -0.354 N 
ATOM     10  H2  UNL     1       8.459  18.570  10.439  1.00  0.00     0.162 HD
BRANCH   9  11
HETATM   11  C3  UNL     1      10.131  19.483  10.887  1.00  0.00     0.123 A 
HETATM   12  C4  UNL     1      11.492  19.473  10.712  1.00  0.00     0.155 A 
HETATM   13  N3  UNL     1      12.197  20.623  10.931  1.00  0.00    -0.304 N 
HETATM   14  N4  UNL     1      11.597  21.746  11.308  1.00  0.00    -0.252 N 
ATOM     15  H3  UNL     1      13.209  20.619  10.801  1.00  0.00     0.186 HD
HETATM   16  C5  UNL     1      10.282  21.733  11.472  1.00  0.00     0.340 A 
ATOM     17  H4  UNL     1      12.136  22.597  11.467  1.00  0.00     0.191 HD
HETATM   18  O2  UNL     1       9.691  22.782  11.828  1.00  0.00    -0.245 OA
HETATM   19  N5  UNL     1       9.536  20.621  11.268  1.00  0.00    -0.292 N 
ATOM     20  H5  UNL     1       8.526  20.650  11.405  1.00  0.00     0.172 HD
ENDBRANCH   9  11
ENDBRANCH   5   9
ENDBRANCH   1   5
BRANCH   3  21
HETATM   21  C7  UNL     1      11.064  14.828   7.882  1.00  0.00     0.384 C 
HETATM   22  N7  UNL     1      11.312  15.864   6.894  1.00  0.00     0.001 N 
HETATM   23  C8  UNL     1      11.076  15.135   5.653  1.00  0.00     0.488 C 
ATOM     24  H72 UNL     1      10.765  16.717   7.010  1.00  0.00     0.284 HD
ATOM     25  H71 UNL     1      12.218  16.326   6.964  1.00  0.00     0.284 HD
HETATM   26  N9  UNL     1       9.954  14.272   5.926  1.00  0.00    -0.308 N 
HETATM   27  C9  UNL     1       9.828  14.208   7.362  1.00  0.00     0.271 C 
ATOM     28  H9  UNL     1       9.366  13.800   5.240  1.00  0.00     0.166 HD
HETATM   29  O4  UNL     1       8.844  13.712   7.927  1.00  0.00    -0.269 OA
BRANCH  23  30
HETATM   30  N8  UNL     1      10.735  16.134   4.651  1.00  0.00    -0.033 N 
ATOM     31  H83 UNL     1       9.732  16.297   4.567  1.00  0.00     0.278 HD
ATOM     32  H82 UNL     1      10.995  17.083   4.919  1.00  0.00     0.278 HD
ATOM     33  H81 UNL     1      11.169  15.827   3.780  1.00  0.00     0.278 HD
ENDBRANCH  23  30
ENDBRANCH   3  21
TORSDOF 6
ENDMDL
MODEL 4
REMARK VINA RESULT: -7.418920794      3.638      5.368
REMARK  6 active torsions:
REMARK  status: ('A' for Active; 'I' for Inactive)
REMARK    1  A    between atoms: C1_2  and  C2_4 
REMARK    2  A    between atoms: C2_4  and  N2_5 
REMARK    3  A    between atoms: C2_4  and  C6_17 
REMARK    4  A    between atoms: N2_5  and  C3_7 
REMARK       I    between atoms: C6_17  and  N6_19 
REMARK    5  A    between atoms: N6_19  and  C7_21 
REMARK    6  A    between atoms: C8_25  and  N8_26 
ROOT
HETATM    1  C6  UNL     1      10.342  17.056  10.148  1.00  0.00     0.251 C 
HETATM    2  O3  UNL     1       9.193  17.203  10.623  1.00  0.00    -0.271 OA
HETATM    3  N6  UNL     1      11.338  17.988  10.453  1.00  0.00    -0.324 N 
ATOM      4  H6  UNL     1      12.264  17.838  10.050  1.00  0.00     0.165 HD
ENDROOT
BRANCH   1   5
HETATM    5  C2  UNL     1      10.594  15.888   9.276  1.00  0.00     0.265 C 
BRANCH   5   6
HETATM    6  C1  UNL     1      12.027  15.730   8.945  1.00  0.00     0.263 C 
HETATM    7  N1  UNL     1      12.808  14.591   9.291  1.00  0.00    -0.060 NA
HETATM    8  O1  UNL     1      12.630  16.637   8.319  1.00  0.00    -0.274 OA
ENDBRANCH   5   6
BRANCH   5   9
HETATM    9  N2  UNL     1       9.865  16.063   8.051  1.00  0.00    -0.354 N 
ATOM     10  H2  UNL     1       9.043  16.665   8.080  1.00  0.00     0.162 HD
BRANCH   9  11
HETATM   11  C3  UNL     1      10.157  15.534   6.936  1.00  0.00     0.123 A 
HETATM   12  C4  UNL     1      10.154  14.172   6.774  1.00  0.00     0.155 A 
HETATM   13  N3  UNL     1      10.476  13.649   5.554  1.00  0.00    -0.304 N 
HETATM   14  N4  UNL     1      10.791  14.426   4.525  1.00  0.00    -0.252 N 
ATOM     15  H3  UNL     1      10.473  12.636   5.430  1.00  0.00     0.186 HD
HETATM   16  C5  UNL     1      10.789  15.740   4.703  1.00  0.00     0.340 A 
ATOM     17  H4  UNL     1      11.030  14.022   3.619  1.00  0.00     0.191 HD
HETATM   18  O2  UNL     1      11.084  16.495   3.746  1.00  0.00    -0.245 OA
HETATM   19  N5  UNL     1      10.478  16.309   5.891  1.00  0.00    -0.292 N 
ATOM     20  H5  UNL     1      10.488  17.325   5.990  1.00  0.00     0.172 HD
ENDBRANCH   9  11
ENDBRANCH   5   9
ENDBRANCH   1   5
BRANCH   3  21
HETATM   21  C7  UNL     1      11.156  19.147  11.297  1.00  0.00     0.384 C 
HETATM   22  N7  UNL     1       9.984  19.886  10.864  1.00  0.00     0.001 N 
HETATM   23  C8  UNL     1      10.188  21.163  11.539  1.00  0.00     0.488 C 
ATOM     24  H72 UNL     1       9.851  19.943   9.854  1.00  0.00     0.284 HD
ATOM     25  H71 UNL     1       9.089  19.433  11.048  1.00  0.00     0.284 HD
HETATM   26  N9  UNL     1      11.605  21.413  11.458  1.00  0.00    -0.308 N 
HETATM   27  C9  UNL     1      12.225  20.153  11.127  1.00  0.00     0.271 C 
ATOM     28  H9  UNL     1      12.077  22.305  11.605  1.00  0.00     0.166 HD
HETATM   29  O4  UNL     1      13.411  20.058  10.788  1.00  0.00    -0.269 OA
BRANCH  23  30
HETATM   30  N8  UNL     1       9.438  22.152  10.779  1.00  0.00    -0.033 N 
ATOM     31  H83 UNL     1       9.818  23.095  10.856  1.00  0.00     0.278 HD
ATOM     32  H82 UNL     1       9.546  22.055   9.769  1.00  0.00     0.278 HD
ATOM     33  H81 UNL     1       8.469  22.079  11.090  1.00  0.00     0.278 HD
ENDBRANCH  23  30
ENDBRANCH   3  21
TORSDOF 6
ENDMDL
MODEL 5
REMARK VINA RESULT: -7.406669668      1.724      2.590
REMARK  6 active torsions:
REMARK  status: ('A' for Active; 'I' for Inactive)
REMARK    1  A    between atoms: C1_2  and  C2_4 
REMARK    2  A    between atoms: C2_4  and  N2_5 
REMARK    3  A    between atoms: C2_4  and  C6_17 
REMARK    4  A    between atoms: N2_5  and  C3_7 
REMARK       I    between atoms: C6_17  and  N6_19 
REMARK    5  A    between atoms: N6_19  and  C7_21 
REMARK    6  A    between atoms: C8_25  and  N8_26 
ROOT
HETATM    1  C6  UNL     1      11.914  20.613  13.726  1.00  0.00     0.251 C 
HETATM    2  O3  UNL     1      13.000  20.008  13.878  1.00  0.00    -0.271 OA
HETATM    3  N6  UNL     1      11.411  21.397  14.768  1.00  0.00    -0.324 N 
ATOM      4  H6  UNL     1      10.524  21.877  14.611  1.00  0.00     0.165 HD
ENDROOT
BRANCH   1   5
HETATM    5  C2  UNL     1      11.207  20.469  12.434  1.00  0.00     0.265 C 
BRANCH   5   6
HETATM    6  C1  UNL     1       9.743  20.619  12.573  1.00  0.00     0.263 C 
HETATM    7  N1  UNL     1       8.944  21.466  11.754  1.00  0.00    -0.060 NA
HETATM    8  O1  UNL     1       9.127  19.976  13.459  1.00  0.00    -0.274 OA
ENDBRANCH   5   6
BRANCH   5   9
HETATM    9  N2  UNL     1      11.478  19.161  11.906  1.00  0.00    -0.354 N 
ATOM     10  H2  UNL     1      12.276  18.658  12.293  1.00  0.00     0.162 HD
BRANCH   9  11
HETATM   11  C3  UNL     1      10.809  18.579  10.999  1.00  0.00     0.123 A 
HETATM   12  C4  UNL     1      10.898  18.972   9.688  1.00  0.00     0.155 A 
HETATM   13  N3  UNL     1      10.158  18.314   8.747  1.00  0.00    -0.304 N 
HETATM   14  N4  UNL     1       9.358  17.306   9.071  1.00  0.00    -0.252 N 
ATOM     15  H3  UNL     1      10.223  18.604   7.771  1.00  0.00     0.186 HD
HETATM   16  C5  UNL     1       9.286  16.943  10.344  1.00  0.00     0.340 A 
ATOM     17  H4  UNL     1       8.811  16.823   8.358  1.00  0.00     0.191 HD
HETATM   18  O2  UNL     1       8.537  15.993  10.676  1.00  0.00    -0.245 OA
HETATM   19  N5  UNL     1       9.998  17.561  11.316  1.00  0.00    -0.292 N 
ATOM     20  H5  UNL     1       9.917  17.253  12.285  1.00  0.00     0.172 HD
ENDBRANCH   9  11
ENDBRANCH   5   9
ENDBRANCH   1   5
BRANCH   3  21
HETATM   21  C7  UNL     1      12.052  21.578  16.050  1.00  0.00     0.384 C 
HETATM   22  N7  UNL     1      12.007  20.335  16.799  1.00  0.00     0.001 N 
HETATM   23  C8  UNL     1      12.322  20.801  18.144  1.00  0.00     0.488 C 
ATOM     24  H72 UNL     1      11.140  19.805  16.713  1.00  0.00     0.284 HD
ATOM     25  H71 UNL     1      12.605  19.589  16.443  1.00  0.00     0.284 HD
HETATM   26  N9  UNL     1      11.641  22.065  18.277  1.00  0.00    -0.308 N 
HETATM   27  C9  UNL     1      11.305  22.491  16.941  1.00  0.00     0.271 C 
ATOM     28  H9  UNL     1      11.438  22.560  19.145  1.00  0.00     0.166 HD
HETATM   29  O4  UNL     1      10.541  23.438  16.711  1.00  0.00    -0.269 OA
BRANCH  23  30
HETATM   30  N8  UNL     1      11.772  19.812  19.059  1.00  0.00    -0.033 N 
ATOM     31  H83 UNL     1      10.999  20.167  19.622  1.00  0.00     0.278 HD
ATOM     32  H82 UNL     1      11.254  19.069  18.590  1.00  0.00     0.278 HD
ATOM     33  H81 UNL     1      12.554  19.470  19.616  1.00  0.00     0.278 HD
ENDBRANCH  23  30
ENDBRANCH   3  21
TORSDOF 6
ENDMDL
