MODEL 1
REMARK VINA RESULT: -7.065190900      0.000      0.000
REMARK  8 active torsions:
REMARK  status: ('A' for Active; 'I' for Inactive)
REMARK    1  A    between atoms: O1_2  and  C2_3 
REMARK    2  A    between atoms: C2_3  and  N1_4 
REMARK    3  A    between atoms: C2_3  and  C3_8 
REMARK       I    between atoms: C3_8  and  N2_10 
REMARK    4  A    between atoms: N2_10  and  C4_12 
REMARK    5  A    between atoms: C5_15  and  N4_16 
REMARK       I    between atoms: N6_21  and  C6_22 
REMARK    6  A    between atoms: C6_22  and  C7_24 
REMARK    7  A    between atoms: C7_24  and  N7_25 
REMARK    8  A    between atoms: C7_24  and  C8_29 
ROOT
HETATM    1  C4  UNL     1      11.564  19.617  10.072  1.00  0.00     0.194 A 
HETATM    2  N3  UNL     1      10.452  19.199   9.465  1.00  0.00    -0.170 N 
ATOM      3  H3  UNL     1       9.621  19.791   9.474  1.00  0.00     0.186 HD
HETATM    4  C5  UNL     1      10.414  18.009   8.840  1.00  0.00     0.692 A 
HETATM    5  N5  UNL     1      11.502  17.246   8.833  1.00  0.00    -0.120 N 
ATOM      6  H5  UNL     1      11.453  16.348   8.353  1.00  0.00     0.206 HD
HETATM    7  N6  UNL     1      12.664  17.586   9.420  1.00  0.00    -0.167 N 
HETATM    8  C6  UNL     1      13.743  16.679   9.364  1.00  0.00     0.285 C 
HETATM    9  O3  UNL     1      13.528  15.553   8.771  1.00  0.00    -0.268 OA
HETATM   10  C9  UNL     1      12.678  18.777  10.037  1.00  0.00     0.314 A 
HETATM   11  O5  UNL     1      13.685  19.206  10.617  1.00  0.00    -0.262 OA
ENDROOT
BRANCH   1  12
HETATM   12  N2  UNL     1      11.583  20.749  10.660  1.00  0.00    -0.304 N 
HETATM   13  C3  UNL     1      10.699  21.156  11.665  1.00  0.00     0.280 C 
HETATM   14  O2  UNL     1       9.700  21.852  11.370  1.00  0.00    -0.268 OA
ATOM     15  H2  UNL     1      12.302  21.413  10.373  1.00  0.00     0.170 HD
BRANCH  13  16
HETATM   16  C2  UNL     1      10.925  20.777  13.074  1.00  0.00     0.411 C 
BRANCH  16  17
HETATM   17  O1  UNL     1      12.259  20.639  13.362  1.00  0.00    -0.357 OA
HETATM   18  C1  UNL     1      12.559  19.435  13.993  1.00  0.00     0.204 C 
ENDBRANCH  16  17
BRANCH  16  19
HETATM   19  N1  UNL     1      10.161  19.573  13.332  1.00  0.00    -0.044 N 
ATOM     20  H13 UNL     1      10.772  18.810  13.621  1.00  0.00     0.278 HD
ATOM     21  H12 UNL     1       9.602  19.672  14.180  1.00  0.00     0.278 HD
ATOM     22  H11 UNL     1       9.578  19.293  12.543  1.00  0.00     0.278 HD
ENDBRANCH  16  19
ENDBRANCH  13  16
ENDBRANCH   1  12
BRANCH   4  23
HETATM   23  N4  UNL     1       9.305  17.669   8.274  1.00  0.00    -0.233 N 
ATOM     24  H42 UNL     1       8.454  18.229   8.326  1.00  0.00     0.174 HD
ATOM     25  H41 UNL     1       9.292  16.793   7.752  1.00  0.00     0.174 HD
ENDBRANCH   4  23
BRANCH   8  26
HETATM   26  C7  UNL     1      15.101  16.823   9.894  1.00  0.00     0.365 C 
BRANCH  26  27
HETATM   27  N7  UNL     1      15.129  16.437  11.330  1.00  0.00    -0.058 N 
ATOM     28  H73 UNL     1      14.328  16.807  11.842  1.00  0.00     0.275 HD
ATOM     29  H72 UNL     1      14.943  15.443  11.462  1.00  0.00     0.275 HD
ATOM     30  H71 UNL     1      16.014  16.720  11.749  1.00  0.00     0.275 HD
ENDBRANCH  26  27
BRANCH  26  31
HETATM   31  C8  UNL     1      16.029  15.822   9.259  1.00  0.00     0.271 C 
HETATM   32  N8  UNL     1      16.403  14.658   9.986  1.00  0.00    -0.060 NA
HETATM   33  O4  UNL     1      16.485  15.984   8.105  1.00  0.00    -0.274 OA
ENDBRANCH  26  31
ENDBRANCH   8  26
TORSDOF 8
ENDMDL
MODEL 2
REMARK VINA RESULT: -6.955616728      2.505      3.842
REMARK  8 active torsions:
REMARK  status: ('A' for Active; 'I' for Inactive)
REMARK    1  A    between atoms: O1_2  and  C2_3 
REMARK    2  A    between atoms: C2_3  and  N1_4 
REMARK    3  A    between atoms: C2_3  and  C3_8 
REMARK       I    between atoms: C3_8  and  N2_10 
REMARK    4  A    between atoms: N2_10  and  C4_12 
REMARK    5  A    between atoms: C5_15  and  N4_16 
REMARK       I    between atoms: N6_21  and  C6_22 
REMARK    6  A    between atoms: C6_22  and  C7_24 
REMARK    7  A    between atoms: C7_24  and  N7_25 
REMARK    8  A    between atoms: C7_24  and  C8_29 
ROOT
HETATM    1  C4  UNL     1      11.158  19.032   9.867  1.00  0.00     0.194 A 
HETATM    2  N3  UNL     1      12.381  19.156  10.388  1.00  0.00    -0.170 N 
ATOM      3  H3  UNL     1      12.571  19.907  11.053  1.00  0.00     0.186 HD
HETATM    4  C5  UNL     1      13.364  18.304  10.049  1.00  0.00     0.692 A 
HETATM    5  N5  UNL     1      13.106  17.329   9.185  1.00  0.00    -0.120 N 
ATOM      6  H5  UNL     1      13.865  16.692   8.942  1.00  0.00     0.206 HD
HETATM    7  N6  UNL     1      11.906  17.129   8.610  1.00  0.00    -0.167 N 
HETATM    8  C6  UNL     1      11.763  16.072   7.687  1.00  0.00     0.285 C 
HETATM    9  O3  UNL     1      12.819  15.375   7.429  1.00  0.00    -0.268 OA
HETATM   10  C9  UNL     1      10.941  17.991   8.963  1.00  0.00     0.314 A 
HETATM   11  O5  UNL     1       9.792  17.919   8.504  1.00  0.00    -0.262 OA
ENDROOT
BRANCH   1  12
HETATM   12  N2  UNL     1      10.237  19.850  10.200  1.00  0.00    -0.304 N 
HETATM   13  C3  UNL     1       9.964  20.277  11.503  1.00  0.00     0.280 C 
HETATM   14  O2  UNL     1       9.059  19.718  12.165  1.00  0.00    -0.268 OA
ATOM     15  H2  UNL     1       9.651  20.222   9.453  1.00  0.00     0.170 HD
BRANCH  13  16
HETATM   16  C2  UNL     1      10.729  21.381  12.116  1.00  0.00     0.411 C 
BRANCH  16  17
HETATM   17  O1  UNL     1      10.668  21.350  13.487  1.00  0.00    -0.357 OA
HETATM   18  C1  UNL     1      11.658  20.556  14.059  1.00  0.00     0.204 C 
ENDBRANCH  16  17
BRANCH  16  19
HETATM   19  N1  UNL     1      10.237  22.622  11.553  1.00  0.00    -0.044 N 
ATOM     20  H13 UNL     1      10.505  23.416  12.135  1.00  0.00     0.278 HD
ATOM     21  H12 UNL     1      10.744  22.860  10.701  1.00  0.00     0.278 HD
ATOM     22  H11 UNL     1       9.231  22.614  11.388  1.00  0.00     0.278 HD
ENDBRANCH  16  19
ENDBRANCH  13  16
ENDBRANCH   1  12
BRANCH   4  23
HETATM   23  N4  UNL     1      14.521  18.484  10.592  1.00  0.00    -0.233 N 
ATOM     24  H42 UNL     1      15.397  18.442  10.071  1.00  0.00     0.174 HD
ATOM     25  H41 UNL     1      14.547  18.678  11.592  1.00  0.00     0.174 HD
ENDBRANCH   4  23
BRANCH   8  26
HETATM   26  C7  UNL     1      10.570  15.637   6.957  1.00  0.00     0.365 C 
BRANCH  26  27
HETATM   27  N7  UNL     1      10.445  16.402   5.688  1.00  0.00    -0.058 N 
ATOM     28  H73 UNL     1      10.716  15.846   4.877  1.00  0.00     0.275 HD
ATOM     29  H72 UNL     1       9.471  16.569   5.436  1.00  0.00     0.275 HD
ATOM     30  H71 UNL     1      10.978  17.270   5.751  1.00  0.00     0.275 HD
ENDBRANCH  26  27
BRANCH  26  31
HETATM   31  C8  UNL     1      10.727  14.217   6.478  1.00  0.00     0.271 C 
HETATM   32  N8  UNL     1      10.608  13.149   7.410  1.00  0.00    -0.060 NA
HETATM   33  O4  UNL     1      10.962  13.947   5.279  1.00  0.00    -0.274 OA
ENDBRANCH  26  31
ENDBRANCH   8  26
TORSDOF 8
ENDMDL
MODEL 3
REMARK VINA RESULT: -6.663053945      3.387      6.550
REMARK  8 active torsions:
REMARK  status: ('A' for Active; 'I' for Inactive)
REMARK    1  A    between atoms: O1_2  and  C2_3 
REMARK    2  A    between atoms: C2_3  and  N1_4 
REMARK    3  A    between atoms: C2_3  and  C3_8 
REMARK       I    between atoms: C3_8  and  N2_10 
REMARK    4  A    between atoms: N2_10  and  C4_12 
REMARK    5  A    between atoms: C5_15  and  N4_16 
REMARK       I    between atoms: N6_21  and  C6_22 
REMARK    6  A    between atoms: C6_22  and  C7_24 
REMARK    7  A    between atoms: C7_24  and  N7_25 
REMARK    8  A    between atoms: C7_24  and  C8_29 
ROOT
HETATM    1  C4  UNL     1       9.290  16.157   8.504  1.00  0.00     0.194 A 
HETATM    2  N3  UNL     1       8.840  15.210   9.330  1.00  0.00    -0.170 N 
ATOM      3  H3  UNL     1       8.479  14.337   8.945  1.00  0.00     0.186 HD
HETATM    4  C5  UNL     1       8.856  15.393  10.662  1.00  0.00     0.692 A 
HETATM    5  N5  UNL     1       9.330  16.533  11.154  1.00  0.00    -0.120 N 
ATOM      6  H5  UNL     1       9.336  16.651  12.166  1.00  0.00     0.206 HD
HETATM    7  N6  UNL     1       9.803  17.541  10.397  1.00  0.00    -0.167 N 
HETATM    8  C6  UNL     1      10.256  18.713  11.036  1.00  0.00     0.285 C 
HETATM    9  O3  UNL     1      10.157  18.753  12.323  1.00  0.00    -0.268 OA
HETATM   10  C9  UNL     1       9.776  17.336   9.071  1.00  0.00     0.314 A 
HETATM   11  O5  UNL     1      10.179  18.186   8.265  1.00  0.00    -0.262 OA
ENDROOT
BRANCH   1  12
HETATM   12  N2  UNL     1       9.267  15.966   7.243  1.00  0.00    -0.304 N 
HETATM   13  C3  UNL     1      10.257  15.314   6.502  1.00  0.00     0.280 C 
HETATM   14  O2  UNL     1      11.136  15.984   5.912  1.00  0.00    -0.268 OA
ATOM     15  H2  UNL     1       8.458  16.320   6.732  1.00  0.00     0.170 HD
BRANCH  13  16
HETATM   16  C2  UNL     1      10.287  13.841   6.405  1.00  0.00     0.411 C 
BRANCH  16  17
HETATM   17  O1  UNL     1      10.824  13.262   7.528  1.00  0.00    -0.357 OA
HETATM   18  C1  UNL     1      10.147  12.113   7.925  1.00  0.00     0.204 C 
ENDBRANCH  16  17
BRANCH  16  19
HETATM   19  N1  UNL     1      10.998  13.495   5.192  1.00  0.00    -0.044 N 
ATOM     20  H13 UNL     1      11.662  14.227   4.939  1.00  0.00     0.278 HD
ATOM     21  H12 UNL     1      11.649  12.728   5.358  1.00  0.00     0.278 HD
ATOM     22  H11 UNL     1      10.377  13.282   4.411  1.00  0.00     0.278 HD
ENDBRANCH  16  19
ENDBRANCH  13  16
ENDBRANCH   1  12
BRANCH   4  23
HETATM   23  N4  UNL     1       8.405  14.435  11.400  1.00  0.00    -0.233 N 
ATOM     24  H42 UNL     1       8.462  14.438  12.419  1.00  0.00     0.174 HD
ATOM     25  H41 UNL     1       7.972  13.642  10.928  1.00  0.00     0.174 HD
ENDBRANCH   4  23
BRANCH   8  26
HETATM   26  C7  UNL     1      10.834  19.923  10.447  1.00  0.00     0.365 C 
BRANCH  26  27
HETATM   27  N7  UNL     1       9.908  21.072  10.639  1.00  0.00    -0.058 N 
ATOM     28  H73 UNL     1       9.189  21.109   9.916  1.00  0.00     0.275 HD
ATOM     29  H72 UNL     1       9.301  20.942  11.447  1.00  0.00     0.275 HD
ATOM     30  H71 UNL     1      10.439  21.941  10.694  1.00  0.00     0.275 HD
ENDBRANCH  26  27
BRANCH  26  31
HETATM   31  C8  UNL     1      12.062  20.352  11.206  1.00  0.00     0.271 C 
HETATM   32  N8  UNL     1      13.334  19.848  10.817  1.00  0.00    -0.060 NA
HETATM   33  O4  UNL     1      11.997  21.141  12.175  1.00  0.00    -0.274 OA
ENDBRANCH  26  31
ENDBRANCH   8  26
TORSDOF 8
ENDMDL
MODEL 4
REMARK VINA RESULT: -6.618704978      2.855      4.639
REMARK  8 active torsions:
REMARK  status: ('A' for Active; 'I' for Inactive)
REMARK    1  A    between atoms: O1_2  and  C2_3 
REMARK    2  A    between atoms: C2_3  and  N1_4 
REMARK    3  A    between atoms: C2_3  and  C3_8 
REMARK       I    between atoms: C3_8  and  N2_10 
REMARK    4  A    between atoms: N2_10  and  C4_12 
REMARK    5  A    between atoms: C5_15  and  N4_16 
REMARK       I    between atoms: N6_21  and  C6_22 
REMARK    6  A    between atoms: C6_22  and  C7_24 
REMARK    7  A    between atoms: C7_24  and  N7_25 
REMARK    8  A    between atoms: C7_24  and  C8_29 
ROOT
HETATM    1  C4  UNL     1      12.693  18.236   9.876  1.00  0.00     0.194 A 
HETATM    2  N3  UNL     1      11.769  18.997  10.467  1.00  0.00    -0.170 N 
ATOM      3  H3  UNL     1      12.058  19.711  11.136  1.00  0.00     0.186 HD
HETATM    4  C5  UNL     1      10.464  18.835  10.190  1.00  0.00     0.692 A 
HETATM    5  N5  UNL     1      10.098  17.904   9.316  1.00  0.00    -0.120 N 
ATOM      6  H5  UNL     1       9.103  17.798   9.118  1.00  0.00     0.206 HD
HETATM    7  N6  UNL     1      10.959  17.092   8.674  1.00  0.00    -0.167 N 
HETATM    8  C6  UNL     1      10.446  16.124   7.787  1.00  0.00     0.285 C 
HETATM    9  O3  UNL     1       9.162  16.062   7.670  1.00  0.00    -0.268 OA
HETATM   10  C9  UNL     1      12.256  17.272   8.967  1.00  0.00     0.314 A 
HETATM   11  O5  UNL     1      13.149  16.588   8.448  1.00  0.00    -0.262 OA
ENDROOT
BRANCH   1  12
HETATM   12  N2  UNL     1      13.928  18.404  10.151  1.00  0.00    -0.304 N 
HETATM   13  C3  UNL     1      14.511  18.222  11.409  1.00  0.00     0.280 C 
HETATM   14  O2  UNL     1      14.693  19.209  12.159  1.00  0.00    -0.268 OA
ATOM     15  H2  UNL     1      14.541  18.695   9.390  1.00  0.00     0.170 HD
BRANCH  13  16
HETATM   16  C2  UNL     1      14.916  16.880  11.872  1.00  0.00     0.411 C 
BRANCH  16  17
HETATM   17  O1  UNL     1      15.844  16.942  12.881  1.00  0.00    -0.357 OA
HETATM   18  C1  UNL     1      15.509  16.155  13.979  1.00  0.00     0.204 C 
ENDBRANCH  16  17
BRANCH  16  19
HETATM   19  N1  UNL     1      15.380  16.139  10.716  1.00  0.00    -0.044 N 
ATOM     20  H13 UNL     1      14.616  15.967  10.064  1.00  0.00     0.278 HD
ATOM     21  H12 UNL     1      15.976  16.721  10.127  1.00  0.00     0.278 HD
ATOM     22  H11 UNL     1      15.852  15.269  10.962  1.00  0.00     0.278 HD
ENDBRANCH  16  19
ENDBRANCH  13  16
ENDBRANCH   1  12
BRANCH   4  23
HETATM   23  N4  UNL     1       9.626  19.606  10.798  1.00  0.00    -0.233 N 
ATOM     24  H42 UNL     1       9.902  20.284  11.509  1.00  0.00     0.174 HD
ATOM     25  H41 UNL     1       8.642  19.523  10.546  1.00  0.00     0.174 HD
ENDBRANCH   4  23
BRANCH   8  26
HETATM   26  C7  UNL     1      11.167  15.154   6.959  1.00  0.00     0.365 C 
BRANCH  26  27
HETATM   27  N7  UNL     1      10.415  13.871   6.912  1.00  0.00    -0.058 N 
ATOM     28  H73 UNL     1       9.532  13.962   6.410  1.00  0.00     0.275 HD
ATOM     29  H72 UNL     1      10.864  13.188   6.303  1.00  0.00     0.275 HD
ATOM     30  H71 UNL     1      10.282  13.512   7.857  1.00  0.00     0.275 HD
ENDBRANCH  26  27
BRANCH  26  31
HETATM   31  C8  UNL     1      11.178  15.589   5.517  1.00  0.00     0.271 C 
HETATM   32  N8  UNL     1      11.573  14.662   4.512  1.00  0.00    -0.060 NA
HETATM   33  O4  UNL     1      10.849  16.747   5.174  1.00  0.00    -0.274 OA
ENDBRANCH  26  31
ENDBRANCH   8  26
TORSDOF 8
ENDMDL
MODEL 5
REMARK VINA RESULT: -6.599801498      2.766      4.508
REMARK  8 active torsions:
REMARK  status: ('A' for Active; 'I' for Inactive)
REMARK    1  A    between atoms: O1_2  and  C2_3 
REMARK    2  A    between atoms: C2_3  and  N1_4 
REMARK    3  A    between atoms: C2_3  and  C3_8 
REMARK       I    between atoms: C3_8  and  N2_10 
REMARK    4  A    between atoms: N2_10  and  C4_12 
REMARK    5  A    between atoms: C5_15  and  N4_16 
REMARK       I    between atoms: N6_21  and  C6_22 
REMARK    6  A    between atoms: C6_22  and  C7_24 
REMARK    7  A    between atoms: C7_24  and  N7_25 
REMARK    8  A    between atoms: C7_24  and  C8_29 
ROOT
HETATM    1  C4  UNL     1      11.167  18.440   9.532  1.00  0.00     0.194 A 
HETATM    2  N3  UNL     1      12.491  18.383   9.692  1.00  0.00    -0.170 N 
ATOM      3  H3  UNL     1      12.981  19.174  10.112  1.00  0.00     0.186 HD
HETATM    4  C5  UNL     1      13.186  17.298   9.309  1.00  0.00     0.692 A 
HETATM    5  N5  UNL     1      12.538  16.273   8.765  1.00  0.00    -0.120 N 
ATOM      6  H5  UNL     1      13.082  15.459   8.482  1.00  0.00     0.206 HD
HETATM    7  N6  UNL     1      11.207  16.244   8.564  1.00  0.00    -0.167 N 
HETATM    8  C6  UNL     1      10.638  15.107   7.953  1.00  0.00     0.285 C 
HETATM    9  O3  UNL     1      11.450  14.169   7.596  1.00  0.00    -0.268 OA
HETATM   10  C9  UNL     1      10.535  17.338   8.954  1.00  0.00     0.314 A 
HETATM   11  O5  UNL     1       9.308  17.439   8.822  1.00  0.00    -0.262 OA
ENDROOT
BRANCH   1  12
HETATM   12  N2  UNL     1      10.524  19.478   9.901  1.00  0.00    -0.304 N 
HETATM   13  C3  UNL     1      10.284  19.854  11.226  1.00  0.00     0.280 C 
HETATM   14  O2  UNL     1       9.193  19.560  11.769  1.00  0.00    -0.268 OA
ATOM     15  H2  UNL     1      10.154  20.084   9.169  1.00  0.00     0.170 HD
BRANCH  13  16
HETATM   16  C2  UNL     1      11.299  20.595  12.002  1.00  0.00     0.411 C 
BRANCH  16  17
HETATM   17  O1  UNL     1      10.743  21.287  13.048  1.00  0.00    -0.357 OA
HETATM   18  C1  UNL     1      11.268  20.919  14.284  1.00  0.00     0.204 C 
ENDBRANCH  16  17
BRANCH  16  19
HETATM   19  N1  UNL     1      12.022  21.445  11.078  1.00  0.00    -0.044 N 
ATOM     20  H13 UNL     1      13.019  21.448  11.293  1.00  0.00     0.278 HD
ATOM     21  H12 UNL     1      12.052  21.028  10.148  1.00  0.00     0.278 HD
ATOM     22  H11 UNL     1      11.655  22.395  11.039  1.00  0.00     0.278 HD
ENDBRANCH  16  19
ENDBRANCH  13  16
ENDBRANCH   1  12
BRANCH   4  23
HETATM   23  N4  UNL     1      14.462  17.312   9.494  1.00  0.00    -0.233 N 
ATOM     24  H42 UNL     1      14.929  17.957  10.132  1.00  0.00     0.174 HD
ATOM     25  H41 UNL     1      15.022  16.640   8.970  1.00  0.00     0.174 HD
ENDBRANCH   4  23
BRANCH   8  26
HETATM   26  C7  UNL     1       9.233  14.824   7.654  1.00  0.00     0.365 C 
BRANCH  26  27
HETATM   27  N7  UNL     1       8.907  15.276   6.275  1.00  0.00    -0.058 N 
ATOM     28  H73 UNL     1       8.606  16.250   6.252  1.00  0.00     0.275 HD
ATOM     29  H72 UNL     1       9.741  15.363   5.695  1.00  0.00     0.275 HD
ATOM     30  H71 UNL     1       8.215  14.652   5.859  1.00  0.00     0.275 HD
ENDBRANCH  26  27
BRANCH  26  31
HETATM   31  C8  UNL     1       8.991  13.339   7.587  1.00  0.00     0.271 C 
HETATM   32  N8  UNL     1       8.801  12.720   6.320  1.00  0.00    -0.060 NA
HETATM   33  O4  UNL     1       8.951  12.629   8.617  1.00  0.00    -0.274 OA
ENDBRANCH  26  31
ENDBRANCH   8  26
TORSDOF 8
ENDMDL
