MODEL 1
REMARK VINA RESULT: -8.124598660      0.000      0.000
REMARK  8 active torsions:
REMARK  status: ('A' for Active; 'I' for Inactive)
REMARK    1  A    between atoms: C4_6  and  C5_7 
REMARK    2  A    between atoms: C5_7  and  O2_8 
REMARK    3  A    between atoms: C5_7  and  O3_10 
REMARK    4  A    between atoms: N2_12  and  C6_13 
REMARK    5  A    between atoms: C6_13  and  N3_14 
REMARK    6  A    between atoms: N3_14  and  O4_15 
REMARK    7  A    between atoms: N3_14  and  C7_17 
REMARK    8  A    between atoms: C9_19  and  N4_20 
REMARK       I    between atoms: N6_26  and  C11_28 
ROOT
HETATM    1  N3  UNL     1     -12.797 -19.346  11.133  1.00  0.00    -0.196 N 
ENDROOT
BRANCH   1   2
HETATM    2  C6  UNL     1     -12.074 -19.211  12.346  1.00  0.00     0.228 C 
BRANCH   2   3
HETATM    3  N2  UNL     1     -10.860 -18.444  12.302  1.00  0.00    -0.256 N 
HETATM    4  C4  UNL     1      -9.757 -18.872  11.734  1.00  0.00     0.082 A 
HETATM    5  C3  UNL     1      -8.616 -18.040  11.741  1.00  0.00     0.105 A 
HETATM    6  C2  UNL     1      -8.682 -16.809  12.338  1.00  0.00     0.253 A 
HETATM    7  N1  UNL     1      -9.810 -16.388  12.910  1.00  0.00    -0.270 N 
HETATM    8  O1  UNL     1      -7.683 -16.032  12.366  1.00  0.00    -0.268 OA
HETATM    9  C1  UNL     1      -9.912 -15.075  13.559  1.00  0.00     0.164 C 
HETATM   10  C12 UNL     1     -10.869 -17.192  12.888  1.00  0.00     0.336 A 
HETATM   11  O6  UNL     1     -11.946 -16.793  13.433  1.00  0.00    -0.246 OA
BRANCH   4  12
HETATM   12  C5  UNL     1      -9.595 -20.183  11.126  1.00  0.00     0.306 C 
BRANCH  12  13
HETATM   13  O2  UNL     1      -8.399 -20.831  11.395  1.00  0.00    -0.366 OA
ATOM     14  H2  UNL     1      -8.437 -21.780  11.414  1.00  0.00     0.213 HD
ENDBRANCH  12  13
BRANCH  12  15
HETATM   15  O3  UNL     1      -9.863 -20.202   9.755  1.00  0.00    -0.366 OA
ATOM     16  H3  UNL     1      -9.551 -20.984   9.316  1.00  0.00     0.213 HD
ENDBRANCH  12  15
ENDBRANCH   4  12
ENDBRANCH   2   3
ENDBRANCH   1   2
BRANCH   1  17
HETATM   17  O4  UNL     1     -13.272 -20.567  10.800  1.00  0.00    -0.280 OA
ATOM     18  H4  UNL     1     -13.345 -20.789   9.879  1.00  0.00     0.245 HD
ENDBRANCH   1  17
BRANCH   1  19
HETATM   19  C7  UNL     1     -12.987 -18.292  10.217  1.00  0.00     0.182 A 
HETATM   20  C8  UNL     1     -14.192 -17.660   9.989  1.00  0.00     0.107 A 
HETATM   21  C9  UNL     1     -14.311 -16.637   9.079  1.00  0.00     0.105 A 
HETATM   22  N5  UNL     1     -13.223 -16.259   8.409  1.00  0.00    -0.308 N 
HETATM   23  C10 UNL     1     -12.040 -16.880   8.632  1.00  0.00     0.234 A 
ATOM     24  H5  UNL     1     -13.281 -15.502   7.727  1.00  0.00     0.171 HD
HETATM   25  N6  UNL     1     -11.036 -16.452   7.941  1.00  0.00    -0.296 N 
HETATM   26  O5  UNL     1     -11.970 -17.828   9.488  1.00  0.00    -0.259 OA
HETATM   27  C11 UNL     1      -9.751 -17.023   8.088  1.00  0.00     0.189 C 
ATOM     28  H6  UNL     1     -11.173 -15.688   7.278  1.00  0.00     0.172 HD
HETATM   29  N7  UNL     1      -9.554 -18.203   7.615  1.00  0.00    -0.373 N 
HETATM   30  N8  UNL     1      -8.712 -16.307   8.741  1.00  0.00    -0.064 NA
ATOM     31  H72 UNL     1     -10.300 -18.717   7.147  1.00  0.00     0.158 HD
ATOM     32  H71 UNL     1      -8.627 -18.616   7.722  1.00  0.00     0.158 HD
BRANCH  21  33
HETATM   33  N4  UNL     1     -15.468 -16.098   8.924  1.00  0.00    -0.385 N 
ATOM     34  H42 UNL     1     -16.339 -16.528   9.236  1.00  0.00     0.157 HD
ATOM     35  H41 UNL     1     -15.516 -15.189   8.463  1.00  0.00     0.157 HD
ENDBRANCH  21  33
ENDBRANCH   1  19
TORSDOF 8
ENDMDL
MODEL 2
REMARK VINA RESULT: -7.812678733      2.018      2.896
REMARK  8 active torsions:
REMARK  status: ('A' for Active; 'I' for Inactive)
REMARK    1  A    between atoms: C4_6  and  C5_7 
REMARK    2  A    between atoms: C5_7  and  O2_8 
REMARK    3  A    between atoms: C5_7  and  O3_10 
REMARK    4  A    between atoms: N2_12  and  C6_13 
REMARK    5  A    between atoms: C6_13  and  N3_14 
REMARK    6  A    between atoms: N3_14  and  O4_15 
REMARK    7  A    between atoms: N3_14  and  C7_17 
REMARK    8  A    between atoms: C9_19  and  N4_20 
REMARK       I    between atoms: N6_26  and  C11_28 
ROOT
HETATM    1  N3  UNL     1     -10.387 -18.499   9.730  1.00  0.00    -0.196 N 
ENDROOT
BRANCH   1   2
HETATM    2  C6  UNL     1      -9.815 -18.353  11.020  1.00  0.00     0.228 C 
BRANCH   2   3
HETATM    3  N2  UNL     1     -10.424 -19.089  12.094  1.00  0.00    -0.256 N 
HETATM    4  C4  UNL     1     -10.295 -20.386  12.242  1.00  0.00     0.082 A 
HETATM    5  C3  UNL     1     -10.932 -21.017  13.334  1.00  0.00     0.105 A 
HETATM    6  C2  UNL     1     -11.669 -20.265  14.212  1.00  0.00     0.253 A 
HETATM    7  N1  UNL     1     -11.789 -18.948  14.047  1.00  0.00    -0.270 N 
HETATM    8  O1  UNL     1     -12.255 -20.790  15.204  1.00  0.00    -0.268 OA
HETATM    9  C1  UNL     1     -12.572 -18.116  14.968  1.00  0.00     0.164 C 
HETATM   10  C12 UNL     1     -11.178 -18.381  13.011  1.00  0.00     0.336 A 
HETATM   11  O6  UNL     1     -11.292 -17.124  12.851  1.00  0.00    -0.246 OA
BRANCH   4  12
HETATM   12  C5  UNL     1      -9.574 -21.256  11.328  1.00  0.00     0.306 C 
BRANCH  12  13
HETATM   13  O2  UNL     1      -9.795 -22.616  11.485  1.00  0.00    -0.366 OA
ATOM     14  H2  UNL     1     -10.534 -22.975  11.009  1.00  0.00     0.213 HD
ENDBRANCH  12  13
BRANCH  12  15
HETATM   15  O3  UNL     1      -8.204 -20.988  11.261  1.00  0.00    -0.366 OA
ATOM     16  H3  UNL     1      -7.659 -21.762  11.340  1.00  0.00     0.213 HD
ENDBRANCH  12  15
ENDBRANCH   4  12
ENDBRANCH   2   3
ENDBRANCH   1   2
BRANCH   1  17
HETATM   17  O4  UNL     1      -9.951 -19.508   8.943  1.00  0.00    -0.280 OA
ATOM     18  H4  UNL     1     -10.577 -19.942   8.376  1.00  0.00     0.245 HD
ENDBRANCH   1  17
BRANCH   1  19
HETATM   19  C7  UNL     1     -11.337 -17.606   9.193  1.00  0.00     0.182 A 
HETATM   20  C8  UNL     1     -12.608 -17.421   9.695  1.00  0.00     0.107 A 
HETATM   21  C9  UNL     1     -13.488 -16.533   9.123  1.00  0.00     0.105 A 
HETATM   22  N5  UNL     1     -13.085 -15.842   8.057  1.00  0.00    -0.308 N 
HETATM   23  C10 UNL     1     -11.836 -16.026   7.564  1.00  0.00     0.234 A 
ATOM     24  H5  UNL     1     -13.717 -15.176   7.612  1.00  0.00     0.171 HD
HETATM   25  N6  UNL     1     -11.526 -15.316   6.530  1.00  0.00    -0.296 N 
HETATM   26  O5  UNL     1     -11.047 -16.861   8.125  1.00  0.00    -0.259 OA
HETATM   27  C11 UNL     1     -10.251 -15.422   5.928  1.00  0.00     0.189 C 
ATOM     28  H6  UNL     1     -12.213 -14.669   6.141  1.00  0.00     0.172 HD
HETATM   29  N7  UNL     1      -9.983 -16.488   5.259  1.00  0.00    -0.373 N 
HETATM   30  N8  UNL     1      -9.300 -14.375   6.061  1.00  0.00    -0.064 NA
ATOM     31  H72 UNL     1     -10.666 -17.239   5.164  1.00  0.00     0.158 HD
ATOM     32  H71 UNL     1      -9.063 -16.564   4.825  1.00  0.00     0.158 HD
BRANCH  21  33
HETATM   33  N4  UNL     1     -14.655 -16.416   9.650  1.00  0.00    -0.385 N 
ATOM     34  H42 UNL     1     -14.939 -15.625  10.228  1.00  0.00     0.157 HD
ATOM     35  H41 UNL     1     -15.335 -17.158   9.479  1.00  0.00     0.157 HD
ENDBRANCH  21  33
ENDBRANCH   1  19
TORSDOF 8
ENDMDL
MODEL 3
REMARK VINA RESULT: -7.700029760      2.674      4.559
REMARK  8 active torsions:
REMARK  status: ('A' for Active; 'I' for Inactive)
REMARK    1  A    between atoms: C4_6  and  C5_7 
REMARK    2  A    between atoms: C5_7  and  O2_8 
REMARK    3  A    between atoms: C5_7  and  O3_10 
REMARK    4  A    between atoms: N2_12  and  C6_13 
REMARK    5  A    between atoms: C6_13  and  N3_14 
REMARK    6  A    between atoms: N3_14  and  O4_15 
REMARK    7  A    between atoms: N3_14  and  C7_17 
REMARK    8  A    between atoms: C9_19  and  N4_20 
REMARK       I    between atoms: N6_26  and  C11_28 
ROOT
HETATM    1  N3  UNL     1      -9.019 -17.653  10.039  1.00  0.00    -0.196 N 
ENDROOT
BRANCH   1   2
HETATM    2  C6  UNL     1     -10.077 -18.573   9.821  1.00  0.00     0.228 C 
BRANCH   2   3
HETATM    3  N2  UNL     1     -10.785 -19.041  10.981  1.00  0.00    -0.256 N 
HETATM    4  C4  UNL     1     -10.525 -20.184  11.571  1.00  0.00     0.082 A 
HETATM    5  C3  UNL     1     -11.277 -20.554  12.708  1.00  0.00     0.105 A 
HETATM    6  C2  UNL     1     -12.259 -19.717  13.169  1.00  0.00     0.253 A 
HETATM    7  N1  UNL     1     -12.511 -18.560  12.558  1.00  0.00    -0.270 N 
HETATM    8  O1  UNL     1     -12.956 -20.009  14.185  1.00  0.00    -0.268 OA
HETATM    9  C1  UNL     1     -13.557 -17.643  13.026  1.00  0.00     0.164 C 
HETATM   10  C12 UNL     1     -11.787 -18.236  11.490  1.00  0.00     0.336 A 
HETATM   11  O6  UNL     1     -12.025 -17.133  10.905  1.00  0.00    -0.246 OA
BRANCH   4  12
HETATM   12  C5  UNL     1      -9.535 -21.145  11.113  1.00  0.00     0.306 C 
BRANCH  12  13
HETATM   13  O2  UNL     1      -9.791 -22.472  11.425  1.00  0.00    -0.366 OA
ATOM     14  H2  UNL     1      -9.177 -22.884  12.022  1.00  0.00     0.213 HD
ENDBRANCH  12  13
BRANCH  12  15
HETATM   15  O3  UNL     1      -8.223 -20.807  11.456  1.00  0.00    -0.366 OA
ATOM     16  H3  UNL     1      -7.709 -21.542  11.770  1.00  0.00     0.213 HD
ENDBRANCH  12  15
ENDBRANCH   4  12
ENDBRANCH   2   3
ENDBRANCH   1   2
BRANCH   1  17
HETATM   17  O4  UNL     1      -8.136 -17.910  11.029  1.00  0.00    -0.280 OA
ATOM     18  H4  UNL     1      -7.703 -17.177  11.450  1.00  0.00     0.245 HD
ENDBRANCH   1  17
BRANCH   1  19
HETATM   19  C7  UNL     1      -8.878 -16.445   9.326  1.00  0.00     0.182 A 
HETATM   20  C8  UNL     1      -8.894 -16.340   7.951  1.00  0.00     0.107 A 
HETATM   21  C9  UNL     1      -8.750 -15.130   7.316  1.00  0.00     0.105 A 
HETATM   22  N5  UNL     1      -8.592 -14.039   8.064  1.00  0.00    -0.308 N 
HETATM   23  C10 UNL     1      -8.575 -14.142   9.415  1.00  0.00     0.234 A 
ATOM     24  H5  UNL     1      -8.483 -13.127   7.621  1.00  0.00     0.171 HD
HETATM   25  N6  UNL     1      -8.417 -13.037  10.065  1.00  0.00    -0.296 N 
HETATM   26  O5  UNL     1      -8.713 -15.287   9.968  1.00  0.00    -0.259 OA
HETATM   27  C11 UNL     1      -8.384 -13.019  11.479  1.00  0.00     0.189 C 
ATOM     28  H6  UNL     1      -8.316 -12.162   9.550  1.00  0.00     0.172 HD
HETATM   29  N7  UNL     1      -7.343 -13.496  12.066  1.00  0.00    -0.373 N 
HETATM   30  N8  UNL     1      -9.472 -12.487  12.222  1.00  0.00    -0.064 NA
ATOM     31  H72 UNL     1      -6.562 -13.878  11.533  1.00  0.00     0.158 HD
ATOM     32  H71 UNL     1      -7.319 -13.484  13.086  1.00  0.00     0.158 HD
BRANCH  21  33
HETATM   33  N4  UNL     1      -8.777 -15.116   6.030  1.00  0.00    -0.385 N 
ATOM     34  H42 UNL     1      -8.178 -15.697   5.445  1.00  0.00     0.157 HD
ATOM     35  H41 UNL     1      -9.437 -14.487   5.572  1.00  0.00     0.157 HD
ENDBRANCH  21  33
ENDBRANCH   1  19
TORSDOF 8
ENDMDL
MODEL 4
REMARK VINA RESULT: -7.596916856      3.302      6.228
REMARK  8 active torsions:
REMARK  status: ('A' for Active; 'I' for Inactive)
REMARK    1  A    between atoms: C4_6  and  C5_7 
REMARK    2  A    between atoms: C5_7  and  O2_8 
REMARK    3  A    between atoms: C5_7  and  O3_10 
REMARK    4  A    between atoms: N2_12  and  C6_13 
REMARK    5  A    between atoms: C6_13  and  N3_14 
REMARK    6  A    between atoms: N3_14  and  O4_15 
REMARK    7  A    between atoms: N3_14  and  C7_17 
REMARK    8  A    between atoms: C9_19  and  N4_20 
REMARK       I    between atoms: N6_26  and  C11_28 
ROOT
HETATM    1  N3  UNL     1     -13.299 -16.926   9.005  1.00  0.00    -0.196 N 
ENDROOT
BRANCH   1   2
HETATM    2  C6  UNL     1     -13.655 -15.736   8.321  1.00  0.00     0.228 C 
BRANCH   2   3
HETATM    3  N2  UNL     1     -14.784 -15.003   8.827  1.00  0.00    -0.256 N 
HETATM    4  C4  UNL     1     -15.970 -15.031   8.267  1.00  0.00     0.082 A 
HETATM    5  C3  UNL     1     -17.017 -14.277   8.843  1.00  0.00     0.105 A 
HETATM    6  C2  UNL     1     -16.774 -13.535   9.969  1.00  0.00     0.253 A 
HETATM    7  N1  UNL     1     -15.563 -13.518  10.526  1.00  0.00    -0.270 N 
HETATM    8  O1  UNL     1     -17.683 -12.846  10.518  1.00  0.00    -0.268 OA
HETATM    9  C1  UNL     1     -15.270 -12.732  11.731  1.00  0.00     0.164 C 
HETATM   10  C12 UNL     1     -14.596 -14.238   9.963  1.00  0.00     0.336 A 
HETATM   11  O6  UNL     1     -13.440 -14.223  10.492  1.00  0.00    -0.246 OA
BRANCH   4  12
HETATM   12  C5  UNL     1     -16.293 -15.752   7.047  1.00  0.00     0.306 C 
BRANCH  12  13
HETATM   13  O2  UNL     1     -16.321 -14.996   5.885  1.00  0.00    -0.366 OA
ATOM     14  H2  UNL     1     -17.012 -15.207   5.269  1.00  0.00     0.213 HD
ENDBRANCH  12  13
BRANCH  12  15
HETATM   15  O3  UNL     1     -17.445 -16.537   7.147  1.00  0.00    -0.366 OA
ATOM     16  H3  UNL     1     -17.360 -17.393   6.745  1.00  0.00     0.213 HD
ENDBRANCH  12  15
ENDBRANCH   4  12
ENDBRANCH   2   3
ENDBRANCH   1   2
BRANCH   1  17
HETATM   17  O4  UNL     1     -14.248 -17.563   9.726  1.00  0.00    -0.280 OA
ATOM     18  H4  UNL     1     -14.436 -17.250  10.603  1.00  0.00     0.245 HD
ENDBRANCH   1  17
BRANCH   1  19
HETATM   19  C7  UNL     1     -11.988 -17.445   9.036  1.00  0.00     0.182 A 
HETATM   20  C8  UNL     1     -11.645 -18.672   9.565  1.00  0.00     0.107 A 
HETATM   21  C9  UNL     1     -10.345 -19.121   9.565  1.00  0.00     0.105 A 
HETATM   22  N5  UNL     1      -9.407 -18.337   9.035  1.00  0.00    -0.308 N 
HETATM   23  C10 UNL     1      -9.745 -17.132   8.516  1.00  0.00     0.234 A 
ATOM     24  H5  UNL     1      -8.434 -18.645   9.021  1.00  0.00     0.171 HD
HETATM   25  N6  UNL     1      -8.775 -16.436   8.023  1.00  0.00    -0.296 N 
HETATM   26  O5  UNL     1     -10.965 -16.751   8.535  1.00  0.00    -0.259 OA
HETATM   27  C11 UNL     1      -9.006 -15.163   7.453  1.00  0.00     0.189 C 
ATOM     28  H6  UNL     1      -7.826 -16.812   8.044  1.00  0.00     0.172 HD
HETATM   29  N7  UNL     1      -9.284 -14.187   8.243  1.00  0.00    -0.373 N 
HETATM   30  N8  UNL     1      -8.929 -14.975   6.047  1.00  0.00    -0.064 NA
ATOM     31  H72 UNL     1      -9.340 -14.322   9.253  1.00  0.00     0.158 HD
ATOM     32  H71 UNL     1      -9.451 -13.268   7.832  1.00  0.00     0.158 HD
BRANCH  21  33
HETATM   33  N4  UNL     1     -10.106 -20.276  10.076  1.00  0.00    -0.385 N 
ATOM     34  H42 UNL     1     -10.089 -21.142   9.537  1.00  0.00     0.157 HD
ATOM     35  H41 UNL     1      -9.923 -20.328  11.079  1.00  0.00     0.157 HD
ENDBRANCH  21  33
ENDBRANCH   1  19
TORSDOF 8
ENDMDL
MODEL 5
REMARK VINA RESULT: -7.592488888      1.649      4.010
REMARK  8 active torsions:
REMARK  status: ('A' for Active; 'I' for Inactive)
REMARK    1  A    between atoms: C4_6  and  C5_7 
REMARK    2  A    between atoms: C5_7  and  O2_8 
REMARK    3  A    between atoms: C5_7  and  O3_10 
REMARK    4  A    between atoms: N2_12  and  C6_13 
REMARK    5  A    between atoms: C6_13  and  N3_14 
REMARK    6  A    between atoms: N3_14  and  O4_15 
REMARK    7  A    between atoms: N3_14  and  C7_17 
REMARK    8  A    between atoms: C9_19  and  N4_20 
REMARK       I    between atoms: N6_26  and  C11_28 
ROOT
HETATM    1  N3  UNL     1      -8.584 -16.870  11.024  1.00  0.00    -0.196 N 
ENDROOT
BRANCH   1   2
HETATM    2  C6  UNL     1      -8.437 -18.057  11.786  1.00  0.00     0.228 C 
BRANCH   2   3
HETATM    3  N2  UNL     1      -9.635 -18.641  12.325  1.00  0.00    -0.256 N 
HETATM    4  C4  UNL     1     -10.081 -19.824  11.974  1.00  0.00     0.082 A 
HETATM    5  C3  UNL     1     -11.268 -20.311  12.565  1.00  0.00     0.105 A 
HETATM    6  C2  UNL     1     -11.928 -19.542  13.487  1.00  0.00     0.253 A 
HETATM    7  N1  UNL     1     -11.462 -18.342  13.832  1.00  0.00    -0.270 N 
HETATM    8  O1  UNL     1     -12.995 -19.940  14.040  1.00  0.00    -0.268 OA
HETATM    9  C1  UNL     1     -12.147 -17.493  14.814  1.00  0.00     0.164 C 
HETATM   10  C12 UNL     1     -10.342 -17.909  13.260  1.00  0.00     0.336 A 
HETATM   11  O6  UNL     1      -9.895 -16.764  13.588  1.00  0.00    -0.246 OA
BRANCH   4  12
HETATM   12  C5  UNL     1      -9.465 -20.676  10.970  1.00  0.00     0.306 C 
BRANCH  12  13
HETATM   13  O2  UNL     1      -9.904 -20.491   9.667  1.00  0.00    -0.366 OA
ATOM     14  H2  UNL     1      -9.378 -19.909   9.131  1.00  0.00     0.213 HD
ENDBRANCH  12  13
BRANCH  12  15
HETATM   15  O3  UNL     1      -9.478 -22.034  11.302  1.00  0.00    -0.366 OA
ATOM     16  H3  UNL     1     -10.323 -22.450  11.175  1.00  0.00     0.213 HD
ENDBRANCH  12  15
ENDBRANCH   4  12
ENDBRANCH   2   3
ENDBRANCH   1   2
BRANCH   1  17
HETATM   17  O4  UNL     1      -7.976 -15.745  11.463  1.00  0.00    -0.280 OA
ATOM     18  H4  UNL     1      -7.663 -15.721  12.359  1.00  0.00     0.245 HD
ENDBRANCH   1  17
BRANCH   1  19
HETATM   19  C7  UNL     1      -9.389 -16.778   9.871  1.00  0.00     0.182 A 
HETATM   20  C8  UNL     1      -8.942 -16.358   8.635  1.00  0.00     0.107 A 
HETATM   21  C9  UNL     1      -9.780 -16.289   7.548  1.00  0.00     0.105 A 
HETATM   22  N5  UNL     1     -11.054 -16.642   7.710  1.00  0.00    -0.308 N 
HETATM   23  C10 UNL     1     -11.493 -17.054   8.924  1.00  0.00     0.234 A 
ATOM     24  H5  UNL     1     -11.699 -16.602   6.921  1.00  0.00     0.171 HD
HETATM   25  N6  UNL     1     -12.743 -17.378   8.994  1.00  0.00    -0.296 N 
HETATM   26  O5  UNL     1     -10.682 -17.104   9.911  1.00  0.00    -0.259 OA
HETATM   27  C11 UNL     1     -13.314 -17.822  10.208  1.00  0.00     0.189 C 
ATOM     28  H6  UNL     1     -13.325 -17.312   8.159  1.00  0.00     0.172 HD
HETATM   29  N7  UNL     1     -13.501 -16.958  11.143  1.00  0.00    -0.373 N 
HETATM   30  N8  UNL     1     -13.671 -19.186  10.383  1.00  0.00    -0.064 NA
ATOM     31  H72 UNL     1     -13.245 -15.979  11.017  1.00  0.00     0.158 HD
ATOM     32  H71 UNL     1     -13.913 -17.279  12.019  1.00  0.00     0.158 HD
BRANCH  21  33
HETATM   33  N4  UNL     1      -9.287 -15.888   6.430  1.00  0.00    -0.385 N 
ATOM     34  H42 UNL     1      -9.357 -14.928   6.092  1.00  0.00     0.157 HD
ATOM     35  H41 UNL     1      -8.798 -16.570   5.850  1.00  0.00     0.157 HD
ENDBRANCH  21  33
ENDBRANCH   1  19
TORSDOF 8
ENDMDL
