MODEL 1
REMARK VINA RESULT: -6.420185539      0.000      0.000
REMARK  4 active torsions:
REMARK  status: ('A' for Active; 'I' for Inactive)
REMARK    1  A    between atoms: C2_2  and  C3_3 
REMARK    2  A    between atoms: C3_3  and  N1_4 
REMARK    3  A    between atoms: N1_4  and  C4_6 
REMARK    4  A    between atoms: C4_6  and  N2_8 
REMARK       I    between atoms: N4_18  and  C13_19 
ROOT
HETATM    1  N2  UNL     1      25.227  50.674  -2.090  1.00  0.00    -0.356 N 
HETATM    2  C5  UNL     1      23.869  50.248  -1.945  1.00  0.00     0.127 C 
HETATM    3  C6  UNL     1      23.082  51.042  -0.926  1.00  0.00     0.045 C 
HETATM    4  C7  UNL     1      23.556  50.775   0.484  1.00  0.00     0.090 C 
HETATM    5  C8  UNL     1      24.835  51.576   0.707  1.00  0.00     0.053 C 
HETATM    6  C9  UNL     1      25.881  50.588   0.301  1.00  0.00     0.083 C 
HETATM    7  C10 UNL     1      27.097  50.788   1.126  1.00  0.00     0.072 C 
HETATM    8  N3  UNL     1      28.031  50.947   1.784  1.00  0.00    -0.196 NA
HETATM    9  C11 UNL     1      26.296  50.839  -1.107  1.00  0.00     0.151 C 
HETATM   10  C12 UNL     1      25.316  49.216   0.553  1.00  0.00     0.152 C 
HETATM   11  N4  UNL     1      23.889  49.401   0.706  1.00  0.00    -0.346 N 
HETATM   12  C13 UNL     1      22.972  48.372   1.025  1.00  0.00     0.216 C 
HETATM   13  C14 UNL     1      23.441  46.986   1.230  1.00  0.00     0.117 C 
HETATM   14  O1  UNL     1      21.731  48.615   1.141  1.00  0.00    -0.274 OA
ENDROOT
BRANCH   1  15
HETATM   15  C4  UNL     1      25.657  51.004  -3.402  1.00  0.00     0.169 C 
HETATM   16  S1  UNL     1      24.505  51.452  -4.480  1.00  0.00    -0.041 SA
BRANCH  15  17
HETATM   17  N1  UNL     1      27.035  50.948  -3.796  1.00  0.00    -0.367 N 
ATOM     18  H1  UNL     1      27.719  51.425  -3.208  1.00  0.00     0.161 HD
BRANCH  17  19
HETATM   19  C3  UNL     1      27.509  50.272  -4.951  1.00  0.00     0.121 C 
BRANCH  19  20
HETATM   20  C2  UNL     1      28.695  49.373  -4.740  1.00  0.00     0.015 C 
HETATM   21  C1  UNL     1      29.340  49.822  -3.421  1.00  0.00     0.006 C 
ENDBRANCH  19  20
ENDBRANCH  17  19
ENDBRANCH  15  17
ENDBRANCH   1  15
TORSDOF 4
ENDMDL
MODEL 2
REMARK VINA RESULT: -6.399424365      1.548      2.511
REMARK  4 active torsions:
REMARK  status: ('A' for Active; 'I' for Inactive)
REMARK    1  A    between atoms: C2_2  and  C3_3 
REMARK    2  A    between atoms: C3_3  and  N1_4 
REMARK    3  A    between atoms: N1_4  and  C4_6 
REMARK    4  A    between atoms: C4_6  and  N2_8 
REMARK       I    between atoms: N4_18  and  C13_19 
ROOT
HETATM    1  N2  UNL     1      25.281  50.630  -2.035  1.00  0.00    -0.356 N 
HETATM    2  C5  UNL     1      23.920  50.199  -1.936  1.00  0.00     0.127 C 
HETATM    3  C6  UNL     1      23.090  51.006  -0.962  1.00  0.00     0.045 C 
HETATM    4  C7  UNL     1      23.510  50.766   0.470  1.00  0.00     0.090 C 
HETATM    5  C8  UNL     1      24.776  51.579   0.728  1.00  0.00     0.053 C 
HETATM    6  C9  UNL     1      25.841  50.589   0.381  1.00  0.00     0.083 C 
HETATM    7  C10 UNL     1      27.024  50.811   1.249  1.00  0.00     0.072 C 
HETATM    8  N3  UNL     1      27.931  50.986   1.939  1.00  0.00    -0.196 NA
HETATM    9  C11 UNL     1      26.309  50.818  -1.014  1.00  0.00     0.151 C 
HETATM   10  C12 UNL     1      25.273  49.219   0.634  1.00  0.00     0.152 C 
HETATM   11  N4  UNL     1      23.841  49.399   0.728  1.00  0.00    -0.346 N 
HETATM   12  C13 UNL     1      22.917  48.371   1.030  1.00  0.00     0.216 C 
HETATM   13  C14 UNL     1      23.385  46.990   1.278  1.00  0.00     0.117 C 
HETATM   14  O1  UNL     1      21.672  48.608   1.094  1.00  0.00    -0.274 OA
ENDROOT
BRANCH   1  15
HETATM   15  C4  UNL     1      25.759  50.940  -3.335  1.00  0.00     0.169 C 
HETATM   16  S1  UNL     1      27.383  50.925  -3.562  1.00  0.00    -0.041 SA
BRANCH  15  17
HETATM   17  N1  UNL     1      24.880  51.264  -4.420  1.00  0.00    -0.367 N 
ATOM     18  H1  UNL     1      24.361  50.502  -4.859  1.00  0.00     0.161 HD
BRANCH  17  19
HETATM   19  C3  UNL     1      24.683  52.577  -4.925  1.00  0.00     0.121 C 
BRANCH  19  20
HETATM   20  C2  UNL     1      23.978  53.531  -4.001  1.00  0.00     0.015 C 
HETATM   21  C1  UNL     1      22.498  53.122  -4.014  1.00  0.00     0.006 C 
ENDBRANCH  19  20
ENDBRANCH  17  19
ENDBRANCH  15  17
ENDBRANCH   1  15
TORSDOF 4
ENDMDL
MODEL 3
REMARK VINA RESULT: -6.388169289      1.672      2.176
REMARK  4 active torsions:
REMARK  status: ('A' for Active; 'I' for Inactive)
REMARK    1  A    between atoms: C2_2  and  C3_3 
REMARK    2  A    between atoms: C3_3  and  N1_4 
REMARK    3  A    between atoms: N1_4  and  C4_6 
REMARK    4  A    between atoms: C4_6  and  N2_8 
REMARK       I    between atoms: N4_18  and  C13_19 
ROOT
HETATM    1  N2  UNL     1      24.890  50.659  -2.110  1.00  0.00    -0.356 N 
HETATM    2  C5  UNL     1      23.573  50.204  -1.791  1.00  0.00     0.127 C 
HETATM    3  C6  UNL     1      22.922  50.957  -0.651  1.00  0.00     0.045 C 
HETATM    4  C7  UNL     1      23.591  50.664   0.672  1.00  0.00     0.090 C 
HETATM    5  C8  UNL     1      24.876  51.485   0.737  1.00  0.00     0.053 C 
HETATM    6  C9  UNL     1      25.871  50.527   0.164  1.00  0.00     0.083 C 
HETATM    7  C10 UNL     1      27.187  50.730   0.818  1.00  0.00     0.072 C 
HETATM    8  N3  UNL     1      28.201  50.891   1.345  1.00  0.00    -0.196 NA
HETATM    9  C11 UNL     1      26.083  50.820  -1.280  1.00  0.00     0.151 C 
HETATM   10  C12 UNL     1      25.368  49.138   0.454  1.00  0.00     0.152 C 
HETATM   11  N4  UNL     1      23.973  49.293   0.808  1.00  0.00    -0.346 N 
HETATM   12  C13 UNL     1      23.125  48.239   1.223  1.00  0.00     0.216 C 
HETATM   13  C14 UNL     1      23.640  46.857   1.325  1.00  0.00     0.117 C 
HETATM   14  O1  UNL     1      21.910  48.455   1.517  1.00  0.00    -0.274 OA
ENDROOT
BRANCH   1  15
HETATM   15  C4  UNL     1      25.129  51.029  -3.460  1.00  0.00     0.169 C 
HETATM   16  S1  UNL     1      26.690  51.102  -3.955  1.00  0.00    -0.041 SA
BRANCH  15  17
HETATM   17  N1  UNL     1      24.065  51.341  -4.370  1.00  0.00    -0.367 N 
ATOM     18  H1  UNL     1      23.114  51.372  -4.000  1.00  0.00     0.161 HD
BRANCH  17  19
HETATM   19  C3  UNL     1      24.249  51.609  -5.752  1.00  0.00     0.121 C 
BRANCH  19  20
HETATM   20  C2  UNL     1      23.699  50.576  -6.696  1.00  0.00     0.015 C 
HETATM   21  C1  UNL     1      24.913  49.957  -7.404  1.00  0.00     0.006 C 
ENDBRANCH  19  20
ENDBRANCH  17  19
ENDBRANCH  15  17
ENDBRANCH   1  15
TORSDOF 4
ENDMDL
MODEL 4
REMARK VINA RESULT: -6.222866684      0.857      1.209
REMARK  4 active torsions:
REMARK  status: ('A' for Active; 'I' for Inactive)
REMARK    1  A    between atoms: C2_2  and  C3_3 
REMARK    2  A    between atoms: C3_3  and  N1_4 
REMARK    3  A    between atoms: N1_4  and  C4_6 
REMARK    4  A    between atoms: C4_6  and  N2_8 
REMARK       I    between atoms: N4_18  and  C13_19 
ROOT
HETATM    1  N2  UNL     1      25.141  50.670  -2.102  1.00  0.00    -0.356 N 
HETATM    2  C5  UNL     1      23.793  50.233  -1.905  1.00  0.00     0.127 C 
HETATM    3  C6  UNL     1      23.044  51.011  -0.844  1.00  0.00     0.045 C 
HETATM    4  C7  UNL     1      23.579  50.732   0.542  1.00  0.00     0.090 C 
HETATM    5  C8  UNL     1      24.861  51.540   0.719  1.00  0.00     0.053 C 
HETATM    6  C9  UNL     1      25.895  50.564   0.259  1.00  0.00     0.083 C 
HETATM    7  C10 UNL     1      27.144  50.764   1.034  1.00  0.00     0.072 C 
HETATM    8  N3  UNL     1      28.104  50.922   1.654  1.00  0.00    -0.196 NA
HETATM    9  C11 UNL     1      26.249  50.833  -1.162  1.00  0.00     0.151 C 
HETATM   10  C12 UNL     1      25.350  49.185   0.519  1.00  0.00     0.152 C 
HETATM   11  N4  UNL     1      23.930  49.358   0.734  1.00  0.00    -0.346 N 
HETATM   12  C13 UNL     1      23.034  48.320   1.080  1.00  0.00     0.216 C 
HETATM   13  C14 UNL     1      23.521  46.934   1.251  1.00  0.00     0.117 C 
HETATM   14  O1  UNL     1      21.798  48.552   1.251  1.00  0.00    -0.274 OA
ENDROOT
BRANCH   1  15
HETATM   15  C4  UNL     1      25.512  51.018  -3.427  1.00  0.00     0.169 C 
HETATM   16  S1  UNL     1      24.370  51.722  -4.368  1.00  0.00    -0.041 SA
BRANCH  15  17
HETATM   17  N1  UNL     1      26.825  50.766  -3.948  1.00  0.00    -0.367 N 
ATOM     18  H1  UNL     1      27.512  50.341  -3.324  1.00  0.00     0.161 HD
BRANCH  17  19
HETATM   19  C3  UNL     1      27.229  51.069  -5.275  1.00  0.00     0.121 C 
BRANCH  19  20
HETATM   20  C2  UNL     1      27.388  49.890  -6.194  1.00  0.00     0.015 C 
HETATM   21  C1  UNL     1      26.233  49.977  -7.202  1.00  0.00     0.006 C 
ENDBRANCH  19  20
ENDBRANCH  17  19
ENDBRANCH  15  17
ENDBRANCH   1  15
TORSDOF 4
ENDMDL
MODEL 5
REMARK VINA RESULT: -5.989810044      1.147      1.447
REMARK  4 active torsions:
REMARK  status: ('A' for Active; 'I' for Inactive)
REMARK    1  A    between atoms: C2_2  and  C3_3 
REMARK    2  A    between atoms: C3_3  and  N1_4 
REMARK    3  A    between atoms: N1_4  and  C4_6 
REMARK    4  A    between atoms: C4_6  and  N2_8 
REMARK       I    between atoms: N4_18  and  C13_19 
ROOT
HETATM    1  N2  UNL     1      25.169  50.640  -2.049  1.00  0.00    -0.356 N 
HETATM    2  C5  UNL     1      23.817  50.201  -1.900  1.00  0.00     0.127 C 
HETATM    3  C6  UNL     1      23.024  50.989  -0.880  1.00  0.00     0.045 C 
HETATM    4  C7  UNL     1      23.505  50.730   0.529  1.00  0.00     0.090 C 
HETATM    5  C8  UNL     1      24.776  51.545   0.746  1.00  0.00     0.053 C 
HETATM    6  C9  UNL     1      25.831  50.566   0.340  1.00  0.00     0.083 C 
HETATM    7  C10 UNL     1      27.048  50.781   1.161  1.00  0.00     0.072 C 
HETATM    8  N3  UNL     1      27.982  50.951   1.816  1.00  0.00    -0.196 NA
HETATM    9  C11 UNL     1      26.239  50.819  -1.070  1.00  0.00     0.151 C 
HETATM   10  C12 UNL     1      25.281  49.189   0.596  1.00  0.00     0.152 C 
HETATM   11  N4  UNL     1      23.852  49.360   0.753  1.00  0.00    -0.346 N 
HETATM   12  C13 UNL     1      22.947  48.323   1.077  1.00  0.00     0.216 C 
HETATM   13  C14 UNL     1      23.431  46.941   1.284  1.00  0.00     0.117 C 
HETATM   14  O1  UNL     1      21.704  48.553   1.196  1.00  0.00    -0.274 OA
ENDROOT
BRANCH   1  15
HETATM   15  C4  UNL     1      25.592  50.973  -3.363  1.00  0.00     0.169 C 
HETATM   16  S1  UNL     1      24.453  51.537  -4.399  1.00  0.00    -0.041 SA
BRANCH  15  17
HETATM   17  N1  UNL     1      26.951  50.821  -3.794  1.00  0.00    -0.367 N 
ATOM     18  H1  UNL     1      27.393  49.910  -3.669  1.00  0.00     0.161 HD
BRANCH  17  19
HETATM   19  C3  UNL     1      27.723  51.858  -4.384  1.00  0.00     0.121 C 
BRANCH  19  20
HETATM   20  C2  UNL     1      28.090  52.996  -3.473  1.00  0.00     0.015 C 
HETATM   21  C1  UNL     1      27.317  54.219  -3.987  1.00  0.00     0.006 C 
ENDBRANCH  19  20
ENDBRANCH  17  19
ENDBRANCH  15  17
ENDBRANCH   1  15
TORSDOF 4
ENDMDL
