MODEL 1
REMARK VINA RESULT: -7.397387598      0.000      0.000
REMARK  11 active torsions:
REMARK  status: ('A' for Active; 'I' for Inactive)
REMARK    1  A    between atoms: N1_2  and  C2_4 
REMARK    2  A    between atoms: C2_4  and  C3_5 
REMARK    3  A    between atoms: C2_4  and  C7_9 
REMARK    4  A    between atoms: C3_5  and  C4_6 
REMARK       I    between atoms: C7_9  and  N2_11 
REMARK    5  A    between atoms: N2_11  and  C8_13 
REMARK    6  A    between atoms: C8_13  and  C9_14 
REMARK    7  A    between atoms: C8_13  and  C13_18 
REMARK    8  A    between atoms: C9_14  and  C10_15 
REMARK    9  A    between atoms: C13_18  and  O2_19 
REMARK   10  A    between atoms: C16_24  and  C17_25 
REMARK       I    between atoms: C17_25  and  N4_27 
REMARK   11  A    between atoms: N4_27  and  C18_29 
ROOT
HETATM    1  C8  UNL     1      80.130  36.306  -1.221  1.00  0.00     0.159 C 
ENDROOT
BRANCH   1   2
HETATM    2  N2  UNL     1      78.718  35.743  -1.207  1.00  0.00    -0.347 N 
HETATM    3  C7  UNL     1      77.913  35.823  -0.075  1.00  0.00     0.240 C 
HETATM    4  O1  UNL     1      78.352  36.369   0.959  1.00  0.00    -0.271 OA
ATOM      5  H2  UNL     1      78.352  35.295  -2.047  1.00  0.00     0.163 HD
BRANCH   3   6
HETATM    6  C2  UNL     1      76.542  35.277  -0.061  1.00  0.00     0.169 C 
BRANCH   6   7
HETATM    7  N1  UNL     1      75.583  36.323  -0.343  1.00  0.00    -0.413 N 
HETATM    8  C1  UNL     1      75.673  36.896  -1.644  1.00  0.00     0.140 C 
ATOM      9  H1  UNL     1      74.892  36.629   0.342  1.00  0.00     0.153 HD
ENDBRANCH   6   7
BRANCH   6  10
HETATM   10  C3  UNL     1      76.326  34.514   1.184  1.00  0.00     0.038 C 
BRANCH  10  11
HETATM   11  C4  UNL     1      75.798  33.141   1.095  1.00  0.00    -0.020 C 
HETATM   12  C5  UNL     1      74.318  33.052   0.833  1.00  0.00     0.009 C 
HETATM   13  C6  UNL     1      76.163  32.244   2.238  1.00  0.00     0.009 C 
ENDBRANCH  10  11
ENDBRANCH   6  10
ENDBRANCH   3   6
ENDBRANCH   1   2
BRANCH   1  14
HETATM   14  C9  UNL     1      80.155  37.222  -2.334  1.00  0.00     0.038 C 
BRANCH  14  15
HETATM   15  C10 UNL     1      80.128  38.696  -2.124  1.00  0.00    -0.012 A 
HETATM   16  C11 UNL     1      78.922  39.412  -2.697  1.00  0.00     0.005 A 
HETATM   17  C12 UNL     1      79.045  39.233  -1.227  1.00  0.00     0.005 A 
ENDBRANCH  14  15
ENDBRANCH   1  14
BRANCH   1  18
HETATM   18  C13 UNL     1      80.997  35.165  -1.007  1.00  0.00     0.137 C 
HETATM   19  N3  UNL     1      81.441  34.325  -0.035  1.00  0.00    -0.364 N 
HETATM   20  C14 UNL     1      81.225  34.334   1.369  1.00  0.00     0.125 C 
HETATM   21  C23 UNL     1      82.308  33.166  -0.466  1.00  0.00     0.125 C 
HETATM   22  C15 UNL     1      80.371  33.105   1.736  1.00  0.00     0.034 C 
HETATM   23  C16 UNL     1      81.044  31.843   1.237  1.00  0.00     0.081 C 
HETATM   24  C22 UNL     1      82.367  32.126   0.594  1.00  0.00     0.034 C 
BRANCH  18  25
HETATM   25  O2  UNL     1      81.565  34.828  -2.210  1.00  0.00    -0.348 OA
ATOM     26  H2  UNL     1      82.062  34.027  -2.090  1.00  0.00     0.219 HD
ENDBRANCH  18  25
BRANCH  23  27
HETATM   27  C17 UNL     1      81.213  30.885   2.342  1.00  0.00     0.222 C 
HETATM   28  O3  UNL     1      80.204  30.446   2.946  1.00  0.00    -0.273 OA
HETATM   29  N4  UNL     1      82.487  30.417   2.774  1.00  0.00    -0.353 N 
ATOM     30  H4  UNL     1      83.319  30.761   2.295  1.00  0.00     0.163 HD
BRANCH  29  31
HETATM   31  C18 UNL     1      82.655  29.486   3.849  1.00  0.00     0.022 C 
HETATM   32  C19 UNL     1      84.112  29.167   4.012  1.00  0.00     0.037 C 
HETATM   33  C20 UNL     1      82.179  30.050   5.176  1.00  0.00     0.037 C 
HETATM   34  C21 UNL     1      81.898  28.202   3.632  1.00  0.00     0.037 C 
ENDBRANCH  29  31
ENDBRANCH  23  27
ENDBRANCH   1  18
TORSDOF 11
ENDMDL
MODEL 2
REMARK VINA RESULT: -7.326707165      1.583      1.847
REMARK  11 active torsions:
REMARK  status: ('A' for Active; 'I' for Inactive)
REMARK    1  A    between atoms: N1_2  and  C2_4 
REMARK    2  A    between atoms: C2_4  and  C3_5 
REMARK    3  A    between atoms: C2_4  and  C7_9 
REMARK    4  A    between atoms: C3_5  and  C4_6 
REMARK       I    between atoms: C7_9  and  N2_11 
REMARK    5  A    between atoms: N2_11  and  C8_13 
REMARK    6  A    between atoms: C8_13  and  C9_14 
REMARK    7  A    between atoms: C8_13  and  C13_18 
REMARK    8  A    between atoms: C9_14  and  C10_15 
REMARK    9  A    between atoms: C13_18  and  O2_19 
REMARK   10  A    between atoms: C16_24  and  C17_25 
REMARK       I    between atoms: C17_25  and  N4_27 
REMARK   11  A    between atoms: N4_27  and  C18_29 
ROOT
HETATM    1  C8  UNL     1      80.381  36.794   0.603  1.00  0.00     0.159 C 
ENDROOT
BRANCH   1   2
HETATM    2  N2  UNL     1      79.199  36.202  -0.147  1.00  0.00    -0.347 N 
HETATM    3  C7  UNL     1      78.189  35.509   0.514  1.00  0.00     0.240 C 
HETATM    4  O1  UNL     1      78.247  35.365   1.753  1.00  0.00    -0.271 OA
ATOM      5  H2  UNL     1      79.145  36.315  -1.160  1.00  0.00     0.163 HD
BRANCH   3   6
HETATM    6  C2  UNL     1      77.041  34.935  -0.214  1.00  0.00     0.169 C 
BRANCH   6   7
HETATM    7  N1  UNL     1      76.696  35.769  -1.344  1.00  0.00    -0.413 N 
HETATM    8  C1  UNL     1      75.658  36.716  -1.108  1.00  0.00     0.140 C 
ATOM      9  H1  UNL     1      77.162  35.685  -2.248  1.00  0.00     0.153 HD
ENDBRANCH   6   7
BRANCH   6  10
HETATM   10  C3  UNL     1      75.949  34.641   0.736  1.00  0.00     0.038 C 
BRANCH  10  11
HETATM   11  C4  UNL     1      75.496  33.248   0.890  1.00  0.00    -0.020 C 
HETATM   12  C5  UNL     1      74.004  33.059   0.803  1.00  0.00     0.009 C 
HETATM   13  C6  UNL     1      76.024  32.537   2.099  1.00  0.00     0.009 C 
ENDBRANCH  10  11
ENDBRANCH   6  10
ENDBRANCH   3   6
ENDBRANCH   1   2
BRANCH   1  14
HETATM   14  C9  UNL     1      80.441  38.170   0.176  1.00  0.00     0.038 C 
BRANCH  14  15
HETATM   15  C10 UNL     1      81.200  39.189   0.955  1.00  0.00    -0.012 A 
HETATM   16  C11 UNL     1      80.565  40.563   1.018  1.00  0.00     0.005 A 
HETATM   17  C12 UNL     1      80.558  39.690   2.221  1.00  0.00     0.005 A 
ENDBRANCH  14  15
ENDBRANCH   1  14
BRANCH   1  18
HETATM   18  C13 UNL     1      81.430  35.801   0.504  1.00  0.00     0.137 C 
HETATM   19  N3  UNL     1      81.976  34.749   1.172  1.00  0.00    -0.364 N 
HETATM   20  C14 UNL     1      81.699  34.225   2.462  1.00  0.00     0.125 C 
HETATM   21  C23 UNL     1      83.058  33.968   0.465  1.00  0.00     0.125 C 
HETATM   22  C15 UNL     1      81.068  32.829   2.293  1.00  0.00     0.034 C 
HETATM   23  C16 UNL     1      81.981  31.947   1.467  1.00  0.00     0.081 C 
HETATM   24  C22 UNL     1      83.258  32.642   1.105  1.00  0.00     0.034 C 
BRANCH  18  25
HETATM   25  O2  UNL     1      82.104  36.006  -0.674  1.00  0.00    -0.348 OA
ATOM     26  H2  UNL     1      83.031  35.870  -0.513  1.00  0.00     0.219 HD
ENDBRANCH  18  25
BRANCH  23  27
HETATM   27  C17 UNL     1      82.272  30.698   2.189  1.00  0.00     0.222 C 
HETATM   28  O3  UNL     1      82.366  29.619   1.553  1.00  0.00    -0.273 OA
HETATM   29  N4  UNL     1      82.456  30.642   3.600  1.00  0.00    -0.353 N 
ATOM     30  H4  UNL     1      82.384  31.508   4.134  1.00  0.00     0.163 HD
BRANCH  29  31
HETATM   31  C18 UNL     1      82.738  29.428   4.304  1.00  0.00     0.022 C 
HETATM   32  C19 UNL     1      82.631  29.669   5.782  1.00  0.00     0.037 C 
HETATM   33  C20 UNL     1      81.748  28.326   3.969  1.00  0.00     0.037 C 
HETATM   34  C21 UNL     1      84.108  28.881   4.000  1.00  0.00     0.037 C 
ENDBRANCH  29  31
ENDBRANCH  23  27
ENDBRANCH   1  18
TORSDOF 11
ENDMDL
MODEL 3
REMARK VINA RESULT: -7.262993213      1.579      2.804
REMARK  11 active torsions:
REMARK  status: ('A' for Active; 'I' for Inactive)
REMARK    1  A    between atoms: N1_2  and  C2_4 
REMARK    2  A    between atoms: C2_4  and  C3_5 
REMARK    3  A    between atoms: C2_4  and  C7_9 
REMARK    4  A    between atoms: C3_5  and  C4_6 
REMARK       I    between atoms: C7_9  and  N2_11 
REMARK    5  A    between atoms: N2_11  and  C8_13 
REMARK    6  A    between atoms: C8_13  and  C9_14 
REMARK    7  A    between atoms: C8_13  and  C13_18 
REMARK    8  A    between atoms: C9_14  and  C10_15 
REMARK    9  A    between atoms: C13_18  and  O2_19 
REMARK   10  A    between atoms: C16_24  and  C17_25 
REMARK       I    between atoms: C17_25  and  N4_27 
REMARK   11  A    between atoms: N4_27  and  C18_29 
ROOT
HETATM    1  C8  UNL     1      79.634  35.683   1.059  1.00  0.00     0.159 C 
ENDROOT
BRANCH   1   2
HETATM    2  N2  UNL     1      78.345  35.586   0.259  1.00  0.00    -0.347 N 
HETATM    3  C7  UNL     1      77.102  35.543   0.883  1.00  0.00     0.240 C 
HETATM    4  O1  UNL     1      77.034  35.582   2.129  1.00  0.00    -0.271 OA
ATOM      5  H2  UNL     1      78.392  35.553  -0.760  1.00  0.00     0.163 HD
BRANCH   3   6
HETATM    6  C2  UNL     1      75.850  35.450   0.107  1.00  0.00     0.169 C 
BRANCH   6   7
HETATM    7  N1  UNL     1      75.087  34.293   0.523  1.00  0.00    -0.413 N 
HETATM    8  C1  UNL     1      75.850  33.115   0.763  1.00  0.00     0.140 C 
ATOM      9  H1  UNL     1      74.073  34.319   0.635  1.00  0.00     0.153 HD
ENDBRANCH   6   7
BRANCH   6  10
HETATM   10  C3  UNL     1      76.152  35.547  -1.335  1.00  0.00     0.038 C 
BRANCH  10  11
HETATM   11  C4  UNL     1      75.719  36.745  -2.074  1.00  0.00    -0.020 C 
HETATM   12  C5  UNL     1      76.104  36.759  -3.530  1.00  0.00     0.009 C 
HETATM   13  C6  UNL     1      76.092  38.052  -1.442  1.00  0.00     0.009 C 
ENDBRANCH  10  11
ENDBRANCH   6  10
ENDBRANCH   3   6
ENDBRANCH   1   2
BRANCH   1  14
HETATM   14  C9  UNL     1      80.122  37.018   0.818  1.00  0.00     0.038 C 
BRANCH  14  15
HETATM   15  C10 UNL     1      79.778  37.755  -0.429  1.00  0.00    -0.012 A 
HETATM   16  C11 UNL     1      79.498  39.233  -0.255  1.00  0.00     0.005 A 
HETATM   17  C12 UNL     1      80.763  38.792  -0.898  1.00  0.00     0.005 A 
ENDBRANCH  14  15
ENDBRANCH   1  14
BRANCH   1  18
HETATM   18  C13 UNL     1      80.331  34.438   0.808  1.00  0.00     0.137 C 
HETATM   19  N3  UNL     1      81.078  33.485   1.427  1.00  0.00    -0.364 N 
HETATM   20  C14 UNL     1      81.583  33.419   2.753  1.00  0.00     0.125 C 
HETATM   21  C23 UNL     1      81.456  32.269   0.616  1.00  0.00     0.125 C 
HETATM   22  C15 UNL     1      80.863  32.272   3.489  1.00  0.00     0.034 C 
HETATM   23  C16 UNL     1      81.027  30.980   2.716  1.00  0.00     0.081 C 
HETATM   24  C22 UNL     1      81.888  31.156   1.502  1.00  0.00     0.034 C 
BRANCH  18  25
HETATM   25  O2  UNL     1      80.183  34.125  -0.521  1.00  0.00    -0.348 OA
ATOM     26  H2  UNL     1      81.049  34.022  -0.899  1.00  0.00     0.219 HD
ENDBRANCH  18  25
BRANCH  23  27
HETATM   27  C17 UNL     1      81.587  29.933   3.585  1.00  0.00     0.222 C 
HETATM   28  O3  UNL     1      81.440  28.725   3.278  1.00  0.00    -0.273 OA
HETATM   29  N4  UNL     1      82.302  30.220   4.783  1.00  0.00    -0.353 N 
ATOM     30  H4  UNL     1      82.433  31.196   5.049  1.00  0.00     0.163 HD
BRANCH  29  31
HETATM   31  C18 UNL     1      82.847  29.203   5.631  1.00  0.00     0.022 C 
HETATM   32  C19 UNL     1      83.580  29.844   6.773  1.00  0.00     0.037 C 
HETATM   33  C20 UNL     1      81.767  28.327   6.242  1.00  0.00     0.037 C 
HETATM   34  C21 UNL     1      83.788  28.280   4.905  1.00  0.00     0.037 C 
ENDBRANCH  29  31
ENDBRANCH  23  27
ENDBRANCH   1  18
TORSDOF 11
ENDMDL
MODEL 4
REMARK VINA RESULT: -7.177857423      2.084      7.568
REMARK  11 active torsions:
REMARK  status: ('A' for Active; 'I' for Inactive)
REMARK    1  A    between atoms: N1_2  and  C2_4 
REMARK    2  A    between atoms: C2_4  and  C3_5 
REMARK    3  A    between atoms: C2_4  and  C7_9 
REMARK    4  A    between atoms: C3_5  and  C4_6 
REMARK       I    between atoms: C7_9  and  N2_11 
REMARK    5  A    between atoms: N2_11  and  C8_13 
REMARK    6  A    between atoms: C8_13  and  C9_14 
REMARK    7  A    between atoms: C8_13  and  C13_18 
REMARK    8  A    between atoms: C9_14  and  C10_15 
REMARK    9  A    between atoms: C13_18  and  O2_19 
REMARK   10  A    between atoms: C16_24  and  C17_25 
REMARK       I    between atoms: C17_25  and  N4_27 
REMARK   11  A    between atoms: N4_27  and  C18_29 
ROOT
HETATM    1  C8  UNL     1      77.614  33.403   2.567  1.00  0.00     0.159 C 
ENDROOT
BRANCH   1   2
HETATM    2  N2  UNL     1      78.679  32.444   2.060  1.00  0.00    -0.347 N 
HETATM    3  C7  UNL     1      79.724  32.019   2.875  1.00  0.00     0.240 C 
HETATM    4  O1  UNL     1      79.796  32.429   4.052  1.00  0.00    -0.271 OA
ATOM      5  H2  UNL     1      78.627  32.105   1.099  1.00  0.00     0.163 HD
BRANCH   3   6
HETATM    6  C2  UNL     1      80.758  31.088   2.384  1.00  0.00     0.169 C 
BRANCH   6   7
HETATM    7  N1  UNL     1      80.701  29.843   3.117  1.00  0.00    -0.413 N 
HETATM    8  C1  UNL     1      81.902  29.477   3.791  1.00  0.00     0.140 C 
ATOM      9  H1  UNL     1      79.860  29.266   3.150  1.00  0.00     0.153 HD
ENDBRANCH   6   7
BRANCH   6  10
HETATM   10  C3  UNL     1      82.067  31.770   2.360  1.00  0.00     0.038 C 
BRANCH  10  11
HETATM   11  C4  UNL     1      82.756  31.942   1.069  1.00  0.00    -0.020 C 
HETATM   12  C5  UNL     1      83.443  33.271   0.896  1.00  0.00     0.009 C 
HETATM   13  C6  UNL     1      81.924  31.644  -0.141  1.00  0.00     0.009 C 
ENDBRANCH  10  11
ENDBRANCH   6  10
ENDBRANCH   3   6
ENDBRANCH   1   2
BRANCH   1  14
HETATM   14  C9  UNL     1      76.359  32.764   2.253  1.00  0.00     0.038 C 
BRANCH  14  15
HETATM   15  C10 UNL     1      75.786  32.817   0.879  1.00  0.00    -0.012 A 
HETATM   16  C11 UNL     1      74.287  33.019   0.807  1.00  0.00     0.005 A 
HETATM   17  C12 UNL     1      75.200  34.131   0.439  1.00  0.00     0.005 A 
ENDBRANCH  14  15
ENDBRANCH   1  14
BRANCH   1  18
HETATM   18  C13 UNL     1      78.054  34.717   2.148  1.00  0.00     0.137 C 
HETATM   19  N3  UNL     1      78.995  35.340   1.389  1.00  0.00    -0.364 N 
HETATM   20  C14 UNL     1      80.113  34.818   0.685  1.00  0.00     0.125 C 
HETATM   21  C23 UNL     1      78.874  36.837   1.228  1.00  0.00     0.125 C 
HETATM   22  C15 UNL     1      79.856  34.987  -0.825  1.00  0.00     0.034 C 
HETATM   23  C16 UNL     1      79.569  36.440  -1.140  1.00  0.00     0.081 C 
HETATM   24  C22 UNL     1      79.680  37.312   0.074  1.00  0.00     0.034 C 
BRANCH  18  25
HETATM   25  O2  UNL     1      77.233  35.650   2.731  1.00  0.00    -0.348 OA
ATOM     26  H2  UNL     1      77.031  36.314   2.082  1.00  0.00     0.219 HD
ENDBRANCH  18  25
BRANCH  23  27
HETATM   27  C17 UNL     1      80.477  36.923  -2.193  1.00  0.00     0.222 C 
HETATM   28  O3  UNL     1      80.680  38.155  -2.325  1.00  0.00    -0.273 OA
HETATM   29  N4  UNL     1      81.155  36.050  -3.093  1.00  0.00    -0.353 N 
ATOM     30  H4  UNL     1      81.003  35.046  -3.001  1.00  0.00     0.163 HD
BRANCH  29  31
HETATM   31  C18 UNL     1      82.038  36.517  -4.119  1.00  0.00     0.022 C 
HETATM   32  C19 UNL     1      82.633  35.342  -4.839  1.00  0.00     0.037 C 
HETATM   33  C20 UNL     1      81.315  37.349  -5.163  1.00  0.00     0.037 C 
HETATM   34  C21 UNL     1      83.153  37.374  -3.583  1.00  0.00     0.037 C 
ENDBRANCH  29  31
ENDBRANCH  23  27
ENDBRANCH   1  18
TORSDOF 11
ENDMDL
MODEL 5
REMARK VINA RESULT: -7.130405558      2.096      7.477
REMARK  11 active torsions:
REMARK  status: ('A' for Active; 'I' for Inactive)
REMARK    1  A    between atoms: N1_2  and  C2_4 
REMARK    2  A    between atoms: C2_4  and  C3_5 
REMARK    3  A    between atoms: C2_4  and  C7_9 
REMARK    4  A    between atoms: C3_5  and  C4_6 
REMARK       I    between atoms: C7_9  and  N2_11 
REMARK    5  A    between atoms: N2_11  and  C8_13 
REMARK    6  A    between atoms: C8_13  and  C9_14 
REMARK    7  A    between atoms: C8_13  and  C13_18 
REMARK    8  A    between atoms: C9_14  and  C10_15 
REMARK    9  A    between atoms: C13_18  and  O2_19 
REMARK   10  A    between atoms: C16_24  and  C17_25 
REMARK       I    between atoms: C17_25  and  N4_27 
REMARK   11  A    between atoms: N4_27  and  C18_29 
ROOT
HETATM    1  C8  UNL     1      77.675  33.386   2.600  1.00  0.00     0.159 C 
ENDROOT
BRANCH   1   2
HETATM    2  N2  UNL     1      78.795  32.438   2.203  1.00  0.00    -0.347 N 
HETATM    3  C7  UNL     1      79.848  32.152   3.068  1.00  0.00     0.240 C 
HETATM    4  O1  UNL     1      79.881  32.682   4.198  1.00  0.00    -0.271 OA
ATOM      5  H2  UNL     1      78.776  32.001   1.281  1.00  0.00     0.163 HD
BRANCH   3   6
HETATM    6  C2  UNL     1      80.935  31.231   2.684  1.00  0.00     0.169 C 
BRANCH   6   7
HETATM    7  N1  UNL     1      81.252  31.387   1.281  1.00  0.00    -0.413 N 
HETATM    8  C1  UNL     1      82.556  31.890   1.004  1.00  0.00     0.140 C 
ATOM      9  H1  UNL     1      80.589  31.153   0.542  1.00  0.00     0.153 HD
ENDBRANCH   6   7
BRANCH   6  10
HETATM   10  C3  UNL     1      80.606  29.863   3.129  1.00  0.00     0.038 C 
BRANCH  10  11
HETATM   11  C4  UNL     1      81.606  29.107   3.903  1.00  0.00    -0.020 C 
HETATM   12  C5  UNL     1      82.313  29.905   4.966  1.00  0.00     0.009 C 
HETATM   13  C6  UNL     1      82.612  28.357   3.083  1.00  0.00     0.009 C 
ENDBRANCH  10  11
ENDBRANCH   6  10
ENDBRANCH   3   6
ENDBRANCH   1   2
BRANCH   1  14
HETATM   14  C9  UNL     1      76.461  32.704   2.225  1.00  0.00     0.038 C 
BRANCH  14  15
HETATM   15  C10 UNL     1      75.888  32.840   0.857  1.00  0.00    -0.012 A 
HETATM   16  C11 UNL     1      74.381  32.984   0.794  1.00  0.00     0.005 A 
HETATM   17  C12 UNL     1      75.247  34.159   0.518  1.00  0.00     0.005 A 
ENDBRANCH  14  15
ENDBRANCH   1  14
BRANCH   1  18
HETATM   18  C13 UNL     1      78.113  34.696   2.164  1.00  0.00     0.137 C 
HETATM   19  N3  UNL     1      79.040  35.309   1.380  1.00  0.00    -0.364 N 
HETATM   20  C14 UNL     1      80.141  34.778   0.657  1.00  0.00     0.125 C 
HETATM   21  C23 UNL     1      78.922  36.805   1.213  1.00  0.00     0.125 C 
HETATM   22  C15 UNL     1      79.853  34.938  -0.849  1.00  0.00     0.034 C 
HETATM   23  C16 UNL     1      79.566  36.391  -1.167  1.00  0.00     0.081 C 
HETATM   24  C22 UNL     1      79.706  37.270   0.038  1.00  0.00     0.034 C 
BRANCH  18  25
HETATM   25  O2  UNL     1      77.308  35.636   2.757  1.00  0.00    -0.348 OA
ATOM     26  H2  UNL     1      77.171  35.380   3.662  1.00  0.00     0.219 HD
ENDBRANCH  18  25
BRANCH  23  27
HETATM   27  C17 UNL     1      80.454  36.862  -2.242  1.00  0.00     0.222 C 
HETATM   28  O3  UNL     1      80.562  38.092  -2.466  1.00  0.00    -0.273 OA
HETATM   29  N4  UNL     1      81.216  35.980  -3.061  1.00  0.00    -0.353 N 
ATOM     30  H4  UNL     1      81.143  34.977  -2.894  1.00  0.00     0.163 HD
BRANCH  29  31
HETATM   31  C18 UNL     1      82.080  36.436  -4.108  1.00  0.00     0.022 C 
HETATM   32  C19 UNL     1      81.270  37.150  -5.151  1.00  0.00     0.037 C 
HETATM   33  C20 UNL     1      83.117  37.426  -3.607  1.00  0.00     0.037 C 
HETATM   34  C21 UNL     1      82.840  35.315  -4.766  1.00  0.00     0.037 C 
ENDBRANCH  29  31
ENDBRANCH  23  27
ENDBRANCH   1  18
TORSDOF 11
ENDMDL
