MODEL 1
REMARK VINA RESULT: -7.993375657      0.000      0.000
REMARK  10 active torsions:
REMARK  status: ('A' for Active; 'I' for Inactive)
REMARK       I    between atoms: C1_2  and  N1_3 
REMARK       I    between atoms: C1_2  and  N4_26 
REMARK    1  A    between atoms: N1_3  and  C2_5 
REMARK    2  A    between atoms: C2_5  and  C3_6 
REMARK    3  A    between atoms: C3_6  and  C4_7 
REMARK    4  A    between atoms: C4_7  and  C5_8 
REMARK    5  A    between atoms: C5_8  and  C6_9 
REMARK    6  A    between atoms: C6_9  and  N2_10 
REMARK    7  A    between atoms: C6_9  and  N3_20 
REMARK    8  A    between atoms: N2_10  and  S1_12 
REMARK    9  A    between atoms: S1_12  and  C7_15 
REMARK   10  A    between atoms: N4_26  and  C17_28 
ROOT
HETATM    1  C4  UNL     1      30.857 -31.055   1.223  1.00  0.00     0.005 C 
ENDROOT
BRANCH   1   2
HETATM    2  C3  UNL     1      31.139 -29.573   1.082  1.00  0.00     0.020 C 
BRANCH   2   3
HETATM    3  C2  UNL     1      30.720 -29.061  -0.240  1.00  0.00     0.124 C 
BRANCH   3   4
HETATM    4  N1  UNL     1      31.589 -27.995  -0.671  1.00  0.00    -0.343 N 
HETATM    5  C1  UNL     1      32.652 -28.244  -1.563  1.00  0.00     0.316 C 
HETATM    6  O1  UNL     1      32.909 -29.370  -2.047  1.00  0.00    -0.247 OA
HETATM    7  N4  UNL     1      33.495 -27.167  -1.949  1.00  0.00    -0.334 N 
ATOM      8  H4  UNL     1      33.303 -26.241  -1.566  1.00  0.00     0.165 HD
ATOM      9  H1  UNL     1      31.433 -27.048  -0.326  1.00  0.00     0.164 HD
BRANCH   7  10
HETATM   10  C17 UNL     1      34.603 -27.312  -2.848  1.00  0.00     0.035 C 
HETATM   11  C18 UNL     1      35.268 -25.935  -2.916  1.00  0.00     0.035 C 
HETATM   12  C19 UNL     1      36.429 -25.939  -3.845  1.00  0.00    -0.012 C 
HETATM   13  C20 UNL     1      37.446 -26.935  -3.326  1.00  0.00     0.009 C 
HETATM   14  C24 UNL     1      35.997 -26.347  -5.214  1.00  0.00     0.009 C 
HETATM   15  C21 UNL     1      36.828 -28.294  -3.281  1.00  0.00    -0.012 C 
HETATM   16  C22 UNL     1      36.344 -28.742  -4.645  1.00  0.00     0.009 C 
HETATM   17  C26 UNL     1      35.604 -28.329  -2.366  1.00  0.00     0.035 C 
HETATM   18  C23 UNL     1      35.379 -27.720  -5.149  1.00  0.00    -0.012 C 
HETATM   19  C25 UNL     1      34.163 -27.656  -4.241  1.00  0.00     0.035 C 
ENDBRANCH   7  10
ENDBRANCH   3   4
ENDBRANCH   2   3
ENDBRANCH   1   2
BRANCH   1  20
HETATM   20  C5  UNL     1      31.926 -31.772   1.957  1.00  0.00     0.048 C 
BRANCH  20  21
HETATM   21  C6  UNL     1      32.418 -33.042   1.327  1.00  0.00     0.197 C 
BRANCH  21  22
HETATM   22  N2  UNL     1      31.301 -33.876   1.000  1.00  0.00    -0.297 N 
ATOM     23  H2  UNL     1      30.543 -33.569   0.391  1.00  0.00     0.174 HD
BRANCH  22  24
HETATM   24  S1  UNL     1      31.342 -35.426   1.712  1.00  0.00     0.232 S 
HETATM   25  O2  UNL     1      32.615 -36.105   1.298  1.00  0.00    -0.206 OA
HETATM   26  O3  UNL     1      30.212 -36.230   1.082  1.00  0.00    -0.206 OA
BRANCH  24  27
HETATM   27  C7  UNL     1      31.097 -35.457   3.446  1.00  0.00     0.129 C 
HETATM   28  C8  UNL     1      32.206 -36.344   4.030  1.00  0.00     0.022 C 
HETATM   29  C9  UNL     1      31.626 -37.715   4.112  1.00  0.00     0.001 C 
HETATM   30  C10 UNL     1      30.161 -37.489   4.395  1.00  0.00     0.001 C 
HETATM   31  C11 UNL     1      29.810 -36.143   3.843  1.00  0.00     0.022 C 
ENDBRANCH  24  27
ENDBRANCH  22  24
ENDBRANCH  21  22
BRANCH  21  32
HETATM   32  N3  UNL     1      33.327 -32.857   0.261  1.00  0.00    -0.352 N 
HETATM   33  C12 UNL     1      34.178 -31.741   0.348  1.00  0.00     0.065 C 
HETATM   34  C13 UNL     1      35.522 -31.965  -0.299  1.00  0.00     0.045 C 
HETATM   35  C14 UNL     1      35.317 -32.722  -1.583  1.00  0.00     0.010 C 
HETATM   36  C15 UNL     1      33.859 -32.684  -2.056  1.00  0.00     0.045 C 
HETATM   37  C16 UNL     1      33.034 -33.408  -0.997  1.00  0.00     0.065 C 
ENDBRANCH  21  32
ENDBRANCH  20  21
ENDBRANCH   1  20
TORSDOF 10
ENDMDL
MODEL 2
REMARK VINA RESULT: -7.979858035      2.036      4.158
REMARK  10 active torsions:
REMARK  status: ('A' for Active; 'I' for Inactive)
REMARK       I    between atoms: C1_2  and  N1_3 
REMARK       I    between atoms: C1_2  and  N4_26 
REMARK    1  A    between atoms: N1_3  and  C2_5 
REMARK    2  A    between atoms: C2_5  and  C3_6 
REMARK    3  A    between atoms: C3_6  and  C4_7 
REMARK    4  A    between atoms: C4_7  and  C5_8 
REMARK    5  A    between atoms: C5_8  and  C6_9 
REMARK    6  A    between atoms: C6_9  and  N2_10 
REMARK    7  A    between atoms: C6_9  and  N3_20 
REMARK    8  A    between atoms: N2_10  and  S1_12 
REMARK    9  A    between atoms: S1_12  and  C7_15 
REMARK   10  A    between atoms: N4_26  and  C17_28 
ROOT
HETATM    1  C4  UNL     1      31.460 -30.376   1.292  1.00  0.00     0.005 C 
ENDROOT
BRANCH   1   2
HETATM    2  C3  UNL     1      30.428 -29.334   0.908  1.00  0.00     0.020 C 
BRANCH   2   3
HETATM    3  C2  UNL     1      30.949 -28.400  -0.113  1.00  0.00     0.124 C 
BRANCH   3   4
HETATM    4  N1  UNL     1      31.972 -29.035  -0.906  1.00  0.00    -0.343 N 
HETATM    5  C1  UNL     1      32.821 -28.275  -1.735  1.00  0.00     0.316 C 
HETATM    6  O1  UNL     1      32.767 -27.028  -1.835  1.00  0.00    -0.247 OA
HETATM    7  N4  UNL     1      33.806 -28.943  -2.514  1.00  0.00    -0.334 N 
ATOM      8  H4  UNL     1      33.866 -29.959  -2.446  1.00  0.00     0.165 HD
ATOM      9  H1  UNL     1      32.082 -30.049  -0.867  1.00  0.00     0.164 HD
BRANCH   7  10
HETATM   10  C17 UNL     1      34.717 -28.264  -3.389  1.00  0.00     0.035 C 
HETATM   11  C18 UNL     1      35.814 -29.280  -3.716  1.00  0.00     0.035 C 
HETATM   12  C19 UNL     1      36.850 -28.691  -4.605  1.00  0.00    -0.012 C 
HETATM   13  C20 UNL     1      36.182 -28.277  -5.900  1.00  0.00     0.009 C 
HETATM   14  C24 UNL     1      37.463 -27.491  -3.964  1.00  0.00     0.009 C 
HETATM   15  C21 UNL     1      35.127 -27.260  -5.609  1.00  0.00    -0.012 C 
HETATM   16  C22 UNL     1      35.695 -26.034  -4.928  1.00  0.00     0.009 C 
HETATM   17  C26 UNL     1      34.057 -27.811  -4.665  1.00  0.00     0.035 C 
HETATM   18  C23 UNL     1      36.385 -26.477  -3.680  1.00  0.00    -0.012 C 
HETATM   19  C25 UNL     1      35.384 -27.098  -2.721  1.00  0.00     0.035 C 
ENDBRANCH   7  10
ENDBRANCH   3   4
ENDBRANCH   2   3
ENDBRANCH   1   2
BRANCH   1  20
HETATM   20  C5  UNL     1      30.938 -31.759   1.197  1.00  0.00     0.048 C 
BRANCH  20  21
HETATM   21  C6  UNL     1      31.937 -32.814   0.821  1.00  0.00     0.197 C 
BRANCH  21  22
HETATM   22  N2  UNL     1      33.262 -32.301   1.000  1.00  0.00    -0.297 N 
ATOM     23  H2  UNL     1      33.670 -32.137   1.920  1.00  0.00     0.174 HD
BRANCH  22  24
HETATM   24  S1  UNL     1      34.102 -31.986  -0.451  1.00  0.00     0.232 S 
HETATM   25  O2  UNL     1      34.829 -30.680  -0.305  1.00  0.00    -0.206 OA
HETATM   26  O3  UNL     1      33.050 -31.763  -1.530  1.00  0.00    -0.206 OA
BRANCH  24  27
HETATM   27  C7  UNL     1      35.147 -33.278  -1.004  1.00  0.00     0.129 C 
HETATM   28  C8  UNL     1      34.411 -33.975  -2.157  1.00  0.00     0.022 C 
HETATM   29  C9  UNL     1      33.658 -35.102  -1.534  1.00  0.00     0.001 C 
HETATM   30  C10 UNL     1      34.527 -35.545  -0.382  1.00  0.00     0.001 C 
HETATM   31  C11 UNL     1      35.339 -34.359   0.035  1.00  0.00     0.022 C 
ENDBRANCH  24  27
ENDBRANCH  22  24
ENDBRANCH  21  22
BRANCH  21  32
HETATM   32  N3  UNL     1      31.723 -34.072   1.428  1.00  0.00    -0.352 N 
HETATM   33  C12 UNL     1      30.423 -34.600   1.335  1.00  0.00     0.065 C 
HETATM   34  C13 UNL     1      30.395 -36.107   1.281  1.00  0.00     0.045 C 
HETATM   35  C14 UNL     1      31.413 -36.641   2.252  1.00  0.00     0.010 C 
HETATM   36  C15 UNL     1      31.864 -35.583   3.265  1.00  0.00     0.045 C 
HETATM   37  C16 UNL     1      32.565 -34.485   2.473  1.00  0.00     0.065 C 
ENDBRANCH  21  32
ENDBRANCH  20  21
ENDBRANCH   1  20
TORSDOF 10
ENDMDL
MODEL 3
REMARK VINA RESULT: -7.928060905      1.661      3.451
REMARK  10 active torsions:
REMARK  status: ('A' for Active; 'I' for Inactive)
REMARK       I    between atoms: C1_2  and  N1_3 
REMARK       I    between atoms: C1_2  and  N4_26 
REMARK    1  A    between atoms: N1_3  and  C2_5 
REMARK    2  A    between atoms: C2_5  and  C3_6 
REMARK    3  A    between atoms: C3_6  and  C4_7 
REMARK    4  A    between atoms: C4_7  and  C5_8 
REMARK    5  A    between atoms: C5_8  and  C6_9 
REMARK    6  A    between atoms: C6_9  and  N2_10 
REMARK    7  A    between atoms: C6_9  and  N3_20 
REMARK    8  A    between atoms: N2_10  and  S1_12 
REMARK    9  A    between atoms: S1_12  and  C7_15 
REMARK   10  A    between atoms: N4_26  and  C17_28 
ROOT
HETATM    1  C4  UNL     1      35.030 -33.241   0.073  1.00  0.00     0.005 C 
ENDROOT
BRANCH   1   2
HETATM    2  C3  UNL     1      36.525 -33.344   0.296  1.00  0.00     0.020 C 
BRANCH   2   3
HETATM    3  C2  UNL     1      37.192 -32.034   0.137  1.00  0.00     0.124 C 
BRANCH   3   4
HETATM    4  N1  UNL     1      37.114 -31.588  -1.231  1.00  0.00    -0.343 N 
HETATM    5  C1  UNL     1      36.545 -30.339  -1.554  1.00  0.00     0.316 C 
HETATM    6  O1  UNL     1      36.090 -29.539  -0.706  1.00  0.00    -0.247 OA
HETATM    7  N4  UNL     1      36.473 -29.945  -2.918  1.00  0.00    -0.334 N 
ATOM      8  H4  UNL     1      36.839 -30.583  -3.625  1.00  0.00     0.165 HD
ATOM      9  H1  UNL     1      37.475 -32.184  -1.976  1.00  0.00     0.164 HD
BRANCH   7  10
HETATM   10  C17 UNL     1      35.914 -28.698  -3.354  1.00  0.00     0.035 C 
HETATM   11  C18 UNL     1      36.147 -28.642  -4.865  1.00  0.00     0.035 C 
HETATM   12  C19 UNL     1      35.631 -27.375  -5.446  1.00  0.00    -0.012 C 
HETATM   13  C20 UNL     1      34.139 -27.309  -5.191  1.00  0.00     0.009 C 
HETATM   14  C24 UNL     1      36.291 -26.202  -4.801  1.00  0.00     0.009 C 
HETATM   15  C21 UNL     1      33.889 -27.330  -3.718  1.00  0.00    -0.012 C 
HETATM   16  C22 UNL     1      34.566 -26.175  -3.012  1.00  0.00     0.009 C 
HETATM   17  C26 UNL     1      34.437 -28.602  -3.070  1.00  0.00     0.035 C 
HETATM   18  C23 UNL     1      36.026 -26.239  -3.318  1.00  0.00    -0.012 C 
HETATM   19  C25 UNL     1      36.622 -27.518  -2.757  1.00  0.00     0.035 C 
ENDBRANCH   7  10
ENDBRANCH   3   4
ENDBRANCH   2   3
ENDBRANCH   1   2
BRANCH   1  20
HETATM   20  C5  UNL     1      34.325 -32.602   1.210  1.00  0.00     0.048 C 
BRANCH  20  21
HETATM   21  C6  UNL     1      32.827 -32.651   1.165  1.00  0.00     0.197 C 
BRANCH  21  22
HETATM   22  N2  UNL     1      32.334 -33.274   2.357  1.00  0.00    -0.297 N 
ATOM     23  H2  UNL     1      32.280 -32.788   3.252  1.00  0.00     0.174 HD
BRANCH  22  24
HETATM   24  S1  UNL     1      31.846 -34.897   2.159  1.00  0.00     0.232 S 
HETATM   25  O2  UNL     1      32.578 -35.472   0.980  1.00  0.00    -0.206 OA
HETATM   26  O3  UNL     1      30.374 -34.869   1.768  1.00  0.00    -0.206 OA
BRANCH  24  27
HETATM   27  C7  UNL     1      31.986 -35.898   3.589  1.00  0.00     0.129 C 
HETATM   28  C8  UNL     1      32.183 -37.339   3.098  1.00  0.00     0.022 C 
HETATM   29  C9  UNL     1      30.818 -37.938   3.040  1.00  0.00     0.001 C 
HETATM   30  C10 UNL     1      30.067 -37.273   4.168  1.00  0.00     0.001 C 
HETATM   31  C11 UNL     1      30.710 -35.942   4.398  1.00  0.00     0.022 C 
ENDBRANCH  24  27
ENDBRANCH  22  24
ENDBRANCH  21  22
BRANCH  21  32
HETATM   32  N3  UNL     1      32.205 -31.418   0.865  1.00  0.00    -0.352 N 
HETATM   33  C12 UNL     1      32.993 -30.265   1.019  1.00  0.00     0.065 C 
HETATM   34  C13 UNL     1      32.636 -29.164   0.050  1.00  0.00     0.045 C 
HETATM   35  C14 UNL     1      31.137 -29.104  -0.075  1.00  0.00     0.010 C 
HETATM   36  C15 UNL     1      30.426 -29.845   1.064  1.00  0.00     0.045 C 
HETATM   37  C16 UNL     1      30.806 -31.317   0.937  1.00  0.00     0.065 C 
ENDBRANCH  21  32
ENDBRANCH  20  21
ENDBRANCH   1  20
TORSDOF 10
ENDMDL
MODEL 4
REMARK VINA RESULT: -7.912359821      1.109      1.222
REMARK  10 active torsions:
REMARK  status: ('A' for Active; 'I' for Inactive)
REMARK       I    between atoms: C1_2  and  N1_3 
REMARK       I    between atoms: C1_2  and  N4_26 
REMARK    1  A    between atoms: N1_3  and  C2_5 
REMARK    2  A    between atoms: C2_5  and  C3_6 
REMARK    3  A    between atoms: C3_6  and  C4_7 
REMARK    4  A    between atoms: C4_7  and  C5_8 
REMARK    5  A    between atoms: C5_8  and  C6_9 
REMARK    6  A    between atoms: C6_9  and  N2_10 
REMARK    7  A    between atoms: C6_9  and  N3_20 
REMARK    8  A    between atoms: N2_10  and  S1_12 
REMARK    9  A    between atoms: S1_12  and  C7_15 
REMARK   10  A    between atoms: N4_26  and  C17_28 
ROOT
HETATM    1  C4  UNL     1      31.028 -30.198   0.829  1.00  0.00     0.005 C 
ENDROOT
BRANCH   1   2
HETATM    2  C3  UNL     1      30.665 -28.726   0.822  1.00  0.00     0.020 C 
BRANCH   2   3
HETATM    3  C2  UNL     1      30.441 -28.225  -0.551  1.00  0.00     0.124 C 
BRANCH   3   4
HETATM    4  N1  UNL     1      31.480 -27.301  -0.930  1.00  0.00    -0.343 N 
HETATM    5  C1  UNL     1      32.573 -27.723  -1.714  1.00  0.00     0.316 C 
HETATM    6  O1  UNL     1      32.717 -28.891  -2.141  1.00  0.00    -0.247 OA
HETATM    7  N4  UNL     1      33.585 -26.783  -2.051  1.00  0.00    -0.334 N 
ATOM      8  H4  UNL     1      33.486 -25.826  -1.713  1.00  0.00     0.165 HD
ATOM      9  H1  UNL     1      31.424 -26.329  -0.627  1.00  0.00     0.164 HD
BRANCH   7  10
HETATM   10  C17 UNL     1      34.736 -27.109  -2.841  1.00  0.00     0.035 C 
HETATM   11  C18 UNL     1      35.565 -25.825  -2.919  1.00  0.00     0.035 C 
HETATM   12  C19 UNL     1      36.789 -26.019  -3.741  1.00  0.00    -0.012 C 
HETATM   13  C20 UNL     1      37.633 -27.093  -3.086  1.00  0.00     0.009 C 
HETATM   14  C24 UNL     1      36.424 -26.455  -5.120  1.00  0.00     0.009 C 
HETATM   15  C21 UNL     1      36.855 -28.366  -3.028  1.00  0.00    -0.012 C 
HETATM   16  C22 UNL     1      36.433 -28.835  -4.404  1.00  0.00     0.009 C 
HETATM   17  C26 UNL     1      35.566 -28.204  -2.223  1.00  0.00     0.035 C 
HETATM   18  C23 UNL     1      35.642 -27.742  -5.042  1.00  0.00    -0.012 C 
HETATM   19  C25 UNL     1      34.373 -27.482  -4.248  1.00  0.00     0.035 C 
ENDBRANCH   7  10
ENDBRANCH   3   4
ENDBRANCH   2   3
ENDBRANCH   1   2
BRANCH   1  20
HETATM   20  C5  UNL     1      32.481 -30.427   1.008  1.00  0.00     0.048 C 
BRANCH  20  21
HETATM   21  C6  UNL     1      32.967 -31.816   0.718  1.00  0.00     0.197 C 
BRANCH  21  22
HETATM   22  N2  UNL     1      31.844 -32.687   0.540  1.00  0.00    -0.297 N 
ATOM     23  H2  UNL     1      30.963 -32.374   0.133  1.00  0.00     0.174 HD
BRANCH  22  24
HETATM   24  S1  UNL     1      32.100 -34.291   1.063  1.00  0.00     0.232 S 
HETATM   25  O2  UNL     1      33.428 -34.355   1.762  1.00  0.00    -0.206 OA
HETATM   26  O3  UNL     1      32.242 -35.145  -0.190  1.00  0.00    -0.206 OA
BRANCH  24  27
HETATM   27  C7  UNL     1      30.804 -34.980   2.018  1.00  0.00     0.129 C 
HETATM   28  C8  UNL     1      31.425 -35.410   3.355  1.00  0.00     0.022 C 
HETATM   29  C9  UNL     1      31.808 -36.841   3.182  1.00  0.00     0.001 C 
HETATM   30  C10 UNL     1      30.764 -37.400   2.245  1.00  0.00     0.001 C 
HETATM   31  C11 UNL     1      30.256 -36.257   1.424  1.00  0.00     0.022 C 
ENDBRANCH  24  27
ENDBRANCH  22  24
ENDBRANCH  21  22
BRANCH  21  32
HETATM   32  N3  UNL     1      33.928 -31.902  -0.314  1.00  0.00    -0.352 N 
HETATM   33  C12 UNL     1      35.132 -31.206  -0.109  1.00  0.00     0.065 C 
HETATM   34  C13 UNL     1      36.322 -31.870  -0.758  1.00  0.00     0.045 C 
HETATM   35  C14 UNL     1      35.907 -32.379  -2.113  1.00  0.00     0.010 C 
HETATM   36  C15 UNL     1      34.596 -31.748  -2.596  1.00  0.00     0.045 C 
HETATM   37  C16 UNL     1      33.509 -32.191  -1.623  1.00  0.00     0.065 C 
ENDBRANCH  21  32
ENDBRANCH  20  21
ENDBRANCH   1  20
TORSDOF 10
ENDMDL
MODEL 5
REMARK VINA RESULT: -7.887589629      2.587      4.891
REMARK  10 active torsions:
REMARK  status: ('A' for Active; 'I' for Inactive)
REMARK       I    between atoms: C1_2  and  N1_3 
REMARK       I    between atoms: C1_2  and  N4_26 
REMARK    1  A    between atoms: N1_3  and  C2_5 
REMARK    2  A    between atoms: C2_5  and  C3_6 
REMARK    3  A    between atoms: C3_6  and  C4_7 
REMARK    4  A    between atoms: C4_7  and  C5_8 
REMARK    5  A    between atoms: C5_8  and  C6_9 
REMARK    6  A    between atoms: C6_9  and  N2_10 
REMARK    7  A    between atoms: C6_9  and  N3_20 
REMARK    8  A    between atoms: N2_10  and  S1_12 
REMARK    9  A    between atoms: S1_12  and  C7_15 
REMARK   10  A    between atoms: N4_26  and  C17_28 
ROOT
HETATM    1  C4  UNL     1      31.020 -29.289   0.741  1.00  0.00     0.005 C 
ENDROOT
BRANCH   1   2
HETATM    2  C3  UNL     1      30.949 -28.944  -0.733  1.00  0.00     0.020 C 
BRANCH   2   3
HETATM    3  C2  UNL     1      31.368 -27.549  -0.988  1.00  0.00     0.124 C 
BRANCH   3   4
HETATM    4  N1  UNL     1      32.805 -27.451  -1.035  1.00  0.00    -0.343 N 
HETATM    5  C1  UNL     1      33.487 -27.402  -2.267  1.00  0.00     0.316 C 
HETATM    6  O1  UNL     1      32.917 -27.426  -3.382  1.00  0.00    -0.247 OA
HETATM    7  N4  UNL     1      34.906 -27.322  -2.269  1.00  0.00    -0.334 N 
ATOM      8  H4  UNL     1      35.389 -27.302  -1.370  1.00  0.00     0.165 HD
ATOM      9  H1  UNL     1      33.336 -27.417  -0.164  1.00  0.00     0.164 HD
BRANCH   7  10
HETATM   10  C17 UNL     1      35.695 -27.269  -3.465  1.00  0.00     0.035 C 
HETATM   11  C18 UNL     1      35.788 -28.711  -3.968  1.00  0.00     0.035 C 
HETATM   12  C19 UNL     1      36.610 -28.802  -5.203  1.00  0.00    -0.012 C 
HETATM   13  C20 UNL     1      35.946 -27.965  -6.276  1.00  0.00     0.009 C 
HETATM   14  C24 UNL     1      37.984 -28.278  -4.952  1.00  0.00     0.009 C 
HETATM   15  C21 UNL     1      35.873 -26.545  -5.820  1.00  0.00    -0.012 C 
HETATM   16  C22 UNL     1      37.243 -25.975  -5.522  1.00  0.00     0.009 C 
HETATM   17  C26 UNL     1      35.067 -26.407  -4.529  1.00  0.00     0.035 C 
HETATM   18  C23 UNL     1      37.891 -26.844  -4.495  1.00  0.00    -0.012 C 
HETATM   19  C25 UNL     1      37.097 -26.805  -3.200  1.00  0.00     0.035 C 
ENDBRANCH   7  10
ENDBRANCH   3   4
ENDBRANCH   2   3
ENDBRANCH   1   2
BRANCH   1  20
HETATM   20  C5  UNL     1      31.120 -30.748   0.982  1.00  0.00     0.048 C 
BRANCH  20  21
HETATM   21  C6  UNL     1      32.384 -31.406   0.516  1.00  0.00     0.197 C 
BRANCH  21  22
HETATM   22  N2  UNL     1      33.513 -30.710   1.057  1.00  0.00    -0.297 N 
ATOM     23  H2  UNL     1      33.573 -30.437   2.038  1.00  0.00     0.174 HD
BRANCH  22  24
HETATM   24  S1  UNL     1      34.747 -30.374  -0.072  1.00  0.00     0.232 S 
HETATM   25  O2  UNL     1      35.255 -28.983   0.181  1.00  0.00    -0.206 OA
HETATM   26  O3  UNL     1      34.089 -30.338  -1.445  1.00  0.00    -0.206 OA
BRANCH  24  27
HETATM   27  C7  UNL     1      36.035 -31.557  -0.143  1.00  0.00     0.129 C 
HETATM   28  C8  UNL     1      37.354 -30.777  -0.051  1.00  0.00     0.022 C 
HETATM   29  C9  UNL     1      37.769 -30.516  -1.460  1.00  0.00     0.001 C 
HETATM   30  C10 UNL     1      37.276 -31.719  -2.227  1.00  0.00     0.001 C 
HETATM   31  C11 UNL     1      36.104 -32.267  -1.475  1.00  0.00     0.022 C 
ENDBRANCH  24  27
ENDBRANCH  22  24
ENDBRANCH  21  22
BRANCH  21  32
HETATM   32  N3  UNL     1      32.428 -32.805   0.710  1.00  0.00    -0.352 N 
HETATM   33  C12 UNL     1      32.704 -33.248   2.015  1.00  0.00     0.065 C 
HETATM   34  C13 UNL     1      32.037 -34.559   2.354  1.00  0.00     0.045 C 
HETATM   35  C14 UNL     1      32.132 -35.468   1.158  1.00  0.00     0.010 C 
HETATM   36  C15 UNL     1      33.182 -34.994   0.147  1.00  0.00     0.045 C 
HETATM   37  C16 UNL     1      32.709 -33.644  -0.380  1.00  0.00     0.065 C 
ENDBRANCH  21  32
ENDBRANCH  20  21
ENDBRANCH   1  20
TORSDOF 10
ENDMDL
