MODEL 1
REMARK VINA RESULT: -6.946988480      0.000      0.000
REMARK  12 active torsions:
REMARK  status: ('A' for Active; 'I' for Inactive)
REMARK    1  A    between atoms: C2_2  and  C3_3 
REMARK    2  A    between atoms: C3_3  and  C5_5 
REMARK    3  A    between atoms: C7_10  and  C8_11 
REMARK    4  A    between atoms: C8_11  and  C9_12 
REMARK    5  A    between atoms: C14_19  and  C15_20 
REMARK    6  A    between atoms: C16_21  and  C17_22 
REMARK    7  A    between atoms: C17_22  and  O3_23 
REMARK    8  A    between atoms: C17_22  and  C18_25 
REMARK    9  A    between atoms: C18_25  and  C19_26 
REMARK   10  A    between atoms: C23_30  and  C24_31 
REMARK   11  A    between atoms: C24_31  and  C25_32 
REMARK   12  A    between atoms: C28_37  and  O4_38 
ROOT
HETATM    1  C5  UNL     1      35.759 -27.591  -4.548  1.00  0.00     0.162 C 
HETATM    2  N1  UNL     1      36.712 -27.852  -3.469  1.00  0.00    -0.347 N 
ATOM      3  H1  UNL     1      36.547 -27.304  -2.625  1.00  0.00     0.163 HD
HETATM    4  C6  UNL     1      37.794 -28.707  -3.387  1.00  0.00     0.241 C 
HETATM    5  O1  UNL     1      38.952 -28.152  -3.304  1.00  0.00    -0.271 OA
HETATM    6  C7  UNL     1      37.847 -30.192  -3.375  1.00  0.00     0.179 C 
HETATM    7  N2  UNL     1      37.883 -30.692  -2.001  1.00  0.00    -0.342 N 
HETATM    8  C12 UNL     1      39.066 -31.524  -1.647  1.00  0.00     0.153 C 
HETATM    9  C13 UNL     1      36.956 -30.461  -0.986  1.00  0.00     0.228 C 
HETATM   10  O2  UNL     1      37.381 -29.981   0.128  1.00  0.00    -0.273 OA
HETATM   11  C14 UNL     1      35.472 -30.691  -0.967  1.00  0.00     0.102 C 
HETATM   12  C22 UNL     1      34.699 -29.408  -0.930  1.00  0.00     0.043 C 
HETATM   13  C23 UNL     1      33.736 -29.279  -2.120  1.00  0.00     0.084 C 
HETATM   14  N3  UNL     1      33.826 -28.076  -2.857  1.00  0.00    -0.368 N 
ATOM     15  H3  UNL     1      33.425 -27.270  -2.378  1.00  0.00     0.161 HD
HETATM   16  C28 UNL     1      34.360 -27.769  -4.125  1.00  0.00     0.135 C 
ENDROOT
BRANCH  11  17
HETATM   17  C15 UNL     1      35.113 -31.602   0.120  1.00  0.00    -0.014 C 
HETATM   18  C16 UNL     1      34.574 -32.770  -0.001  1.00  0.00     0.001 C 
BRANCH  18  19
HETATM   19  C17 UNL     1      34.248 -33.623   1.221  1.00  0.00     0.141 C 
BRANCH  19  20
HETATM   20  O3  UNL     1      33.992 -34.913   0.755  1.00  0.00    -0.392 OA
ATOM     21  H3  UNL     1      34.825 -35.370   0.739  1.00  0.00     0.210 HD
ENDBRANCH  19  20
BRANCH  19  22
HETATM   22  C18 UNL     1      33.107 -33.050   1.990  1.00  0.00     0.039 C 
BRANCH  22  23
HETATM   23  C19 UNL     1      31.840 -33.703   1.446  1.00  0.00    -0.020 C 
HETATM   24  C20 UNL     1      31.252 -34.666   2.439  1.00  0.00     0.009 C 
HETATM   25  C21 UNL     1      30.874 -32.560   1.133  1.00  0.00     0.009 C 
ENDBRANCH  22  23
ENDBRANCH  19  22
ENDBRANCH  18  19
ENDBRANCH  11  17
BRANCH  13  26
HETATM   26  C24 UNL     1      32.334 -29.532  -1.588  1.00  0.00     0.029 C 
BRANCH  26  27
HETATM   27  C25 UNL     1      31.926 -28.556  -0.529  1.00  0.00    -0.021 C 
HETATM   28  C26 UNL     1      30.807 -27.660  -1.012  1.00  0.00     0.009 C 
HETATM   29  C27 UNL     1      31.417 -29.278   0.700  1.00  0.00     0.009 C 
ENDBRANCH  26  27
ENDBRANCH  13  26
BRANCH   6  30
HETATM   30  C8  UNL     1      36.844 -30.837  -4.258  1.00  0.00     0.039 C 
BRANCH  30  31
HETATM   31  C9  UNL     1      37.076 -32.298  -4.554  1.00  0.00    -0.020 C 
HETATM   32  C10 UNL     1      36.904 -32.545  -6.016  1.00  0.00     0.009 C 
HETATM   33  C11 UNL     1      36.052 -33.112  -3.767  1.00  0.00     0.009 C 
ENDBRANCH  30  31
ENDBRANCH   6  30
BRANCH  16  34
HETATM   34  O4  UNL     1      33.536 -27.608  -5.124  1.00  0.00    -0.348 OA
ATOM     35  H4  UNL     1      32.805 -28.211  -5.071  1.00  0.00     0.219 HD
ENDBRANCH  16  34
BRANCH   1  36
HETATM   36  C3  UNL     1      35.991 -26.111  -4.892  1.00  0.00     0.012 C 
HETATM   37  C4  UNL     1      36.762 -25.501  -3.683  1.00  0.00     0.012 C 
BRANCH  36  38
HETATM   38  C2  UNL     1      36.766 -25.834  -6.119  1.00  0.00     0.002 C 
HETATM   39  C1  UNL     1      35.802 -25.747  -7.334  1.00  0.00     0.005 C 
ENDBRANCH  36  38
ENDBRANCH   1  36
TORSDOF 12
ENDMDL
MODEL 2
REMARK VINA RESULT: -6.866384540      2.385      7.495
REMARK  12 active torsions:
REMARK  status: ('A' for Active; 'I' for Inactive)
REMARK    1  A    between atoms: C2_2  and  C3_3 
REMARK    2  A    between atoms: C3_3  and  C5_5 
REMARK    3  A    between atoms: C7_10  and  C8_11 
REMARK    4  A    between atoms: C8_11  and  C9_12 
REMARK    5  A    between atoms: C14_19  and  C15_20 
REMARK    6  A    between atoms: C16_21  and  C17_22 
REMARK    7  A    between atoms: C17_22  and  O3_23 
REMARK    8  A    between atoms: C17_22  and  C18_25 
REMARK    9  A    between atoms: C18_25  and  C19_26 
REMARK   10  A    between atoms: C23_30  and  C24_31 
REMARK   11  A    between atoms: C24_31  and  C25_32 
REMARK   12  A    between atoms: C28_37  and  O4_38 
ROOT
HETATM    1  C5  UNL     1      33.309 -33.436   1.702  1.00  0.00     0.162 C 
HETATM    2  N1  UNL     1      33.580 -33.849   0.325  1.00  0.00    -0.347 N 
ATOM      3  H1  UNL     1      32.839 -33.615  -0.335  1.00  0.00     0.163 HD
HETATM    4  C6  UNL     1      34.659 -34.499  -0.241  1.00  0.00     0.241 C 
HETATM    5  O1  UNL     1      34.437 -35.685  -0.692  1.00  0.00    -0.271 OA
HETATM    6  C7  UNL     1      36.064 -34.050  -0.427  1.00  0.00     0.179 C 
HETATM    7  N2  UNL     1      36.246 -33.476  -1.760  1.00  0.00    -0.342 N 
HETATM    8  C12 UNL     1      37.272 -34.135  -2.613  1.00  0.00     0.153 C 
HETATM    9  C13 UNL     1      35.557 -32.405  -2.328  1.00  0.00     0.228 C 
HETATM   10  O2  UNL     1      34.982 -32.584  -3.463  1.00  0.00    -0.273 OA
HETATM   11  C14 UNL     1      35.363 -31.005  -1.816  1.00  0.00     0.102 C 
HETATM   12  C22 UNL     1      33.942 -30.734  -1.430  1.00  0.00     0.043 C 
HETATM   13  C23 UNL     1      33.815 -30.303   0.039  1.00  0.00     0.084 C 
HETATM   14  N3  UNL     1      32.870 -31.018   0.812  1.00  0.00    -0.368 N 
ATOM     15  H3  UNL     1      31.902 -30.776   0.602  1.00  0.00     0.161 HD
HETATM   16  C28 UNL     1      33.002 -32.001   1.813  1.00  0.00     0.135 C 
ENDROOT
BRANCH  11  17
HETATM   17  C15 UNL     1      35.884 -30.036  -2.780  1.00  0.00    -0.014 C 
HETATM   18  C16 UNL     1      36.427 -28.896  -2.508  1.00  0.00     0.001 C 
BRANCH  18  19
HETATM   19  C17 UNL     1      36.933 -27.974  -3.614  1.00  0.00     0.141 C 
BRANCH  19  20
HETATM   20  O3  UNL     1      36.756 -26.666  -3.161  1.00  0.00    -0.392 OA
ATOM     21  H3  UNL     1      35.842 -26.581  -2.919  1.00  0.00     0.210 HD
ENDBRANCH  19  20
BRANCH  19  22
HETATM   22  C18 UNL     1      36.230 -28.240  -4.901  1.00  0.00     0.039 C 
BRANCH  22  23
HETATM   23  C19 UNL     1      35.358 -27.021  -5.184  1.00  0.00    -0.020 C 
HETATM   24  C20 UNL     1      35.646 -26.446  -6.542  1.00  0.00     0.009 C 
HETATM   25  C21 UNL     1      33.909 -27.499  -5.073  1.00  0.00     0.009 C 
ENDBRANCH  22  23
ENDBRANCH  19  22
ENDBRANCH  18  19
ENDBRANCH  11  17
BRANCH  13  26
HETATM   26  C24 UNL     1      33.555 -28.805   0.043  1.00  0.00     0.029 C 
BRANCH  26  27
HETATM   27  C25 UNL     1      32.755 -28.347  -1.136  1.00  0.00    -0.021 C 
HETATM   28  C26 UNL     1      31.312 -28.097  -0.757  1.00  0.00     0.009 C 
HETATM   29  C27 UNL     1      33.302 -27.047  -1.683  1.00  0.00     0.009 C 
ENDBRANCH  26  27
ENDBRANCH  13  26
BRANCH   6  30
HETATM   30  C8  UNL     1      36.585 -33.229   0.693  1.00  0.00     0.039 C 
BRANCH  30  31
HETATM   31  C9  UNL     1      38.016 -32.771   0.558  1.00  0.00    -0.020 C 
HETATM   32  C10 UNL     1      38.797 -33.211   1.752  1.00  0.00     0.009 C 
HETATM   33  C11 UNL     1      38.022 -31.247   0.469  1.00  0.00     0.009 C 
ENDBRANCH  30  31
ENDBRANCH   6  30
BRANCH  16  34
HETATM   34  O4  UNL     1      32.841 -31.643   3.059  1.00  0.00    -0.348 OA
ATOM     35  H4  UNL     1      31.965 -31.310   3.213  1.00  0.00     0.219 HD
ENDBRANCH  16  34
BRANCH   1  36
HETATM   36  C3  UNL     1      32.058 -34.243   2.088  1.00  0.00     0.012 C 
HETATM   37  C4  UNL     1      30.891 -33.667   1.232  1.00  0.00     0.012 C 
BRANCH  36  38
HETATM   38  C2  UNL     1      32.120 -35.702   1.858  1.00  0.00     0.002 C 
HETATM   39  C1  UNL     1      30.678 -36.273   1.760  1.00  0.00     0.005 C 
ENDBRANCH  36  38
ENDBRANCH   1  36
TORSDOF 12
ENDMDL
MODEL 3
REMARK VINA RESULT: -6.828937776      0.789      1.017
REMARK  12 active torsions:
REMARK  status: ('A' for Active; 'I' for Inactive)
REMARK    1  A    between atoms: C2_2  and  C3_3 
REMARK    2  A    between atoms: C3_3  and  C5_5 
REMARK    3  A    between atoms: C7_10  and  C8_11 
REMARK    4  A    between atoms: C8_11  and  C9_12 
REMARK    5  A    between atoms: C14_19  and  C15_20 
REMARK    6  A    between atoms: C16_21  and  C17_22 
REMARK    7  A    between atoms: C17_22  and  O3_23 
REMARK    8  A    between atoms: C17_22  and  C18_25 
REMARK    9  A    between atoms: C18_25  and  C19_26 
REMARK   10  A    between atoms: C23_30  and  C24_31 
REMARK   11  A    between atoms: C24_31  and  C25_32 
REMARK   12  A    between atoms: C28_37  and  O4_38 
ROOT
HETATM    1  C5  UNL     1      35.702 -27.906  -4.029  1.00  0.00     0.162 C 
HETATM    2  N1  UNL     1      36.586 -28.249  -2.915  1.00  0.00    -0.347 N 
ATOM      3  H1  UNL     1      36.391 -27.738  -2.054  1.00  0.00     0.163 HD
HETATM    4  C6  UNL     1      37.636 -29.140  -2.819  1.00  0.00     0.241 C 
HETATM    5  O1  UNL     1      38.804 -28.628  -2.645  1.00  0.00    -0.271 OA
HETATM    6  C7  UNL     1      37.646 -30.626  -2.879  1.00  0.00     0.179 C 
HETATM    7  N2  UNL     1      37.592 -31.193  -1.532  1.00  0.00    -0.342 N 
HETATM    8  C12 UNL     1      38.729 -32.079  -1.157  1.00  0.00     0.153 C 
HETATM    9  C13 UNL     1      36.617 -30.983  -0.557  1.00  0.00     0.228 C 
HETATM   10  O2  UNL     1      36.993 -30.572   0.600  1.00  0.00    -0.273 OA
HETATM   11  C14 UNL     1      35.128 -31.166  -0.630  1.00  0.00     0.102 C 
HETATM   12  C22 UNL     1      34.392 -29.863  -0.570  1.00  0.00     0.043 C 
HETATM   13  C23 UNL     1      33.500 -29.646  -1.801  1.00  0.00     0.084 C 
HETATM   14  N3  UNL     1      33.665 -28.411  -2.471  1.00  0.00    -0.368 N 
ATOM     15  H3  UNL     1      33.261 -27.618  -1.973  1.00  0.00     0.161 HD
HETATM   16  C28 UNL     1      34.277 -28.060  -3.691  1.00  0.00     0.135 C 
ENDROOT
BRANCH  11  17
HETATM   17  C15 UNL     1      34.683 -32.117   0.388  1.00  0.00    -0.014 C 
HETATM   18  C16 UNL     1      33.487 -32.581   0.539  1.00  0.00     0.001 C 
BRANCH  18  19
HETATM   19  C17 UNL     1      33.154 -33.574   1.649  1.00  0.00     0.141 C 
BRANCH  19  20
HETATM   20  O3  UNL     1      33.805 -34.767   1.332  1.00  0.00    -0.392 OA
ATOM     21  H3  UNL     1      34.732 -34.621   1.479  1.00  0.00     0.210 HD
ENDBRANCH  19  20
BRANCH  19  22
HETATM   22  C18 UNL     1      31.680 -33.742   1.798  1.00  0.00     0.039 C 
BRANCH  22  23
HETATM   23  C19 UNL     1      31.434 -35.221   2.074  1.00  0.00    -0.020 C 
HETATM   24  C20 UNL     1      31.369 -35.498   3.550  1.00  0.00     0.009 C 
HETATM   25  C21 UNL     1      30.117 -35.570   1.379  1.00  0.00     0.009 C 
ENDBRANCH  22  23
ENDBRANCH  19  22
ENDBRANCH  18  19
ENDBRANCH  11  17
BRANCH  13  26
HETATM   26  C24 UNL     1      32.064 -29.880  -1.359  1.00  0.00     0.029 C 
BRANCH  26  27
HETATM   27  C25 UNL     1      31.683 -29.071  -0.159  1.00  0.00    -0.021 C 
HETATM   28  C26 UNL     1      30.801 -27.904  -0.542  1.00  0.00     0.009 C 
HETATM   29  C27 UNL     1      30.904 -29.911   0.830  1.00  0.00     0.009 C 
ENDBRANCH  26  27
ENDBRANCH  13  26
BRANCH   6  30
HETATM   30  C8  UNL     1      36.675 -31.195  -3.846  1.00  0.00     0.039 C 
BRANCH  30  31
HETATM   31  C9  UNL     1      36.907 -32.633  -4.236  1.00  0.00    -0.020 C 
HETATM   32  C10 UNL     1      36.764 -32.779  -5.715  1.00  0.00     0.009 C 
HETATM   33  C11 UNL     1      35.863 -33.493  -3.528  1.00  0.00     0.009 C 
ENDBRANCH  30  31
ENDBRANCH   6  30
BRANCH  16  34
HETATM   34  O4  UNL     1      33.514 -27.823  -4.724  1.00  0.00    -0.348 OA
ATOM     35  H4  UNL     1      32.939 -28.557  -4.905  1.00  0.00     0.219 HD
ENDBRANCH  16  34
BRANCH   1  36
HETATM   36  C3  UNL     1      35.995 -26.418  -4.285  1.00  0.00     0.012 C 
HETATM   37  C4  UNL     1      36.039 -25.739  -2.883  1.00  0.00     0.012 C 
BRANCH  36  38
HETATM   38  C2  UNL     1      37.258 -26.108  -4.986  1.00  0.00     0.002 C 
HETATM   39  C1  UNL     1      36.943 -25.385  -6.325  1.00  0.00     0.005 C 
ENDBRANCH  36  38
ENDBRANCH   1  36
TORSDOF 12
ENDMDL
MODEL 4
REMARK VINA RESULT: -6.765577956      2.588      7.747
REMARK  12 active torsions:
REMARK  status: ('A' for Active; 'I' for Inactive)
REMARK    1  A    between atoms: C2_2  and  C3_3 
REMARK    2  A    between atoms: C3_3  and  C5_5 
REMARK    3  A    between atoms: C7_10  and  C8_11 
REMARK    4  A    between atoms: C8_11  and  C9_12 
REMARK    5  A    between atoms: C14_19  and  C15_20 
REMARK    6  A    between atoms: C16_21  and  C17_22 
REMARK    7  A    between atoms: C17_22  and  O3_23 
REMARK    8  A    between atoms: C17_22  and  C18_25 
REMARK    9  A    between atoms: C18_25  and  C19_26 
REMARK   10  A    between atoms: C23_30  and  C24_31 
REMARK   11  A    between atoms: C24_31  and  C25_32 
REMARK   12  A    between atoms: C28_37  and  O4_38 
ROOT
HETATM    1  C5  UNL     1      32.870 -33.828   1.741  1.00  0.00     0.162 C 
HETATM    2  N1  UNL     1      33.340 -34.363   0.463  1.00  0.00    -0.347 N 
ATOM      3  H1  UNL     1      32.623 -34.403  -0.261  1.00  0.00     0.163 HD
HETATM    4  C6  UNL     1      34.577 -34.825   0.061  1.00  0.00     0.241 C 
HETATM    5  O1  UNL     1      34.658 -36.082  -0.204  1.00  0.00    -0.271 OA
HETATM    6  C7  UNL     1      35.861 -34.098  -0.125  1.00  0.00     0.179 C 
HETATM    7  N2  UNL     1      36.024 -33.698  -1.523  1.00  0.00    -0.342 N 
HETATM    8  C12 UNL     1      37.237 -34.222  -2.209  1.00  0.00     0.153 C 
HETATM    9  C13 UNL     1      35.168 -32.906  -2.288  1.00  0.00     0.228 C 
HETATM   10  O2  UNL     1      34.743 -33.375  -3.406  1.00  0.00    -0.273 OA
HETATM   11  C14 UNL     1      34.631 -31.529  -2.017  1.00  0.00     0.102 C 
HETATM   12  C22 UNL     1      33.158 -31.536  -1.749  1.00  0.00     0.043 C 
HETATM   13  C23 UNL     1      32.818 -30.938  -0.375  1.00  0.00     0.084 C 
HETATM   14  N3  UNL     1      31.991 -31.730   0.455  1.00  0.00    -0.368 N 
ATOM     15  H3  UNL     1      31.014 -31.748   0.162  1.00  0.00     0.161 HD
HETATM   16  C28 UNL     1      32.250 -32.500   1.606  1.00  0.00     0.135 C 
ENDROOT
BRANCH  11  17
HETATM   17  C15 UNL     1      35.007 -30.617  -3.097  1.00  0.00    -0.014 C 
HETATM   18  C16 UNL     1      35.982 -29.769  -3.084  1.00  0.00     0.001 C 
BRANCH  18  19
HETATM   19  C17 UNL     1      36.269 -28.871  -4.284  1.00  0.00     0.141 C 
BRANCH  19  20
HETATM   20  O3  UNL     1      36.742 -29.697  -5.303  1.00  0.00    -0.392 OA
ATOM     21  H3  UNL     1      37.662 -29.491  -5.419  1.00  0.00     0.210 HD
ENDBRANCH  19  20
BRANCH  19  22
HETATM   22  C18 UNL     1      37.226 -27.785  -3.928  1.00  0.00     0.039 C 
BRANCH  22  23
HETATM   23  C19 UNL     1      36.387 -26.588  -3.493  1.00  0.00    -0.020 C 
HETATM   24  C20 UNL     1      37.210 -25.331  -3.453  1.00  0.00     0.009 C 
HETATM   25  C21 UNL     1      35.246 -26.479  -4.506  1.00  0.00     0.009 C 
ENDBRANCH  22  23
ENDBRANCH  19  22
ENDBRANCH  18  19
ENDBRANCH  11  17
BRANCH  13  26
HETATM   26  C24 UNL     1      32.238 -29.554  -0.624  1.00  0.00     0.029 C 
BRANCH  26  27
HETATM   27  C25 UNL     1      33.130 -28.452  -0.147  1.00  0.00    -0.021 C 
HETATM   28  C26 UNL     1      34.391 -28.999   0.483  1.00  0.00     0.009 C 
HETATM   29  C27 UNL     1      33.557 -27.569  -1.300  1.00  0.00     0.009 C 
ENDBRANCH  26  27
ENDBRANCH  13  26
BRANCH   6  30
HETATM   30  C8  UNL     1      36.095 -33.026   0.873  1.00  0.00     0.039 C 
BRANCH  30  31
HETATM   31  C9  UNL     1      37.540 -32.714   1.170  1.00  0.00    -0.020 C 
HETATM   32  C10 UNL     1      37.997 -31.586   0.305  1.00  0.00     0.009 C 
HETATM   33  C11 UNL     1      38.369 -33.961   0.874  1.00  0.00     0.009 C 
ENDBRANCH  30  31
ENDBRANCH   6  30
BRANCH  16  34
HETATM   34  O4  UNL     1      31.912 -32.011   2.769  1.00  0.00    -0.348 OA
ATOM     35  H4  UNL     1      30.991 -31.778   2.792  1.00  0.00     0.219 HD
ENDBRANCH  16  34
BRANCH   1  36
HETATM   36  C3  UNL     1      31.798 -34.835   2.190  1.00  0.00     0.012 C 
HETATM   37  C4  UNL     1      31.248 -35.490   0.887  1.00  0.00     0.012 C 
BRANCH  36  38
HETATM   38  C2  UNL     1      32.247 -35.914   3.093  1.00  0.00     0.002 C 
HETATM   39  C1  UNL     1      31.206 -36.104   4.232  1.00  0.00     0.005 C 
ENDBRANCH  36  38
ENDBRANCH   1  36
TORSDOF 12
ENDMDL
MODEL 5
REMARK VINA RESULT: -6.668063697      2.424      7.577
REMARK  12 active torsions:
REMARK  status: ('A' for Active; 'I' for Inactive)
REMARK    1  A    between atoms: C2_2  and  C3_3 
REMARK    2  A    between atoms: C3_3  and  C5_5 
REMARK    3  A    between atoms: C7_10  and  C8_11 
REMARK    4  A    between atoms: C8_11  and  C9_12 
REMARK    5  A    between atoms: C14_19  and  C15_20 
REMARK    6  A    between atoms: C16_21  and  C17_22 
REMARK    7  A    between atoms: C17_22  and  O3_23 
REMARK    8  A    between atoms: C17_22  and  C18_25 
REMARK    9  A    between atoms: C18_25  and  C19_26 
REMARK   10  A    between atoms: C23_30  and  C24_31 
REMARK   11  A    between atoms: C24_31  and  C25_32 
REMARK   12  A    between atoms: C28_37  and  O4_38 
ROOT
HETATM    1  C5  UNL     1      33.268 -33.386   1.738  1.00  0.00     0.162 C 
HETATM    2  N1  UNL     1      33.533 -33.843   0.374  1.00  0.00    -0.347 N 
ATOM      3  H1  UNL     1      32.800 -33.609  -0.295  1.00  0.00     0.163 HD
HETATM    4  C6  UNL     1      34.597 -34.535  -0.171  1.00  0.00     0.241 C 
HETATM    5  O1  UNL     1      34.347 -35.727  -0.589  1.00  0.00    -0.271 OA
HETATM    6  C7  UNL     1      36.013 -34.126  -0.364  1.00  0.00     0.179 C 
HETATM    7  N2  UNL     1      36.213 -33.594  -1.712  1.00  0.00    -0.342 N 
HETATM    8  C12 UNL     1      37.225 -34.302  -2.543  1.00  0.00     0.153 C 
HETATM    9  C13 UNL     1      35.552 -32.522  -2.311  1.00  0.00     0.228 C 
HETATM   10  O2  UNL     1      34.976 -32.718  -3.443  1.00  0.00    -0.273 OA
HETATM   11  C14 UNL     1      35.392 -31.105  -1.839  1.00  0.00     0.102 C 
HETATM   12  C22 UNL     1      33.977 -30.787  -1.465  1.00  0.00     0.043 C 
HETATM   13  C23 UNL     1      33.857 -30.314  -0.009  1.00  0.00     0.084 C 
HETATM   14  N3  UNL     1      32.893 -30.984   0.780  1.00  0.00    -0.368 N 
ATOM     15  H3  UNL     1      31.931 -30.723   0.560  1.00  0.00     0.161 HD
HETATM   16  C28 UNL     1      32.998 -31.941   1.809  1.00  0.00     0.135 C 
ENDROOT
BRANCH  11  17
HETATM   17  C15 UNL     1      35.940 -30.176  -2.827  1.00  0.00    -0.014 C 
HETATM   18  C16 UNL     1      36.732 -29.182  -2.594  1.00  0.00     0.001 C 
BRANCH  18  19
HETATM   19  C17 UNL     1      37.234 -28.285  -3.722  1.00  0.00     0.141 C 
BRANCH  19  20
HETATM   20  O3  UNL     1      38.097 -29.057  -4.499  1.00  0.00    -0.392 OA
ATOM     21  H3  UNL     1      38.491 -28.473  -5.135  1.00  0.00     0.210 HD
ENDBRANCH  19  20
BRANCH  19  22
HETATM   22  C18 UNL     1      37.883 -27.056  -3.184  1.00  0.00     0.039 C 
BRANCH  22  23
HETATM   23  C19 UNL     1      36.865 -25.928  -3.318  1.00  0.00    -0.020 C 
HETATM   24  C20 UNL     1      37.526 -24.582  -3.235  1.00  0.00     0.009 C 
HETATM   25  C21 UNL     1      36.178 -26.134  -4.669  1.00  0.00     0.009 C 
ENDBRANCH  22  23
ENDBRANCH  19  22
ENDBRANCH  18  19
ENDBRANCH  11  17
BRANCH  13  26
HETATM   26  C24 UNL     1      33.634 -28.810  -0.047  1.00  0.00     0.029 C 
BRANCH  26  27
HETATM   27  C25 UNL     1      32.892 -28.359  -1.266  1.00  0.00    -0.021 C 
HETATM   28  C26 UNL     1      31.469 -27.974  -0.931  1.00  0.00     0.009 C 
HETATM   29  C27 UNL     1      33.550 -27.140  -1.874  1.00  0.00     0.009 C 
ENDBRANCH  26  27
ENDBRANCH  13  26
BRANCH   6  30
HETATM   30  C8  UNL     1      36.552 -33.288   0.735  1.00  0.00     0.039 C 
BRANCH  30  31
HETATM   31  C9  UNL     1      37.981 -32.834   0.572  1.00  0.00    -0.020 C 
HETATM   32  C10 UNL     1      38.782 -33.272   1.753  1.00  0.00     0.009 C 
HETATM   33  C11 UNL     1      37.990 -31.311   0.476  1.00  0.00     0.009 C 
ENDBRANCH  30  31
ENDBRANCH   6  30
BRANCH  16  34
HETATM   34  O4  UNL     1      32.842 -31.545   3.043  1.00  0.00    -0.348 OA
ATOM     35  H4  UNL     1      32.269 -30.789   3.096  1.00  0.00     0.219 HD
ENDBRANCH  16  34
BRANCH   1  36
HETATM   36  C3  UNL     1      31.997 -34.151   2.141  1.00  0.00     0.012 C 
HETATM   37  C4  UNL     1      30.878 -33.675   1.167  1.00  0.00     0.012 C 
BRANCH  36  38
HETATM   38  C2  UNL     1      32.068 -35.625   2.076  1.00  0.00     0.002 C 
HETATM   39  C1  UNL     1      30.660 -36.199   1.752  1.00  0.00     0.005 C 
ENDBRANCH  36  38
ENDBRANCH   1  36
TORSDOF 12
ENDMDL
