MODEL 1
REMARK VINA RESULT: -6.831140255      0.000      0.000
REMARK  6 active torsions:
REMARK  status: ('A' for Active; 'I' for Inactive)
REMARK    1  A    between atoms: O1_2  and  C2_3 
REMARK    2  A    between atoms: C2_3  and  N1_4 
REMARK    3  A    between atoms: C2_3  and  C3_8 
REMARK    4  A    between atoms: C3_8  and  C4_9 
REMARK    5  A    between atoms: C5_12  and  N3_13 
REMARK    6  A    between atoms: C10_22  and  N5_23 
ROOT
HETATM    1  C4  UNL     1       3.441  14.502  24.052  1.00  0.00     0.039 A 
HETATM    2  N2  UNL     1       3.585  14.275  22.706  1.00  0.00    -0.195 N 
ATOM      3  H2  UNL     1       4.031  14.989  22.131  1.00  0.00     0.184 HD
HETATM    4  C5  UNL     1       3.157  13.145  22.121  1.00  0.00     0.676 A 
HETATM    5  N4  UNL     1       2.563  12.186  22.855  1.00  0.00    -0.190 N 
ATOM      6  H4  UNL     1       2.243  11.332  22.399  1.00  0.00     0.184 HD
HETATM    7  C6  UNL     1       2.385  12.333  24.174  1.00  0.00     0.079 A 
HETATM    8  C7  UNL     1       2.834  13.518  24.778  1.00  0.00    -0.005 A 
HETATM    9  C8  UNL     1       2.447  13.436  26.206  1.00  0.00     0.049 C 
HETATM   10  C9  UNL     1       2.213  11.957  26.492  1.00  0.00     0.063 C 
HETATM   11  C10 UNL     1       1.783  11.464  25.181  1.00  0.00     0.031 C 
ENDROOT
BRANCH   1  12
HETATM   12  C3  UNL     1       3.999  15.744  24.616  1.00  0.00     0.119 C 
BRANCH  12  13
HETATM   13  C2  UNL     1       2.972  16.736  25.007  1.00  0.00     0.323 C 
BRANCH  13  14
HETATM   14  O1  UNL     1       2.896  17.824  24.208  1.00  0.00    -0.364 OA
HETATM   15  C1  UNL     1       2.257  18.867  24.850  1.00  0.00     0.204 C 
ENDBRANCH  13  14
BRANCH  13  16
HETATM   16  N1  UNL     1       3.158  17.094  26.412  1.00  0.00    -0.053 N 
ATOM     17  H13 UNL     1       4.030  17.604  26.551  1.00  0.00     0.277 HD
ATOM     18  H12 UNL     1       2.500  17.819  26.698  1.00  0.00     0.277 HD
ATOM     19  H11 UNL     1       3.103  16.283  27.028  1.00  0.00     0.277 HD
ENDBRANCH  13  16
ENDBRANCH  12  13
ENDBRANCH   1  12
BRANCH   4  20
HETATM   20  N3  UNL     1       3.297  12.942  20.852  1.00  0.00    -0.234 N 
ATOM     21  H32 UNL     1       4.088  12.378  20.541  1.00  0.00     0.174 HD
ATOM     22  H31 UNL     1       2.643  13.328  20.171  1.00  0.00     0.174 HD
ENDBRANCH   4  20
BRANCH  11  23
HETATM   23  N5  UNL     1       1.014  10.453  24.881  1.00  0.00    -0.401 N 
ATOM     24  H52 UNL     1       0.317  10.361  24.142  1.00  0.00     0.156 HD
ATOM     25  H51 UNL     1       1.029   9.572  25.394  1.00  0.00     0.156 HD
ENDBRANCH  11  23
TORSDOF 6
ENDMDL
MODEL 2
REMARK VINA RESULT: -6.788459047      1.373      1.966
REMARK  6 active torsions:
REMARK  status: ('A' for Active; 'I' for Inactive)
REMARK    1  A    between atoms: O1_2  and  C2_3 
REMARK    2  A    between atoms: C2_3  and  N1_4 
REMARK    3  A    between atoms: C2_3  and  C3_8 
REMARK    4  A    between atoms: C3_8  and  C4_9 
REMARK    5  A    between atoms: C5_12  and  N3_13 
REMARK    6  A    between atoms: C10_22  and  N5_23 
ROOT
HETATM    1  C4  UNL     1       3.421  15.674  25.262  1.00  0.00     0.039 A 
HETATM    2  N2  UNL     1       4.047  16.201  24.161  1.00  0.00    -0.195 N 
ATOM      3  H2  UNL     1       4.316  17.184  24.170  1.00  0.00     0.184 HD
HETATM    4  C5  UNL     1       4.318  15.466  23.071  1.00  0.00     0.676 A 
HETATM    5  N4  UNL     1       3.974  14.165  23.030  1.00  0.00    -0.190 N 
ATOM      6  H4  UNL     1       4.186  13.617  22.196  1.00  0.00     0.184 HD
HETATM    7  C6  UNL     1       3.358  13.577  24.064  1.00  0.00     0.079 A 
HETATM    8  C7  UNL     1       3.077  14.354  25.200  1.00  0.00    -0.005 A 
HETATM    9  C8  UNL     1       2.342  13.476  26.139  1.00  0.00     0.049 C 
HETATM   10  C9  UNL     1       2.656  12.047  25.709  1.00  0.00     0.063 C 
HETATM   11  C10 UNL     1       2.888  12.212  24.272  1.00  0.00     0.031 C 
ENDROOT
BRANCH   1  12
HETATM   12  C3  UNL     1       3.222  16.542  26.437  1.00  0.00     0.119 C 
BRANCH  12  13
HETATM   13  C2  UNL     1       2.285  17.663  26.199  1.00  0.00     0.323 C 
BRANCH  13  14
HETATM   14  O1  UNL     1       2.508  18.360  25.063  1.00  0.00    -0.364 OA
HETATM   15  C1  UNL     1       1.996  19.640  25.160  1.00  0.00     0.204 C 
ENDBRANCH  13  14
BRANCH  13  16
HETATM   16  N1  UNL     1       2.256  18.525  27.381  1.00  0.00    -0.053 N 
ATOM     17  H13 UNL     1       2.344  17.979  28.238  1.00  0.00     0.277 HD
ATOM     18  H12 UNL     1       3.108  19.080  27.453  1.00  0.00     0.277 HD
ATOM     19  H11 UNL     1       1.426  19.118  27.405  1.00  0.00     0.277 HD
ENDBRANCH  13  16
ENDBRANCH  12  13
ENDBRANCH   1  12
BRANCH   4  20
HETATM   20  N3  UNL     1       4.909  15.972  22.039  1.00  0.00    -0.234 N 
ATOM     21  H32 UNL     1       4.720  15.558  21.126  1.00  0.00     0.174 HD
ATOM     22  H31 UNL     1       5.548  16.764  22.121  1.00  0.00     0.174 HD
ENDBRANCH   4  20
BRANCH  11  23
HETATM   23  N5  UNL     1       2.730  11.357  23.298  1.00  0.00    -0.401 N 
ATOM     24  H52 UNL     1       2.648  11.520  22.294  1.00  0.00     0.156 HD
ATOM     25  H51 UNL     1       2.666  10.350  23.447  1.00  0.00     0.156 HD
ENDBRANCH  11  23
TORSDOF 6
ENDMDL
MODEL 3
REMARK VINA RESULT: -6.364073989      1.362      1.362
REMARK  6 active torsions:
REMARK  status: ('A' for Active; 'I' for Inactive)
REMARK    1  A    between atoms: O1_2  and  C2_3 
REMARK    2  A    between atoms: C2_3  and  N1_4 
REMARK    3  A    between atoms: C2_3  and  C3_8 
REMARK    4  A    between atoms: C3_8  and  C4_9 
REMARK    5  A    between atoms: C5_12  and  N3_13 
REMARK    6  A    between atoms: C10_22  and  N5_23 
ROOT
HETATM    1  C4  UNL     1       3.413  14.109  23.888  1.00  0.00     0.039 A 
HETATM    2  N2  UNL     1       3.506  13.860  22.542  1.00  0.00    -0.195 N 
ATOM      3  H2  UNL     1       3.985  14.536  21.948  1.00  0.00     0.184 HD
HETATM    4  C5  UNL     1       2.986  12.757  21.980  1.00  0.00     0.676 A 
HETATM    5  N4  UNL     1       2.346  11.848  22.739  1.00  0.00    -0.190 N 
ATOM      6  H4  UNL     1       1.957  11.014  22.300  1.00  0.00     0.184 HD
HETATM    7  C6  UNL     1       2.212  12.019  24.061  1.00  0.00     0.079 A 
HETATM    8  C7  UNL     1       2.757  13.177  24.640  1.00  0.00    -0.005 A 
HETATM    9  C8  UNL     1       2.402  13.135  26.077  1.00  0.00     0.049 C 
HETATM   10  C9  UNL     1       2.074  11.678  26.386  1.00  0.00     0.063 C 
HETATM   11  C10 UNL     1       1.578  11.204  25.091  1.00  0.00     0.031 C 
ENDROOT
BRANCH   1  12
HETATM   12  C3  UNL     1       4.069  15.315  24.425  1.00  0.00     0.119 C 
BRANCH  12  13
HETATM   13  C2  UNL     1       3.998  16.485  23.520  1.00  0.00     0.323 C 
BRANCH  13  14
HETATM   14  O1  UNL     1       2.750  16.837  23.140  1.00  0.00    -0.364 OA
HETATM   15  C1  UNL     1       2.457  18.127  23.538  1.00  0.00     0.204 C 
ENDBRANCH  13  14
BRANCH  13  16
HETATM   16  N1  UNL     1       4.883  16.264  22.377  1.00  0.00    -0.053 N 
ATOM     17  H13 UNL     1       5.546  15.511  22.564  1.00  0.00     0.277 HD
ATOM     18  H12 UNL     1       4.379  15.846  21.596  1.00  0.00     0.277 HD
ATOM     19  H11 UNL     1       5.365  17.117  22.092  1.00  0.00     0.277 HD
ENDBRANCH  13  16
ENDBRANCH  12  13
ENDBRANCH   1  12
BRANCH   4  20
HETATM   20  N3  UNL     1       3.080  12.532  20.710  1.00  0.00    -0.234 N 
ATOM     21  H32 UNL     1       3.862  11.968  20.379  1.00  0.00     0.174 HD
ATOM     22  H31 UNL     1       2.398  12.903  20.048  1.00  0.00     0.174 HD
ENDBRANCH   4  20
BRANCH  11  23
HETATM   23  N5  UNL     1       0.734  10.246  24.822  1.00  0.00    -0.401 N 
ATOM     24  H52 UNL     1       0.326   9.543  25.439  1.00  0.00     0.156 HD
ATOM     25  H51 UNL     1       0.359  10.082  23.888  1.00  0.00     0.156 HD
ENDBRANCH  11  23
TORSDOF 6
ENDMDL
MODEL 4
REMARK VINA RESULT: -6.352727034      2.094      6.488
REMARK  6 active torsions:
REMARK  status: ('A' for Active; 'I' for Inactive)
REMARK    1  A    between atoms: O1_2  and  C2_3 
REMARK    2  A    between atoms: C2_3  and  N1_4 
REMARK    3  A    between atoms: C2_3  and  C3_8 
REMARK    4  A    between atoms: C3_8  and  C4_9 
REMARK    5  A    between atoms: C5_12  and  N3_13 
REMARK    6  A    between atoms: C10_22  and  N5_23 
ROOT
HETATM    1  C4  UNL     1       2.960  17.216  24.576  1.00  0.00     0.039 A 
HETATM    2  N2  UNL     1       3.184  16.863  25.883  1.00  0.00    -0.195 N 
ATOM      3  H2  UNL     1       3.643  15.974  26.081  1.00  0.00     0.184 HD
HETATM    4  C5  UNL     1       2.818  17.647  26.909  1.00  0.00     0.676 A 
HETATM    5  N4  UNL     1       2.209  18.825  26.678  1.00  0.00    -0.190 N 
ATOM      6  H4  UNL     1       1.937  19.412  27.466  1.00  0.00     0.184 HD
HETATM    7  C6  UNL     1       1.954  19.240  25.430  1.00  0.00     0.079 A 
HETATM    8  C7  UNL     1       2.339  18.413  24.362  1.00  0.00    -0.005 A 
HETATM    9  C8  UNL     1       1.875  19.081  23.124  1.00  0.00     0.049 C 
HETATM   10  C9  UNL     1       1.663  20.546  23.493  1.00  0.00     0.063 C 
HETATM   11  C10 UNL     1       1.320  20.449  24.914  1.00  0.00     0.031 C 
ENDROOT
BRANCH   1  12
HETATM   12  C3  UNL     1       3.454  16.321  23.514  1.00  0.00     0.119 C 
BRANCH  12  13
HETATM   13  C2  UNL     1       3.145  14.892  23.747  1.00  0.00     0.323 C 
BRANCH  13  14
HETATM   14  O1  UNL     1       3.905  14.291  24.689  1.00  0.00    -0.364 OA
HETATM   15  C1  UNL     1       3.239  13.219  25.252  1.00  0.00     0.204 C 
ENDBRANCH  13  14
BRANCH  13  16
HETATM   16  N1  UNL     1       3.179  14.178  22.471  1.00  0.00    -0.053 N 
ATOM     17  H13 UNL     1       4.119  13.842  22.260  1.00  0.00     0.277 HD
ATOM     18  H12 UNL     1       2.698  13.282  22.537  1.00  0.00     0.277 HD
ATOM     19  H11 UNL     1       2.809  14.740  21.704  1.00  0.00     0.277 HD
ENDBRANCH  13  16
ENDBRANCH  12  13
ENDBRANCH   1  12
BRANCH   4  20
HETATM   20  N3  UNL     1       3.034  17.304  28.137  1.00  0.00    -0.234 N 
ATOM     21  H32 UNL     1       3.353  16.352  28.321  1.00  0.00     0.174 HD
ATOM     22  H31 UNL     1       2.894  17.956  28.909  1.00  0.00     0.174 HD
ENDBRANCH   4  20
BRANCH  11  23
HETATM   23  N5  UNL     1       0.595  21.243  25.653  1.00  0.00    -0.401 N 
ATOM     24  H52 UNL     1       0.139  21.065  26.549  1.00  0.00     0.156 HD
ATOM     25  H51 UNL     1       0.389  22.208  25.395  1.00  0.00     0.156 HD
ENDBRANCH  11  23
TORSDOF 6
ENDMDL
MODEL 5
REMARK VINA RESULT: -6.110387913      2.261      5.049
REMARK  6 active torsions:
REMARK  status: ('A' for Active; 'I' for Inactive)
REMARK    1  A    between atoms: O1_2  and  C2_3 
REMARK    2  A    between atoms: C2_3  and  N1_4 
REMARK    3  A    between atoms: C2_3  and  C3_8 
REMARK    4  A    between atoms: C3_8  and  C4_9 
REMARK    5  A    between atoms: C5_12  and  N3_13 
REMARK    6  A    between atoms: C10_22  and  N5_23 
ROOT
HETATM    1  C4  UNL     1       3.322  14.746  25.226  1.00  0.00     0.039 A 
HETATM    2  N2  UNL     1       3.894  14.720  23.979  1.00  0.00    -0.195 N 
ATOM      3  H2  UNL     1       4.210  13.828  23.600  1.00  0.00     0.184 HD
HETATM    4  C5  UNL     1       4.055  15.831  23.242  1.00  0.00     0.676 A 
HETATM    5  N4  UNL     1       3.649  17.023  23.717  1.00  0.00    -0.190 N 
ATOM      6  H4  UNL     1       3.776  17.859  23.147  1.00  0.00     0.184 HD
HETATM    7  C6  UNL     1       3.082  17.131  24.926  1.00  0.00     0.079 A 
HETATM    8  C7  UNL     1       2.920  15.965  25.691  1.00  0.00    -0.005 A 
HETATM    9  C8  UNL     1       2.342  16.389  26.987  1.00  0.00     0.049 C 
HETATM   10  C9  UNL     1       1.720  17.759  26.740  1.00  0.00     0.063 C 
HETATM   11  C10 UNL     1       2.565  18.280  25.662  1.00  0.00     0.031 C 
ENDROOT
BRANCH   1  12
HETATM   12  C3  UNL     1       3.129  13.468  25.935  1.00  0.00     0.119 C 
BRANCH  12  13
HETATM   13  C2  UNL     1       2.962  12.305  25.034  1.00  0.00     0.323 C 
BRANCH  13  14
HETATM   14  O1  UNL     1       2.158  12.520  23.969  1.00  0.00    -0.364 OA
HETATM   15  C1  UNL     1       1.722  11.325  23.428  1.00  0.00     0.204 C 
ENDBRANCH  13  14
BRANCH  13  16
HETATM   16  N1  UNL     1       2.541  11.145  25.819  1.00  0.00    -0.053 N 
ATOM     17  H13 UNL     1       1.784  11.386  26.458  1.00  0.00     0.277 HD
ATOM     18  H12 UNL     1       2.052  10.464  25.238  1.00  0.00     0.277 HD
ATOM     19  H11 UNL     1       3.320  10.713  26.317  1.00  0.00     0.277 HD
ENDBRANCH  13  16
ENDBRANCH  12  13
ENDBRANCH   1  12
BRANCH   4  20
HETATM   20  N3  UNL     1       4.596  15.795  22.068  1.00  0.00    -0.234 N 
ATOM     21  H32 UNL     1       5.163  14.983  21.826  1.00  0.00     0.174 HD
ATOM     22  H31 UNL     1       4.467  16.550  21.395  1.00  0.00     0.174 HD
ENDBRANCH   4  20
BRANCH  11  23
HETATM   23  N5  UNL     1       2.852  19.514  25.349  1.00  0.00    -0.401 N 
ATOM     24  H52 UNL     1       2.315  20.191  24.806  1.00  0.00     0.156 HD
ATOM     25  H51 UNL     1       3.715  19.974  25.638  1.00  0.00     0.156 HD
ENDBRANCH  11  23
TORSDOF 6
ENDMDL
