MODEL 1
REMARK VINA RESULT: -6.507315115      0.000      0.000
REMARK  11 active torsions:
REMARK  status: ('A' for Active; 'I' for Inactive)
REMARK    1  A    between atoms: C2_2  and  C9_11 
REMARK    2  A    between atoms: C3_3  and  C4_4 
REMARK    3  A    between atoms: C5_5  and  C6_6 
REMARK    4  A    between atoms: C6_6  and  O1_9 
REMARK    5  A    between atoms: C9_11  and  C10_12 
REMARK    6  A    between atoms: C10_12  and  S1_13 
REMARK    7  A    between atoms: S1_13  and  C11_14 
REMARK    8  A    between atoms: C11_14  and  N1_16 
REMARK    9  A    between atoms: N2_19  and  C14_20 
REMARK   10  A    between atoms: C14_20  and  C15_21 
REMARK   11  A    between atoms: C15_21  and  C16_22 
ROOT
HETATM    1  S1  UNL     1     -12.460  46.621   0.851  1.00  0.00    -0.100 SA
ENDROOT
BRANCH   1   2
HETATM    2  C10 UNL     1     -12.661  45.510  -0.548  1.00  0.00     0.086 C 
BRANCH   2   3
HETATM    3  C9  UNL     1     -14.052  45.693  -1.125  1.00  0.00     0.044 C 
BRANCH   3   4
HETATM    4  C2  UNL     1     -14.117  44.941  -2.377  1.00  0.00    -0.083 C 
HETATM    5  C1  UNL     1     -12.866  44.157  -2.715  1.00  0.00     0.043 C 
HETATM    6  C3  UNL     1     -15.150  44.909  -3.158  1.00  0.00     0.002 C 
BRANCH   6   7
HETATM    7  C4  UNL     1     -16.371  45.614  -2.926  1.00  0.00    -0.001 C 
HETATM    8  C5  UNL     1     -17.265  45.920  -3.856  1.00  0.00     0.010 C 
BRANCH   8   9
HETATM    9  C6  UNL     1     -17.110  45.565  -5.265  1.00  0.00     0.068 C 
HETATM   10  C7  UNL     1     -16.300  44.277  -5.370  1.00  0.00     0.050 C 
HETATM   11  C8  UNL     1     -16.314  46.642  -6.001  1.00  0.00     0.050 C 
BRANCH   9  12
HETATM   12  O1  UNL     1     -18.333  45.461  -5.905  1.00  0.00    -0.387 OA
ATOM     13  H1  UNL     1     -18.589  46.281  -6.311  1.00  0.00     0.211 HD
ENDBRANCH   9  12
ENDBRANCH   8   9
ENDBRANCH   6   7
ENDBRANCH   3   4
ENDBRANCH   2   3
ENDBRANCH   1   2
BRANCH   1  14
HETATM   14  C11 UNL     1     -10.820  46.464   1.508  1.00  0.00     0.136 C 
HETATM   15  S2  UNL     1     -10.313  47.494   2.692  1.00  0.00    -0.053 SA
BRANCH  14  16
HETATM   16  N1  UNL     1      -9.912  45.470   1.086  1.00  0.00    -0.363 N 
HETATM   17  C12 UNL     1      -8.929  45.761   0.087  1.00  0.00     0.154 C 
HETATM   18  C13 UNL     1      -8.986  44.667  -0.957  1.00  0.00     0.292 C 
HETATM   19  N2  UNL     1      -8.710  43.408  -0.307  1.00  0.00     0.092 N 
HETATM   20  C17 UNL     1      -9.728  43.076   0.620  1.00  0.00     0.292 C 
HETATM   21  C18 UNL     1      -9.965  44.154   1.661  1.00  0.00     0.154 C 
BRANCH  19  22
HETATM   22  C14 UNL     1      -7.363  43.238   0.082  1.00  0.00     0.283 C 
BRANCH  22  23
HETATM   23  C15 UNL     1      -7.211  42.248   1.188  1.00  0.00     0.143 C 
BRANCH  23  24
HETATM   24  C16 UNL     1      -6.351  42.902   2.236  1.00  0.00     0.174 C 
HETATM   25  O2  UNL     1      -5.200  43.304   1.992  1.00  0.00    -0.648 OA
HETATM   26  O3  UNL     1      -6.869  43.055   3.508  1.00  0.00    -0.648 OA
ENDBRANCH  23  24
ENDBRANCH  22  23
ENDBRANCH  19  22
ENDBRANCH  14  16
ENDBRANCH   1  14
TORSDOF 11
ENDMDL
MODEL 2
REMARK VINA RESULT: -6.492518003      3.744      5.790
REMARK  11 active torsions:
REMARK  status: ('A' for Active; 'I' for Inactive)
REMARK    1  A    between atoms: C2_2  and  C9_11 
REMARK    2  A    between atoms: C3_3  and  C4_4 
REMARK    3  A    between atoms: C5_5  and  C6_6 
REMARK    4  A    between atoms: C6_6  and  O1_9 
REMARK    5  A    between atoms: C9_11  and  C10_12 
REMARK    6  A    between atoms: C10_12  and  S1_13 
REMARK    7  A    between atoms: S1_13  and  C11_14 
REMARK    8  A    between atoms: C11_14  and  N1_16 
REMARK    9  A    between atoms: N2_19  and  C14_20 
REMARK   10  A    between atoms: C14_20  and  C15_21 
REMARK   11  A    between atoms: C15_21  and  C16_22 
ROOT
HETATM    1  S1  UNL     1      -7.446  43.151   2.180  1.00  0.00    -0.100 SA
ENDROOT
BRANCH   1   2
HETATM    2  C10 UNL     1      -7.641  42.613   0.475  1.00  0.00     0.086 C 
BRANCH   2   3
HETATM    3  C9  UNL     1      -9.086  42.814   0.060  1.00  0.00     0.044 C 
BRANCH   3   4
HETATM    4  C2  UNL     1      -9.091  43.631  -1.151  1.00  0.00    -0.083 C 
HETATM    5  C1  UNL     1      -7.908  44.565  -1.295  1.00  0.00     0.043 C 
HETATM    6  C3  UNL     1     -10.010  43.581  -2.064  1.00  0.00     0.002 C 
BRANCH   6   7
HETATM    7  C4  UNL     1     -11.162  42.736  -2.016  1.00  0.00    -0.001 C 
HETATM    8  C5  UNL     1     -12.415  43.144  -2.165  1.00  0.00     0.010 C 
BRANCH   8   9
HETATM    9  C6  UNL     1     -12.782  44.539  -2.401  1.00  0.00     0.068 C 
HETATM   10  C7  UNL     1     -12.642  45.319  -1.098  1.00  0.00     0.050 C 
HETATM   11  C8  UNL     1     -14.249  44.641  -2.815  1.00  0.00     0.050 C 
BRANCH   9  12
HETATM   12  O1  UNL     1     -12.036  45.100  -3.423  1.00  0.00    -0.387 OA
ATOM     13  H1  UNL     1     -12.333  44.809  -4.277  1.00  0.00     0.211 HD
ENDBRANCH   9  12
ENDBRANCH   8   9
ENDBRANCH   6   7
ENDBRANCH   3   4
ENDBRANCH   2   3
ENDBRANCH   1   2
BRANCH   1  14
HETATM   14  C11 UNL     1      -6.382  44.569   2.241  1.00  0.00     0.136 C 
HETATM   15  S2  UNL     1      -4.772  44.369   2.541  1.00  0.00    -0.053 SA
BRANCH  14  16
HETATM   16  N1  UNL     1      -6.837  45.886   2.017  1.00  0.00    -0.363 N 
HETATM   17  C12 UNL     1      -5.926  46.989   2.074  1.00  0.00     0.154 C 
HETATM   18  C13 UNL     1      -6.535  48.050   2.964  1.00  0.00     0.292 C 
HETATM   19  N2  UNL     1      -7.799  48.448   2.393  1.00  0.00     0.092 N 
HETATM   20  C17 UNL     1      -8.730  47.382   2.416  1.00  0.00     0.292 C 
HETATM   21  C18 UNL     1      -8.223  46.130   1.727  1.00  0.00     0.154 C 
BRANCH  19  22
HETATM   22  C14 UNL     1      -7.687  49.220   1.215  1.00  0.00     0.283 C 
BRANCH  22  23
HETATM   23  C15 UNL     1      -8.988  49.351   0.495  1.00  0.00     0.143 C 
BRANCH  23  24
HETATM   24  C16 UNL     1      -8.717  49.016  -0.947  1.00  0.00     0.174 C 
HETATM   25  O2  UNL     1      -9.446  49.423  -1.869  1.00  0.00    -0.648 OA
HETATM   26  O3  UNL     1      -7.620  48.230  -1.244  1.00  0.00    -0.648 OA
ENDBRANCH  23  24
ENDBRANCH  22  23
ENDBRANCH  19  22
ENDBRANCH  14  16
ENDBRANCH   1  14
TORSDOF 11
ENDMDL
MODEL 3
REMARK VINA RESULT: -6.462532901      3.703      5.471
REMARK  11 active torsions:
REMARK  status: ('A' for Active; 'I' for Inactive)
REMARK    1  A    between atoms: C2_2  and  C9_11 
REMARK    2  A    between atoms: C3_3  and  C4_4 
REMARK    3  A    between atoms: C5_5  and  C6_6 
REMARK    4  A    between atoms: C6_6  and  O1_9 
REMARK    5  A    between atoms: C9_11  and  C10_12 
REMARK    6  A    between atoms: C10_12  and  S1_13 
REMARK    7  A    between atoms: S1_13  and  C11_14 
REMARK    8  A    between atoms: C11_14  and  N1_16 
REMARK    9  A    between atoms: N2_19  and  C14_20 
REMARK   10  A    between atoms: C14_20  and  C15_21 
REMARK   11  A    between atoms: C15_21  and  C16_22 
ROOT
HETATM    1  S1  UNL     1     -10.618  44.819   1.684  1.00  0.00    -0.100 SA
ENDROOT
BRANCH   1   2
HETATM    2  C10 UNL     1      -9.179  43.803   1.321  1.00  0.00     0.086 C 
BRANCH   2   3
HETATM    3  C9  UNL     1      -9.544  42.804   0.240  1.00  0.00     0.044 C 
BRANCH   3   4
HETATM    4  C2  UNL     1      -9.380  43.469  -1.052  1.00  0.00    -0.083 C 
HETATM    5  C1  UNL     1      -8.107  44.277  -1.196  1.00  0.00     0.043 C 
HETATM    6  C3  UNL     1     -10.227  43.387  -2.029  1.00  0.00     0.002 C 
BRANCH   6   7
HETATM    7  C4  UNL     1     -11.452  42.653  -1.988  1.00  0.00    -0.001 C 
HETATM    8  C5  UNL     1     -12.653  43.157  -2.238  1.00  0.00     0.010 C 
BRANCH   8   9
HETATM    9  C6  UNL     1     -12.877  44.556  -2.596  1.00  0.00     0.068 C 
HETATM   10  C7  UNL     1     -12.776  45.415  -1.340  1.00  0.00     0.050 C 
HETATM   11  C8  UNL     1     -14.292  44.747  -3.141  1.00  0.00     0.050 C 
BRANCH   9  12
HETATM   12  O1  UNL     1     -12.005  44.979  -3.585  1.00  0.00    -0.387 OA
ATOM     13  H1  UNL     1     -12.226  45.847  -3.901  1.00  0.00     0.211 HD
ENDBRANCH   9  12
ENDBRANCH   8   9
ENDBRANCH   6   7
ENDBRANCH   3   4
ENDBRANCH   2   3
ENDBRANCH   1   2
BRANCH   1  14
HETATM   14  C11 UNL     1     -10.149  46.529   1.713  1.00  0.00     0.136 C 
HETATM   15  S2  UNL     1     -10.910  47.567   2.745  1.00  0.00    -0.053 SA
BRANCH  14  16
HETATM   16  N1  UNL     1      -9.121  47.062   0.905  1.00  0.00    -0.363 N 
HETATM   17  C12 UNL     1      -7.783  47.157   1.403  1.00  0.00     0.154 C 
HETATM   18  C13 UNL     1      -7.285  48.560   1.134  1.00  0.00     0.292 C 
HETATM   19  N2  UNL     1      -7.328  48.790  -0.290  1.00  0.00     0.092 N 
HETATM   20  C17 UNL     1      -8.661  48.783  -0.769  1.00  0.00     0.292 C 
HETATM   21  C18 UNL     1      -9.413  47.511  -0.428  1.00  0.00     0.154 C 
BRANCH  19  22
HETATM   22  C14 UNL     1      -6.345  48.090  -1.022  1.00  0.00     0.283 C 
BRANCH  22  23
HETATM   23  C15 UNL     1      -5.044  48.819  -1.071  1.00  0.00     0.143 C 
BRANCH  23  24
HETATM   24  C16 UNL     1      -5.262  50.031  -1.937  1.00  0.00     0.174 C 
HETATM   25  O2  UNL     1      -6.056  50.027  -2.894  1.00  0.00    -0.648 OA
HETATM   26  O3  UNL     1      -4.551  51.181  -1.648  1.00  0.00    -0.648 OA
ENDBRANCH  23  24
ENDBRANCH  22  23
ENDBRANCH  19  22
ENDBRANCH  14  16
ENDBRANCH   1  14
TORSDOF 11
ENDMDL
MODEL 4
REMARK VINA RESULT: -6.387413025      4.133      6.813
REMARK  11 active torsions:
REMARK  status: ('A' for Active; 'I' for Inactive)
REMARK    1  A    between atoms: C2_2  and  C9_11 
REMARK    2  A    between atoms: C3_3  and  C4_4 
REMARK    3  A    between atoms: C5_5  and  C6_6 
REMARK    4  A    between atoms: C6_6  and  O1_9 
REMARK    5  A    between atoms: C9_11  and  C10_12 
REMARK    6  A    between atoms: C10_12  and  S1_13 
REMARK    7  A    between atoms: S1_13  and  C11_14 
REMARK    8  A    between atoms: C11_14  and  N1_16 
REMARK    9  A    between atoms: N2_19  and  C14_20 
REMARK   10  A    between atoms: C14_20  and  C15_21 
REMARK   11  A    between atoms: C15_21  and  C16_22 
ROOT
HETATM    1  S1  UNL     1     -11.372  45.903   1.221  1.00  0.00    -0.100 SA
ENDROOT
BRANCH   1   2
HETATM    2  C10 UNL     1     -12.133  45.315  -0.298  1.00  0.00     0.086 C 
BRANCH   2   3
HETATM    3  C9  UNL     1     -11.074  45.244  -1.382  1.00  0.00     0.044 C 
BRANCH   3   4
HETATM    4  C2  UNL     1     -10.872  43.834  -1.712  1.00  0.00    -0.083 C 
HETATM    5  C1  UNL     1     -12.139  43.060  -2.010  1.00  0.00     0.043 C 
HETATM    6  C3  UNL     1      -9.713  43.256  -1.771  1.00  0.00     0.002 C 
BRANCH   6   7
HETATM    7  C4  UNL     1      -8.465  43.900  -1.506  1.00  0.00    -0.001 C 
HETATM    8  C5  UNL     1      -7.749  43.751  -0.400  1.00  0.00     0.010 C 
BRANCH   8   9
HETATM    9  C6  UNL     1      -8.154  42.890   0.708  1.00  0.00     0.068 C 
HETATM   10  C7  UNL     1      -7.406  43.312   1.969  1.00  0.00     0.050 C 
HETATM   11  C8  UNL     1      -7.755  41.441   0.432  1.00  0.00     0.050 C 
BRANCH   9  12
HETATM   12  O1  UNL     1      -9.526  42.901   0.892  1.00  0.00    -0.387 OA
ATOM     13  H1  UNL     1      -9.793  43.572   1.508  1.00  0.00     0.211 HD
ENDBRANCH   9  12
ENDBRANCH   8   9
ENDBRANCH   6   7
ENDBRANCH   3   4
ENDBRANCH   2   3
ENDBRANCH   1   2
BRANCH   1  14
HETATM   14  C11 UNL     1     -10.715  47.531   0.968  1.00  0.00     0.136 C 
HETATM   15  S2  UNL     1     -11.736  48.826   0.921  1.00  0.00    -0.053 SA
BRANCH  14  16
HETATM   16  N1  UNL     1      -9.335  47.793   0.828  1.00  0.00    -0.363 N 
HETATM   17  C12 UNL     1      -8.793  48.173  -0.441  1.00  0.00     0.154 C 
HETATM   18  C13 UNL     1      -7.586  47.303  -0.711  1.00  0.00     0.292 C 
HETATM   19  N2  UNL     1      -6.629  47.516   0.348  1.00  0.00     0.092 N 
HETATM   20  C17 UNL     1      -7.131  47.060   1.591  1.00  0.00     0.292 C 
HETATM   21  C18 UNL     1      -8.462  47.683   1.964  1.00  0.00     0.154 C 
BRANCH  19  22
HETATM   22  C14 UNL     1      -5.981  48.770   0.302  1.00  0.00     0.283 C 
BRANCH  22  23
HETATM   23  C15 UNL     1      -4.840  48.787  -0.660  1.00  0.00     0.143 C 
BRANCH  23  24
HETATM   24  C16 UNL     1      -5.142  49.864  -1.667  1.00  0.00     0.174 C 
HETATM   25  O2  UNL     1      -5.982  49.708  -2.572  1.00  0.00    -0.648 OA
HETATM   26  O3  UNL     1      -4.459  51.061  -1.573  1.00  0.00    -0.648 OA
ENDBRANCH  23  24
ENDBRANCH  22  23
ENDBRANCH  19  22
ENDBRANCH  14  16
ENDBRANCH   1  14
TORSDOF 11
ENDMDL
MODEL 5
REMARK VINA RESULT: -6.374690859      3.370     10.557
REMARK  11 active torsions:
REMARK  status: ('A' for Active; 'I' for Inactive)
REMARK    1  A    between atoms: C2_2  and  C9_11 
REMARK    2  A    between atoms: C3_3  and  C4_4 
REMARK    3  A    between atoms: C5_5  and  C6_6 
REMARK    4  A    between atoms: C6_6  and  O1_9 
REMARK    5  A    between atoms: C9_11  and  C10_12 
REMARK    6  A    between atoms: C10_12  and  S1_13 
REMARK    7  A    between atoms: S1_13  and  C11_14 
REMARK    8  A    between atoms: C11_14  and  N1_16 
REMARK    9  A    between atoms: N2_19  and  C14_20 
REMARK   10  A    between atoms: C14_20  and  C15_21 
REMARK   11  A    between atoms: C15_21  and  C16_22 
ROOT
HETATM    1  S1  UNL     1      -8.264  45.735   0.254  1.00  0.00    -0.100 SA
ENDROOT
BRANCH   1   2
HETATM    2  C10 UNL     1      -7.948  45.301   1.970  1.00  0.00     0.086 C 
BRANCH   2   3
HETATM    3  C9  UNL     1      -6.458  45.402   2.236  1.00  0.00     0.044 C 
BRANCH   3   4
HETATM    4  C2  UNL     1      -6.035  44.155   2.872  1.00  0.00    -0.083 C 
HETATM    5  C1  UNL     1      -5.757  43.014   1.916  1.00  0.00     0.043 C 
HETATM    6  C3  UNL     1      -5.885  44.001   4.149  1.00  0.00     0.002 C 
BRANCH   6   7
HETATM    7  C4  UNL     1      -6.124  45.014   5.128  1.00  0.00    -0.001 C 
HETATM    8  C5  UNL     1      -5.463  45.144   6.270  1.00  0.00     0.010 C 
BRANCH   8   9
HETATM    9  C6  UNL     1      -4.384  44.248   6.679  1.00  0.00     0.068 C 
HETATM   10  C7  UNL     1      -4.141  44.410   8.176  1.00  0.00     0.050 C 
HETATM   11  C8  UNL     1      -3.079  44.633   5.983  1.00  0.00     0.050 C 
BRANCH   9  12
HETATM   12  O1  UNL     1      -4.651  42.934   6.336  1.00  0.00    -0.387 OA
ATOM     13  H1  UNL     1      -5.108  42.475   7.030  1.00  0.00     0.211 HD
ENDBRANCH   9  12
ENDBRANCH   8   9
ENDBRANCH   6   7
ENDBRANCH   3   4
ENDBRANCH   2   3
ENDBRANCH   1   2
BRANCH   1  14
HETATM   14  C11 UNL     1      -9.049  44.376  -0.571  1.00  0.00     0.136 C 
HETATM   15  S2  UNL     1      -8.287  42.915  -0.645  1.00  0.00    -0.053 SA
BRANCH  14  16
HETATM   16  N1  UNL     1     -10.329  44.466  -1.159  1.00  0.00    -0.363 N 
HETATM   17  C12 UNL     1     -11.229  45.515  -0.785  1.00  0.00     0.154 C 
HETATM   18  C13 UNL     1     -12.569  44.888  -0.471  1.00  0.00     0.292 C 
HETATM   19  N2  UNL     1     -13.034  44.202  -1.653  1.00  0.00     0.092 N 
HETATM   20  C17 UNL     1     -12.193  43.109  -1.975  1.00  0.00     0.292 C 
HETATM   21  C18 UNL     1     -10.738  43.504  -2.145  1.00  0.00     0.154 C 
BRANCH  19  22
HETATM   22  C14 UNL     1     -13.456  45.057  -2.694  1.00  0.00     0.283 C 
BRANCH  22  23
HETATM   23  C15 UNL     1     -14.764  44.641  -3.279  1.00  0.00     0.143 C 
BRANCH  23  24
HETATM   24  C16 UNL     1     -15.835  45.219  -2.393  1.00  0.00     0.174 C 
HETATM   25  O2  UNL     1     -16.068  44.770  -1.257  1.00  0.00    -0.648 OA
HETATM   26  O3  UNL     1     -16.576  46.284  -2.868  1.00  0.00    -0.648 OA
ENDBRANCH  23  24
ENDBRANCH  22  23
ENDBRANCH  19  22
ENDBRANCH  14  16
ENDBRANCH   1  14
TORSDOF 11
ENDMDL
