MODEL 1
REMARK VINA RESULT: -7.011972067      0.000      0.000
REMARK  11 active torsions:
REMARK  status: ('A' for Active; 'I' for Inactive)
REMARK    1  A    between atoms: C2_2  and  O1_3 
REMARK    2  A    between atoms: O1_3  and  C3_4 
REMARK    3  A    between atoms: C3_4  and  C4_6 
REMARK    4  A    between atoms: N1_10  and  C8_11 
REMARK    5  A    between atoms: C8_11  and  O3_12 
REMARK    6  A    between atoms: C9_14  and  N2_15 
REMARK    7  A    between atoms: C9_14  and  C19_31 
REMARK       I    between atoms: N2_15  and  C10_17 
REMARK    8  A    between atoms: C10_17  and  C11_19 
REMARK       I    between atoms: N3_23  and  C15_24 
REMARK    9  A    between atoms: C15_24  and  C16_26 
REMARK   10  A    between atoms: C16_26  and  C17_27 
REMARK   11  A    between atoms: C17_27  and  C18_28 
ROOT
HETATM    1  C8  UNL     1       7.392  35.487   0.728  1.00  0.00     0.162 C 
HETATM    2  C9  UNL     1       7.641  36.511  -0.260  1.00  0.00     0.067 C 
ENDROOT
BRANCH   2   3
HETATM    3  N2  UNL     1       8.964  36.347  -0.813  1.00  0.00    -0.325 N 
HETATM    4  C10 UNL     1      10.133  36.990  -0.412  1.00  0.00     0.245 C 
HETATM    5  O4  UNL     1      10.052  37.818   0.539  1.00  0.00    -0.271 OA
ATOM      6  H2  UNL     1       9.052  35.685  -1.583  1.00  0.00     0.169 HD
BRANCH   4   7
HETATM    7  C11 UNL     1      11.479  36.816  -0.978  1.00  0.00     0.179 C 
HETATM    8  C12 UNL     1      12.382  38.000  -0.734  1.00  0.00     0.037 C 
HETATM    9  C13 UNL     1      13.723  37.326  -0.554  1.00  0.00     0.022 C 
HETATM   10  C14 UNL     1      13.290  36.135   0.320  1.00  0.00     0.127 C 
HETATM   11  N3  UNL     1      12.181  35.658  -0.482  1.00  0.00    -0.339 N 
HETATM   12  C15 UNL     1      11.888  34.298  -0.716  1.00  0.00     0.221 C 
HETATM   13  O5  UNL     1      10.913  33.932  -1.442  1.00  0.00    -0.273 OA
BRANCH  12  14
HETATM   14  C16 UNL     1      12.710  33.201  -0.120  1.00  0.00     0.113 C 
BRANCH  14  15
HETATM   15  C17 UNL     1      12.108  32.651   1.131  1.00  0.00     0.122 C 
BRANCH  15  16
HETATM   16  C18 UNL     1      11.581  31.292   0.810  1.00  0.00     0.172 C 
HETATM   17  O6  UNL     1      11.191  30.515   1.739  1.00  0.00    -0.648 OA
HETATM   18  O7  UNL     1      11.487  30.807  -0.487  1.00  0.00    -0.648 OA
ENDBRANCH  15  16
ENDBRANCH  14  15
ENDBRANCH  12  14
ENDBRANCH   4   7
ENDBRANCH   2   3
BRANCH   2  19
HETATM   19  C19 UNL     1       6.585  37.038  -1.153  1.00  0.00     0.040 C 
HETATM   20  C20 UNL     1       7.056  38.221  -1.952  1.00  0.00     0.011 C 
HETATM   21  C21 UNL     1       7.295  38.001  -3.396  1.00  0.00     0.001 C 
HETATM   22  C22 UNL     1       6.032  38.480  -4.124  1.00  0.00     0.000 C 
HETATM   23  C23 UNL     1       4.886  37.828  -3.355  1.00  0.00     0.000 C 
HETATM   24  C24 UNL     1       5.265  36.384  -3.220  1.00  0.00     0.001 C 
HETATM   25  C25 UNL     1       5.897  35.976  -1.958  1.00  0.00     0.011 C 
ENDBRANCH   2  19
BRANCH   1  26
HETATM   26  N1  UNL     1       6.369  34.600   1.033  1.00  0.00    -0.346 N 
HETATM   27  C4  UNL     1       6.199  33.200   1.055  1.00  0.00     0.186 C 
HETATM   28  C5  UNL     1       4.765  32.952   0.598  1.00  0.00     0.037 C 
HETATM   29  C6  UNL     1       4.076  34.273   0.628  1.00  0.00     0.022 C 
HETATM   30  C7  UNL     1       5.008  35.101   1.466  1.00  0.00     0.126 C 
BRANCH  27  31
HETATM   31  C3  UNL     1       6.263  32.635   2.445  1.00  0.00     0.281 C 
HETATM   32  O2  UNL     1       5.419  31.846   2.912  1.00  0.00    -0.263 OA
BRANCH  31  33
HETATM   33  O1  UNL     1       7.326  33.026   3.236  1.00  0.00    -0.320 OA
BRANCH  33  34
HETATM   34  C2  UNL     1       8.387  32.129   3.542  1.00  0.00     0.174 C 
HETATM   35  C1  UNL     1       9.628  32.930   3.804  1.00  0.00     0.034 C 
ENDBRANCH  33  34
ENDBRANCH  31  33
ENDBRANCH  27  31
ENDBRANCH   1  26
BRANCH   1  36
HETATM   36  O3  UNL     1       8.415  35.354   1.562  1.00  0.00    -0.345 OA
ATOM     37  H3  UNL     1       8.671  36.190   1.935  1.00  0.00     0.219 HD
ENDBRANCH   1  36
TORSDOF 11
ENDMDL
MODEL 2
REMARK VINA RESULT: -6.940023649      1.746      5.957
REMARK  11 active torsions:
REMARK  status: ('A' for Active; 'I' for Inactive)
REMARK    1  A    between atoms: C2_2  and  O1_3 
REMARK    2  A    between atoms: O1_3  and  C3_4 
REMARK    3  A    between atoms: C3_4  and  C4_6 
REMARK    4  A    between atoms: N1_10  and  C8_11 
REMARK    5  A    between atoms: C8_11  and  O3_12 
REMARK    6  A    between atoms: C9_14  and  N2_15 
REMARK    7  A    between atoms: C9_14  and  C19_31 
REMARK       I    between atoms: N2_15  and  C10_17 
REMARK    8  A    between atoms: C10_17  and  C11_19 
REMARK       I    between atoms: N3_23  and  C15_24 
REMARK    9  A    between atoms: C15_24  and  C16_26 
REMARK   10  A    between atoms: C16_26  and  C17_27 
REMARK   11  A    between atoms: C17_27  and  C18_28 
ROOT
HETATM    1  C8  UNL     1       9.667  35.743  -1.135  1.00  0.00     0.162 C 
HETATM    2  C9  UNL     1       8.481  36.560  -1.028  1.00  0.00     0.067 C 
ENDROOT
BRANCH   2   3
HETATM    3  N2  UNL     1       7.610  36.026  -0.009  1.00  0.00    -0.325 N 
HETATM    4  C10 UNL     1       6.340  35.480  -0.183  1.00  0.00     0.245 C 
HETATM    5  O4  UNL     1       5.875  35.437  -1.357  1.00  0.00    -0.271 OA
ATOM      6  H2  UNL     1       7.964  36.052   0.947  1.00  0.00     0.169 HD
BRANCH   4   7
HETATM    7  C11 UNL     1       5.459  34.935   0.860  1.00  0.00     0.179 C 
HETATM    8  C12 UNL     1       4.045  34.708   0.381  1.00  0.00     0.037 C 
HETATM    9  C13 UNL     1       3.660  33.466   1.153  1.00  0.00     0.022 C 
HETATM   10  C14 UNL     1       4.965  32.662   1.001  1.00  0.00     0.127 C 
HETATM   11  N3  UNL     1       5.908  33.681   1.415  1.00  0.00    -0.339 N 
HETATM   12  C15 UNL     1       7.040  33.446   2.224  1.00  0.00     0.221 C 
HETATM   13  O5  UNL     1       7.826  34.378   2.573  1.00  0.00    -0.273 OA
BRANCH  12  14
HETATM   14  C16 UNL     1       7.383  32.078   2.720  1.00  0.00     0.113 C 
BRANCH  14  15
HETATM   15  C17 UNL     1       8.388  32.106   3.823  1.00  0.00     0.122 C 
BRANCH  15  16
HETATM   16  C18 UNL     1       9.547  31.272   3.389  1.00  0.00     0.172 C 
HETATM   17  O6  UNL     1       9.363  30.103   2.922  1.00  0.00    -0.648 OA
HETATM   18  O7  UNL     1      10.862  31.710   3.469  1.00  0.00    -0.648 OA
ENDBRANCH  15  16
ENDBRANCH  14  15
ENDBRANCH  12  14
ENDBRANCH   4   7
ENDBRANCH   2   3
BRANCH   2  19
HETATM   19  C19 UNL     1       8.498  38.028  -1.215  1.00  0.00     0.040 C 
HETATM   20  C20 UNL     1       7.358  38.505  -2.070  1.00  0.00     0.011 C 
HETATM   21  C21 UNL     1       6.266  39.232  -1.386  1.00  0.00     0.001 C 
HETATM   22  C22 UNL     1       6.551  40.728  -1.580  1.00  0.00     0.000 C 
HETATM   23  C23 UNL     1       8.024  40.880  -1.207  1.00  0.00     0.000 C 
HETATM   24  C24 UNL     1       8.180  40.172   0.105  1.00  0.00     0.001 C 
HETATM   25  C25 UNL     1       8.682  38.793   0.063  1.00  0.00     0.011 C 
ENDBRANCH   2  19
BRANCH   1  26
HETATM   26  N1  UNL     1      11.038  35.950  -1.206  1.00  0.00    -0.346 N 
HETATM   27  C4  UNL     1      12.147  35.771  -0.352  1.00  0.00     0.186 C 
HETATM   28  C5  UNL     1      13.084  36.939  -0.646  1.00  0.00     0.037 C 
HETATM   29  C6  UNL     1      12.590  37.575  -1.900  1.00  0.00     0.022 C 
HETATM   30  C7  UNL     1      11.675  36.520  -2.454  1.00  0.00     0.126 C 
BRANCH  27  31
HETATM   31  C3  UNL     1      12.942  34.543  -0.692  1.00  0.00     0.281 C 
HETATM   32  O2  UNL     1      14.176  34.544  -0.867  1.00  0.00    -0.263 OA
BRANCH  31  33
HETATM   33  O1  UNL     1      12.246  33.356  -0.815  1.00  0.00    -0.320 OA
BRANCH  33  34
HETATM   34  C2  UNL     1      12.213  32.409   0.246  1.00  0.00     0.174 C 
HETATM   35  C1  UNL     1      11.149  31.395  -0.055  1.00  0.00     0.034 C 
ENDBRANCH  33  34
ENDBRANCH  31  33
ENDBRANCH  27  31
ENDBRANCH   1  26
BRANCH   1  36
HETATM   36  O3  UNL     1       9.369  34.451  -1.171  1.00  0.00    -0.345 OA
ATOM     37  H3  UNL     1       8.897  34.224  -1.964  1.00  0.00     0.219 HD
ENDBRANCH   1  36
TORSDOF 11
ENDMDL
MODEL 3
REMARK VINA RESULT: -6.832023583      2.421      8.182
REMARK  11 active torsions:
REMARK  status: ('A' for Active; 'I' for Inactive)
REMARK    1  A    between atoms: C2_2  and  O1_3 
REMARK    2  A    between atoms: O1_3  and  C3_4 
REMARK    3  A    between atoms: C3_4  and  C4_6 
REMARK    4  A    between atoms: N1_10  and  C8_11 
REMARK    5  A    between atoms: C8_11  and  O3_12 
REMARK    6  A    between atoms: C9_14  and  N2_15 
REMARK    7  A    between atoms: C9_14  and  C19_31 
REMARK       I    between atoms: N2_15  and  C10_17 
REMARK    8  A    between atoms: C10_17  and  C11_19 
REMARK       I    between atoms: N3_23  and  C15_24 
REMARK    9  A    between atoms: C15_24  and  C16_26 
REMARK   10  A    between atoms: C16_26  and  C17_27 
REMARK   11  A    between atoms: C17_27  and  C18_28 
ROOT
HETATM    1  C8  UNL     1       9.771  35.899   1.628  1.00  0.00     0.162 C 
HETATM    2  C9  UNL     1       9.257  34.606   2.015  1.00  0.00     0.067 C 
ENDROOT
BRANCH   2   3
HETATM    3  N2  UNL     1       8.146  34.248   1.166  1.00  0.00    -0.325 N 
HETATM    4  C10 UNL     1       6.816  34.069   1.545  1.00  0.00     0.245 C 
HETATM    5  O4  UNL     1       6.526  34.231   2.764  1.00  0.00    -0.271 OA
ATOM      6  H2  UNL     1       8.357  34.110   0.179  1.00  0.00     0.169 HD
BRANCH   4   7
HETATM    7  C11 UNL     1       5.688  33.707   0.675  1.00  0.00     0.179 C 
HETATM    8  C12 UNL     1       4.698  32.784   1.343  1.00  0.00     0.037 C 
HETATM    9  C13 UNL     1       3.392  33.259   0.746  1.00  0.00     0.022 C 
HETATM   10  C14 UNL     1       3.624  34.780   0.812  1.00  0.00     0.127 C 
HETATM   11  N3  UNL     1       4.932  34.836   0.190  1.00  0.00    -0.339 N 
HETATM   12  C15 UNL     1       5.343  35.827  -0.726  1.00  0.00     0.221 C 
HETATM   13  O5  UNL     1       6.496  35.821  -1.256  1.00  0.00    -0.273 OA
BRANCH  12  14
HETATM   14  C16 UNL     1       4.442  36.950  -1.128  1.00  0.00     0.113 C 
BRANCH  14  15
HETATM   15  C17 UNL     1       5.035  37.802  -2.201  1.00  0.00     0.122 C 
BRANCH  15  16
HETATM   16  C18 UNL     1       5.422  39.099  -1.575  1.00  0.00     0.172 C 
HETATM   17  O6  UNL     1       4.593  40.063  -1.519  1.00  0.00    -0.648 OA
HETATM   18  O7  UNL     1       6.679  39.328  -1.031  1.00  0.00    -0.648 OA
ENDBRANCH  15  16
ENDBRANCH  14  15
ENDBRANCH  12  14
ENDBRANCH   4   7
ENDBRANCH   2   3
BRANCH   2  19
HETATM   19  C19 UNL     1      10.124  33.511   2.506  1.00  0.00     0.040 C 
HETATM   20  C20 UNL     1       9.523  32.797   3.685  1.00  0.00     0.011 C 
HETATM   21  C21 UNL     1       9.001  31.434   3.446  1.00  0.00     0.001 C 
HETATM   22  C22 UNL     1      10.103  30.462   3.889  1.00  0.00     0.000 C 
HETATM   23  C23 UNL     1      11.368  31.004   3.228  1.00  0.00     0.000 C 
HETATM   24  C24 UNL     1      11.001  31.239   1.794  1.00  0.00     0.001 C 
HETATM   25  C25 UNL     1      10.624  32.608   1.419  1.00  0.00     0.011 C 
ENDBRANCH   2  19
BRANCH   1  26
HETATM   26  N1  UNL     1      11.016  36.463   1.382  1.00  0.00    -0.346 N 
HETATM   27  C4  UNL     1      11.653  37.107   0.302  1.00  0.00     0.186 C 
HETATM   28  C5  UNL     1      13.111  36.660   0.358  1.00  0.00     0.037 C 
HETATM   29  C6  UNL     1      13.302  36.004   1.683  1.00  0.00     0.022 C 
HETATM   30  C7  UNL     1      12.093  36.464   2.445  1.00  0.00     0.126 C 
BRANCH  27  31
HETATM   31  C3  UNL     1      11.701  38.599   0.469  1.00  0.00     0.281 C 
HETATM   32  O2  UNL     1      12.727  39.284   0.289  1.00  0.00    -0.263 OA
BRANCH  31  33
HETATM   33  O1  UNL     1      10.530  39.228   0.845  1.00  0.00    -0.320 OA
BRANCH  33  34
HETATM   34  C2  UNL     1      10.442  39.950   2.067  1.00  0.00     0.174 C 
HETATM   35  C1  UNL     1       8.998  40.254   2.337  1.00  0.00     0.034 C 
ENDBRANCH  33  34
ENDBRANCH  31  33
ENDBRANCH  27  31
ENDBRANCH   1  26
BRANCH   1  36
HETATM   36  O3  UNL     1       8.795  36.781   1.457  1.00  0.00    -0.345 OA
ATOM     37  H3  UNL     1       8.135  36.458   0.855  1.00  0.00     0.219 HD
ENDBRANCH   1  36
TORSDOF 11
ENDMDL
MODEL 4
REMARK VINA RESULT: -6.816589268      2.162      6.398
REMARK  11 active torsions:
REMARK  status: ('A' for Active; 'I' for Inactive)
REMARK    1  A    between atoms: C2_2  and  O1_3 
REMARK    2  A    between atoms: O1_3  and  C3_4 
REMARK    3  A    between atoms: C3_4  and  C4_6 
REMARK    4  A    between atoms: N1_10  and  C8_11 
REMARK    5  A    between atoms: C8_11  and  O3_12 
REMARK    6  A    between atoms: C9_14  and  N2_15 
REMARK    7  A    between atoms: C9_14  and  C19_31 
REMARK       I    between atoms: N2_15  and  C10_17 
REMARK    8  A    between atoms: C10_17  and  C11_19 
REMARK       I    between atoms: N3_23  and  C15_24 
REMARK    9  A    between atoms: C15_24  and  C16_26 
REMARK   10  A    between atoms: C16_26  and  C17_27 
REMARK   11  A    between atoms: C17_27  and  C18_28 
ROOT
HETATM    1  C8  UNL     1       8.777  37.330   0.391  1.00  0.00     0.162 C 
HETATM    2  C9  UNL     1       9.655  36.452   1.128  1.00  0.00     0.067 C 
ENDROOT
BRANCH   2   3
HETATM    3  N2  UNL     1       8.881  35.632   2.030  1.00  0.00    -0.325 N 
HETATM    4  C10 UNL     1       7.795  34.818   1.712  1.00  0.00     0.245 C 
HETATM    5  O4  UNL     1       7.426  34.778   0.504  1.00  0.00    -0.271 OA
ATOM      6  H2  UNL     1       9.160  35.651   3.010  1.00  0.00     0.169 HD
BRANCH   4   7
HETATM    7  C11 UNL     1       7.013  33.983   2.635  1.00  0.00     0.179 C 
HETATM    8  C12 UNL     1       5.595  33.758   2.171  1.00  0.00     0.037 C 
HETATM    9  C13 UNL     1       5.340  32.347   2.652  1.00  0.00     0.022 C 
HETATM   10  C14 UNL     1       6.686  31.705   2.270  1.00  0.00     0.127 C 
HETATM   11  N3  UNL     1       7.578  32.677   2.871  1.00  0.00    -0.339 N 
HETATM   12  C15 UNL     1       8.766  32.357   3.561  1.00  0.00     0.221 C 
HETATM   13  O5  UNL     1       9.504  33.247   4.084  1.00  0.00    -0.273 OA
BRANCH  12  14
HETATM   14  C16 UNL     1       9.230  30.945   3.717  1.00  0.00     0.113 C 
BRANCH  14  15
HETATM   15  C17 UNL     1      10.659  30.857   4.141  1.00  0.00     0.122 C 
BRANCH  15  16
HETATM   16  C18 UNL     1      11.378  30.046   3.116  1.00  0.00     0.172 C 
HETATM   17  O6  UNL     1      11.239  30.300   1.877  1.00  0.00    -0.648 OA
HETATM   18  O7  UNL     1      12.220  28.992   3.445  1.00  0.00    -0.648 OA
ENDBRANCH  15  16
ENDBRANCH  14  15
ENDBRANCH  12  14
ENDBRANCH   4   7
ENDBRANCH   2   3
BRANCH   2  19
HETATM   19  C19 UNL     1      10.876  35.858   0.540  1.00  0.00     0.040 C 
HETATM   20  C20 UNL     1      11.788  35.282   1.587  1.00  0.00     0.011 C 
HETATM   21  C21 UNL     1      11.866  33.807   1.669  1.00  0.00     0.001 C 
HETATM   22  C22 UNL     1      13.116  33.392   0.881  1.00  0.00     0.000 C 
HETATM   23  C23 UNL     1      12.997  34.154  -0.437  1.00  0.00     0.000 C 
HETATM   24  C24 UNL     1      11.598  33.910  -0.917  1.00  0.00     0.001 C 
HETATM   25  C25 UNL     1      10.601  34.945  -0.618  1.00  0.00     0.011 C 
ENDBRANCH   2  19
BRANCH   1  26
HETATM   26  N1  UNL     1       8.607  37.716  -0.932  1.00  0.00    -0.346 N 
HETATM   27  C4  UNL     1       7.871  37.259  -2.046  1.00  0.00     0.186 C 
HETATM   28  C5  UNL     1       8.764  37.510  -3.258  1.00  0.00     0.037 C 
HETATM   29  C6  UNL     1       9.868  38.398  -2.796  1.00  0.00     0.022 C 
HETATM   30  C7  UNL     1       9.335  38.919  -1.492  1.00  0.00     0.126 C 
BRANCH  27  31
HETATM   31  C3  UNL     1       6.640  38.081  -2.298  1.00  0.00     0.281 C 
HETATM   32  O2  UNL     1       6.327  38.536  -3.415  1.00  0.00    -0.263 OA
BRANCH  31  33
HETATM   33  O1  UNL     1       5.820  38.336  -1.215  1.00  0.00    -0.320 OA
BRANCH  33  34
HETATM   34  C2  UNL     1       4.524  37.757  -1.119  1.00  0.00     0.174 C 
HETATM   35  C1  UNL     1       4.624  36.495  -0.315  1.00  0.00     0.034 C 
ENDBRANCH  33  34
ENDBRANCH  31  33
ENDBRANCH  27  31
ENDBRANCH   1  26
BRANCH   1  36
HETATM   36  O3  UNL     1       7.897  37.923   1.187  1.00  0.00    -0.345 OA
ATOM     37  H3  UNL     1       8.039  37.690   2.097  1.00  0.00     0.219 HD
ENDBRANCH   1  36
TORSDOF 11
ENDMDL
MODEL 5
REMARK VINA RESULT: -6.780474526      2.221      8.095
REMARK  11 active torsions:
REMARK  status: ('A' for Active; 'I' for Inactive)
REMARK    1  A    between atoms: C2_2  and  O1_3 
REMARK    2  A    between atoms: O1_3  and  C3_4 
REMARK    3  A    between atoms: C3_4  and  C4_6 
REMARK    4  A    between atoms: N1_10  and  C8_11 
REMARK    5  A    between atoms: C8_11  and  O3_12 
REMARK    6  A    between atoms: C9_14  and  N2_15 
REMARK    7  A    between atoms: C9_14  and  C19_31 
REMARK       I    between atoms: N2_15  and  C10_17 
REMARK    8  A    between atoms: C10_17  and  C11_19 
REMARK       I    between atoms: N3_23  and  C15_24 
REMARK    9  A    between atoms: C15_24  and  C16_26 
REMARK   10  A    between atoms: C16_26  and  C17_27 
REMARK   11  A    between atoms: C17_27  and  C18_28 
ROOT
HETATM    1  C8  UNL     1      10.021  35.813   1.679  1.00  0.00     0.162 C 
HETATM    2  C9  UNL     1       9.456  34.537   2.052  1.00  0.00     0.067 C 
ENDROOT
BRANCH   2   3
HETATM    3  N2  UNL     1       8.356  34.215   1.175  1.00  0.00    -0.325 N 
HETATM    4  C10 UNL     1       7.016  34.056   1.523  1.00  0.00     0.245 C 
HETATM    5  O4  UNL     1       6.703  34.203   2.738  1.00  0.00    -0.271 OA
ATOM      6  H2  UNL     1       8.586  34.089   0.190  1.00  0.00     0.169 HD
BRANCH   4   7
HETATM    7  C11 UNL     1       5.899  33.730   0.624  1.00  0.00     0.179 C 
HETATM    8  C12 UNL     1       4.912  32.764   1.233  1.00  0.00     0.037 C 
HETATM    9  C13 UNL     1       3.607  33.257   0.648  1.00  0.00     0.022 C 
HETATM   10  C14 UNL     1       3.823  34.774   0.797  1.00  0.00     0.127 C 
HETATM   11  N3  UNL     1       5.137  34.876   0.192  1.00  0.00    -0.339 N 
HETATM   12  C15 UNL     1       5.546  35.918  -0.666  1.00  0.00     0.221 C 
HETATM   13  O5  UNL     1       6.704  35.950  -1.185  1.00  0.00    -0.273 OA
BRANCH  12  14
HETATM   14  C16 UNL     1       4.638  37.051  -1.018  1.00  0.00     0.113 C 
BRANCH  14  15
HETATM   15  C17 UNL     1       5.176  37.891  -2.129  1.00  0.00     0.122 C 
BRANCH  15  16
HETATM   16  C18 UNL     1       5.493  39.233  -1.560  1.00  0.00     0.172 C 
HETATM   17  O6  UNL     1       4.600  40.137  -1.501  1.00  0.00    -0.648 OA
HETATM   18  O7  UNL     1       6.750  39.567  -1.073  1.00  0.00    -0.648 OA
ENDBRANCH  15  16
ENDBRANCH  14  15
ENDBRANCH  12  14
ENDBRANCH   4   7
ENDBRANCH   2   3
BRANCH   2  19
HETATM   19  C19 UNL     1      10.273  33.416   2.567  1.00  0.00     0.040 C 
HETATM   20  C20 UNL     1       9.646  32.757   3.763  1.00  0.00     0.011 C 
HETATM   21  C21 UNL     1       9.061  31.414   3.558  1.00  0.00     0.001 C 
HETATM   22  C22 UNL     1      10.120  30.403   4.019  1.00  0.00     0.000 C 
HETATM   23  C23 UNL     1      11.405  30.872   3.342  1.00  0.00     0.000 C 
HETATM   24  C24 UNL     1      11.043  31.091   1.904  1.00  0.00     0.001 C 
HETATM   25  C25 UNL     1      10.727  32.466   1.498  1.00  0.00     0.011 C 
ENDBRANCH   2  19
BRANCH   1  26
HETATM   26  N1  UNL     1      11.289  36.337   1.467  1.00  0.00    -0.346 N 
HETATM   27  C4  UNL     1      12.619  35.892   1.617  1.00  0.00     0.186 C 
HETATM   28  C5  UNL     1      13.412  37.114   2.073  1.00  0.00     0.037 C 
HETATM   29  C6  UNL     1      12.528  38.295   1.862  1.00  0.00     0.022 C 
HETATM   30  C7  UNL     1      11.472  37.745   0.946  1.00  0.00     0.126 C 
BRANCH  27  31
HETATM   31  C3  UNL     1      13.243  35.493   0.311  1.00  0.00     0.281 C 
HETATM   32  O2  UNL     1      14.360  35.892  -0.074  1.00  0.00    -0.263 OA
BRANCH  31  33
HETATM   33  O1  UNL     1      12.522  34.635  -0.496  1.00  0.00    -0.320 OA
BRANCH  33  34
HETATM   34  C2  UNL     1      12.217  34.972  -1.844  1.00  0.00     0.174 C 
HETATM   35  C1  UNL     1      10.763  35.333  -1.927  1.00  0.00     0.034 C 
ENDBRANCH  33  34
ENDBRANCH  31  33
ENDBRANCH  27  31
ENDBRANCH   1  26
BRANCH   1  36
HETATM   36  O3  UNL     1       9.079  36.726   1.483  1.00  0.00    -0.345 OA
ATOM     37  H3  UNL     1       8.349  36.372   0.988  1.00  0.00     0.219 HD
ENDBRANCH   1  36
TORSDOF 11
ENDMDL
