MODEL 1
REMARK VINA RESULT: -5.954433168      0.000      0.000
REMARK  2 active torsions:
REMARK  status: ('A' for Active; 'I' for Inactive)
REMARK    1  A    between atoms: C2_2  and  O1_3 
REMARK    2  A    between atoms: C8_10  and  O2_11 
ROOT
HETATM    1  C1  UNL     1      -4.584  16.034  12.121  1.00  0.00     0.047 C 
HETATM    2  C2  UNL     1      -5.093  15.176  11.039  1.00  0.00     0.069 C 
HETATM    3  C3  UNL     1      -6.521  14.736  11.080  1.00  0.00     0.070 C 
HETATM    4  C4  UNL     1      -7.016  14.322  12.415  1.00  0.00     0.011 C 
HETATM    5  C5  UNL     1      -5.970  13.658  13.273  1.00  0.00     0.001 C 
HETATM    6  C6  UNL     1      -4.790  13.163  12.506  1.00  0.00     0.011 C 
HETATM    7  C7  UNL     1      -4.725  13.699  11.106  1.00  0.00     0.070 C 
HETATM    8  C8  UNL     1      -6.045  13.460  10.368  1.00  0.00     0.159 C 
HETATM    9  C9  UNL     1      -6.748  12.261  10.743  1.00  0.00     0.098 C 
HETATM   10  N1  UNL     1      -7.304  11.299  11.026  1.00  0.00    -0.194 NA
ENDROOT
BRANCH   8  11
HETATM   11  O2  UNL     1      -5.936  13.653   8.999  1.00  0.00    -0.374 OA
ATOM     12  H2  UNL     1      -5.069  13.425   8.684  1.00  0.00     0.212 HD
ENDBRANCH   8  11
BRANCH   2  13
HETATM   13  O1  UNL     1      -4.782  15.640   9.745  1.00  0.00    -0.389 OA
ATOM     14  H1  UNL     1      -4.282  15.023   9.224  1.00  0.00     0.210 HD
ENDBRANCH   2  13
TORSDOF 2
ENDMDL
MODEL 2
REMARK VINA RESULT: -5.890254441      1.849      3.216
REMARK  2 active torsions:
REMARK  status: ('A' for Active; 'I' for Inactive)
REMARK    1  A    between atoms: C2_2  and  O1_3 
REMARK    2  A    between atoms: C8_10  and  O2_11 
ROOT
HETATM    1  C1  UNL     1      -6.838  12.185  10.693  1.00  0.00     0.047 C 
HETATM    2  C2  UNL     1      -6.083  13.408  10.378  1.00  0.00     0.069 C 
HETATM    3  C3  UNL     1      -4.780  13.649  11.070  1.00  0.00     0.070 C 
HETATM    4  C4  UNL     1      -4.766  13.329  12.518  1.00  0.00     0.011 C 
HETATM    5  C5  UNL     1      -6.078  13.589  13.212  1.00  0.00     0.001 C 
HETATM    6  C6  UNL     1      -6.991  14.492  12.451  1.00  0.00     0.011 C 
HETATM    7  C7  UNL     1      -6.568  14.698  11.026  1.00  0.00     0.070 C 
HETATM    8  C8  UNL     1      -5.106  15.146  10.950  1.00  0.00     0.159 C 
HETATM    9  C9  UNL     1      -4.654  15.953  12.053  1.00  0.00     0.098 C 
HETATM   10  N1  UNL     1      -4.294  16.610  12.921  1.00  0.00    -0.194 NA
ENDROOT
BRANCH   8  11
HETATM   11  O2  UNL     1      -4.761  15.641   9.701  1.00  0.00    -0.374 OA
ATOM     12  H2  UNL     1      -3.846  15.894   9.669  1.00  0.00     0.212 HD
ENDBRANCH   8  11
BRANCH   2  13
HETATM   13  O1  UNL     1      -5.932  13.649   8.998  1.00  0.00    -0.389 OA
ATOM     14  H1  UNL     1      -5.028  13.672   8.707  1.00  0.00     0.210 HD
ENDBRANCH   2  13
TORSDOF 2
ENDMDL
MODEL 3
REMARK VINA RESULT: -5.853703026      4.461      5.926
REMARK  2 active torsions:
REMARK  status: ('A' for Active; 'I' for Inactive)
REMARK    1  A    between atoms: C2_2  and  O1_3 
REMARK    2  A    between atoms: C8_10  and  O2_11 
ROOT
HETATM    1  C1  UNL     1      -8.556   7.820  10.303  1.00  0.00     0.047 C 
HETATM    2  C2  UNL     1      -7.500   8.097  11.291  1.00  0.00     0.069 C 
HETATM    3  C3  UNL     1      -7.749   9.131  12.342  1.00  0.00     0.070 C 
HETATM    4  C4  UNL     1      -8.419  10.365  11.865  1.00  0.00     0.011 C 
HETATM    5  C5  UNL     1      -8.048  10.755  10.458  1.00  0.00     0.001 C 
HETATM    6  C6  UNL     1      -6.797  10.107   9.965  1.00  0.00     0.011 C 
HETATM    7  C7  UNL     1      -6.340   8.968  10.828  1.00  0.00     0.070 C 
HETATM    8  C8  UNL     1      -6.236   9.400  12.293  1.00  0.00     0.159 C 
HETATM    9  C9  UNL     1      -5.861  10.774  12.501  1.00  0.00     0.098 C 
HETATM   10  N1  UNL     1      -5.546  11.864  12.673  1.00  0.00    -0.194 NA
ENDROOT
BRANCH   8  11
HETATM   11  O2  UNL     1      -5.534   8.493  13.072  1.00  0.00    -0.374 OA
ATOM     12  H2  UNL     1      -6.027   8.244  13.845  1.00  0.00     0.212 HD
ENDBRANCH   8  11
BRANCH   2  13
HETATM   13  O1  UNL     1      -6.959   6.941  11.890  1.00  0.00    -0.389 OA
ATOM     14  H1  UNL     1      -6.042   7.020  12.122  1.00  0.00     0.210 HD
ENDBRANCH   2  13
TORSDOF 2
ENDMDL
MODEL 4
REMARK VINA RESULT: -5.827232879      2.599      3.583
REMARK  2 active torsions:
REMARK  status: ('A' for Active; 'I' for Inactive)
REMARK    1  A    between atoms: C2_2  and  O1_3 
REMARK    2  A    between atoms: C8_10  and  O2_11 
ROOT
HETATM    1  C1  UNL     1      -7.402  11.823  13.731  1.00  0.00     0.047 C 
HETATM    2  C2  UNL     1      -6.076  12.333  13.348  1.00  0.00     0.069 C 
HETATM    3  C3  UNL     1      -5.882  13.810  13.219  1.00  0.00     0.070 C 
HETATM    4  C4  UNL     1      -6.987  14.535  12.545  1.00  0.00     0.011 C 
HETATM    5  C5  UNL     1      -7.665  13.738  11.460  1.00  0.00     0.001 C 
HETATM    6  C6  UNL     1      -6.863  12.576  10.978  1.00  0.00     0.011 C 
HETATM    7  C7  UNL     1      -5.706  12.241  11.873  1.00  0.00     0.070 C 
HETATM    8  C8  UNL     1      -4.843  13.479  12.136  1.00  0.00     0.159 C 
HETATM    9  C9  UNL     1      -4.780  14.422  11.050  1.00  0.00     0.098 C 
HETATM   10  N1  UNL     1      -4.713  15.170  10.183  1.00  0.00    -0.194 NA
ENDROOT
BRANCH   8  11
HETATM   11  O2  UNL     1      -3.613  13.166  12.692  1.00  0.00    -0.374 OA
ATOM     12  H2  UNL     1      -3.657  12.368  13.207  1.00  0.00     0.212 HD
ENDBRANCH   8  11
BRANCH   2  13
HETATM   13  O1  UNL     1      -5.014  11.785  14.094  1.00  0.00    -0.389 OA
ATOM     14  H1  UNL     1      -4.214  12.296  14.060  1.00  0.00     0.210 HD
ENDBRANCH   2  13
TORSDOF 2
ENDMDL
MODEL 5
REMARK VINA RESULT: -5.822265151      5.070      6.304
REMARK  2 active torsions:
REMARK  status: ('A' for Active; 'I' for Inactive)
REMARK    1  A    between atoms: C2_2  and  O1_3 
REMARK    2  A    between atoms: C8_10  and  O2_11 
ROOT
HETATM    1  C1  UNL     1      -9.760   9.298   9.390  1.00  0.00     0.047 C 
HETATM    2  C2  UNL     1      -8.929   8.455  10.266  1.00  0.00     0.069 C 
HETATM    3  C3  UNL     1      -8.726   8.873  11.687  1.00  0.00     0.070 C 
HETATM    4  C4  UNL     1      -8.480  10.321  11.890  1.00  0.00     0.011 C 
HETATM    5  C5  UNL     1      -7.711  10.971  10.768  1.00  0.00     0.001 C 
HETATM    6  C6  UNL     1      -6.987  10.000   9.895  1.00  0.00     0.011 C 
HETATM    7  C7  UNL     1      -7.419   8.579  10.103  1.00  0.00     0.070 C 
HETATM    8  C8  UNL     1      -7.349   8.198  11.585  1.00  0.00     0.159 C 
HETATM    9  C9  UNL     1      -6.303   8.844  12.334  1.00  0.00     0.098 C 
HETATM   10  N1  UNL     1      -5.461   9.343  12.932  1.00  0.00    -0.194 NA
ENDROOT
BRANCH   8  11
HETATM   11  O2  UNL     1      -7.438   6.830  11.791  1.00  0.00    -0.374 OA
ATOM     12  H2  UNL     1      -7.279   6.605  12.701  1.00  0.00     0.212 HD
ENDBRANCH   8  11
BRANCH   2  13
HETATM   13  O1  UNL     1      -9.257   7.085  10.222  1.00  0.00    -0.389 OA
ATOM     14  H1  UNL     1      -9.477   6.714  11.068  1.00  0.00     0.210 HD
ENDBRANCH   2  13
TORSDOF 2
ENDMDL
