MODEL 1
REMARK VINA RESULT: -6.284429799      0.000      0.000
REMARK  2 active torsions:
REMARK  status: ('A' for Active; 'I' for Inactive)
REMARK    1  A    between atoms: C6_9  and  C7_10 
REMARK    2  A    between atoms: C7_10  and  O1_11 
ROOT
HETATM    1  C1  UNL     1     -18.861  15.134   2.762  1.00  0.00     0.051 C 
HETATM    2  C2  UNL     1     -17.663  15.223   3.690  1.00  0.00    -0.028 A 
HETATM    3  C3  UNL     1     -17.500  16.385   4.406  1.00  0.00     0.059 A 
HETATM    4  S1  UNL     1     -16.071  16.087   5.305  1.00  0.00    -0.103 SA
HETATM    5  C4  UNL     1     -15.732  14.511   4.748  1.00  0.00     0.011 A 
HETATM    6  C5  UNL     1     -16.744  14.258   3.874  1.00  0.00     0.049 A 
HETATM    7  N1  UNL     1     -16.847  13.005   3.155  1.00  0.00    -0.358 N 
ATOM      8  H1  UNL     1     -17.409  13.021   2.303  1.00  0.00     0.162 HD
HETATM    9  C6  UNL     1     -16.245  11.725   3.500  1.00  0.00     0.328 C 
HETATM   10  N2  UNL     1     -14.826  11.955   3.640  1.00  0.00    -0.050 N 
ATOM     11  H21 UNL     1     -14.468  12.643   2.978  1.00  0.00     0.279 HD
ATOM     12  H22 UNL     1     -14.263  11.164   3.329  1.00  0.00     0.279 HD
HETATM   13  C8  UNL     1     -14.576  12.316   5.010  1.00  0.00     0.240 C 
HETATM   14  C9  UNL     1     -14.541  13.785   5.251  1.00  0.00     0.076 C 
ENDROOT
BRANCH   9  15
HETATM   15  C7  UNL     1     -16.563  10.694   2.472  1.00  0.00     0.264 C 
HETATM   16 CL1  UNL     1     -15.367  10.787   1.140  1.00  0.00    -0.091 Cl
BRANCH  15  17
HETATM   17  O1  UNL     1     -16.427   9.428   3.046  1.00  0.00    -0.377 OA
ATOM     18  H1  UNL     1     -15.509   9.279   3.247  1.00  0.00     0.211 HD
ENDBRANCH  15  17
ENDBRANCH   9  15
TORSDOF 2
ENDMDL
MODEL 2
REMARK VINA RESULT: -6.209639545      4.091      4.764
REMARK  2 active torsions:
REMARK  status: ('A' for Active; 'I' for Inactive)
REMARK    1  A    between atoms: C6_9  and  C7_10 
REMARK    2  A    between atoms: C7_10  and  O1_11 
ROOT
HETATM    1  C1  UNL     1     -14.673  18.530   3.603  1.00  0.00     0.051 C 
HETATM    2  C2  UNL     1     -14.713  18.664   5.116  1.00  0.00    -0.028 A 
HETATM    3  C3  UNL     1     -14.785  19.933   5.639  1.00  0.00     0.059 A 
HETATM    4  S1  UNL     1     -14.808  19.652   7.330  1.00  0.00    -0.103 SA
HETATM    5  C4  UNL     1     -14.726  17.949   7.316  1.00  0.00     0.011 A 
HETATM    6  C5  UNL     1     -14.683  17.643   5.991  1.00  0.00     0.049 A 
HETATM    7  N1  UNL     1     -14.607  16.277   5.517  1.00  0.00    -0.358 N 
ATOM      8  H1  UNL     1     -14.247  16.150   4.570  1.00  0.00     0.162 HD
HETATM    9  C6  UNL     1     -14.980  15.062   6.228  1.00  0.00     0.328 C 
HETATM   10  N2  UNL     1     -14.245  15.064   7.471  1.00  0.00    -0.050 N 
ATOM     11  H21 UNL     1     -13.309  15.457   7.378  1.00  0.00     0.279 HD
ATOM     12  H22 UNL     1     -13.968  14.129   7.769  1.00  0.00     0.279 HD
HETATM   13  C8  UNL     1     -15.046  15.750   8.450  1.00  0.00     0.240 C 
HETATM   14  C9  UNL     1     -14.717  17.195   8.593  1.00  0.00     0.076 C 
ENDROOT
BRANCH   9  15
HETATM   15  C7  UNL     1     -14.707  13.855   5.397  1.00  0.00     0.264 C 
HETATM   16 CL1  UNL     1     -14.415  14.351   3.699  1.00  0.00    -0.091 Cl
BRANCH  15  17
HETATM   17  O1  UNL     1     -13.529  13.255   5.848  1.00  0.00    -0.377 OA
ATOM     18  H1  UNL     1     -13.727  12.727   6.613  1.00  0.00     0.211 HD
ENDBRANCH  15  17
ENDBRANCH   9  15
TORSDOF 2
ENDMDL
MODEL 3
REMARK VINA RESULT: -6.129213207      3.498      4.283
REMARK  2 active torsions:
REMARK  status: ('A' for Active; 'I' for Inactive)
REMARK    1  A    between atoms: C6_9  and  C7_10 
REMARK    2  A    between atoms: C7_10  and  O1_11 
ROOT
HETATM    1  C1  UNL     1     -15.959  15.639   1.783  1.00  0.00     0.051 C 
HETATM    2  C2  UNL     1     -15.673  14.219   2.241  1.00  0.00    -0.028 A 
HETATM    3  C3  UNL     1     -15.098  14.055   3.478  1.00  0.00     0.059 A 
HETATM    4  S1  UNL     1     -14.945  12.352   3.609  1.00  0.00    -0.103 SA
HETATM    5  C4  UNL     1     -15.611  11.910   2.102  1.00  0.00     0.011 A 
HETATM    6  C5  UNL     1     -15.935  13.104   1.536  1.00  0.00     0.049 A 
HETATM    7  N1  UNL     1     -16.539  13.196   0.222  1.00  0.00    -0.358 N 
ATOM      8  H1  UNL     1     -16.441  14.092  -0.256  1.00  0.00     0.162 HD
HETATM    9  C6  UNL     1     -17.270  12.163  -0.498  1.00  0.00     0.328 C 
HETATM   10  N2  UNL     1     -16.402  11.011  -0.570  1.00  0.00    -0.050 N 
ATOM     11  H21 UNL     1     -15.420  11.260  -0.683  1.00  0.00     0.279 HD
ATOM     12  H22 UNL     1     -16.508  10.488  -1.439  1.00  0.00     0.279 HD
HETATM   13  C8  UNL     1     -16.644  10.209   0.599  1.00  0.00     0.240 C 
HETATM   14  C9  UNL     1     -15.705  10.480   1.722  1.00  0.00     0.076 C 
ENDROOT
BRANCH   9  15
HETATM   15  C7  UNL     1     -17.693  12.651  -1.842  1.00  0.00     0.264 C 
HETATM   16 CL1  UNL     1     -16.818  14.167  -2.231  1.00  0.00    -0.091 Cl
BRANCH  15  17
HETATM   17  O1  UNL     1     -17.315  11.711  -2.803  1.00  0.00    -0.377 OA
ATOM     18  H1  UNL     1     -16.479  11.335  -2.552  1.00  0.00     0.211 HD
ENDBRANCH  15  17
ENDBRANCH   9  15
TORSDOF 2
ENDMDL
MODEL 4
REMARK VINA RESULT: -6.112777861      5.056      6.082
REMARK  2 active torsions:
REMARK  status: ('A' for Active; 'I' for Inactive)
REMARK    1  A    between atoms: C6_9  and  C7_10 
REMARK    2  A    between atoms: C7_10  and  O1_11 
ROOT
HETATM    1  C1  UNL     1     -14.551  20.163   6.616  1.00  0.00     0.051 C 
HETATM    2  C2  UNL     1     -15.413  19.239   5.772  1.00  0.00    -0.028 A 
HETATM    3  C3  UNL     1     -15.977  19.762   4.634  1.00  0.00     0.059 A 
HETATM    4  S1  UNL     1     -16.848  18.434   3.990  1.00  0.00    -0.103 SA
HETATM    5  C4  UNL     1     -16.469  17.269   5.177  1.00  0.00     0.011 A 
HETATM    6  C5  UNL     1     -15.673  17.948   6.045  1.00  0.00     0.049 A 
HETATM    7  N1  UNL     1     -15.115  17.326   7.228  1.00  0.00    -0.358 N 
ATOM      8  H1  UNL     1     -14.826  17.958   7.975  1.00  0.00     0.162 HD
HETATM    9  C6  UNL     1     -14.917  15.905   7.481  1.00  0.00     0.328 C 
HETATM   10  N2  UNL     1     -16.198  15.266   7.296  1.00  0.00    -0.050 N 
ATOM     11  H21 UNL     1     -16.979  15.842   7.611  1.00  0.00     0.279 HD
ATOM     12  H22 UNL     1     -16.346  14.483   7.932  1.00  0.00     0.279 HD
HETATM   13  C8  UNL     1     -16.303  14.891   5.911  1.00  0.00     0.240 C 
HETATM   14  C9  UNL     1     -17.010  15.893   5.066  1.00  0.00     0.076 C 
ENDROOT
BRANCH   9  15
HETATM   15  C7  UNL     1     -14.351  15.681   8.842  1.00  0.00     0.264 C 
HETATM   16 CL1  UNL     1     -13.754  17.237   9.505  1.00  0.00    -0.091 Cl
BRANCH  15  17
HETATM   17  O1  UNL     1     -15.374  15.250   9.690  1.00  0.00    -0.377 OA
ATOM     18  H1  UNL     1     -15.451  15.861  10.414  1.00  0.00     0.211 HD
ENDBRANCH  15  17
ENDBRANCH   9  15
TORSDOF 2
ENDMDL
MODEL 5
REMARK VINA RESULT: -6.099574767      1.167      2.994
REMARK  2 active torsions:
REMARK  status: ('A' for Active; 'I' for Inactive)
REMARK    1  A    between atoms: C6_9  and  C7_10 
REMARK    2  A    between atoms: C7_10  and  O1_11 
ROOT
HETATM    1  C1  UNL     1     -13.988  12.749   5.090  1.00  0.00     0.051 C 
HETATM    2  C2  UNL     1     -15.242  13.596   4.957  1.00  0.00    -0.028 A 
HETATM    3  C3  UNL     1     -15.279  14.787   5.641  1.00  0.00     0.059 A 
HETATM    4  S1  UNL     1     -16.822  15.417   5.235  1.00  0.00    -0.103 SA
HETATM    5  C4  UNL     1     -17.362  14.158   4.219  1.00  0.00     0.011 A 
HETATM    6  C5  UNL     1     -16.324  13.279   4.223  1.00  0.00     0.049 A 
HETATM    7  N1  UNL     1     -16.360  12.039   3.475  1.00  0.00    -0.358 N 
ATOM      8  H1  UNL     1     -15.721  11.308   3.786  1.00  0.00     0.162 HD
HETATM    9  C6  UNL     1     -17.200  11.711   2.332  1.00  0.00     0.328 C 
HETATM   10  N2  UNL     1     -18.567  11.937   2.739  1.00  0.00    -0.050 N 
ATOM     11  H21 UNL     1     -18.736  11.693   3.714  1.00  0.00     0.279 HD
ATOM     12  H22 UNL     1     -19.221  11.275   2.321  1.00  0.00     0.279 HD
HETATM   13  C8  UNL     1     -18.890  13.307   2.441  1.00  0.00     0.240 C 
HETATM   14  C9  UNL     1     -18.703  14.235   3.590  1.00  0.00     0.076 C 
ENDROOT
BRANCH   9  15
HETATM   15  C7  UNL     1     -16.957  10.312   1.878  1.00  0.00     0.264 C 
HETATM   16 CL1  UNL     1     -15.699  10.307   0.601  1.00  0.00    -0.091 Cl
BRANCH  15  17
HETATM   17  O1  UNL     1     -16.447   9.573   2.947  1.00  0.00    -0.377 OA
ATOM     18  H1  UNL     1     -15.939   8.846   2.604  1.00  0.00     0.211 HD
ENDBRANCH  15  17
ENDBRANCH   9  15
TORSDOF 2
ENDMDL
