MODEL 1
REMARK VINA RESULT: -9.086637848      0.000      0.000
REMARK  3 active torsions:
REMARK  status: ('A' for Active; 'I' for Inactive)
REMARK    1  A    between atoms: C9_9  and  C10_10 
REMARK    2  A    between atoms: C12_15  and  O1_16 
REMARK    3  A    between atoms: C19_24  and  O2_25 
ROOT
HETATM    1  C1  UNL     1      18.262 -15.689   7.544  1.00  0.00     0.017 C 
HETATM    2  C2  UNL     1      18.701 -14.584   6.973  1.00  0.00    -0.060 C 
HETATM    3  C3  UNL     1      19.830 -14.621   6.034  1.00  0.00     0.036 C 
HETATM    4  C4  UNL     1      19.539 -13.779   4.781  1.00  0.00     0.010 C 
HETATM    5  C5  UNL     1      19.102 -12.420   5.291  1.00  0.00     0.005 C 
HETATM    6  C6  UNL     1      19.134 -11.356   4.229  1.00  0.00    -0.035 C 
HETATM    7  C7  UNL     1      20.186 -10.343   4.643  1.00  0.00     0.016 C 
HETATM    8  C8  UNL     1      19.580 -11.894   2.884  1.00  0.00     0.023 C 
HETATM    9  C9  UNL     1      19.177 -11.102   1.716  1.00  0.00     0.060 C 
HETATM   10  C12 UNL     1      18.742  -9.698   1.940  1.00  0.00     0.128 C 
HETATM   11  C13 UNL     1      18.089  -9.405   3.231  1.00  0.00     0.037 C 
HETATM   12  C14 UNL     1      17.798 -10.720   3.969  1.00  0.00    -0.004 C 
HETATM   13  C15 UNL     1      17.009 -10.383   5.176  1.00  0.00     0.006 C 
HETATM   14  C16 UNL     1      17.325 -11.156   6.400  1.00  0.00     0.013 C 
HETATM   15  C17 UNL     1      17.776 -12.546   5.983  1.00  0.00    -0.010 C 
HETATM   16  C18 UNL     1      16.747 -13.314   5.245  1.00  0.00     0.018 C 
HETATM   17  C19 UNL     1      18.031 -13.297   7.299  1.00  0.00     0.155 C 
ENDROOT
BRANCH   9  18
HETATM   18  C10 UNL     1      20.308 -11.078   0.741  1.00  0.00    -0.018 C 
HETATM   19  C11 UNL     1      21.714 -11.286   1.183  1.00  0.00     0.063 C 
HETATM   20  N1  UNL     1      20.124 -10.878  -0.510  1.00  0.00    -0.405 N 
ATOM     21  H12 UNL     1      19.160 -10.735  -0.813  1.00  0.00     0.155 HD
ATOM     22  H11 UNL     1      20.897 -10.862  -1.175  1.00  0.00     0.155 HD
ENDBRANCH   9  18
BRANCH  10  23
HETATM   23  O1  UNL     1      17.843  -9.316   0.912  1.00  0.00    -0.395 OA
ATOM     24  H1  UNL     1      16.958  -9.549   1.166  1.00  0.00     0.210 HD
ENDBRANCH  10  23
BRANCH  17  25
HETATM   25  O2  UNL     1      16.878 -13.460   8.030  1.00  0.00    -0.390 OA
ATOM     26  H2  UNL     1      16.613 -12.671   8.488  1.00  0.00     0.210 HD
ENDBRANCH  17  25
TORSDOF 3
ENDMDL
MODEL 2
REMARK VINA RESULT: -9.014639710      2.379      5.807
REMARK  3 active torsions:
REMARK  status: ('A' for Active; 'I' for Inactive)
REMARK    1  A    between atoms: C9_9  and  C10_10 
REMARK    2  A    between atoms: C12_15  and  O1_16 
REMARK    3  A    between atoms: C19_24  and  O2_25 
ROOT
HETATM    1  C1  UNL     1      20.758 -10.814  -0.039  1.00  0.00     0.017 C 
HETATM    2  C2  UNL     1      19.875 -11.272   0.826  1.00  0.00    -0.060 C 
HETATM    3  C3  UNL     1      19.838 -12.698   1.178  1.00  0.00     0.036 C 
HETATM    4  C4  UNL     1      19.709 -12.894   2.697  1.00  0.00     0.010 C 
HETATM    5  C5  UNL     1      18.532 -12.041   3.124  1.00  0.00     0.005 C 
HETATM    6  C6  UNL     1      18.022 -12.387   4.496  1.00  0.00    -0.035 C 
HETATM    7  C7  UNL     1      16.613 -12.926   4.326  1.00  0.00     0.016 C 
HETATM    8  C8  UNL     1      18.819 -13.501   5.144  1.00  0.00     0.023 C 
HETATM    9  C9  UNL     1      18.743 -13.568   6.609  1.00  0.00     0.060 C 
HETATM   10  C12 UNL     1      17.634 -12.845   7.285  1.00  0.00     0.128 C 
HETATM   11  C13 UNL     1      17.143 -11.619   6.624  1.00  0.00     0.037 C 
HETATM   12  C14 UNL     1      18.085 -11.245   5.470  1.00  0.00    -0.004 C 
HETATM   13  C15 UNL     1      17.638  -9.936   4.944  1.00  0.00     0.006 C 
HETATM   14  C16 UNL     1      17.710  -9.764   3.474  1.00  0.00     0.013 C 
HETATM   15  C17 UNL     1      18.874 -10.589   2.954  1.00  0.00    -0.010 C 
HETATM   16  C18 UNL     1      20.190 -10.181   3.497  1.00  0.00     0.018 C 
HETATM   17  C19 UNL     1      18.914 -10.317   1.441  1.00  0.00     0.155 C 
ENDROOT
BRANCH   9  18
HETATM   18  C10 UNL     1      18.666 -15.002   7.018  1.00  0.00    -0.018 C 
HETATM   19  C11 UNL     1      19.062 -16.094   6.088  1.00  0.00     0.063 C 
HETATM   20  N1  UNL     1      18.260 -15.358   8.179  1.00  0.00    -0.405 N 
ATOM     21  H12 UNL     1      17.988 -14.610   8.817  1.00  0.00     0.155 HD
ATOM     22  H11 UNL     1      18.208 -16.337   8.458  1.00  0.00     0.155 HD
ENDBRANCH   9  18
BRANCH  10  23
HETATM   23  O1  UNL     1      18.038 -12.488   8.596  1.00  0.00    -0.395 OA
ATOM     24  H1  UNL     1      18.864 -12.912   8.797  1.00  0.00     0.210 HD
ENDBRANCH  10  23
BRANCH  17  25
HETATM   25  O2  UNL     1      19.209  -9.003   1.163  1.00  0.00    -0.390 OA
ATOM     26  H2  UNL     1      19.263  -8.462   1.941  1.00  0.00     0.210 HD
ENDBRANCH  17  25
TORSDOF 3
ENDMDL
MODEL 3
REMARK VINA RESULT: -8.603398945      2.924      5.955
REMARK  3 active torsions:
REMARK  status: ('A' for Active; 'I' for Inactive)
REMARK    1  A    between atoms: C9_9  and  C10_10 
REMARK    2  A    between atoms: C12_15  and  O1_16 
REMARK    3  A    between atoms: C19_24  and  O2_25 
ROOT
HETATM    1  C1  UNL     1      21.675 -12.939  -1.231  1.00  0.00     0.017 C 
HETATM    2  C2  UNL     1      20.711 -12.340  -0.560  1.00  0.00    -0.060 C 
HETATM    3  C3  UNL     1      19.515 -13.082  -0.141  1.00  0.00     0.036 C 
HETATM    4  C4  UNL     1      19.151 -12.773   1.320  1.00  0.00     0.010 C 
HETATM    5  C5  UNL     1      19.103 -11.261   1.420  1.00  0.00     0.005 C 
HETATM    6  C6  UNL     1      18.406 -10.777   2.662  1.00  0.00    -0.035 C 
HETATM    7  C7  UNL     1      17.156 -10.041   2.213  1.00  0.00     0.016 C 
HETATM    8  C8  UNL     1      17.926 -11.916   3.538  1.00  0.00     0.023 C 
HETATM    9  C9  UNL     1      17.701 -11.582   4.950  1.00  0.00     0.060 C 
HETATM   10  C12 UNL     1      17.569 -10.148   5.316  1.00  0.00     0.128 C 
HETATM   11  C13 UNL     1      18.319  -9.181   4.489  1.00  0.00     0.037 C 
HETATM   12  C14 UNL     1      19.275  -9.937   3.555  1.00  0.00    -0.004 C 
HETATM   13  C15 UNL     1      20.108  -8.927   2.865  1.00  0.00     0.006 C 
HETATM   14  C16 UNL     1      20.415  -9.197   1.440  1.00  0.00     0.013 C 
HETATM   15  C17 UNL     1      20.485 -10.702   1.244  1.00  0.00    -0.010 C 
HETATM   16  C18 UNL     1      21.542 -11.362   2.043  1.00  0.00     0.018 C 
HETATM   17  C19 UNL     1      20.858 -10.896  -0.234  1.00  0.00     0.155 C 
ENDROOT
BRANCH   9  18
HETATM   18  C10 UNL     1      16.470 -12.286   5.417  1.00  0.00    -0.018 C 
HETATM   19  C11 UNL     1      15.905 -13.439   4.663  1.00  0.00     0.063 C 
HETATM   20  N1  UNL     1      15.847 -11.935   6.478  1.00  0.00    -0.405 N 
ATOM     21  H12 UNL     1      16.233 -11.145   6.995  1.00  0.00     0.155 HD
ATOM     22  H11 UNL     1      15.006 -12.416   6.797  1.00  0.00     0.155 HD
ENDBRANCH   9  18
BRANCH  10  23
HETATM   23  O1  UNL     1      17.980  -9.967   6.660  1.00  0.00    -0.395 OA
ATOM     24  H1  UNL     1      18.641 -10.614   6.876  1.00  0.00     0.210 HD
ENDBRANCH  10  23
BRANCH  17  25
HETATM   25  O2  UNL     1      22.110 -10.405  -0.518  1.00  0.00    -0.390 OA
ATOM     26  H2  UNL     1      22.326  -9.627  -0.017  1.00  0.00     0.210 HD
ENDBRANCH  17  25
TORSDOF 3
ENDMDL
MODEL 4
REMARK VINA RESULT: -8.572206951      2.535      5.767
REMARK  3 active torsions:
REMARK  status: ('A' for Active; 'I' for Inactive)
REMARK    1  A    between atoms: C9_9  and  C10_10 
REMARK    2  A    between atoms: C12_15  and  O1_16 
REMARK    3  A    between atoms: C19_24  and  O2_25 
ROOT
HETATM    1  C1  UNL     1      22.043 -12.703  -0.822  1.00  0.00     0.017 C 
HETATM    2  C2  UNL     1      21.015 -12.761   0.001  1.00  0.00    -0.060 C 
HETATM    3  C3  UNL     1      20.938 -13.801   1.035  1.00  0.00     0.036 C 
HETATM    4  C4  UNL     1      20.512 -13.210   2.389  1.00  0.00     0.010 C 
HETATM    5  C5  UNL     1      19.255 -12.410   2.111  1.00  0.00     0.005 C 
HETATM    6  C6  UNL     1      18.489 -12.069   3.360  1.00  0.00    -0.035 C 
HETATM    7  C7  UNL     1      17.154 -12.787   3.274  1.00  0.00     0.016 C 
HETATM    8  C8  UNL     1      19.163 -12.591   4.613  1.00  0.00     0.023 C 
HETATM    9  C9  UNL     1      18.797 -11.911   5.862  1.00  0.00     0.060 C 
HETATM   10  C12 UNL     1      17.561 -11.086   5.872  1.00  0.00     0.128 C 
HETATM   11  C13 UNL     1      17.186 -10.439   4.599  1.00  0.00     0.037 C 
HETATM   12  C14 UNL     1      18.331 -10.592   3.588  1.00  0.00    -0.004 C 
HETATM   13  C15 UNL     1      17.972  -9.799   2.392  1.00  0.00     0.006 C 
HETATM   14  C16 UNL     1      18.333 -10.392   1.082  1.00  0.00     0.013 C 
HETATM   15  C17 UNL     1      19.595 -11.218   1.264  1.00  0.00    -0.010 C 
HETATM   16  C18 UNL     1      20.766 -10.433   1.715  1.00  0.00     0.018 C 
HETATM   17  C19 UNL     1      19.931 -11.751  -0.138  1.00  0.00     0.155 C 
ENDROOT
BRANCH   9  18
HETATM   18  C10 UNL     1      18.670 -12.934   6.943  1.00  0.00    -0.018 C 
HETATM   19  C11 UNL     1      18.937 -14.374   6.679  1.00  0.00     0.063 C 
HETATM   20  N1  UNL     1      18.329 -12.623   8.136  1.00  0.00    -0.405 N 
ATOM     21  H12 UNL     1      18.146 -11.636   8.317  1.00  0.00     0.155 HD
ATOM     22  H11 UNL     1      18.243 -13.322   8.875  1.00  0.00     0.155 HD
ENDBRANCH   9  18
BRANCH  10  23
HETATM   23  O1  UNL     1      17.687 -10.065   6.848  1.00  0.00    -0.395 OA
ATOM     24  H1  UNL     1      16.831  -9.869   7.210  1.00  0.00     0.210 HD
ENDBRANCH  10  23
BRANCH  17  25
HETATM   25  O2  UNL     1      20.248 -10.738  -1.011  1.00  0.00    -0.390 OA
ATOM     26  H2  UNL     1      20.019  -9.877  -0.680  1.00  0.00     0.210 HD
ENDBRANCH  17  25
TORSDOF 3
ENDMDL
MODEL 5
REMARK VINA RESULT: -8.484683241      1.363      1.715
REMARK  3 active torsions:
REMARK  status: ('A' for Active; 'I' for Inactive)
REMARK    1  A    between atoms: C9_9  and  C10_10 
REMARK    2  A    between atoms: C12_15  and  O1_16 
REMARK    3  A    between atoms: C19_24  and  O2_25 
ROOT
HETATM    1  C1  UNL     1      17.412 -14.040   7.973  1.00  0.00     0.017 C 
HETATM    2  C2  UNL     1      18.075 -13.173   7.234  1.00  0.00    -0.060 C 
HETATM    3  C3  UNL     1      19.487 -13.400   6.896  1.00  0.00     0.036 C 
HETATM    4  C4  UNL     1      19.755 -13.124   5.407  1.00  0.00     0.010 C 
HETATM    5  C5  UNL     1      19.186 -11.745   5.136  1.00  0.00     0.005 C 
HETATM    6  C6  UNL     1      19.677 -11.152   3.844  1.00  0.00    -0.035 C 
HETATM    7  C7  UNL     1      20.499  -9.926   4.201  1.00  0.00     0.016 C 
HETATM    8  C8  UNL     1      20.616 -12.080   3.101  1.00  0.00     0.023 C 
HETATM    9  C9  UNL     1      20.745 -11.833   1.659  1.00  0.00     0.060 C 
HETATM   10  C12 UNL     1      20.296 -10.518   1.132  1.00  0.00     0.128 C 
HETATM   11  C13 UNL     1      19.183  -9.863   1.848  1.00  0.00     0.037 C 
HETATM   12  C14 UNL     1      18.580 -10.841   2.866  1.00  0.00    -0.004 C 
HETATM   13  C15 UNL     1      17.380 -10.194   3.441  1.00  0.00     0.006 C 
HETATM   14  C16 UNL     1      17.149 -10.414   4.888  1.00  0.00     0.013 C 
HETATM   15  C17 UNL     1      17.691 -11.786   5.254  1.00  0.00    -0.010 C 
HETATM   16  C18 UNL     1      17.029 -12.902   4.541  1.00  0.00     0.018 C 
HETATM   17  C19 UNL     1      17.367 -11.959   6.747  1.00  0.00     0.155 C 
ENDROOT
BRANCH   9  18
HETATM   18  C10 UNL     1      22.174 -12.017   1.269  1.00  0.00    -0.018 C 
HETATM   19  C11 UNL     1      22.888 -13.297   1.526  1.00  0.00     0.063 C 
HETATM   20  N1  UNL     1      22.849 -11.089   0.701  1.00  0.00    -0.405 N 
ATOM     21  H12 UNL     1      22.360 -10.211   0.525  1.00  0.00     0.155 HD
ATOM     22  H11 UNL     1      23.825 -11.215   0.434  1.00  0.00     0.155 HD
ENDBRANCH   9  18
BRANCH  10  23
HETATM   23  O1  UNL     1      19.904 -10.665  -0.222  1.00  0.00    -0.395 OA
ATOM     24  H1  UNL     1      19.114 -10.161  -0.377  1.00  0.00     0.210 HD
ENDBRANCH  10  23
BRANCH  17  25
HETATM   25  O2  UNL     1      16.013 -11.997   6.979  1.00  0.00    -0.390 OA
ATOM     26  H2  UNL     1      15.619 -12.829   6.745  1.00  0.00     0.210 HD
ENDBRANCH  17  25
TORSDOF 3
ENDMDL
