MODEL 1
REMARK VINA RESULT: -6.190938434      0.000      0.000
REMARK  7 active torsions:
REMARK  status: ('A' for Active; 'I' for Inactive)
REMARK    1  A    between atoms: N1_2  and  C2_4 
REMARK    2  A    between atoms: N2_8  and  C4_9 
REMARK    3  A    between atoms: C10_15  and  S2_16 
REMARK    4  A    between atoms: S2_16  and  C11_17 
REMARK    5  A    between atoms: C11_17  and  C12_18 
REMARK       I    between atoms: C12_18  and  N3_20 
REMARK    6  A    between atoms: N3_20  and  C13_22 
REMARK    7  A    between atoms: C13_22  and  C14_23 
ROOT
HETATM    1  C2  UNL     1      28.801  46.893   7.990  1.00  0.00     0.108 A 
HETATM    2  S1  UNL     1      28.185  46.040   9.339  1.00  0.00    -0.009 SA
HETATM    3  C3  UNL     1      29.346  44.806   9.388  1.00  0.00     0.293 A 
HETATM    4  O1  UNL     1      29.377  43.845  10.239  1.00  0.00    -0.259 OA
HETATM    5  N2  UNL     1      30.157  45.086   8.377  1.00  0.00    -0.295 N 
HETATM    6  C10 UNL     1      29.894  46.164   7.634  1.00  0.00     0.110 A 
ENDROOT
BRANCH   6   7
HETATM    7  S2  UNL     1      30.889  46.627   6.172  1.00  0.00    -0.100 SA
BRANCH   7   8
HETATM    8  C11 UNL     1      32.286  47.633   6.515  1.00  0.00     0.183 C 
BRANCH   8   9
HETATM    9  C12 UNL     1      33.566  47.378   5.852  1.00  0.00     0.227 C 
HETATM   10  O2  UNL     1      34.531  48.151   5.917  1.00  0.00    -0.273 OA
HETATM   11  N3  UNL     1      33.757  46.191   5.077  1.00  0.00    -0.358 N 
ATOM     12  H3  UNL     1      32.997  45.518   4.982  1.00  0.00     0.162 HD
BRANCH  11  13
HETATM   13  C13 UNL     1      35.003  45.949   4.438  1.00  0.00     0.154 C 
BRANCH  13  14
HETATM   14  C14 UNL     1      35.830  44.916   5.142  1.00  0.00     0.139 C 
HETATM   15  C15 UNL     1      35.145  44.228   6.274  1.00  0.00     0.035 C 
HETATM   16  C16 UNL     1      36.186  44.337   7.382  1.00  0.00     0.029 C 
HETATM   17  C17 UNL     1      36.858  45.649   6.988  1.00  0.00     0.168 C 
HETATM   18  O3  UNL     1      37.007  45.488   5.612  1.00  0.00    -0.384 OA
ENDBRANCH  13  14
ENDBRANCH  11  13
ENDBRANCH   8   9
ENDBRANCH   7   8
ENDBRANCH   6   7
BRANCH   1  19
HETATM   19  N1  UNL     1      28.282  48.130   7.429  1.00  0.00    -0.386 N 
HETATM   20  C1  UNL     1      26.852  48.318   7.429  1.00  0.00     0.147 C 
ATOM     21  H1  UNL     1      28.907  48.841   7.050  1.00  0.00     0.159 HD
ENDBRANCH   1  19
BRANCH   5  22
HETATM   22  C4  UNL     1      31.353  44.253   8.049  1.00  0.00     0.094 C 
HETATM   23  C5  UNL     1      31.044  42.810   8.117  1.00  0.00     0.026 C 
HETATM   24  C6  UNL     1      32.360  42.094   7.735  1.00  0.00     0.002 C 
HETATM   25  C7  UNL     1      33.394  42.240   8.820  1.00  0.00     0.000 C 
HETATM   26  C8  UNL     1      32.978  43.362   9.738  1.00  0.00     0.002 C 
HETATM   27  C9  UNL     1      32.500  44.581   8.977  1.00  0.00     0.026 C 
ENDBRANCH   5  22
TORSDOF 7
ENDMDL
MODEL 2
REMARK VINA RESULT: -6.166272889      1.171      1.229
REMARK  7 active torsions:
REMARK  status: ('A' for Active; 'I' for Inactive)
REMARK    1  A    between atoms: N1_2  and  C2_4 
REMARK    2  A    between atoms: N2_8  and  C4_9 
REMARK    3  A    between atoms: C10_15  and  S2_16 
REMARK    4  A    between atoms: S2_16  and  C11_17 
REMARK    5  A    between atoms: C11_17  and  C12_18 
REMARK       I    between atoms: C12_18  and  N3_20 
REMARK    6  A    between atoms: N3_20  and  C13_22 
REMARK    7  A    between atoms: C13_22  and  C14_23 
ROOT
HETATM    1  C2  UNL     1      28.959  46.615   8.939  1.00  0.00     0.108 A 
HETATM    2  S1  UNL     1      28.303  45.324   9.851  1.00  0.00    -0.009 SA
HETATM    3  C3  UNL     1      29.587  44.232   9.672  1.00  0.00     0.293 A 
HETATM    4  O1  UNL     1      29.636  43.051  10.171  1.00  0.00    -0.259 OA
HETATM    5  N2  UNL     1      30.466  44.886   8.925  1.00  0.00    -0.295 N 
HETATM    6  C10 UNL     1      30.162  46.126   8.529  1.00  0.00     0.110 A 
ENDROOT
BRANCH   6   7
HETATM    7  S2  UNL     1      31.250  47.114   7.442  1.00  0.00    -0.100 SA
BRANCH   7   8
HETATM    8  C11 UNL     1      31.225  46.650   5.750  1.00  0.00     0.183 C 
BRANCH   8   9
HETATM    9  C12 UNL     1      32.455  46.234   5.075  1.00  0.00     0.227 C 
HETATM   10  O2  UNL     1      32.599  46.262   3.846  1.00  0.00    -0.273 OA
HETATM   11  N3  UNL     1      33.573  45.762   5.833  1.00  0.00    -0.358 N 
ATOM     12  H3  UNL     1      33.514  45.712   6.849  1.00  0.00     0.162 HD
BRANCH  11  13
HETATM   13  C13 UNL     1      34.765  45.362   5.171  1.00  0.00     0.154 C 
BRANCH  13  14
HETATM   14  C14 UNL     1      35.713  44.626   6.068  1.00  0.00     0.139 C 
HETATM   15  C15 UNL     1      35.747  45.109   7.479  1.00  0.00     0.035 C 
HETATM   16  C16 UNL     1      37.244  45.260   7.722  1.00  0.00     0.029 C 
HETATM   17  C17 UNL     1      37.710  45.605   6.311  1.00  0.00     0.168 C 
HETATM   18  O3  UNL     1      37.001  44.681   5.546  1.00  0.00    -0.384 OA
ENDBRANCH  13  14
ENDBRANCH  11  13
ENDBRANCH   8   9
ENDBRANCH   7   8
ENDBRANCH   6   7
BRANCH   1  19
HETATM   19  N1  UNL     1      28.365  47.926   8.730  1.00  0.00    -0.386 N 
HETATM   20  C1  UNL     1      27.487  48.089   7.597  1.00  0.00     0.147 C 
ATOM     21  H1  UNL     1      28.562  48.702   9.361  1.00  0.00     0.159 HD
ENDBRANCH   1  19
BRANCH   5  22
HETATM   22  C4  UNL     1      31.778  44.299   8.522  1.00  0.00     0.094 C 
HETATM   23  C5  UNL     1      31.618  42.929   7.991  1.00  0.00     0.026 C 
HETATM   24  C6  UNL     1      33.045  42.474   7.604  1.00  0.00     0.002 C 
HETATM   25  C7  UNL     1      33.890  42.234   8.827  1.00  0.00     0.000 C 
HETATM   26  C8  UNL     1      33.228  42.895  10.010  1.00  0.00     0.002 C 
HETATM   27  C9  UNL     1      32.738  44.292   9.690  1.00  0.00     0.026 C 
ENDBRANCH   5  22
TORSDOF 7
ENDMDL
MODEL 3
REMARK VINA RESULT: -6.164887365      1.443      1.749
REMARK  7 active torsions:
REMARK  status: ('A' for Active; 'I' for Inactive)
REMARK    1  A    between atoms: N1_2  and  C2_4 
REMARK    2  A    between atoms: N2_8  and  C4_9 
REMARK    3  A    between atoms: C10_15  and  S2_16 
REMARK    4  A    between atoms: S2_16  and  C11_17 
REMARK    5  A    between atoms: C11_17  and  C12_18 
REMARK       I    between atoms: C12_18  and  N3_20 
REMARK    6  A    between atoms: N3_20  and  C13_22 
REMARK    7  A    between atoms: C13_22  and  C14_23 
ROOT
HETATM    1  C2  UNL     1      28.661  46.757   8.166  1.00  0.00     0.108 A 
HETATM    2  S1  UNL     1      28.072  45.786   9.446  1.00  0.00    -0.009 SA
HETATM    3  C3  UNL     1      29.331  44.653   9.482  1.00  0.00     0.293 A 
HETATM    4  O1  UNL     1      29.413  43.654  10.284  1.00  0.00    -0.259 OA
HETATM    5  N2  UNL     1      30.152  45.051   8.520  1.00  0.00    -0.295 N 
HETATM    6  C10 UNL     1      29.825  46.142   7.820  1.00  0.00     0.110 A 
ENDROOT
BRANCH   6   7
HETATM    7  S2  UNL     1      30.830  46.762   6.425  1.00  0.00    -0.100 SA
BRANCH   7   8
HETATM    8  C11 UNL     1      31.371  48.424   6.582  1.00  0.00     0.183 C 
BRANCH   8   9
HETATM    9  C12 UNL     1      32.731  48.724   7.034  1.00  0.00     0.227 C 
HETATM   10  O2  UNL     1      33.370  49.714   6.656  1.00  0.00    -0.273 OA
HETATM   11  N3  UNL     1      33.396  47.855   7.956  1.00  0.00    -0.358 N 
ATOM     12  H3  UNL     1      32.923  47.021   8.301  1.00  0.00     0.162 HD
BRANCH  11  13
HETATM   13  C13 UNL     1      34.715  48.154   8.391  1.00  0.00     0.154 C 
BRANCH  13  14
HETATM   14  C14 UNL     1      35.744  47.225   7.821  1.00  0.00     0.139 C 
HETATM   15  C15 UNL     1      35.192  46.073   7.050  1.00  0.00     0.035 C 
HETATM   16  C16 UNL     1      35.952  44.899   7.655  1.00  0.00     0.029 C 
HETATM   17  C17 UNL     1      36.162  45.420   9.075  1.00  0.00     0.168 C 
HETATM   18  O3  UNL     1      36.557  46.734   8.836  1.00  0.00    -0.384 OA
ENDBRANCH  13  14
ENDBRANCH  11  13
ENDBRANCH   8   9
ENDBRANCH   7   8
ENDBRANCH   6   7
BRANCH   1  19
HETATM   19  N1  UNL     1      28.059  47.974   7.646  1.00  0.00    -0.386 N 
HETATM   20  C1  UNL     1      26.624  48.008   7.514  1.00  0.00     0.147 C 
ATOM     21  H1  UNL     1      28.632  48.777   7.385  1.00  0.00     0.159 HD
ENDBRANCH   1  19
BRANCH   5  22
HETATM   22  C4  UNL     1      31.426  44.341   8.200  1.00  0.00     0.094 C 
HETATM   23  C5  UNL     1      31.222  42.880   8.106  1.00  0.00     0.026 C 
HETATM   24  C6  UNL     1      32.611  42.298   7.753  1.00  0.00     0.002 C 
HETATM   25  C7  UNL     1      33.557  42.403   8.919  1.00  0.00     0.000 C 
HETATM   26  C8  UNL     1      32.999  43.395   9.909  1.00  0.00     0.002 C 
HETATM   27  C9  UNL     1      32.482  44.650   9.237  1.00  0.00     0.026 C 
ENDBRANCH   5  22
TORSDOF 7
ENDMDL
MODEL 4
REMARK VINA RESULT: -6.083240512      2.707      6.193
REMARK  7 active torsions:
REMARK  status: ('A' for Active; 'I' for Inactive)
REMARK    1  A    between atoms: N1_2  and  C2_4 
REMARK    2  A    between atoms: N2_8  and  C4_9 
REMARK    3  A    between atoms: C10_15  and  S2_16 
REMARK    4  A    between atoms: S2_16  and  C11_17 
REMARK    5  A    between atoms: C11_17  and  C12_18 
REMARK       I    between atoms: C12_18  and  N3_20 
REMARK    6  A    between atoms: N3_20  and  C13_22 
REMARK    7  A    between atoms: C13_22  and  C14_23 
ROOT
HETATM    1  C2  UNL     1      35.298  46.165   4.445  1.00  0.00     0.108 A 
HETATM    2  S1  UNL     1      35.954  44.613   4.746  1.00  0.00    -0.009 SA
HETATM    3  C3  UNL     1      35.628  44.538   6.407  1.00  0.00     0.293 A 
HETATM    4  O1  UNL     1      35.916  43.554   7.180  1.00  0.00    -0.259 OA
HETATM    5  N2  UNL     1      35.034  45.694   6.673  1.00  0.00    -0.295 N 
HETATM    6  C10 UNL     1      34.853  46.557   5.669  1.00  0.00     0.110 A 
ENDROOT
BRANCH   6   7
HETATM    7  S2  UNL     1      34.112  48.211   5.908  1.00  0.00    -0.100 SA
BRANCH   7   8
HETATM    8  C11 UNL     1      32.619  48.488   5.027  1.00  0.00     0.183 C 
BRANCH   8   9
HETATM    9  C12 UNL     1      31.349  47.966   5.534  1.00  0.00     0.227 C 
HETATM   10  O2  UNL     1      30.278  48.581   5.448  1.00  0.00    -0.273 OA
HETATM   11  N3  UNL     1      31.294  46.686   6.171  1.00  0.00    -0.358 N 
ATOM     12  H3  UNL     1      32.144  46.133   6.276  1.00  0.00     0.162 HD
BRANCH  11  13
HETATM   13  C13 UNL     1      30.057  46.186   6.659  1.00  0.00     0.154 C 
BRANCH  13  14
HETATM   14  C14 UNL     1      29.883  46.392   8.133  1.00  0.00     0.139 C 
HETATM   15  C15 UNL     1      29.779  45.139   8.935  1.00  0.00     0.035 C 
HETATM   16  C16 UNL     1      28.545  45.414   9.787  1.00  0.00     0.029 C 
HETATM   17  C17 UNL     1      27.761  46.314   8.837  1.00  0.00     0.168 C 
HETATM   18  O3  UNL     1      28.757  47.172   8.375  1.00  0.00    -0.384 OA
ENDBRANCH  13  14
ENDBRANCH  11  13
ENDBRANCH   8   9
ENDBRANCH   7   8
ENDBRANCH   6   7
BRANCH   1  19
HETATM   19  N1  UNL     1      35.205  46.838   3.159  1.00  0.00    -0.386 N 
HETATM   20  C1  UNL     1      36.149  47.893   2.886  1.00  0.00     0.147 C 
ATOM     21  H1  UNL     1      34.497  46.572   2.474  1.00  0.00     0.159 HD
ENDBRANCH   1  19
BRANCH   5  22
HETATM   22  C4  UNL     1      34.553  46.058   8.039  1.00  0.00     0.094 C 
HETATM   23  C5  UNL     1      35.664  46.099   9.012  1.00  0.00     0.026 C 
HETATM   24  C6  UNL     1      35.013  46.506  10.354  1.00  0.00     0.002 C 
HETATM   25  C7  UNL     1      34.161  45.394  10.905  1.00  0.00     0.000 C 
HETATM   26  C8  UNL     1      33.879  44.407   9.801  1.00  0.00     0.002 C 
HETATM   27  C9  UNL     1      33.492  45.088   8.505  1.00  0.00     0.026 C 
ENDBRANCH   5  22
TORSDOF 7
ENDMDL
MODEL 5
REMARK VINA RESULT: -5.989645653      2.761      6.348
REMARK  7 active torsions:
REMARK  status: ('A' for Active; 'I' for Inactive)
REMARK    1  A    between atoms: N1_2  and  C2_4 
REMARK    2  A    between atoms: N2_8  and  C4_9 
REMARK    3  A    between atoms: C10_15  and  S2_16 
REMARK    4  A    between atoms: S2_16  and  C11_17 
REMARK    5  A    between atoms: C11_17  and  C12_18 
REMARK       I    between atoms: C12_18  and  N3_20 
REMARK    6  A    between atoms: N3_20  and  C13_22 
REMARK    7  A    between atoms: C13_22  and  C14_23 
ROOT
HETATM    1  C2  UNL     1      36.673  46.926   7.208  1.00  0.00     0.108 A 
HETATM    2  S1  UNL     1      37.229  45.361   6.795  1.00  0.00    -0.009 SA
HETATM    3  C3  UNL     1      35.905  44.479   7.380  1.00  0.00     0.293 A 
HETATM    4  O1  UNL     1      35.780  43.202   7.332  1.00  0.00    -0.259 OA
HETATM    5  N2  UNL     1      35.091  45.404   7.868  1.00  0.00    -0.295 N 
HETATM    6  C10 UNL     1      35.468  46.684   7.792  1.00  0.00     0.110 A 
ENDROOT
BRANCH   6   7
HETATM    7  S2  UNL     1      34.475  48.053   8.486  1.00  0.00    -0.100 SA
BRANCH   7   8
HETATM    8  C11 UNL     1      33.542  48.961   7.309  1.00  0.00     0.183 C 
BRANCH   8   9
HETATM    9  C12 UNL     1      32.080  48.985   7.377  1.00  0.00     0.227 C 
HETATM   10  O2  UNL     1      31.431  49.982   7.718  1.00  0.00    -0.273 OA
HETATM   11  N3  UNL     1      31.321  47.819   7.044  1.00  0.00    -0.358 N 
ATOM     12  H3  UNL     1      31.799  46.964   6.759  1.00  0.00     0.162 HD
BRANCH  11  13
HETATM   13  C13 UNL     1      29.902  47.850   7.110  1.00  0.00     0.154 C 
BRANCH  13  14
HETATM   14  C14 UNL     1      29.371  47.490   8.464  1.00  0.00     0.139 C 
HETATM   15  C15 UNL     1      29.685  46.103   8.914  1.00  0.00     0.035 C 
HETATM   16  C16 UNL     1      28.320  45.607   9.374  1.00  0.00     0.029 C 
HETATM   17  C17 UNL     1      27.416  46.403   8.436  1.00  0.00     0.168 C 
HETATM   18  O3  UNL     1      27.993  47.670   8.499  1.00  0.00    -0.384 OA
ENDBRANCH  13  14
ENDBRANCH  11  13
ENDBRANCH   8   9
ENDBRANCH   7   8
ENDBRANCH   6   7
BRANCH   1  19
HETATM   19  N1  UNL     1      37.337  48.189   6.926  1.00  0.00    -0.386 N 
HETATM   20  C1  UNL     1      38.343  48.639   7.856  1.00  0.00     0.147 C 
ATOM     21  H1  UNL     1      37.098  48.738   6.100  1.00  0.00     0.159 HD
ENDBRANCH   1  19
BRANCH   5  22
HETATM   22  C4  UNL     1      33.770  45.074   8.484  1.00  0.00     0.094 C 
HETATM   23  C5  UNL     1      33.915  44.098   9.584  1.00  0.00     0.026 C 
HETATM   24  C6  UNL     1      32.482  43.880  10.124  1.00  0.00     0.002 C 
HETATM   25  C7  UNL     1      31.641  43.112   9.139  1.00  0.00     0.000 C 
HETATM   26  C8  UNL     1      32.315  43.154   7.790  1.00  0.00     0.002 C 
HETATM   27  C9  UNL     1      32.817  44.539   7.440  1.00  0.00     0.026 C 
ENDBRANCH   5  22
TORSDOF 7
ENDMDL
