MODEL 1
REMARK VINA RESULT: -6.181794186      0.000      0.000
REMARK  6 active torsions:
REMARK  status: ('A' for Active; 'I' for Inactive)
REMARK    1  A    between atoms: C1_2  and  C2_3 
REMARK       I    between atoms: C1_2  and  N2_10 
REMARK    2  A    between atoms: C2_3  and  N1_4 
REMARK    3  A    between atoms: N2_10  and  C7_12 
REMARK    4  A    between atoms: C10_16  and  O4_17 
REMARK    5  A    between atoms: O4_17  and  C11_18 
REMARK    6  A    between atoms: C14_23  and  C15_24 
ROOT
HETATM    1  C7  UNL     1      29.438  45.924   8.818  1.00  0.00     0.093 A 
HETATM    2  C8  UNL     1      28.598  45.322   9.728  1.00  0.00     0.173 A 
HETATM    3  O3  UNL     1      27.389  45.769   9.523  1.00  0.00    -0.330 OA
HETATM    4  C9  UNL     1      27.358  46.615   8.553  1.00  0.00     0.181 A 
HETATM    5  C10 UNL     1      28.662  46.773   8.038  1.00  0.00     0.127 A 
ENDROOT
BRANCH   1   6
HETATM    6  N2  UNL     1      30.821  45.655   8.708  1.00  0.00    -0.322 N 
HETATM    7  C1  UNL     1      31.430  44.430   8.395  1.00  0.00     0.239 C 
HETATM    8  O1  UNL     1      30.733  43.418   8.179  1.00  0.00    -0.271 OA
ATOM      9  H2  UNL     1      31.449  46.441   8.876  1.00  0.00     0.169 HD
BRANCH   7  10
HETATM   10  C2  UNL     1      32.908  44.359   8.325  1.00  0.00     0.220 C 
BRANCH  10  11
HETATM   11  N1  UNL     1      33.613  45.316   9.089  1.00  0.00    -0.400 N 
HETATM   12  C3  UNL     1      33.869  45.005  10.443  1.00  0.00     0.143 C 
HETATM   13  C4  UNL     1      34.726  46.084  11.126  1.00  0.00     0.187 C 
HETATM   14  O2  UNL     1      35.911  46.131  10.387  1.00  0.00    -0.388 OA
HETATM   15  C5  UNL     1      35.624  46.725   9.177  1.00  0.00     0.187 C 
HETATM   16  C6  UNL     1      34.617  45.972   8.345  1.00  0.00     0.143 C 
ENDBRANCH  10  11
ENDBRANCH   7  10
ENDBRANCH   1   6
BRANCH   5  17
HETATM   17  O4  UNL     1      28.943  47.577   7.037  1.00  0.00    -0.303 OA
BRANCH  17  18
HETATM   18  C11 UNL     1      29.406  48.867   6.819  1.00  0.00     0.122 A 
HETATM   19  C12 UNL     1      28.478  49.859   6.593  1.00  0.00     0.076 A 
HETATM   20 CL1  UNL     1      26.699  49.569   6.503  1.00  0.00    -0.081 Cl
HETATM   21  C13 UNL     1      28.925  51.118   6.388  1.00  0.00     0.077 A 
HETATM   22  S1  UNL     1      30.599  50.965   6.497  1.00  0.00    -0.091 SA
HETATM   23  C14 UNL     1      30.719  49.262   6.811  1.00  0.00     0.117 A 
BRANCH  23  24
HETATM   24  C15 UNL     1      31.965  48.520   6.984  1.00  0.00     0.219 C 
HETATM   25  O5  UNL     1      32.888  48.929   7.667  1.00  0.00    -0.643 OA
HETATM   26  O6  UNL     1      32.094  47.300   6.341  1.00  0.00    -0.643 OA
ENDBRANCH  23  24
ENDBRANCH  17  18
ENDBRANCH   5  17
TORSDOF 6
ENDMDL
MODEL 2
REMARK VINA RESULT: -6.170838448      2.580      4.784
REMARK  6 active torsions:
REMARK  status: ('A' for Active; 'I' for Inactive)
REMARK    1  A    between atoms: C1_2  and  C2_3 
REMARK       I    between atoms: C1_2  and  N2_10 
REMARK    2  A    between atoms: C2_3  and  N1_4 
REMARK    3  A    between atoms: N2_10  and  C7_12 
REMARK    4  A    between atoms: C10_16  and  O4_17 
REMARK    5  A    between atoms: O4_17  and  C11_18 
REMARK    6  A    between atoms: C14_23  and  C15_24 
ROOT
HETATM    1  C7  UNL     1      30.795  49.320   7.062  1.00  0.00     0.093 A 
HETATM    2  C8  UNL     1      30.316  50.593   6.844  1.00  0.00     0.173 A 
HETATM    3  O3  UNL     1      29.123  50.494   6.322  1.00  0.00    -0.330 OA
HETATM    4  C9  UNL     1      28.773  49.264   6.176  1.00  0.00     0.181 A 
HETATM    5  C10 UNL     1      29.816  48.431   6.635  1.00  0.00     0.127 A 
ENDROOT
BRANCH   1   6
HETATM    6  N2  UNL     1      32.043  49.028   7.656  1.00  0.00    -0.322 N 
HETATM    7  C1  UNL     1      33.310  49.086   7.054  1.00  0.00     0.239 C 
HETATM    8  O1  UNL     1      33.422  49.425   5.859  1.00  0.00    -0.271 OA
ATOM      9  H2  UNL     1      32.021  48.741   8.635  1.00  0.00     0.169 HD
BRANCH   7  10
HETATM   10  C2  UNL     1      34.504  48.741   7.859  1.00  0.00     0.220 C 
BRANCH  10  11
HETATM   11  N1  UNL     1      34.660  47.375   8.187  1.00  0.00    -0.400 N 
HETATM   12  C3  UNL     1      35.571  46.622   7.415  1.00  0.00     0.143 C 
HETATM   13  C4  UNL     1      35.715  45.184   7.942  1.00  0.00     0.187 C 
HETATM   14  O2  UNL     1      36.162  45.321   9.258  1.00  0.00    -0.388 OA
HETATM   15  C5  UNL     1      35.107  45.791  10.010  1.00  0.00     0.187 C 
HETATM   16  C6  UNL     1      34.597  47.142   9.578  1.00  0.00     0.143 C 
ENDBRANCH  10  11
ENDBRANCH   7  10
ENDBRANCH   1   6
BRANCH   5  17
HETATM   17  O4  UNL     1      29.745  47.118   6.612  1.00  0.00    -0.303 OA
BRANCH  17  18
HETATM   18  C11 UNL     1      30.183  46.027   7.348  1.00  0.00     0.122 A 
HETATM   19  C12 UNL     1      31.394  45.464   7.012  1.00  0.00     0.076 A 
HETATM   20 CL1  UNL     1      32.416  46.025   5.634  1.00  0.00    -0.081 Cl
HETATM   21  C13 UNL     1      31.828  44.404   7.731  1.00  0.00     0.077 A 
HETATM   22  S1  UNL     1      30.601  44.164   8.859  1.00  0.00    -0.091 SA
HETATM   23  C14 UNL     1      29.522  45.444   8.397  1.00  0.00     0.117 A 
BRANCH  23  24
HETATM   24  C15 UNL     1      28.233  45.730   9.023  1.00  0.00     0.219 C 
HETATM   25  O5  UNL     1      27.435  46.524   8.556  1.00  0.00    -0.643 OA
HETATM   26  O6  UNL     1      27.914  45.066  10.196  1.00  0.00    -0.643 OA
ENDBRANCH  23  24
ENDBRANCH  17  18
ENDBRANCH   5  17
TORSDOF 6
ENDMDL
MODEL 3
REMARK VINA RESULT: -6.110335671      1.419      1.589
REMARK  6 active torsions:
REMARK  status: ('A' for Active; 'I' for Inactive)
REMARK    1  A    between atoms: C1_2  and  C2_3 
REMARK       I    between atoms: C1_2  and  N2_10 
REMARK    2  A    between atoms: C2_3  and  N1_4 
REMARK    3  A    between atoms: N2_10  and  C7_12 
REMARK    4  A    between atoms: C10_16  and  O4_17 
REMARK    5  A    between atoms: O4_17  and  C11_18 
REMARK    6  A    between atoms: C14_23  and  C15_24 
ROOT
HETATM    1  C7  UNL     1      29.789  44.972   9.208  1.00  0.00     0.093 A 
HETATM    2  C8  UNL     1      28.857  44.554  10.131  1.00  0.00     0.173 A 
HETATM    3  O3  UNL     1      27.767  45.252   9.952  1.00  0.00    -0.330 OA
HETATM    4  C9  UNL     1      27.900  46.095   8.988  1.00  0.00     0.181 A 
HETATM    5  C10 UNL     1      29.199  45.975   8.449  1.00  0.00     0.127 A 
ENDROOT
BRANCH   1   6
HETATM    6  N2  UNL     1      31.081  44.415   9.070  1.00  0.00    -0.322 N 
HETATM    7  C1  UNL     1      31.418  43.167   8.521  1.00  0.00     0.239 C 
HETATM    8  O1  UNL     1      30.527  42.409   8.089  1.00  0.00    -0.271 OA
ATOM      9  H2  UNL     1      31.857  44.984   9.407  1.00  0.00     0.169 HD
BRANCH   7  10
HETATM   10  C2  UNL     1      32.843  42.769   8.465  1.00  0.00     0.220 C 
BRANCH  10  11
HETATM   11  N1  UNL     1      33.781  43.823   8.380  1.00  0.00    -0.400 N 
HETATM   12  C3  UNL     1      34.659  43.999   9.473  1.00  0.00     0.143 C 
HETATM   13  C4  UNL     1      35.687  45.112   9.207  1.00  0.00     0.187 C 
HETATM   14  O2  UNL     1      36.379  44.704   8.064  1.00  0.00    -0.388 OA
HETATM   15  C5  UNL     1      35.529  44.845   6.989  1.00  0.00     0.187 C 
HETATM   16  C6  UNL     1      34.284  43.998   7.074  1.00  0.00     0.143 C 
ENDBRANCH  10  11
ENDBRANCH   7  10
ENDBRANCH   1   6
BRANCH   5  17
HETATM   17  O4  UNL     1      29.628  46.711   7.447  1.00  0.00    -0.303 OA
BRANCH  17  18
HETATM   18  C11 UNL     1      30.122  47.986   7.212  1.00  0.00     0.122 A 
HETATM   19  C12 UNL     1      29.221  48.985   6.917  1.00  0.00     0.076 A 
HETATM   20 CL1  UNL     1      27.442  48.720   6.759  1.00  0.00    -0.081 Cl
HETATM   21  C13 UNL     1      29.697  50.231   6.694  1.00  0.00     0.077 A 
HETATM   22  S1  UNL     1      31.363  50.055   6.881  1.00  0.00    -0.091 SA
HETATM   23  C14 UNL     1      31.440  48.360   7.249  1.00  0.00     0.117 A 
BRANCH  23  24
HETATM   24  C15 UNL     1      32.665  47.604   7.498  1.00  0.00     0.219 C 
HETATM   25  O5  UNL     1      32.823  46.911   8.488  1.00  0.00    -0.643 OA
HETATM   26  O6  UNL     1      33.684  47.685   6.563  1.00  0.00    -0.643 OA
ENDBRANCH  23  24
ENDBRANCH  17  18
ENDBRANCH   5  17
TORSDOF 6
ENDMDL
MODEL 4
REMARK VINA RESULT: -6.102826792      3.725      5.519
REMARK  6 active torsions:
REMARK  status: ('A' for Active; 'I' for Inactive)
REMARK    1  A    between atoms: C1_2  and  C2_3 
REMARK       I    between atoms: C1_2  and  N2_10 
REMARK    2  A    between atoms: C2_3  and  N1_4 
REMARK    3  A    between atoms: N2_10  and  C7_12 
REMARK    4  A    between atoms: C10_16  and  O4_17 
REMARK    5  A    between atoms: O4_17  and  C11_18 
REMARK    6  A    between atoms: C14_23  and  C15_24 
ROOT
HETATM    1  C7  UNL     1      34.346  45.601   8.334  1.00  0.00     0.093 A 
HETATM    2  C8  UNL     1      35.387  45.605   9.234  1.00  0.00     0.173 A 
HETATM    3  O3  UNL     1      34.923  45.225  10.394  1.00  0.00    -0.330 OA
HETATM    4  C9  UNL     1      33.662  44.971  10.336  1.00  0.00     0.181 A 
HETATM    5  C10 UNL     1      33.207  45.195   9.019  1.00  0.00     0.127 A 
ENDROOT
BRANCH   1   6
HETATM    6  N2  UNL     1      34.475  45.917   6.962  1.00  0.00    -0.322 N 
HETATM    7  C1  UNL     1      34.847  45.054   5.920  1.00  0.00     0.239 C 
HETATM    8  O1  UNL     1      35.111  43.858   6.157  1.00  0.00    -0.271 OA
ATOM      9  H2  UNL     1      34.276  46.882   6.700  1.00  0.00     0.169 HD
BRANCH   7  10
HETATM   10  C2  UNL     1      34.920  45.586   4.539  1.00  0.00     0.220 C 
BRANCH  10  11
HETATM   11  N1  UNL     1      35.860  46.618   4.318  1.00  0.00    -0.400 N 
HETATM   12  C3  UNL     1      37.218  46.322   4.565  1.00  0.00     0.143 C 
HETATM   13  C4  UNL     1      38.137  47.498   4.191  1.00  0.00     0.187 C 
HETATM   14  O2  UNL     1      37.909  47.720   2.831  1.00  0.00    -0.388 OA
HETATM   15  C5  UNL     1      36.660  48.289   2.706  1.00  0.00     0.187 C 
HETATM   16  C6  UNL     1      35.534  47.418   3.203  1.00  0.00     0.143 C 
ENDBRANCH  10  11
ENDBRANCH   7  10
ENDBRANCH   1   6
BRANCH   5  17
HETATM   17  O4  UNL     1      31.957  45.017   8.654  1.00  0.00    -0.303 OA
BRANCH  17  18
HETATM   18  C11 UNL     1      30.736  45.671   8.726  1.00  0.00     0.122 A 
HETATM   19  C12 UNL     1      29.680  45.008   9.311  1.00  0.00     0.076 A 
HETATM   20 CL1  UNL     1      29.776  43.318   9.937  1.00  0.00    -0.081 Cl
HETATM   21  C13 UNL     1      28.489  45.646   9.390  1.00  0.00     0.077 A 
HETATM   22  S1  UNL     1      28.793  47.138   8.670  1.00  0.00    -0.091 SA
HETATM   23  C14 UNL     1      30.470  46.936   8.268  1.00  0.00     0.117 A 
BRANCH  23  24
HETATM   24  C15 UNL     1      31.301  47.924   7.584  1.00  0.00     0.219 C 
HETATM   25  O5  UNL     1      31.924  47.672   6.568  1.00  0.00    -0.643 OA
HETATM   26  O6  UNL     1      31.376  49.198   8.122  1.00  0.00    -0.643 OA
ENDBRANCH  23  24
ENDBRANCH  17  18
ENDBRANCH   5  17
TORSDOF 6
ENDMDL
MODEL 5
REMARK VINA RESULT: -6.076258649      4.047      5.745
REMARK  6 active torsions:
REMARK  status: ('A' for Active; 'I' for Inactive)
REMARK    1  A    between atoms: C1_2  and  C2_3 
REMARK       I    between atoms: C1_2  and  N2_10 
REMARK    2  A    between atoms: C2_3  and  N1_4 
REMARK    3  A    between atoms: N2_10  and  C7_12 
REMARK    4  A    between atoms: C10_16  and  O4_17 
REMARK    5  A    between atoms: O4_17  and  C11_18 
REMARK    6  A    between atoms: C14_23  and  C15_24 
ROOT
HETATM    1  C7  UNL     1      32.337  48.073   6.354  1.00  0.00     0.093 A 
HETATM    2  C8  UNL     1      31.711  49.260   6.046  1.00  0.00     0.173 A 
HETATM    3  O3  UNL     1      30.866  49.534   7.004  1.00  0.00    -0.330 OA
HETATM    4  C9  UNL     1      30.881  48.628   7.919  1.00  0.00     0.181 A 
HETATM    5  C10 UNL     1      31.818  47.633   7.566  1.00  0.00     0.127 A 
ENDROOT
BRANCH   1   6
HETATM    6  N2  UNL     1      33.350  47.477   5.569  1.00  0.00    -0.322 N 
HETATM    7  C1  UNL     1      33.184  46.599   4.487  1.00  0.00     0.239 C 
HETATM    8  O1  UNL     1      32.041  46.258   4.122  1.00  0.00    -0.271 OA
ATOM      9  H2  UNL     1      34.311  47.712   5.817  1.00  0.00     0.169 HD
BRANCH   7  10
HETATM   10  C2  UNL     1      34.386  46.085   3.788  1.00  0.00     0.220 C 
BRANCH  10  11
HETATM   11  N1  UNL     1      35.561  46.858   3.923  1.00  0.00    -0.400 N 
HETATM   12  C3  UNL     1      36.690  46.227   4.490  1.00  0.00     0.143 C 
HETATM   13  C4  UNL     1      37.923  47.148   4.485  1.00  0.00     0.187 C 
HETATM   14  O2  UNL     1      38.141  47.457   3.140  1.00  0.00    -0.388 OA
HETATM   15  C5  UNL     1      37.143  48.322   2.745  1.00  0.00     0.187 C 
HETATM   16  C6  UNL     1      35.754  47.744   2.842  1.00  0.00     0.143 C 
ENDBRANCH  10  11
ENDBRANCH   7  10
ENDBRANCH   1   6
BRANCH   5  17
HETATM   17  O4  UNL     1      32.054  46.577   8.312  1.00  0.00    -0.303 OA
BRANCH  17  18
HETATM   18  C11 UNL     1      31.946  45.195   8.246  1.00  0.00     0.122 A 
HETATM   19  C12 UNL     1      30.771  44.617   8.672  1.00  0.00     0.076 A 
HETATM   20 CL1  UNL     1      29.388  45.546   9.366  1.00  0.00    -0.081 Cl
HETATM   21  C13 UNL     1      30.658  43.271   8.603  1.00  0.00     0.077 A 
HETATM   22  S1  UNL     1      32.139  42.784   7.965  1.00  0.00    -0.091 SA
HETATM   23  C14 UNL     1      32.907  44.332   7.787  1.00  0.00     0.117 A 
BRANCH  23  24
HETATM   24  C15 UNL     1      34.260  44.552   7.283  1.00  0.00     0.219 C 
HETATM   25  O5  UNL     1      34.853  43.731   6.605  1.00  0.00    -0.643 OA
HETATM   26  O6  UNL     1      34.887  45.747   7.595  1.00  0.00    -0.643 OA
ENDBRANCH  23  24
ENDBRANCH  17  18
ENDBRANCH   5  17
TORSDOF 6
ENDMDL
