MODEL 1
REMARK VINA RESULT: -7.454272086      0.000      0.000
REMARK  6 active torsions:
REMARK  status: ('A' for Active; 'I' for Inactive)
REMARK    1  A    between atoms: C4_4  and  O1_5 
REMARK    2  A    between atoms: O1_5  and  C5_6 
REMARK    3  A    between atoms: C5_6  and  C6_7 
REMARK    4  A    between atoms: C6_7  and  C7_8 
REMARK    5  A    between atoms: C15_24  and  C16_25 
REMARK    6  A    between atoms: C17_29  and  C18_30 
ROOT
HETATM    1  C1  UNL     1      32.256  49.461   7.023  1.00  0.00     0.011 C 
HETATM    2  C2  UNL     1      32.544  48.660   5.791  1.00  0.00    -0.005 C 
HETATM    3  C3  UNL     1      33.708  47.727   6.068  1.00  0.00     0.037 C 
HETATM    4  C4  UNL     1      34.165  47.197   4.705  1.00  0.00     0.121 C 
HETATM    5  C13 UNL     1      33.039  46.313   4.208  1.00  0.00     0.033 C 
HETATM    6  C14 UNL     1      31.800  46.412   5.035  1.00  0.00     0.015 C 
HETATM    7  C15 UNL     1      31.387  47.842   5.309  1.00  0.00     0.059 C 
ENDROOT
BRANCH   4   8
HETATM    8  O1  UNL     1      35.323  46.498   4.856  1.00  0.00    -0.386 OA
BRANCH   8   9
HETATM    9  C5  UNL     1      35.250  45.125   4.734  1.00  0.00     0.170 C 
BRANCH   9  10
HETATM   10  C6  UNL     1      36.426  44.490   5.379  1.00  0.00     0.061 C 
BRANCH  10  11
HETATM   11  C7  UNL     1      36.365  44.509   6.892  1.00  0.00     0.212 C 
HETATM   12  C8  UNL     1      37.126  45.703   7.380  1.00  0.00     0.210 C 
HETATM   13  O2  UNL     1      37.042  45.922   8.754  1.00  0.00    -0.332 OA
HETATM   14  C9  UNL     1      36.005  45.778   9.663  1.00  0.00     0.168 A 
HETATM   15  N1  UNL     1      35.815  46.522  10.780  1.00  0.00    -0.331 N 
HETATM   16  C11 UNL     1      34.994  44.867   9.602  1.00  0.00     0.087 A 
HETATM   17  C10 UNL     1      34.705  46.094  11.415  1.00  0.00     0.182 A 
ATOM     18  H1  UNL     1      36.417  47.285  11.092  1.00  0.00     0.168 HD
HETATM   19  N2  UNL     1      34.222  45.084  10.676  1.00  0.00    -0.351 N 
ATOM     20  H2  UNL     1      33.382  44.553  10.901  1.00  0.00     0.166 HD
HETATM   21  C12 UNL     1      34.761  43.815   8.550  1.00  0.00     0.294 C 
HETATM   22  N3  UNL     1      34.984  44.506   7.272  1.00  0.00    -0.063 N 
ATOM     23  H32 UNL     1      34.605  45.453   7.294  1.00  0.00     0.278 HD
ATOM     24  H31 UNL     1      34.399  44.114   6.534  1.00  0.00     0.278 HD
ENDBRANCH  10  11
ENDBRANCH   9  10
ENDBRANCH   8   9
ENDBRANCH   4   8
BRANCH   7  25
HETATM   25  C16 UNL     1      30.280  47.852   6.296  1.00  0.00     0.108 A 
HETATM   26  N4  UNL     1      29.164  48.608   6.304  1.00  0.00    -0.247 N 
HETATM   27  O3  UNL     1      28.456  48.308   7.345  1.00  0.00    -0.222 OA
ATOM     28  H4  UNL     1      28.918  49.305   5.601  1.00  0.00     0.196 HD
HETATM   29  C17 UNL     1      29.046  47.371   8.053  1.00  0.00     0.152 A 
HETATM   30  N5  UNL     1      30.186  47.087   7.398  1.00  0.00    -0.326 N 
ATOM     31  H5  UNL     1      30.875  46.395   7.694  1.00  0.00     0.169 HD
BRANCH  29  32
HETATM   32  C18 UNL     1      28.547  46.755   9.324  1.00  0.00     0.063 A 
HETATM   33  C19 UNL     1      27.528  45.658   9.142  1.00  0.00     0.013 A 
HETATM   34  C20 UNL     1      28.888  45.333   9.625  1.00  0.00     0.013 A 
ENDBRANCH  29  32
ENDBRANCH   7  25
TORSDOF 6
ENDMDL
MODEL 2
REMARK VINA RESULT: -7.382222174      2.281      5.029
REMARK  6 active torsions:
REMARK  status: ('A' for Active; 'I' for Inactive)
REMARK    1  A    between atoms: C4_4  and  O1_5 
REMARK    2  A    between atoms: O1_5  and  C5_6 
REMARK    3  A    between atoms: C5_6  and  C6_7 
REMARK    4  A    between atoms: C6_7  and  C7_8 
REMARK    5  A    between atoms: C15_24  and  C16_25 
REMARK    6  A    between atoms: C17_29  and  C18_30 
ROOT
HETATM    1  C1  UNL     1      31.460  42.003   7.707  1.00  0.00     0.011 C 
HETATM    2  C2  UNL     1      32.683  42.328   8.508  1.00  0.00    -0.005 C 
HETATM    3  C3  UNL     1      33.742  42.901   7.583  1.00  0.00     0.037 C 
HETATM    4  C4  UNL     1      35.052  42.892   8.376  1.00  0.00     0.121 C 
HETATM    5  C13 UNL     1      34.873  43.915   9.480  1.00  0.00     0.033 C 
HETATM    6  C14 UNL     1      33.473  44.417   9.600  1.00  0.00     0.015 C 
HETATM    7  C15 UNL     1      32.448  43.304   9.617  1.00  0.00     0.059 C 
ENDROOT
BRANCH   4   8
HETATM    8  O1  UNL     1      36.084  43.219   7.551  1.00  0.00    -0.386 OA
BRANCH   8   9
HETATM    9  C5  UNL     1      36.290  44.561   7.301  1.00  0.00     0.170 C 
BRANCH   9  10
HETATM   10  C6  UNL     1      36.248  44.823   5.841  1.00  0.00     0.061 C 
BRANCH  10  11
HETATM   11  C7  UNL     1      35.531  46.108   5.482  1.00  0.00     0.212 C 
HETATM   12  C8  UNL     1      34.483  45.794   4.460  1.00  0.00     0.210 C 
HETATM   13  O2  UNL     1      33.653  46.865   4.133  1.00  0.00    -0.332 OA
HETATM   14  C9  UNL     1      33.102  47.888   4.890  1.00  0.00     0.168 A 
HETATM   15  N1  UNL     1      31.912  48.496   4.662  1.00  0.00    -0.331 N 
HETATM   16  C11 UNL     1      33.652  48.465   5.994  1.00  0.00     0.087 A 
HETATM   17  C10 UNL     1      31.709  49.440   5.603  1.00  0.00     0.182 A 
ATOM     18  H1  UNL     1      31.272  48.275   3.899  1.00  0.00     0.168 HD
HETATM   19  N2  UNL     1      32.785  49.401   6.404  1.00  0.00    -0.351 N 
ATOM     20  H2  UNL     1      32.924  50.003   7.216  1.00  0.00     0.166 HD
HETATM   21  C12 UNL     1      34.968  48.139   6.649  1.00  0.00     0.294 C 
HETATM   22  N3  UNL     1      35.012  46.670   6.692  1.00  0.00    -0.063 N 
ATOM     23  H32 UNL     1      34.096  46.280   6.917  1.00  0.00     0.278 HD
ATOM     24  H31 UNL     1      35.533  46.340   7.505  1.00  0.00     0.278 HD
ENDBRANCH  10  11
ENDBRANCH   9  10
ENDBRANCH   8   9
ENDBRANCH   4   8
BRANCH   7  25
HETATM   25  C16 UNL     1      31.088  43.889   9.531  1.00  0.00     0.108 A 
HETATM   26  N4  UNL     1      29.963  43.508  10.169  1.00  0.00    -0.247 N 
HETATM   27  O3  UNL     1      28.989  44.282   9.813  1.00  0.00    -0.222 OA
ATOM     28  H4  UNL     1      29.891  42.732  10.828  1.00  0.00     0.196 HD
HETATM   29  C17 UNL     1      29.405  45.184   8.952  1.00  0.00     0.152 A 
HETATM   30  N5  UNL     1      30.716  44.938   8.775  1.00  0.00    -0.326 N 
ATOM     31  H5  UNL     1      31.334  45.467   8.160  1.00  0.00     0.169 HD
BRANCH  29  32
HETATM   32  C18 UNL     1      28.584  46.259   8.306  1.00  0.00     0.063 A 
HETATM   33  C19 UNL     1      28.829  47.651   8.833  1.00  0.00     0.013 A 
HETATM   34  C20 UNL     1      29.265  47.288   7.466  1.00  0.00     0.013 A 
ENDBRANCH  29  32
ENDBRANCH   7  25
TORSDOF 6
ENDMDL
MODEL 3
REMARK VINA RESULT: -7.349702190      4.522      8.808
REMARK  6 active torsions:
REMARK  status: ('A' for Active; 'I' for Inactive)
REMARK    1  A    between atoms: C4_4  and  O1_5 
REMARK    2  A    between atoms: O1_5  and  C5_6 
REMARK    3  A    between atoms: C5_6  and  C6_7 
REMARK    4  A    between atoms: C6_7  and  C7_8 
REMARK    5  A    between atoms: C15_24  and  C16_25 
REMARK    6  A    between atoms: C17_29  and  C18_30 
ROOT
HETATM    1  C1  UNL     1      28.596  45.734   9.551  1.00  0.00     0.011 C 
HETATM    2  C2  UNL     1      28.656  46.369   8.196  1.00  0.00    -0.005 C 
HETATM    3  C3  UNL     1      28.762  47.875   8.360  1.00  0.00     0.037 C 
HETATM    4  C4  UNL     1      28.479  48.476   6.980  1.00  0.00     0.121 C 
HETATM    5  C13 UNL     1      29.651  48.074   6.107  1.00  0.00     0.033 C 
HETATM    6  C14 UNL     1      30.552  47.073   6.751  1.00  0.00     0.015 C 
HETATM    7  C15 UNL     1      29.801  45.905   7.352  1.00  0.00     0.059 C 
ENDROOT
BRANCH   4   8
HETATM    8  O1  UNL     1      28.373  49.828   7.087  1.00  0.00    -0.386 OA
BRANCH   8   9
HETATM    9  C5  UNL     1      28.920  50.585   6.071  1.00  0.00     0.170 C 
BRANCH   9  10
HETATM   10  C6  UNL     1      27.875  51.432   5.442  1.00  0.00     0.061 C 
BRANCH  10  11
HETATM   11  C7  UNL     1      27.834  52.842   5.992  1.00  0.00     0.212 C 
HETATM   12  C8  UNL     1      26.516  53.045   6.674  1.00  0.00     0.210 C 
HETATM   13  O2  UNL     1      26.392  54.261   7.344  1.00  0.00    -0.332 OA
HETATM   14  C9  UNL     1      27.286  55.015   8.088  1.00  0.00     0.168 A 
HETATM   15  N1  UNL     1      26.974  55.814   9.138  1.00  0.00    -0.331 N 
HETATM   16  C11 UNL     1      28.633  55.093   7.901  1.00  0.00     0.087 A 
HETATM   17  C10 UNL     1      28.100  56.386   9.610  1.00  0.00     0.182 A 
ATOM     18  H1  UNL     1      26.036  55.959   9.512  1.00  0.00     0.168 HD
HETATM   19  N2  UNL     1      29.098  55.930   8.838  1.00  0.00    -0.351 N 
ATOM     20  H2  UNL     1      30.079  56.186   8.950  1.00  0.00     0.166 HD
HETATM   21  C12 UNL     1      29.463  54.390   6.860  1.00  0.00     0.294 C 
HETATM   22  N3  UNL     1      28.965  53.007   6.854  1.00  0.00    -0.063 N 
ATOM     23  H32 UNL     1      28.758  52.685   7.800  1.00  0.00     0.278 HD
ATOM     24  H31 UNL     1      29.708  52.349   6.617  1.00  0.00     0.278 HD
ENDBRANCH  10  11
ENDBRANCH   9  10
ENDBRANCH   8   9
ENDBRANCH   4   8
BRANCH   7  25
HETATM   25  C16 UNL     1      30.741  45.073   8.141  1.00  0.00     0.108 A 
HETATM   26  N4  UNL     1      30.750  43.734   8.304  1.00  0.00    -0.247 N 
HETATM   27  O3  UNL     1      31.738  43.407   9.073  1.00  0.00    -0.222 OA
ATOM     28  H4  UNL     1      30.084  43.084   7.886  1.00  0.00     0.196 HD
HETATM   29  C17 UNL     1      32.409  44.474   9.445  1.00  0.00     0.152 A 
HETATM   30  N5  UNL     1      31.786  45.515   8.864  1.00  0.00    -0.326 N 
ATOM     31  H5  UNL     1      32.064  46.491   8.957  1.00  0.00     0.169 HD
BRANCH  29  32
HETATM   32  C18 UNL     1      33.616  44.514  10.332  1.00  0.00     0.063 A 
HETATM   33  C19 UNL     1      34.932  44.671   9.611  1.00  0.00     0.013 A 
HETATM   34  C20 UNL     1      34.401  45.780  10.434  1.00  0.00     0.013 A 
ENDBRANCH  29  32
ENDBRANCH   7  25
TORSDOF 6
ENDMDL
MODEL 4
REMARK VINA RESULT: -7.339692782      2.429      4.972
REMARK  6 active torsions:
REMARK  status: ('A' for Active; 'I' for Inactive)
REMARK    1  A    between atoms: C4_4  and  O1_5 
REMARK    2  A    between atoms: O1_5  and  C5_6 
REMARK    3  A    between atoms: C5_6  and  C6_7 
REMARK    4  A    between atoms: C6_7  and  C7_8 
REMARK    5  A    between atoms: C15_24  and  C16_25 
REMARK    6  A    between atoms: C17_29  and  C18_30 
ROOT
HETATM    1  C1  UNL     1      31.452  42.051   7.680  1.00  0.00     0.011 C 
HETATM    2  C2  UNL     1      32.679  42.377   8.475  1.00  0.00    -0.005 C 
HETATM    3  C3  UNL     1      33.716  42.992   7.553  1.00  0.00     0.037 C 
HETATM    4  C4  UNL     1      35.035  42.987   8.330  1.00  0.00     0.121 C 
HETATM    5  C13 UNL     1      34.852  43.977   9.462  1.00  0.00     0.033 C 
HETATM    6  C14 UNL     1      33.444  44.450   9.612  1.00  0.00     0.015 C 
HETATM    7  C15 UNL     1      32.439  43.319   9.612  1.00  0.00     0.059 C 
ENDROOT
BRANCH   4   8
HETATM    8  O1  UNL     1      36.051  43.353   7.502  1.00  0.00    -0.386 OA
BRANCH   8   9
HETATM    9  C5  UNL     1      36.442  44.677   7.533  1.00  0.00     0.170 C 
BRANCH   9  10
HETATM   10  C6  UNL     1      36.083  45.348   6.259  1.00  0.00     0.061 C 
BRANCH  10  11
HETATM   11  C7  UNL     1      34.817  46.174   6.351  1.00  0.00     0.212 C 
HETATM   12  C8  UNL     1      35.019  47.233   7.391  1.00  0.00     0.210 C 
HETATM   13  O2  UNL     1      33.978  48.153   7.491  1.00  0.00    -0.332 OA
HETATM   14  C9  UNL     1      33.166  48.754   6.541  1.00  0.00     0.168 A 
HETATM   15  N1  UNL     1      32.626  49.995   6.623  1.00  0.00    -0.331 N 
HETATM   16  C11 UNL     1      32.762  48.210   5.359  1.00  0.00     0.087 A 
HETATM   17  C10 UNL     1      31.896  50.235   5.515  1.00  0.00     0.182 A 
ATOM     18  H1  UNL     1      32.752  50.644   7.400  1.00  0.00     0.168 HD
HETATM   19  N2  UNL     1      31.995  49.130   4.759  1.00  0.00    -0.351 N 
ATOM     20  H2  UNL     1      31.548  49.009   3.852  1.00  0.00     0.166 HD
HETATM   21  C12 UNL     1      33.096  46.849   4.807  1.00  0.00     0.294 C 
HETATM   22  N3  UNL     1      34.538  46.691   5.045  1.00  0.00    -0.063 N 
ATOM     23  H32 UNL     1      35.038  47.564   4.879  1.00  0.00     0.278 HD
ATOM     24  H31 UNL     1      34.970  46.116   4.321  1.00  0.00     0.278 HD
ENDBRANCH  10  11
ENDBRANCH   9  10
ENDBRANCH   8   9
ENDBRANCH   4   8
BRANCH   7  25
HETATM   25  C16 UNL     1      31.068  43.882   9.557  1.00  0.00     0.108 A 
HETATM   26  N4  UNL     1      29.962  43.473  10.210  1.00  0.00    -0.247 N 
HETATM   27  O3  UNL     1      28.969  44.235   9.881  1.00  0.00    -0.222 OA
ATOM     28  H4  UNL     1      29.915  42.688  10.860  1.00  0.00     0.196 HD
HETATM   29  C17 UNL     1      29.354  45.154   9.024  1.00  0.00     0.152 A 
HETATM   30  N5  UNL     1      30.665  44.934   8.821  1.00  0.00    -0.326 N 
ATOM     31  H5  UNL     1      31.263  45.481   8.203  1.00  0.00     0.169 HD
BRANCH  29  32
HETATM   32  C18 UNL     1      28.504  46.223   8.407  1.00  0.00     0.063 A 
HETATM   33  C19 UNL     1      28.778  47.621   8.902  1.00  0.00     0.013 A 
HETATM   34  C20 UNL     1      29.143  47.239   7.520  1.00  0.00     0.013 A 
ENDBRANCH  29  32
ENDBRANCH   7  25
TORSDOF 6
ENDMDL
MODEL 5
REMARK VINA RESULT: -7.335524635      2.241      7.765
REMARK  6 active torsions:
REMARK  status: ('A' for Active; 'I' for Inactive)
REMARK    1  A    between atoms: C4_4  and  O1_5 
REMARK    2  A    between atoms: O1_5  and  C5_6 
REMARK    3  A    between atoms: C5_6  and  C6_7 
REMARK    4  A    between atoms: C6_7  and  C7_8 
REMARK    5  A    between atoms: C15_24  and  C16_25 
REMARK    6  A    between atoms: C17_29  and  C18_30 
ROOT
HETATM    1  C1  UNL     1      33.788  45.631   9.551  1.00  0.00     0.011 C 
HETATM    2  C2  UNL     1      32.725  44.577   9.549  1.00  0.00    -0.005 C 
HETATM    3  C3  UNL     1      31.468  45.143   8.913  1.00  0.00     0.037 C 
HETATM    4  C4  UNL     1      30.342  44.160   9.243  1.00  0.00     0.121 C 
HETATM    5  C13 UNL     1      30.659  42.895   8.472  1.00  0.00     0.033 C 
HETATM    6  C14 UNL     1      32.017  42.905   7.852  1.00  0.00     0.015 C 
HETATM    7  C15 UNL     1      33.102  43.328   8.818  1.00  0.00     0.059 C 
ENDROOT
BRANCH   4   8
HETATM    8  O1  UNL     1      29.148  44.693   8.864  1.00  0.00    -0.386 OA
BRANCH   8   9
HETATM    9  C5  UNL     1      28.688  45.779   9.583  1.00  0.00     0.170 C 
BRANCH   9  10
HETATM   10  C6  UNL     1      27.722  46.559   8.769  1.00  0.00     0.061 C 
BRANCH  10  11
HETATM   11  C7  UNL     1      28.387  47.509   7.795  1.00  0.00     0.212 C 
HETATM   12  C8  UNL     1      27.370  48.509   7.341  1.00  0.00     0.210 C 
HETATM   13  O2  UNL     1      27.877  49.530   6.540  1.00  0.00    -0.332 OA
HETATM   14  C9  UNL     1      29.068  50.240   6.570  1.00  0.00     0.168 A 
HETATM   15  N1  UNL     1      29.240  51.527   6.181  1.00  0.00    -0.331 N 
HETATM   16  C11 UNL     1      30.277  49.776   6.994  1.00  0.00     0.087 A 
HETATM   17  C10 UNL     1      30.531  51.874   6.355  1.00  0.00     0.182 A 
ATOM     18  H1  UNL     1      28.508  52.136   5.814  1.00  0.00     0.168 HD
HETATM   19  N2  UNL     1      31.143  50.789   6.852  1.00  0.00    -0.351 N 
ATOM     20  H2  UNL     1      32.133  50.741   7.090  1.00  0.00     0.166 HD
HETATM   21  C12 UNL     1      30.607  48.405   7.523  1.00  0.00     0.294 C 
HETATM   22  N3  UNL     1      29.517  48.091   8.457  1.00  0.00    -0.063 N 
ATOM     23  H32 UNL     1      29.245  48.913   8.997  1.00  0.00     0.278 HD
ATOM     24  H31 UNL     1      29.844  47.496   9.219  1.00  0.00     0.278 HD
ENDBRANCH  10  11
ENDBRANCH   9  10
ENDBRANCH   8   9
ENDBRANCH   4   8
BRANCH   7  25
HETATM   25  C16 UNL     1      34.374  43.509   8.077  1.00  0.00     0.108 A 
HETATM   26  N4  UNL     1      35.605  43.059   8.392  1.00  0.00    -0.247 N 
HETATM   27  O3  UNL     1      36.442  43.437   7.480  1.00  0.00    -0.222 OA
ATOM     28  H4  UNL     1      35.840  42.507   9.218  1.00  0.00     0.196 HD
HETATM   29  C17 UNL     1      35.829  44.133   6.548  1.00  0.00     0.152 A 
HETATM   30  N5  UNL     1      34.537  44.178   6.921  1.00  0.00    -0.326 N 
ATOM     31  H5  UNL     1      33.794  44.649   6.406  1.00  0.00     0.169 HD
BRANCH  29  32
HETATM   32  C18 UNL     1      36.447  44.744   5.328  1.00  0.00     0.063 A 
HETATM   33  C19 UNL     1      36.127  44.042   4.032  1.00  0.00     0.013 A 
HETATM   34  C20 UNL     1      35.564  45.382   4.308  1.00  0.00     0.013 A 
ENDBRANCH  29  32
ENDBRANCH   7  25
TORSDOF 6
ENDMDL
