MODEL 1
REMARK VINA RESULT: -6.366116054      0.000      0.000
REMARK  11 active torsions:
REMARK  status: ('A' for Active; 'I' for Inactive)
REMARK    1  A    between atoms: N1_1  and  C1_4 
REMARK    2  A    between atoms: C3_8  and  C4_9 
REMARK    3  A    between atoms: N3_10  and  N4_12 
REMARK    4  A    between atoms: N4_12  and  C5_14 
REMARK    5  A    between atoms: C8_17  and  S1_18 
REMARK    6  A    between atoms: S1_18  and  N5_21 
REMARK    7  A    between atoms: C11_28  and  C12_29 
REMARK    8  A    between atoms: C12_29  and  O4_30 
REMARK    9  A    between atoms: C12_29  and  O5_32 
REMARK   10  A    between atoms: C14_35  and  N8_36 
REMARK   11  A    between atoms: C16_40  and  N9_41 
ROOT
HETATM    1  C5  UNL     1      -9.300  10.558  33.691  1.00  0.00     0.081 A 
HETATM    2  C6  UNL     1      -9.470   9.209  33.987  1.00  0.00     0.035 A 
HETATM    3  C7  UNL     1     -10.679   8.689  34.433  1.00  0.00     0.027 A 
HETATM    4  C8  UNL     1     -11.762   9.521  34.594  1.00  0.00     0.077 A 
HETATM    5  C13 UNL     1     -11.576  10.860  34.295  1.00  0.00     0.063 A 
HETATM    6  C14 UNL     1     -10.382  11.391  33.851  1.00  0.00     0.132 A 
ENDROOT
BRANCH   1   7
HETATM    7  N4  UNL     1      -8.032  11.036  33.231  1.00  0.00    -0.299 N 
ATOM      8  H4  UNL     1      -7.265  11.074  33.902  1.00  0.00     0.187 HD
BRANCH   7   9
HETATM    9  N3  UNL     1      -7.785  11.443  31.963  1.00  0.00    -0.311 N 
HETATM   10  C4  UNL     1      -7.994  10.991  30.812  1.00  0.00     0.120 C 
ATOM     11  H3  UNL     1      -7.308  12.344  31.937  1.00  0.00     0.186 HD
BRANCH  10  12
HETATM   12  C3  UNL     1      -8.644   9.744  30.446  1.00  0.00    -0.001 A 
HETATM   13  C2  UNL     1     -10.046   9.759  30.429  1.00  0.00     0.102 A 
HETATM   14  N2  UNL     1     -10.757   8.672  30.106  1.00  0.00    -0.350 N 
HETATM   15  C1  UNL     1     -10.148   7.536  29.790  1.00  0.00     0.132 A 
ATOM     16  H2  UNL     1     -11.777   8.717  30.104  1.00  0.00     0.166 HD
HETATM   17  C16 UNL     1      -8.781   7.443  29.783  1.00  0.00     0.147 A 
HETATM   18  C15 UNL     1      -8.028   8.576  30.120  1.00  0.00     0.054 A 
BRANCH  15  19
HETATM   19  N1  UNL     1     -10.838   6.484  29.478  1.00  0.00    -0.383 N 
ATOM     20  H12 UNL     1     -11.645   6.598  28.865  1.00  0.00     0.157 HD
ATOM     21  H11 UNL     1     -10.576   5.567  29.839  1.00  0.00     0.157 HD
ENDBRANCH  15  19
BRANCH  17  22
HETATM   22  N9  UNL     1      -8.134   6.235  29.448  1.00  0.00    -0.112 N 
HETATM   23  O8  UNL     1      -7.781   5.426  30.311  1.00  0.00    -0.532 OA
HETATM   24  O9  UNL     1      -7.889   5.954  28.130  1.00  0.00    -0.532 OA
ENDBRANCH  17  22
ENDBRANCH  10  12
ENDBRANCH   7   9
ENDBRANCH   1   7
BRANCH   6  25
HETATM   25  N8  UNL     1     -10.225  12.768  33.546  1.00  0.00    -0.113 N 
HETATM   26  O6  UNL     1      -9.963  13.664  34.348  1.00  0.00    -0.532 OA
HETATM   27  O7  UNL     1     -10.391  13.105  32.203  1.00  0.00    -0.532 OA
ENDBRANCH   6  25
BRANCH   4  28
HETATM   28  S1  UNL     1     -13.318   8.947  35.151  1.00  0.00     0.245 S 
HETATM   29  O1  UNL     1     -13.727   9.850  36.299  1.00  0.00    -0.206 OA
HETATM   30  O2  UNL     1     -13.097   7.576  35.762  1.00  0.00    -0.206 OA
BRANCH  28  31
HETATM   31  N5  UNL     1     -14.502   8.950  33.931  1.00  0.00    -0.172 NA
HETATM   32  C9  UNL     1     -15.786   9.172  34.487  1.00  0.00     0.243 C 
HETATM   33  N6  UNL     1     -16.552   7.961  34.714  1.00  0.00    -0.123 NA
HETATM   34  N7  UNL     1     -16.783   7.345  33.482  1.00  0.00    -0.271 N 
HETATM   35  C10 UNL     1     -15.793   7.580  32.488  1.00  0.00     0.257 C 
ATOM     36  H7  UNL     1     -17.604   6.766  33.307  1.00  0.00     0.185 HD
HETATM   37  O3  UNL     1     -16.075   7.523  31.264  1.00  0.00    -0.270 OA
HETATM   38  C11 UNL     1     -14.431   7.889  32.988  1.00  0.00     0.223 C 
BRANCH  38  39
HETATM   39  C12 UNL     1     -13.461   8.153  31.865  1.00  0.00     0.281 C 
BRANCH  39  40
HETATM   40  O4  UNL     1     -13.403   7.041  31.028  1.00  0.00    -0.369 OA
ATOM     41  H4  UNL     1     -12.581   7.043  30.552  1.00  0.00     0.212 HD
ENDBRANCH  39  40
BRANCH  39  42
HETATM   42  O5  UNL     1     -13.875   9.232  31.070  1.00  0.00    -0.369 OA
ATOM     43  H5  UNL     1     -13.133   9.698  30.703  1.00  0.00     0.212 HD
ENDBRANCH  39  42
ENDBRANCH  38  39
ENDBRANCH  28  31
ENDBRANCH   4  28
TORSDOF 11
ENDMDL
MODEL 2
REMARK VINA RESULT: -6.136785804      0.984      1.508
REMARK  11 active torsions:
REMARK  status: ('A' for Active; 'I' for Inactive)
REMARK    1  A    between atoms: N1_1  and  C1_4 
REMARK    2  A    between atoms: C3_8  and  C4_9 
REMARK    3  A    between atoms: N3_10  and  N4_12 
REMARK    4  A    between atoms: N4_12  and  C5_14 
REMARK    5  A    between atoms: C8_17  and  S1_18 
REMARK    6  A    between atoms: S1_18  and  N5_21 
REMARK    7  A    between atoms: C11_28  and  C12_29 
REMARK    8  A    between atoms: C12_29  and  O4_30 
REMARK    9  A    between atoms: C12_29  and  O5_32 
REMARK   10  A    between atoms: C14_35  and  N8_36 
REMARK   11  A    between atoms: C16_40  and  N9_41 
ROOT
HETATM    1  C5  UNL     1      -9.282  10.595  33.625  1.00  0.00     0.081 A 
HETATM    2  C6  UNL     1      -9.455   9.243  33.901  1.00  0.00     0.035 A 
HETATM    3  C7  UNL     1     -10.680   8.709  34.282  1.00  0.00     0.027 A 
HETATM    4  C8  UNL     1     -11.777   9.531  34.396  1.00  0.00     0.077 A 
HETATM    5  C13 UNL     1     -11.588  10.874  34.117  1.00  0.00     0.063 A 
HETATM    6  C14 UNL     1     -10.378  11.418  33.738  1.00  0.00     0.132 A 
ENDROOT
BRANCH   1   7
HETATM    7  N4  UNL     1      -7.997  11.088  33.233  1.00  0.00    -0.299 N 
ATOM      8  H4  UNL     1      -7.278  11.169  33.952  1.00  0.00     0.187 HD
BRANCH   7   9
HETATM    9  N3  UNL     1      -7.674  11.454  31.969  1.00  0.00    -0.311 N 
HETATM   10  C4  UNL     1      -7.462  10.863  30.883  1.00  0.00     0.120 C 
ATOM     11  H3  UNL     1      -7.578  12.465  31.877  1.00  0.00     0.186 HD
BRANCH  10  12
HETATM   12  C3  UNL     1      -7.506   9.435  30.620  1.00  0.00    -0.001 A 
HETATM   13  C2  UNL     1      -6.386   8.696  31.030  1.00  0.00     0.102 A 
HETATM   14  N2  UNL     1      -6.309   7.373  30.843  1.00  0.00    -0.350 N 
HETATM   15  C1  UNL     1      -7.303   6.715  30.257  1.00  0.00     0.132 A 
ATOM     16  H2  UNL     1      -5.480   6.866  31.153  1.00  0.00     0.166 HD
HETATM   17  C16 UNL     1      -8.429   7.367  29.831  1.00  0.00     0.147 A 
HETATM   18  C15 UNL     1      -8.519   8.753  30.021  1.00  0.00     0.054 A 
BRANCH  15  19
HETATM   19  N1  UNL     1      -7.228   5.434  30.077  1.00  0.00    -0.383 N 
ATOM     20  H12 UNL     1      -7.617   4.820  30.793  1.00  0.00     0.157 HD
ATOM     21  H11 UNL     1      -6.788   5.054  29.239  1.00  0.00     0.157 HD
ENDBRANCH  15  19
BRANCH  17  22
HETATM   22  N9  UNL     1      -9.484   6.667  29.207  1.00  0.00    -0.112 N 
HETATM   23  O8  UNL     1     -10.463   6.266  29.843  1.00  0.00    -0.532 OA
HETATM   24  O9  UNL     1      -9.417   6.423  27.861  1.00  0.00    -0.532 OA
ENDBRANCH  17  22
ENDBRANCH  10  12
ENDBRANCH   7   9
ENDBRANCH   1   7
BRANCH   6  25
HETATM   25  N8  UNL     1     -10.218  12.799  33.452  1.00  0.00    -0.113 N 
HETATM   26  O6  UNL     1     -10.002  13.690  34.273  1.00  0.00    -0.532 OA
HETATM   27  O7  UNL     1     -10.321  13.146  32.105  1.00  0.00    -0.532 OA
ENDBRANCH   6  25
BRANCH   4  28
HETATM   28  S1  UNL     1     -13.354   8.940  34.870  1.00  0.00     0.245 S 
HETATM   29  O1  UNL     1     -13.837   9.844  35.988  1.00  0.00    -0.206 OA
HETATM   30  O2  UNL     1     -13.150   7.575  35.500  1.00  0.00    -0.206 OA
BRANCH  28  31
HETATM   31  N5  UNL     1     -14.470   8.922  33.587  1.00  0.00    -0.172 NA
HETATM   32  C9  UNL     1     -15.796   8.895  34.083  1.00  0.00     0.243 C 
HETATM   33  N6  UNL     1     -16.387   7.571  34.127  1.00  0.00    -0.123 NA
HETATM   34  N7  UNL     1     -16.469   7.079  32.823  1.00  0.00    -0.271 N 
HETATM   35  C10 UNL     1     -15.480   7.565  31.924  1.00  0.00     0.257 C 
ATOM     36  H7  UNL     1     -17.189   6.415  32.535  1.00  0.00     0.185 HD
HETATM   37  O3  UNL     1     -15.695   7.614  30.686  1.00  0.00    -0.270 OA
HETATM   38  C11 UNL     1     -14.202   8.000  32.539  1.00  0.00     0.223 C 
BRANCH  38  39
HETATM   39  C12 UNL     1     -13.231   8.527  31.514  1.00  0.00     0.281 C 
BRANCH  39  40
HETATM   40  O4  UNL     1     -12.995   7.550  30.549  1.00  0.00    -0.369 OA
ATOM     41  H4  UNL     1     -12.313   7.845  29.956  1.00  0.00     0.212 HD
ENDBRANCH  39  40
BRANCH  39  42
HETATM   42  O5  UNL     1     -13.749   9.641  30.838  1.00  0.00    -0.369 OA
ATOM     43  H5  UNL     1     -13.111  10.343  30.783  1.00  0.00     0.212 HD
ENDBRANCH  39  42
ENDBRANCH  38  39
ENDBRANCH  28  31
ENDBRANCH   4  28
TORSDOF 11
ENDMDL
MODEL 3
REMARK VINA RESULT: -6.006790424      2.199      2.706
REMARK  11 active torsions:
REMARK  status: ('A' for Active; 'I' for Inactive)
REMARK    1  A    between atoms: N1_1  and  C1_4 
REMARK    2  A    between atoms: C3_8  and  C4_9 
REMARK    3  A    between atoms: N3_10  and  N4_12 
REMARK    4  A    between atoms: N4_12  and  C5_14 
REMARK    5  A    between atoms: C8_17  and  S1_18 
REMARK    6  A    between atoms: S1_18  and  N5_21 
REMARK    7  A    between atoms: C11_28  and  C12_29 
REMARK    8  A    between atoms: C12_29  and  O4_30 
REMARK    9  A    between atoms: C12_29  and  O5_32 
REMARK   10  A    between atoms: C14_35  and  N8_36 
REMARK   11  A    between atoms: C16_40  and  N9_41 
ROOT
HETATM    1  C5  UNL     1      -7.844  11.227  30.994  1.00  0.00     0.081 A 
HETATM    2  C6  UNL     1      -8.023  10.193  31.906  1.00  0.00     0.035 A 
HETATM    3  C7  UNL     1      -9.243   9.945  32.524  1.00  0.00     0.027 A 
HETATM    4  C8  UNL     1     -10.328  10.740  32.238  1.00  0.00     0.077 A 
HETATM    5  C13 UNL     1     -10.133  11.765  31.327  1.00  0.00     0.063 A 
HETATM    6  C14 UNL     1      -8.927  12.023  30.705  1.00  0.00     0.132 A 
ENDROOT
BRANCH   1   7
HETATM    7  N4  UNL     1      -6.565  11.432  30.385  1.00  0.00    -0.299 N 
ATOM      8  H4  UNL     1      -5.784  11.682  30.991  1.00  0.00     0.187 HD
BRANCH   7   9
HETATM    9  N3  UNL     1      -6.326  11.316  29.056  1.00  0.00    -0.311 N 
HETATM   10  C4  UNL     1      -6.644  10.512  28.148  1.00  0.00     0.120 C 
ATOM     11  H3  UNL     1      -5.739  12.073  28.707  1.00  0.00     0.186 HD
BRANCH  10  12
HETATM   12  C3  UNL     1      -7.465   9.318  28.258  1.00  0.00    -0.001 A 
HETATM   13  C2  UNL     1      -8.835   9.485  28.006  1.00  0.00     0.102 A 
HETATM   14  N2  UNL     1      -9.692   8.459  28.075  1.00  0.00    -0.350 N 
HETATM   15  C1  UNL     1      -9.264   7.241  28.387  1.00  0.00     0.132 A 
ATOM     16  H2  UNL     1     -10.683   8.614  27.886  1.00  0.00     0.166 HD
HETATM   17  C16 UNL     1      -7.941   7.000  28.645  1.00  0.00     0.147 A 
HETATM   18  C15 UNL     1      -7.035   8.068  28.576  1.00  0.00     0.054 A 
BRANCH  15  19
HETATM   19  N1  UNL     1     -10.096   6.249  28.453  1.00  0.00    -0.383 N 
ATOM     20  H12 UNL     1     -11.073   6.418  28.214  1.00  0.00     0.157 HD
ATOM     21  H11 UNL     1      -9.776   5.324  28.737  1.00  0.00     0.157 HD
ENDBRANCH  15  19
BRANCH  17  22
HETATM   22  N9  UNL     1      -7.488   5.706  28.977  1.00  0.00    -0.112 N 
HETATM   23  O8  UNL     1      -7.857   5.133  30.006  1.00  0.00    -0.532 OA
HETATM   24  O9  UNL     1      -6.611   5.071  28.138  1.00  0.00    -0.532 OA
ENDBRANCH  17  22
ENDBRANCH  10  12
ENDBRANCH   7   9
ENDBRANCH   1   7
BRANCH   6  25
HETATM   25  N8  UNL     1      -8.761  13.078  29.771  1.00  0.00    -0.113 N 
HETATM   26  O6  UNL     1      -7.811  13.859  29.720  1.00  0.00    -0.532 OA
HETATM   27  O7  UNL     1      -9.788  13.216  28.837  1.00  0.00    -0.532 OA
ENDBRANCH   6  25
BRANCH   4  28
HETATM   28  S1  UNL     1     -11.897  10.497  32.972  1.00  0.00     0.245 S 
HETATM   29  O1  UNL     1     -12.330  11.842  33.524  1.00  0.00    -0.206 OA
HETATM   30  O2  UNL     1     -11.692   9.601  34.179  1.00  0.00    -0.206 OA
BRANCH  28  31
HETATM   31  N5  UNL     1     -13.054   9.893  31.882  1.00  0.00    -0.172 NA
HETATM   32  C9  UNL     1     -14.305  10.526  32.086  1.00  0.00     0.243 C 
HETATM   33  N6  UNL     1     -15.226   9.767  32.909  1.00  0.00    -0.123 NA
HETATM   34  N7  UNL     1     -15.519   8.567  32.256  1.00  0.00    -0.271 N 
HETATM   35  C10 UNL     1     -14.493   8.070  31.406  1.00  0.00     0.257 C 
ATOM     36  H7  UNL     1     -16.407   8.080  32.382  1.00  0.00     0.185 HD
HETATM   37  O3  UNL     1     -14.764   7.327  30.427  1.00  0.00    -0.270 OA
HETATM   38  C11 UNL     1     -13.110   8.480  31.749  1.00  0.00     0.223 C 
BRANCH  38  39
HETATM   39  C12 UNL     1     -12.098   7.931  30.776  1.00  0.00     0.281 C 
BRANCH  39  40
HETATM   40  O4  UNL     1     -12.095   6.539  30.840  1.00  0.00    -0.369 OA
ATOM     41  H4  UNL     1     -12.701   6.188  30.198  1.00  0.00     0.212 HD
ENDBRANCH  39  40
BRANCH  39  42
HETATM   42  O5  UNL     1     -12.420   8.270  29.453  1.00  0.00    -0.369 OA
ATOM     43  H5  UNL     1     -11.720   8.037  28.854  1.00  0.00     0.212 HD
ENDBRANCH  39  42
ENDBRANCH  38  39
ENDBRANCH  28  31
ENDBRANCH   4  28
TORSDOF 11
ENDMDL
MODEL 4
REMARK VINA RESULT: -6.000472851      2.145      2.856
REMARK  11 active torsions:
REMARK  status: ('A' for Active; 'I' for Inactive)
REMARK    1  A    between atoms: N1_1  and  C1_4 
REMARK    2  A    between atoms: C3_8  and  C4_9 
REMARK    3  A    between atoms: N3_10  and  N4_12 
REMARK    4  A    between atoms: N4_12  and  C5_14 
REMARK    5  A    between atoms: C8_17  and  S1_18 
REMARK    6  A    between atoms: S1_18  and  N5_21 
REMARK    7  A    between atoms: C11_28  and  C12_29 
REMARK    8  A    between atoms: C12_29  and  O4_30 
REMARK    9  A    between atoms: C12_29  and  O5_32 
REMARK   10  A    between atoms: C14_35  and  N8_36 
REMARK   11  A    between atoms: C16_40  and  N9_41 
ROOT
HETATM    1  C5  UNL     1      -8.170  11.433  31.095  1.00  0.00     0.081 A 
HETATM    2  C6  UNL     1      -9.282  12.219  30.813  1.00  0.00     0.035 A 
HETATM    3  C7  UNL     1     -10.530  11.977  31.374  1.00  0.00     0.027 A 
HETATM    4  C8  UNL     1     -10.695  10.925  32.245  1.00  0.00     0.077 A 
HETATM    5  C13 UNL     1      -9.578  10.153  32.516  1.00  0.00     0.063 A 
HETATM    6  C14 UNL     1      -8.333  10.381  31.967  1.00  0.00     0.132 A 
ENDROOT
BRANCH   1   7
HETATM    7  N4  UNL     1      -6.909  11.732  30.490  1.00  0.00    -0.299 N 
ATOM      8  H4  UNL     1      -6.152  12.047  31.097  1.00  0.00     0.187 HD
BRANCH   7   9
HETATM    9  N3  UNL     1      -6.655  11.624  29.163  1.00  0.00    -0.311 N 
HETATM   10  C4  UNL     1      -6.940  10.812  28.252  1.00  0.00     0.120 C 
ATOM     11  H3  UNL     1      -6.089  12.400  28.819  1.00  0.00     0.186 HD
BRANCH  10  12
HETATM   12  C3  UNL     1      -7.724   9.592  28.355  1.00  0.00    -0.001 A 
HETATM   13  C2  UNL     1      -9.102   9.723  28.131  1.00  0.00     0.102 A 
HETATM   14  N2  UNL     1      -9.928   8.672  28.197  1.00  0.00    -0.350 N 
HETATM   15  C1  UNL     1      -9.459   7.461  28.478  1.00  0.00     0.132 A 
ATOM     16  H2  UNL     1     -10.926   8.801  28.029  1.00  0.00     0.166 HD
HETATM   17  C16 UNL     1      -8.125   7.255  28.708  1.00  0.00     0.147 A 
HETATM   18  C15 UNL     1      -7.252   8.350  28.642  1.00  0.00     0.054 A 
BRANCH  15  19
HETATM   19  N1  UNL     1     -10.260   6.444  28.541  1.00  0.00    -0.383 N 
ATOM     20  H12 UNL     1     -11.258   6.619  28.656  1.00  0.00     0.157 HD
ATOM     21  H11 UNL     1      -9.896   5.493  28.477  1.00  0.00     0.157 HD
ENDBRANCH  15  19
BRANCH  17  22
HETATM   22  N9  UNL     1      -7.628   5.969  29.008  1.00  0.00    -0.112 N 
HETATM   23  O8  UNL     1      -7.955   5.370  30.037  1.00  0.00    -0.532 OA
HETATM   24  O9  UNL     1      -6.756   5.371  28.136  1.00  0.00    -0.532 OA
ENDBRANCH  17  22
ENDBRANCH  10  12
ENDBRANCH   7   9
ENDBRANCH   1   7
BRANCH   6  25
HETATM   25  N8  UNL     1      -7.205   9.575  32.269  1.00  0.00    -0.113 N 
HETATM   26  O6  UNL     1      -7.083   8.375  32.022  1.00  0.00    -0.532 OA
HETATM   27  O7  UNL     1      -6.154  10.233  32.907  1.00  0.00    -0.532 OA
ENDBRANCH   6  25
BRANCH   4  28
HETATM   28  S1  UNL     1     -12.231  10.552  32.994  1.00  0.00     0.245 S 
HETATM   29  O1  UNL     1     -12.718  11.831  33.647  1.00  0.00    -0.206 OA
HETATM   30  O2  UNL     1     -11.952   9.587  34.131  1.00  0.00    -0.206 OA
BRANCH  28  31
HETATM   31  N5  UNL     1     -13.383   9.965  31.889  1.00  0.00    -0.172 NA
HETATM   32  C9  UNL     1     -14.633  10.602  32.090  1.00  0.00     0.243 C 
HETATM   33  N6  UNL     1     -15.564   9.839  32.899  1.00  0.00    -0.123 NA
HETATM   34  N7  UNL     1     -15.858   8.647  32.232  1.00  0.00    -0.271 N 
HETATM   35  C10 UNL     1     -14.828   8.154  31.384  1.00  0.00     0.257 C 
ATOM     36  H7  UNL     1     -16.749   8.164  32.346  1.00  0.00     0.185 HD
HETATM   37  O3  UNL     1     -15.095   7.422  30.396  1.00  0.00    -0.270 OA
HETATM   38  C11 UNL     1     -13.445   8.553  31.742  1.00  0.00     0.223 C 
BRANCH  38  39
HETATM   39  C12 UNL     1     -12.429   8.009  30.771  1.00  0.00     0.281 C 
BRANCH  39  40
HETATM   40  O4  UNL     1     -12.464   6.616  30.790  1.00  0.00    -0.369 OA
ATOM     41  H4  UNL     1     -13.106   6.304  30.163  1.00  0.00     0.212 HD
ENDBRANCH  39  40
BRANCH  39  42
HETATM   42  O5  UNL     1     -12.715   8.399  29.454  1.00  0.00    -0.369 OA
ATOM     43  H5  UNL     1     -13.120   7.694  28.962  1.00  0.00     0.212 HD
ENDBRANCH  39  42
ENDBRANCH  38  39
ENDBRANCH  28  31
ENDBRANCH   4  28
TORSDOF 11
ENDMDL
MODEL 5
REMARK VINA RESULT: -5.976520095      0.967      1.092
REMARK  11 active torsions:
REMARK  status: ('A' for Active; 'I' for Inactive)
REMARK    1  A    between atoms: N1_1  and  C1_4 
REMARK    2  A    between atoms: C3_8  and  C4_9 
REMARK    3  A    between atoms: N3_10  and  N4_12 
REMARK    4  A    between atoms: N4_12  and  C5_14 
REMARK    5  A    between atoms: C8_17  and  S1_18 
REMARK    6  A    between atoms: S1_18  and  N5_21 
REMARK    7  A    between atoms: C11_28  and  C12_29 
REMARK    8  A    between atoms: C12_29  and  O4_30 
REMARK    9  A    between atoms: C12_29  and  O5_32 
REMARK   10  A    between atoms: C14_35  and  N8_36 
REMARK   11  A    between atoms: C16_40  and  N9_41 
ROOT
HETATM    1  C5  UNL     1      -9.227  10.713  33.744  1.00  0.00     0.081 A 
HETATM    2  C6  UNL     1      -9.352   9.363  34.054  1.00  0.00     0.035 A 
HETATM    3  C7  UNL     1     -10.569   8.782  34.387  1.00  0.00     0.027 A 
HETATM    4  C8  UNL     1     -11.708   9.553  34.419  1.00  0.00     0.077 A 
HETATM    5  C13 UNL     1     -11.567  10.895  34.109  1.00  0.00     0.063 A 
HETATM    6  C14 UNL     1     -10.365  11.486  33.775  1.00  0.00     0.132 A 
ENDROOT
BRANCH   1   7
HETATM    7  N4  UNL     1      -7.948  11.256  33.404  1.00  0.00    -0.299 N 
ATOM      8  H4  UNL     1      -7.735  12.204  33.713  1.00  0.00     0.187 HD
BRANCH   7   9
HETATM    9  N3  UNL     1      -7.001  10.591  32.699  1.00  0.00    -0.311 N 
HETATM   10  C4  UNL     1      -6.976   9.885  31.663  1.00  0.00     0.120 C 
ATOM     11  H3  UNL     1      -6.075  10.690  33.115  1.00  0.00     0.186 HD
BRANCH  10  12
HETATM   12  C3  UNL     1      -8.088   9.522  30.801  1.00  0.00    -0.001 A 
HETATM   13  C2  UNL     1      -8.901  10.578  30.364  1.00  0.00     0.102 A 
HETATM   14  N2  UNL     1      -9.955  10.370  29.566  1.00  0.00    -0.350 N 
HETATM   15  C1  UNL     1     -10.263   9.143  29.160  1.00  0.00     0.132 A 
ATOM     16  H2  UNL     1     -10.527  11.160  29.267  1.00  0.00     0.166 HD
HETATM   17  C16 UNL     1      -9.515   8.062  29.544  1.00  0.00     0.147 A 
HETATM   18  C15 UNL     1      -8.410   8.270  30.380  1.00  0.00     0.054 A 
BRANCH  15  19
HETATM   19  N1  UNL     1     -11.284   8.943  28.387  1.00  0.00    -0.383 N 
ATOM     20  H12 UNL     1     -11.156   9.043  27.380  1.00  0.00     0.157 HD
ATOM     21  H11 UNL     1     -12.191   8.693  28.780  1.00  0.00     0.157 HD
ENDBRANCH  15  19
BRANCH  17  22
HETATM   22  N9  UNL     1      -9.844   6.759  29.113  1.00  0.00    -0.112 N 
HETATM   23  O8  UNL     1     -10.553   6.010  29.791  1.00  0.00    -0.532 OA
HETATM   24  O9  UNL     1      -9.359   6.312  27.912  1.00  0.00    -0.532 OA
ENDBRANCH  17  22
ENDBRANCH  10  12
ENDBRANCH   7   9
ENDBRANCH   1   7
BRANCH   6  25
HETATM   25  N8  UNL     1     -10.254  12.864  33.456  1.00  0.00    -0.113 N 
HETATM   26  O6  UNL     1     -10.043  13.779  34.251  1.00  0.00    -0.532 OA
HETATM   27  O7  UNL     1     -10.405  13.178  32.105  1.00  0.00    -0.532 OA
ENDBRANCH   6  25
BRANCH   4  28
HETATM   28  S1  UNL     1     -13.278   8.900  34.830  1.00  0.00     0.245 S 
HETATM   29  O1  UNL     1     -13.811   9.742  35.973  1.00  0.00    -0.206 OA
HETATM   30  O2  UNL     1     -13.051   7.515  35.406  1.00  0.00    -0.206 OA
BRANCH  28  31
HETATM   31  N5  UNL     1     -14.363   8.908  33.521  1.00  0.00    -0.172 NA
HETATM   32  C9  UNL     1     -15.700   8.985  33.984  1.00  0.00     0.243 C 
HETATM   33  N6  UNL     1     -16.376   7.704  34.059  1.00  0.00    -0.123 NA
HETATM   34  N7  UNL     1     -16.461   7.172  32.771  1.00  0.00    -0.271 N 
HETATM   35  C10 UNL     1     -15.422   7.561  31.881  1.00  0.00     0.257 C 
ATOM     36  H7  UNL     1     -17.215   6.546  32.487  1.00  0.00     0.185 HD
HETATM   37  O3  UNL     1     -15.605   7.580  30.636  1.00  0.00    -0.270 OA
HETATM   38  C11 UNL     1     -14.132   7.934  32.512  1.00  0.00     0.223 C 
BRANCH  38  39
HETATM   39  C12 UNL     1     -13.106   8.361  31.494  1.00  0.00     0.281 C 
BRANCH  39  40
HETATM   40  O4  UNL     1     -12.914   7.338  30.567  1.00  0.00    -0.369 OA
ATOM     41  H4  UNL     1     -12.416   7.667  29.828  1.00  0.00     0.212 HD
ENDBRANCH  39  40
BRANCH  39  42
HETATM   42  O5  UNL     1     -13.535   9.483  30.769  1.00  0.00    -0.369 OA
ATOM     43  H5  UNL     1     -14.483   9.522  30.716  1.00  0.00     0.212 HD
ENDBRANCH  39  42
ENDBRANCH  38  39
ENDBRANCH  28  31
ENDBRANCH   4  28
TORSDOF 11
ENDMDL
