MODEL 1
REMARK VINA RESULT: -7.926340825      0.000      0.000
REMARK  11 active torsions:
REMARK  status: ('A' for Active; 'I' for Inactive)
REMARK    1  A    between atoms: C1_2  and  C2_4 
REMARK    2  A    between atoms: C4_6  and  C5_7 
REMARK    3  A    between atoms: C5_7  and  O2_8 
REMARK    4  A    between atoms: C6_10  and  O3_11 
REMARK    5  A    between atoms: C7_13  and  N2_14 
REMARK    6  A    between atoms: C8_17  and  N3_18 
REMARK    7  A    between atoms: N3_18  and  N4_20 
REMARK    8  A    between atoms: N4_20  and  C9_22 
REMARK    9  A    between atoms: C10_23  and  N5_24 
REMARK   10  A    between atoms: C12_28  and  N6_29 
REMARK   11  A    between atoms: C14_34  and  C15_35 
ROOT
HETATM    1  N3  UNL     1      48.806 -51.413  72.969  1.00  0.00    -0.297 N 
ATOM      2  H3  UNL     1      49.213 -51.833  72.133  1.00  0.00     0.187 HD
ENDROOT
BRANCH   1   3
HETATM    3  C8  UNL     1      49.632 -51.488  74.103  1.00  0.00     0.099 A 
HETATM    4  C2  UNL     1      49.764 -52.745  74.689  1.00  0.00     0.060 A 
HETATM    5  C3  UNL     1      50.593 -52.919  75.792  1.00  0.00     0.031 A 
HETATM    6  C4  UNL     1      51.298 -51.886  76.338  1.00  0.00     0.002 A 
HETATM    7  C6  UNL     1      51.167 -50.656  75.763  1.00  0.00     0.109 A 
HETATM    8  C7  UNL     1      50.341 -50.464  74.658  1.00  0.00     0.165 A 
BRANCH   4   9
HETATM    9  C1  UNL     1      49.112 -53.933  74.184  1.00  0.00     0.267 C 
HETATM   10  N1  UNL     1      49.548 -54.549  72.991  1.00  0.00    -0.057 NA
HETATM   11  O1  UNL     1      48.154 -54.426  74.810  1.00  0.00    -0.271 OA
ENDBRANCH   4   9
BRANCH   6  12
HETATM   12  C5  UNL     1      52.200 -52.075  77.524  1.00  0.00     0.205 C 
BRANCH  12  13
HETATM   13  O2  UNL     1      51.815 -51.163  78.503  1.00  0.00    -0.396 OA
ATOM     14  H2  UNL     1      52.124 -50.303  78.240  1.00  0.00     0.209 HD
ENDBRANCH  12  13
ENDBRANCH   6  12
BRANCH   7  15
HETATM   15  O3  UNL     1      51.870 -49.599  76.297  1.00  0.00    -0.357 OA
ATOM     16  H3  UNL     1      52.819 -49.636  76.293  1.00  0.00     0.217 HD
ENDBRANCH   7  15
BRANCH   8  17
HETATM   17  N2  UNL     1      50.245 -49.161  74.105  1.00  0.00    -0.110 N 
HETATM   18  O4  UNL     1      50.401 -49.049  72.867  1.00  0.00    -0.532 OA
HETATM   19  O5  UNL     1      49.977 -48.097  74.932  1.00  0.00    -0.532 OA
ENDBRANCH   8  17
ENDBRANCH   1   3
BRANCH   1  20
HETATM   20  N4  UNL     1      47.568 -50.886  72.774  1.00  0.00    -0.297 N 
ATOM     21  H4  UNL     1      47.024 -51.368  72.058  1.00  0.00     0.187 HD
BRANCH  20  22
HETATM   22  C9  UNL     1      46.895 -49.808  73.367  1.00  0.00     0.100 A 
HETATM   23  C10 UNL     1      46.759 -48.620  72.646  1.00  0.00     0.134 A 
HETATM   24  C11 UNL     1      46.093 -47.532  73.219  1.00  0.00     0.076 A 
HETATM   25  C12 UNL     1      45.578 -47.631  74.487  1.00  0.00     0.130 A 
HETATM   26  C13 UNL     1      45.710 -48.793  75.204  1.00  0.00     0.098 A 
HETATM   27  N7  UNL     1      45.188 -48.894  76.530  1.00  0.00    -0.099 NA
HETATM   28  C14 UNL     1      46.378 -49.890  74.629  1.00  0.00     0.098 A 
BRANCH  23  29
HETATM   29  N5  UNL     1      47.309 -48.489  71.347  1.00  0.00    -0.113 N 
HETATM   30  O6  UNL     1      48.094 -49.317  70.886  1.00  0.00    -0.532 OA
HETATM   31  O7  UNL     1      46.968 -47.394  70.600  1.00  0.00    -0.532 OA
ENDBRANCH  23  29
BRANCH  25  32
HETATM   32  N6  UNL     1      44.891 -46.526  75.076  1.00  0.00    -0.114 N 
HETATM   33  O8  UNL     1      43.707 -46.354  74.814  1.00  0.00    -0.532 OA
HETATM   34  O9  UNL     1      45.571 -45.684  75.910  1.00  0.00    -0.532 OA
ENDBRANCH  25  32
BRANCH  28  35
HETATM   35  C15 UNL     1      46.482 -51.077  75.439  1.00  0.00     0.213 C 
HETATM   36  O10 UNL     1      45.722 -52.067  75.215  1.00  0.00    -0.644 OA
HETATM   37  O11 UNL     1      47.391 -51.158  76.457  1.00  0.00    -0.644 OA
ENDBRANCH  28  35
ENDBRANCH  20  22
ENDBRANCH   1  20
TORSDOF 11
ENDMDL
MODEL 2
REMARK VINA RESULT: -7.679241335      0.972      2.812
REMARK  11 active torsions:
REMARK  status: ('A' for Active; 'I' for Inactive)
REMARK    1  A    between atoms: C1_2  and  C2_4 
REMARK    2  A    between atoms: C4_6  and  C5_7 
REMARK    3  A    between atoms: C5_7  and  O2_8 
REMARK    4  A    between atoms: C6_10  and  O3_11 
REMARK    5  A    between atoms: C7_13  and  N2_14 
REMARK    6  A    between atoms: C8_17  and  N3_18 
REMARK    7  A    between atoms: N3_18  and  N4_20 
REMARK    8  A    between atoms: N4_20  and  C9_22 
REMARK    9  A    between atoms: C10_23  and  N5_24 
REMARK   10  A    between atoms: C12_28  and  N6_29 
REMARK   11  A    between atoms: C14_34  and  C15_35 
ROOT
HETATM    1  N3  UNL     1      48.828 -51.379  72.903  1.00  0.00    -0.297 N 
ATOM      2  H3  UNL     1      49.313 -51.553  72.022  1.00  0.00     0.187 HD
ENDROOT
BRANCH   1   3
HETATM    3  C8  UNL     1      49.584 -51.700  74.041  1.00  0.00     0.099 A 
HETATM    4  C2  UNL     1      50.264 -50.647  74.649  1.00  0.00     0.060 A 
HETATM    5  C3  UNL     1      51.007 -50.868  75.804  1.00  0.00     0.031 A 
HETATM    6  C4  UNL     1      51.099 -52.101  76.382  1.00  0.00     0.002 A 
HETATM    7  C6  UNL     1      50.432 -53.131  75.785  1.00  0.00     0.109 A 
HETATM    8  C7  UNL     1      49.684 -52.928  74.627  1.00  0.00     0.165 A 
BRANCH   4   9
HETATM    9  C1  UNL     1      50.214 -49.283  74.171  1.00  0.00     0.267 C 
HETATM   10  N1  UNL     1      49.978 -48.211  75.058  1.00  0.00    -0.057 NA
HETATM   11  O1  UNL     1      50.385 -49.047  72.959  1.00  0.00    -0.271 OA
ENDBRANCH   4   9
BRANCH   6  12
HETATM   12  C5  UNL     1      51.893 -52.339  77.634  1.00  0.00     0.205 C 
BRANCH  12  13
HETATM   13  O2  UNL     1      52.934 -53.208  77.322  1.00  0.00    -0.396 OA
ATOM     14  H2  UNL     1      53.708 -52.916  77.790  1.00  0.00     0.209 HD
ENDBRANCH  12  13
ENDBRANCH   6  12
BRANCH   7  15
HETATM   15  O3  UNL     1      50.510 -54.384  76.351  1.00  0.00    -0.357 OA
ATOM     16  H3  UNL     1      50.100 -55.113  75.901  1.00  0.00     0.217 HD
ENDBRANCH   7  15
BRANCH   8  17
HETATM   17  N2  UNL     1      49.014 -54.039  74.053  1.00  0.00    -0.110 N 
HETATM   18  O4  UNL     1      49.358 -54.384  72.900  1.00  0.00    -0.532 OA
HETATM   19  O5  UNL     1      48.042 -54.686  74.777  1.00  0.00    -0.532 OA
ENDBRANCH   8  17
ENDBRANCH   1   3
BRANCH   1  20
HETATM   20  N4  UNL     1      47.572 -50.881  72.750  1.00  0.00    -0.297 N 
ATOM     21  H4  UNL     1      47.010 -51.384  72.064  1.00  0.00     0.187 HD
BRANCH  20  22
HETATM   22  C9  UNL     1      46.901 -49.808  73.354  1.00  0.00     0.100 A 
HETATM   23  C10 UNL     1      46.758 -48.616  72.641  1.00  0.00     0.134 A 
HETATM   24  C11 UNL     1      46.094 -47.532  73.226  1.00  0.00     0.076 A 
HETATM   25  C12 UNL     1      45.587 -47.640  74.496  1.00  0.00     0.130 A 
HETATM   26  C13 UNL     1      45.726 -48.807  75.206  1.00  0.00     0.098 A 
HETATM   27  N7  UNL     1      45.213 -48.916  76.534  1.00  0.00    -0.099 NA
HETATM   28  C14 UNL     1      46.393 -49.898  74.619  1.00  0.00     0.098 A 
BRANCH  23  29
HETATM   29  N5  UNL     1      47.299 -48.475  71.340  1.00  0.00    -0.113 N 
HETATM   30  O6  UNL     1      48.101 -49.287  70.877  1.00  0.00    -0.532 OA
HETATM   31  O7  UNL     1      46.930 -47.390  70.592  1.00  0.00    -0.532 OA
ENDBRANCH  23  29
BRANCH  25  32
HETATM   32  N6  UNL     1      44.902 -46.540  75.097  1.00  0.00    -0.114 N 
HETATM   33  O8  UNL     1      43.718 -46.363  74.836  1.00  0.00    -0.532 OA
HETATM   34  O9  UNL     1      45.584 -45.708  75.940  1.00  0.00    -0.532 OA
ENDBRANCH  25  32
BRANCH  28  35
HETATM   35  C15 UNL     1      46.504 -51.090  75.421  1.00  0.00     0.213 C 
HETATM   36  O10 UNL     1      45.766 -52.092  75.176  1.00  0.00    -0.644 OA
HETATM   37  O11 UNL     1      47.397 -51.163  76.454  1.00  0.00    -0.644 OA
ENDBRANCH  28  35
ENDBRANCH  20  22
ENDBRANCH   1  20
TORSDOF 11
ENDMDL
MODEL 3
REMARK VINA RESULT: -7.485141110      2.173      6.253
REMARK  11 active torsions:
REMARK  status: ('A' for Active; 'I' for Inactive)
REMARK    1  A    between atoms: C1_2  and  C2_4 
REMARK    2  A    between atoms: C4_6  and  C5_7 
REMARK    3  A    between atoms: C5_7  and  O2_8 
REMARK    4  A    between atoms: C6_10  and  O3_11 
REMARK    5  A    between atoms: C7_13  and  N2_14 
REMARK    6  A    between atoms: C8_17  and  N3_18 
REMARK    7  A    between atoms: N3_18  and  N4_20 
REMARK    8  A    between atoms: N4_20  and  C9_22 
REMARK    9  A    between atoms: C10_23  and  N5_24 
REMARK   10  A    between atoms: C12_28  and  N6_29 
REMARK   11  A    between atoms: C14_34  and  C15_35 
ROOT
HETATM    1  N3  UNL     1      47.163 -50.492  72.633  1.00  0.00    -0.297 N 
ATOM      2  H3  UNL     1      46.895 -50.508  71.648  1.00  0.00     0.187 HD
ENDROOT
BRANCH   1   3
HETATM    3  C8  UNL     1      46.246 -49.825  73.461  1.00  0.00     0.099 A 
HETATM    4  C2  UNL     1      45.250 -50.609  74.039  1.00  0.00     0.060 A 
HETATM    5  C3  UNL     1      44.323 -50.038  74.904  1.00  0.00     0.031 A 
HETATM    6  C4  UNL     1      44.347 -48.710  75.217  1.00  0.00     0.002 A 
HETATM    7  C6  UNL     1      45.323 -47.943  74.650  1.00  0.00     0.109 A 
HETATM    8  C7  UNL     1      46.260 -48.499  73.781  1.00  0.00     0.165 A 
BRANCH   4   9
HETATM    9  C1  UNL     1      45.138 -52.036  73.831  1.00  0.00     0.267 C 
HETATM   10  N1  UNL     1      45.224 -52.937  74.914  1.00  0.00    -0.057 NA
HETATM   11  O1  UNL     1      44.958 -52.481  72.681  1.00  0.00    -0.271 OA
ENDBRANCH   4   9
BRANCH   6  12
HETATM   12  C5  UNL     1      43.352 -48.094  76.157  1.00  0.00     0.205 C 
BRANCH  12  13
HETATM   13  O2  UNL     1      42.523 -47.258  75.415  1.00  0.00    -0.396 OA
ATOM     14  H2  UNL     1      41.643 -47.615  75.447  1.00  0.00     0.209 HD
ENDBRANCH  12  13
ENDBRANCH   6  12
BRANCH   7  15
HETATM   15  O3  UNL     1      45.368 -46.601  74.953  1.00  0.00    -0.357 OA
ATOM     16  H3  UNL     1      46.207 -46.156  74.929  1.00  0.00     0.217 HD
ENDBRANCH   7  15
BRANCH   8  17
HETATM   17  N2  UNL     1      47.249 -47.650  73.222  1.00  0.00    -0.110 N 
HETATM   18  O4  UNL     1      47.197 -47.442  71.988  1.00  0.00    -0.532 OA
HETATM   19  O5  UNL     1      48.198 -47.091  74.044  1.00  0.00    -0.532 OA
ENDBRANCH   8  17
ENDBRANCH   1   3
BRANCH   1  20
HETATM   20  N4  UNL     1      48.340 -51.121  72.893  1.00  0.00    -0.297 N 
ATOM     21  H4  UNL     1      49.112 -50.809  72.304  1.00  0.00     0.187 HD
BRANCH  20  22
HETATM   22  C9  UNL     1      48.696 -52.116  73.814  1.00  0.00     0.100 A 
HETATM   23  C10 UNL     1      48.544 -53.456  73.451  1.00  0.00     0.134 A 
HETATM   24  C11 UNL     1      48.892 -54.465  74.356  1.00  0.00     0.076 A 
HETATM   25  C12 UNL     1      49.378 -54.139  75.596  1.00  0.00     0.130 A 
HETATM   26  C13 UNL     1      49.527 -52.825  75.963  1.00  0.00     0.098 A 
HETATM   27  N7  UNL     1      50.017 -52.482  77.260  1.00  0.00    -0.099 NA
HETATM   28  C14 UNL     1      49.179 -51.808  75.055  1.00  0.00     0.098 A 
BRANCH  23  29
HETATM   29  N5  UNL     1      48.018 -53.813  72.185  1.00  0.00    -0.113 N 
HETATM   30  O6  UNL     1      48.264 -53.160  71.171  1.00  0.00    -0.532 OA
HETATM   31  O7  UNL     1      47.195 -54.903  72.103  1.00  0.00    -0.532 OA
ENDBRANCH  23  29
BRANCH  25  32
HETATM   32  N6  UNL     1      49.740 -55.164  76.523  1.00  0.00    -0.114 N 
HETATM   33  O8  UNL     1      48.870 -55.673  77.217  1.00  0.00    -0.532 OA
HETATM   34  O9  UNL     1      51.049 -55.546  76.617  1.00  0.00    -0.532 OA
ENDBRANCH  25  32
BRANCH  28  35
HETATM   35  C15 UNL     1      49.359 -50.452  75.506  1.00  0.00     0.213 C 
HETATM   36  O10 UNL     1      50.394 -49.802  75.170  1.00  0.00    -0.644 OA
HETATM   37  O11 UNL     1      48.427 -49.845  76.302  1.00  0.00    -0.644 OA
ENDBRANCH  28  35
ENDBRANCH  20  22
ENDBRANCH   1  20
TORSDOF 11
ENDMDL
MODEL 4
REMARK VINA RESULT: -7.423162636      1.490      6.252
REMARK  11 active torsions:
REMARK  status: ('A' for Active; 'I' for Inactive)
REMARK    1  A    between atoms: C1_2  and  C2_4 
REMARK    2  A    between atoms: C4_6  and  C5_7 
REMARK    3  A    between atoms: C5_7  and  O2_8 
REMARK    4  A    between atoms: C6_10  and  O3_11 
REMARK    5  A    between atoms: C7_13  and  N2_14 
REMARK    6  A    between atoms: C8_17  and  N3_18 
REMARK    7  A    between atoms: N3_18  and  N4_20 
REMARK    8  A    between atoms: N4_20  and  C9_22 
REMARK    9  A    between atoms: C10_23  and  N5_24 
REMARK   10  A    between atoms: C12_28  and  N6_29 
REMARK   11  A    between atoms: C14_34  and  C15_35 
ROOT
HETATM    1  N3  UNL     1      47.710 -50.947  72.833  1.00  0.00    -0.297 N 
ATOM      2  H3  UNL     1      47.188 -51.412  72.090  1.00  0.00     0.187 HD
ENDROOT
BRANCH   1   3
HETATM    3  C8  UNL     1      47.014 -49.891  73.442  1.00  0.00     0.099 A 
HETATM    4  C2  UNL     1      46.825 -48.747  72.670  1.00  0.00     0.060 A 
HETATM    5  C3  UNL     1      46.113 -47.667  73.181  1.00  0.00     0.031 A 
HETATM    6  C4  UNL     1      45.578 -47.681  74.437  1.00  0.00     0.002 A 
HETATM    7  C6  UNL     1      45.764 -48.802  75.192  1.00  0.00     0.109 A 
HETATM    8  C7  UNL     1      46.475 -49.892  74.696  1.00  0.00     0.165 A 
BRANCH   4   9
HETATM    9  C1  UNL     1      47.296 -48.617  71.309  1.00  0.00     0.267 C 
HETATM   10  N1  UNL     1      46.745 -47.652  70.439  1.00  0.00    -0.057 NA
HETATM   11  O1  UNL     1      48.204 -49.364  70.895  1.00  0.00    -0.271 OA
ENDBRANCH   4   9
BRANCH   6  12
HETATM   12  C5  UNL     1      44.802 -46.519  74.986  1.00  0.00     0.205 C 
BRANCH  12  13
HETATM   13  O2  UNL     1      45.524 -45.986  76.049  1.00  0.00    -0.396 OA
ATOM     14  H2  UNL     1      45.652 -45.059  75.881  1.00  0.00     0.209 HD
ENDBRANCH  12  13
ENDBRANCH   6  12
BRANCH   7  15
HETATM   15  O3  UNL     1      45.232 -48.839  76.462  1.00  0.00    -0.357 OA
ATOM     16  H3  UNL     1      45.743 -49.235  77.158  1.00  0.00     0.217 HD
ENDBRANCH   7  15
BRANCH   8  17
HETATM   17  N2  UNL     1      46.636 -51.029  75.529  1.00  0.00    -0.110 N 
HETATM   18  O4  UNL     1      46.020 -52.071  75.205  1.00  0.00    -0.532 OA
HETATM   19  O5  UNL     1      47.455 -50.947  76.629  1.00  0.00    -0.532 OA
ENDBRANCH   8  17
ENDBRANCH   1   3
BRANCH   1  20
HETATM   20  N4  UNL     1      48.948 -51.469  73.045  1.00  0.00    -0.297 N 
ATOM     21  H4  UNL     1      49.403 -51.804  72.196  1.00  0.00     0.187 HD
BRANCH  20  22
HETATM   22  C9  UNL     1      49.718 -51.634  74.204  1.00  0.00     0.100 A 
HETATM   23  C10 UNL     1      50.374 -50.524  74.741  1.00  0.00     0.134 A 
HETATM   24  C11 UNL     1      51.151 -50.668  75.896  1.00  0.00     0.076 A 
HETATM   25  C12 UNL     1      51.269 -51.895  76.497  1.00  0.00     0.130 A 
HETATM   26  C13 UNL     1      50.630 -52.992  75.975  1.00  0.00     0.098 A 
HETATM   27  N7  UNL     1      50.764 -54.274  76.590  1.00  0.00    -0.099 NA
HETATM   28  C14 UNL     1      49.848 -52.850  74.813  1.00  0.00     0.098 A 
BRANCH  23  29
HETATM   29  N5  UNL     1      50.288 -49.255  74.119  1.00  0.00    -0.113 N 
HETATM   30  O6  UNL     1      50.458 -49.111  72.908  1.00  0.00    -0.532 OA
HETATM   31  O7  UNL     1      50.029 -48.161  74.899  1.00  0.00    -0.532 OA
ENDBRANCH  23  29
BRANCH  25  32
HETATM   32  N6  UNL     1      52.054 -52.048  77.681  1.00  0.00    -0.114 N 
HETATM   33  O8  UNL     1      52.823 -52.997  77.766  1.00  0.00    -0.532 OA
HETATM   34  O9  UNL     1      51.924 -51.136  78.690  1.00  0.00    -0.532 OA
ENDBRANCH  25  32
BRANCH  28  35
HETATM   35  C15 UNL     1      49.209 -54.042  74.319  1.00  0.00     0.213 C 
HETATM   36  O10 UNL     1      48.211 -54.529  74.931  1.00  0.00    -0.644 OA
HETATM   37  O11 UNL     1      49.662 -54.669  73.191  1.00  0.00    -0.644 OA
ENDBRANCH  28  35
ENDBRANCH  20  22
ENDBRANCH   1  20
TORSDOF 11
ENDMDL
MODEL 5
REMARK VINA RESULT: -7.405722635      1.630      3.074
REMARK  11 active torsions:
REMARK  status: ('A' for Active; 'I' for Inactive)
REMARK    1  A    between atoms: C1_2  and  C2_4 
REMARK    2  A    between atoms: C4_6  and  C5_7 
REMARK    3  A    between atoms: C5_7  and  O2_8 
REMARK    4  A    between atoms: C6_10  and  O3_11 
REMARK    5  A    between atoms: C7_13  and  N2_14 
REMARK    6  A    between atoms: C8_17  and  N3_18 
REMARK    7  A    between atoms: N3_18  and  N4_20 
REMARK    8  A    between atoms: N4_20  and  C9_22 
REMARK    9  A    between atoms: C10_23  and  N5_24 
REMARK   10  A    between atoms: C12_28  and  N6_29 
REMARK   11  A    between atoms: C14_34  and  C15_35 
ROOT
HETATM    1  N3  UNL     1      48.609 -50.685  74.318  1.00  0.00    -0.297 N 
ATOM      2  H3  UNL     1      48.979 -50.570  73.375  1.00  0.00     0.187 HD
ENDROOT
BRANCH   1   3
HETATM    3  C8  UNL     1      49.589 -50.962  75.285  1.00  0.00     0.099 A 
HETATM    4  C2  UNL     1      50.119 -49.864  75.960  1.00  0.00     0.060 A 
HETATM    5  C3  UNL     1      51.067 -50.050  76.961  1.00  0.00     0.031 A 
HETATM    6  C4  UNL     1      51.511 -51.290  77.317  1.00  0.00     0.002 A 
HETATM    7  C6  UNL     1      50.992 -52.364  76.654  1.00  0.00     0.109 A 
HETATM    8  C7  UNL     1      50.041 -52.196  75.649  1.00  0.00     0.165 A 
BRANCH   4   9
HETATM    9  C1  UNL     1      49.703 -48.501  75.717  1.00  0.00     0.267 C 
HETATM   10  N1  UNL     1      49.724 -47.957  74.415  1.00  0.00    -0.057 NA
HETATM   11  O1  UNL     1      49.317 -47.793  76.667  1.00  0.00    -0.271 OA
ENDBRANCH   4   9
BRANCH   6  12
HETATM   12  C5  UNL     1      52.528 -51.491  78.403  1.00  0.00     0.205 C 
BRANCH  12  13
HETATM   13  O2  UNL     1      53.667 -52.047  77.825  1.00  0.00    -0.396 OA
ATOM     14  H2  UNL     1      54.193 -52.424  78.521  1.00  0.00     0.209 HD
ENDBRANCH  12  13
ENDBRANCH   6  12
BRANCH   7  15
HETATM   15  O3  UNL     1      51.425 -53.625  76.998  1.00  0.00    -0.357 OA
ATOM     16  H3  UNL     1      51.831 -54.164  76.330  1.00  0.00     0.217 HD
ENDBRANCH   7  15
BRANCH   8  17
HETATM   17  N2  UNL     1      49.539 -53.351  74.996  1.00  0.00    -0.110 N 
HETATM   18  O4  UNL     1      48.302 -53.540  75.034  1.00  0.00    -0.532 OA
HETATM   19  O5  UNL     1      50.413 -54.190  74.348  1.00  0.00    -0.532 OA
ENDBRANCH   8  17
ENDBRANCH   1   3
BRANCH   1  20
HETATM   20  N4  UNL     1      47.259 -50.541  74.401  1.00  0.00    -0.297 N 
ATOM     21  H4  UNL     1      46.749 -51.424  74.387  1.00  0.00     0.187 HD
BRANCH  20  22
HETATM   22  C9  UNL     1      46.433 -49.412  74.502  1.00  0.00     0.100 A 
HETATM   23  C10 UNL     1      46.282 -48.586  73.386  1.00  0.00     0.134 A 
HETATM   24  C11 UNL     1      45.465 -47.453  73.467  1.00  0.00     0.076 A 
HETATM   25  C12 UNL     1      44.816 -47.154  74.638  1.00  0.00     0.130 A 
HETATM   26  C13 UNL     1      44.962 -47.958  75.741  1.00  0.00     0.098 A 
HETATM   27  N7  UNL     1      44.301 -47.641  76.966  1.00  0.00    -0.099 NA
HETATM   28  C14 UNL     1      45.783 -49.099  75.662  1.00  0.00     0.098 A 
BRANCH  23  29
HETATM   29  N5  UNL     1      46.965 -48.862  72.177  1.00  0.00    -0.113 N 
HETATM   30  O6  UNL     1      47.247 -50.012  71.836  1.00  0.00    -0.532 OA
HETATM   31  O7  UNL     1      47.338 -47.812  71.382  1.00  0.00    -0.532 OA
ENDBRANCH  23  29
BRANCH  25  32
HETATM   32  N6  UNL     1      43.975 -46.003  74.725  1.00  0.00    -0.114 N 
HETATM   33  O8  UNL     1      42.810 -46.090  74.357  1.00  0.00    -0.532 OA
HETATM   34  O9  UNL     1      44.491 -44.834  75.208  1.00  0.00    -0.532 OA
ENDBRANCH  25  32
BRANCH  28  35
HETATM   35  C15 UNL     1      45.892 -49.896  76.857  1.00  0.00     0.213 C 
HETATM   36  O10 UNL     1      47.030 -50.126  77.366  1.00  0.00    -0.644 OA
HETATM   37  O11 UNL     1      44.781 -50.418  77.459  1.00  0.00    -0.644 OA
ENDBRANCH  28  35
ENDBRANCH  20  22
ENDBRANCH   1  20
TORSDOF 11
ENDMDL
