MODEL 1
REMARK VINA RESULT: -7.338290822      0.000      0.000
REMARK  6 active torsions:
REMARK  status: ('A' for Active; 'I' for Inactive)
REMARK       I    between atoms: C1_2  and  N5_14 
REMARK       I    between atoms: N2_3  and  C2_5 
REMARK       I    between atoms: C2_5  and  N3_6 
REMARK       I    between atoms: C2_5  and  N4_10 
REMARK    1  A    between atoms: N5_14  and  C3_16 
REMARK    2  A    between atoms: C3_16  and  C4_17 
REMARK    3  A    between atoms: C4_17  and  N6_18 
REMARK    4  A    between atoms: N6_18  and  C5_19 
REMARK    5  A    between atoms: N6_18  and  S1_29 
REMARK    6  A    between atoms: S1_29  and  N9_30 
ROOT
HETATM    1  C4  UNL     1      -4.142  49.891  53.902  1.00  0.00     0.129 C 
ENDROOT
BRANCH   1   2
HETATM    2  C3  UNL     1      -2.732  50.141  53.413  1.00  0.00     0.138 C 
BRANCH   2   3
HETATM    3  N5  UNL     1      -2.490  49.359  52.240  1.00  0.00    -0.363 N 
HETATM    4  C1  UNL     1      -1.814  48.124  52.145  1.00  0.00     0.186 C 
HETATM    5  N1  UNL     1      -0.690  47.739  52.927  1.00  0.00    -0.064 NA
HETATM    6  N2  UNL     1      -2.266  47.291  51.275  1.00  0.00    -0.315 N 
HETATM    7  C2  UNL     1      -1.780  45.991  50.975  1.00  0.00     0.482 C 
ATOM      8  H2  UNL     1      -3.072  47.603  50.734  1.00  0.00     0.165 HD
HETATM    9  N3  UNL     1      -1.191  45.388  52.124  1.00  0.00    -0.033 N 
HETATM   10  N4  UNL     1      -2.928  45.217  50.486  1.00  0.00    -0.033 N 
ATOM     11  H33 UNL     1      -0.462  45.978  52.526  1.00  0.00     0.278 HD
ATOM     12  H32 UNL     1      -1.835  45.376  52.915  1.00  0.00     0.278 HD
ATOM     13  H31 UNL     1      -0.842  44.454  51.909  1.00  0.00     0.278 HD
ATOM     14  H43 UNL     1      -3.717  45.215  51.133  1.00  0.00     0.278 HD
ATOM     15  H42 UNL     1      -3.408  45.659  49.703  1.00  0.00     0.278 HD
ATOM     16  H41 UNL     1      -2.579  44.283  50.271  1.00  0.00     0.278 HD
ATOM     17  H5  UNL     1      -2.850  49.741  51.365  1.00  0.00     0.162 HD
ENDBRANCH   2   3
ENDBRANCH   1   2
BRANCH   1  18
HETATM   18  N6  UNL     1      -4.693  48.682  53.404  1.00  0.00    -0.177 NA
BRANCH  18  19
HETATM   19  C5  UNL     1      -5.293  47.881  54.397  1.00  0.00     0.186 C 
HETATM   20  C6  UNL     1      -5.480  48.476  55.762  1.00  0.00     0.154 C 
HETATM   21  N7  UNL     1      -6.369  47.545  56.486  1.00  0.00    -0.341 N 
HETATM   22  C7  UNL     1      -6.163  46.147  56.428  1.00  0.00     0.322 C 
ATOM     23  H7  UNL     1      -7.144  47.916  57.036  1.00  0.00     0.164 HD
HETATM   24  O1  UNL     1      -6.758  45.327  57.176  1.00  0.00    -0.247 OA
HETATM   25  N8  UNL     1      -5.230  45.642  55.471  1.00  0.00    -0.278 N 
HETATM   26  C8  UNL     1      -4.565  46.581  54.632  1.00  0.00     0.246 C 
ATOM     27  H8  UNL     1      -5.046  44.642  55.391  1.00  0.00     0.173 HD
HETATM   28  O2  UNL     1      -3.450  46.368  54.114  1.00  0.00    -0.271 OA
ENDBRANCH  18  19
BRANCH  18  29
HETATM   29  S1  UNL     1      -5.771  48.926  52.079  1.00  0.00     0.297 S 
HETATM   30  O3  UNL     1      -7.102  49.452  52.544  1.00  0.00    -0.189 OA
HETATM   31  O4  UNL     1      -5.140  49.809  51.048  1.00  0.00    -0.189 OA
BRANCH  29  32
HETATM   32  N9  UNL     1      -6.092  47.394  51.352  1.00  0.00    -0.316 N 
ATOM     33  H92 UNL     1      -6.756  46.705  51.707  1.00  0.00     0.170 HD
ATOM     34  H91 UNL     1      -5.510  47.306  50.520  1.00  0.00     0.170 HD
ENDBRANCH  29  32
ENDBRANCH  18  29
ENDBRANCH   1  18
TORSDOF 6
ENDMDL
MODEL 2
REMARK VINA RESULT: -7.267256848      1.972      2.425
REMARK  6 active torsions:
REMARK  status: ('A' for Active; 'I' for Inactive)
REMARK       I    between atoms: C1_2  and  N5_14 
REMARK       I    between atoms: N2_3  and  C2_5 
REMARK       I    between atoms: C2_5  and  N3_6 
REMARK       I    between atoms: C2_5  and  N4_10 
REMARK    1  A    between atoms: N5_14  and  C3_16 
REMARK    2  A    between atoms: C3_16  and  C4_17 
REMARK    3  A    between atoms: C4_17  and  N6_18 
REMARK    4  A    between atoms: N6_18  and  C5_19 
REMARK    5  A    between atoms: N6_18  and  S1_29 
REMARK    6  A    between atoms: S1_29  and  N9_30 
ROOT
HETATM    1  C4  UNL     1      -3.945  49.408  53.732  1.00  0.00     0.129 C 
ENDROOT
BRANCH   1   2
HETATM    2  C3  UNL     1      -2.566  48.797  53.611  1.00  0.00     0.138 C 
BRANCH   2   3
HETATM    3  N5  UNL     1      -2.567  47.498  54.208  1.00  0.00    -0.363 N 
HETATM    4  C1  UNL     1      -2.179  46.274  53.624  1.00  0.00     0.186 C 
HETATM    5  N1  UNL     1      -2.377  45.912  52.263  1.00  0.00    -0.064 NA
HETATM    6  N2  UNL     1      -1.598  45.429  54.401  1.00  0.00    -0.315 N 
HETATM    7  C2  UNL     1      -1.109  44.135  54.077  1.00  0.00     0.482 C 
ATOM      8  H2  UNL     1      -1.474  45.723  55.369  1.00  0.00     0.165 HD
HETATM    9  N3  UNL     1      -0.692  44.073  52.715  1.00  0.00    -0.033 N 
HETATM   10  N4  UNL     1       0.003  43.865  54.997  1.00  0.00    -0.033 N 
ATOM     11  H33 UNL     1      -1.437  44.364  52.081  1.00  0.00     0.278 HD
ATOM     12  H32 UNL     1      -0.010  44.799  52.497  1.00  0.00     0.278 HD
ATOM     13  H31 UNL     1      -0.342  43.144  52.482  1.00  0.00     0.278 HD
ATOM     14  H43 UNL     1       0.724  44.586  54.979  1.00  0.00     0.278 HD
ATOM     15  H42 UNL     1      -0.253  43.965  55.979  1.00  0.00     0.278 HD
ATOM     16  H41 UNL     1       0.354  42.936  54.763  1.00  0.00     0.278 HD
ATOM     17  H5  UNL     1      -2.888  47.450  55.176  1.00  0.00     0.162 HD
ENDBRANCH   2   3
ENDBRANCH   1   2
BRANCH   1  18
HETATM   18  N6  UNL     1      -4.986  48.458  53.567  1.00  0.00    -0.177 NA
BRANCH  18  19
HETATM   19  C5  UNL     1      -5.865  48.384  54.668  1.00  0.00     0.186 C 
HETATM   20  C6  UNL     1      -5.578  49.255  55.856  1.00  0.00     0.154 C 
HETATM   21  N7  UNL     1      -6.786  49.186  56.703  1.00  0.00    -0.341 N 
HETATM   22  C7  UNL     1      -7.424  47.951  56.963  1.00  0.00     0.322 C 
ATOM     23  H7  UNL     1      -7.166  50.042  57.107  1.00  0.00     0.164 HD
HETATM   24  O1  UNL     1      -8.326  47.806  57.829  1.00  0.00    -0.247 OA
HETATM   25  N8  UNL     1      -7.021  46.810  56.202  1.00  0.00    -0.278 N 
HETATM   26  C8  UNL     1      -6.000  46.989  55.227  1.00  0.00     0.246 C 
ATOM     27  H8  UNL     1      -7.451  45.898  56.354  1.00  0.00     0.173 HD
HETATM   28  O2  UNL     1      -5.250  46.069  54.843  1.00  0.00    -0.271 OA
ENDBRANCH  18  19
BRANCH  18  29
HETATM   29  S1  UNL     1      -5.863  48.664  52.096  1.00  0.00     0.297 S 
HETATM   30  O3  UNL     1      -6.287  47.340  51.519  1.00  0.00    -0.189 OA
HETATM   31  O4  UNL     1      -7.020  49.591  52.302  1.00  0.00    -0.189 OA
BRANCH  29  32
HETATM   32  N9  UNL     1      -4.805  49.374  50.930  1.00  0.00    -0.316 N 
ATOM     33  H92 UNL     1      -3.804  49.190  50.858  1.00  0.00     0.170 HD
ATOM     34  H91 UNL     1      -5.354  49.997  50.338  1.00  0.00     0.170 HD
ENDBRANCH  29  32
ENDBRANCH  18  29
ENDBRANCH   1  18
TORSDOF 6
ENDMDL
MODEL 3
REMARK VINA RESULT: -7.150515552      2.170      4.467
REMARK  6 active torsions:
REMARK  status: ('A' for Active; 'I' for Inactive)
REMARK       I    between atoms: C1_2  and  N5_14 
REMARK       I    between atoms: N2_3  and  C2_5 
REMARK       I    between atoms: C2_5  and  N3_6 
REMARK       I    between atoms: C2_5  and  N4_10 
REMARK    1  A    between atoms: N5_14  and  C3_16 
REMARK    2  A    between atoms: C3_16  and  C4_17 
REMARK    3  A    between atoms: C4_17  and  N6_18 
REMARK    4  A    between atoms: N6_18  and  C5_19 
REMARK    5  A    between atoms: N6_18  and  S1_29 
REMARK    6  A    between atoms: S1_29  and  N9_30 
ROOT
HETATM    1  C4  UNL     1      -6.298  47.258  54.904  1.00  0.00     0.129 C 
ENDROOT
BRANCH   1   2
HETATM    2  C3  UNL     1      -5.339  46.526  55.818  1.00  0.00     0.138 C 
BRANCH   2   3
HETATM    3  N5  UNL     1      -4.021  46.580  55.265  1.00  0.00    -0.363 N 
HETATM    4  C1  UNL     1      -3.494  45.815  54.204  1.00  0.00     0.186 C 
HETATM    5  N1  UNL     1      -3.813  44.456  53.930  1.00  0.00    -0.064 NA
HETATM    6  N2  UNL     1      -2.657  46.412  53.430  1.00  0.00    -0.315 N 
HETATM    7  C2  UNL     1      -1.983  45.884  52.298  1.00  0.00     0.482 C 
ATOM      8  H2  UNL     1      -2.453  47.385  53.658  1.00  0.00     0.165 HD
HETATM    9  N3  UNL     1      -2.764  44.876  51.661  1.00  0.00    -0.033 N 
HETATM   10  N4  UNL     1      -1.722  47.015  51.399  1.00  0.00    -0.033 N 
ATOM     11  H33 UNL     1      -3.034  44.141  52.316  1.00  0.00     0.278 HD
ATOM     12  H32 UNL     1      -3.694  45.218  51.420  1.00  0.00     0.278 HD
ATOM     13  H31 UNL     1      -2.279  44.496  50.848  1.00  0.00     0.278 HD
ATOM     14  H43 UNL     1      -2.563  47.541  51.160  1.00  0.00     0.278 HD
ATOM     15  H42 UNL     1      -1.218  47.779  51.848  1.00  0.00     0.278 HD
ATOM     16  H41 UNL     1      -1.238  46.635  50.586  1.00  0.00     0.278 HD
ATOM     17  H5  UNL     1      -3.385  47.254  55.691  1.00  0.00     0.162 HD
ENDBRANCH   2   3
ENDBRANCH   1   2
BRANCH   1  18
HETATM   18  N6  UNL     1      -6.088  48.662  54.893  1.00  0.00    -0.177 NA
BRANCH  18  19
HETATM   19  C5  UNL     1      -5.754  49.174  53.622  1.00  0.00     0.186 C 
HETATM   20  C6  UNL     1      -5.957  48.284  52.431  1.00  0.00     0.154 C 
HETATM   21  N7  UNL     1      -5.808  49.158  51.249  1.00  0.00    -0.341 N 
HETATM   22  C7  UNL     1      -4.755  50.098  51.166  1.00  0.00     0.322 C 
ATOM     23  H7  UNL     1      -6.476  49.083  50.481  1.00  0.00     0.164 HD
HETATM   24  O1  UNL     1      -4.463  50.721  50.111  1.00  0.00    -0.247 OA
HETATM   25  N8  UNL     1      -3.982  50.351  52.341  1.00  0.00    -0.278 N 
HETATM   26  C8  UNL     1      -4.323  49.640  53.527  1.00  0.00     0.246 C 
ATOM     27  H8  UNL     1      -3.212  51.020  52.331  1.00  0.00     0.173 HD
HETATM   28  O2  UNL     1      -3.509  49.401  54.440  1.00  0.00    -0.271 OA
ENDBRANCH  18  19
BRANCH  18  29
HETATM   29  S1  UNL     1      -7.396  49.546  55.587  1.00  0.00     0.297 S 
HETATM   30  O3  UNL     1      -8.010  50.491  54.590  1.00  0.00    -0.189 OA
HETATM   31  O4  UNL     1      -8.403  48.612  56.180  1.00  0.00    -0.189 OA
BRANCH  29  32
HETATM   32  N9  UNL     1      -6.767  50.536  56.855  1.00  0.00    -0.316 N 
ATOM     33  H92 UNL     1      -7.332  51.048  57.533  1.00  0.00     0.170 HD
ATOM     34  H91 UNL     1      -5.749  50.515  56.802  1.00  0.00     0.170 HD
ENDBRANCH  29  32
ENDBRANCH  18  29
ENDBRANCH   1  18
TORSDOF 6
ENDMDL
MODEL 4
REMARK VINA RESULT: -7.112132976      2.224      4.554
REMARK  6 active torsions:
REMARK  status: ('A' for Active; 'I' for Inactive)
REMARK       I    between atoms: C1_2  and  N5_14 
REMARK       I    between atoms: N2_3  and  C2_5 
REMARK       I    between atoms: C2_5  and  N3_6 
REMARK       I    between atoms: C2_5  and  N4_10 
REMARK    1  A    between atoms: N5_14  and  C3_16 
REMARK    2  A    between atoms: C3_16  and  C4_17 
REMARK    3  A    between atoms: C4_17  and  N6_18 
REMARK    4  A    between atoms: N6_18  and  C5_19 
REMARK    5  A    between atoms: N6_18  and  S1_29 
REMARK    6  A    between atoms: S1_29  and  N9_30 
ROOT
HETATM    1  C4  UNL     1      -5.479  47.371  53.858  1.00  0.00     0.129 C 
ENDROOT
BRANCH   1   2
HETATM    2  C3  UNL     1      -4.607  46.478  54.714  1.00  0.00     0.138 C 
BRANCH   2   3
HETATM    3  N5  UNL     1      -3.235  46.846  54.541  1.00  0.00    -0.363 N 
HETATM    4  C1  UNL     1      -2.220  46.122  53.881  1.00  0.00     0.186 C 
HETATM    5  N1  UNL     1      -2.092  44.706  53.871  1.00  0.00    -0.064 NA
HETATM    6  N2  UNL     1      -1.348  46.817  53.239  1.00  0.00    -0.315 N 
HETATM    7  C2  UNL     1      -0.233  46.350  52.495  1.00  0.00     0.482 C 
ATOM      8  H2  UNL     1      -1.473  47.829  53.269  1.00  0.00     0.165 HD
HETATM    9  N3  UNL     1      -0.493  45.064  51.938  1.00  0.00    -0.033 N 
HETATM   10  N4  UNL     1       0.024  47.350  51.452  1.00  0.00    -0.033 N 
ATOM     11  H33 UNL     1      -0.775  44.394  52.654  1.00  0.00     0.278 HD
ATOM     12  H32 UNL     1      -1.346  45.062  51.379  1.00  0.00     0.278 HD
ATOM     13  H31 UNL     1       0.309  44.728  51.404  1.00  0.00     0.278 HD
ATOM     14  H43 UNL     1      -0.793  47.549  50.874  1.00  0.00     0.278 HD
ATOM     15  H42 UNL     1       0.151  48.293  51.820  1.00  0.00     0.278 HD
ATOM     16  H41 UNL     1       0.825  47.014  50.917  1.00  0.00     0.278 HD
ATOM     17  H5  UNL     1      -2.958  47.741  54.944  1.00  0.00     0.162 HD
ENDBRANCH   2   3
ENDBRANCH   1   2
BRANCH   1  18
HETATM   18  N6  UNL     1      -5.251  48.752  54.090  1.00  0.00    -0.177 NA
BRANCH  18  19
HETATM   19  C5  UNL     1      -4.880  49.467  52.932  1.00  0.00     0.186 C 
HETATM   20  C6  UNL     1      -4.995  48.770  51.609  1.00  0.00     0.154 C 
HETATM   21  N7  UNL     1      -4.826  49.822  50.586  1.00  0.00    -0.341 N 
HETATM   22  C7  UNL     1      -3.806  50.794  50.702  1.00  0.00     0.322 C 
ATOM     23  H7  UNL     1      -5.454  49.848  49.783  1.00  0.00     0.164 HD
HETATM   24  O1  UNL     1      -3.490  51.583  49.774  1.00  0.00    -0.247 OA
HETATM   25  N8  UNL     1      -3.096  50.883  51.940  1.00  0.00    -0.278 N 
HETATM   26  C8  UNL     1      -3.464  49.984  52.982  1.00  0.00     0.246 C 
ATOM     27  H8  UNL     1      -2.352  51.567  52.073  1.00  0.00     0.173 HD
HETATM   28  O2  UNL     1      -2.683  49.630  53.888  1.00  0.00    -0.271 OA
ENDBRANCH  18  19
BRANCH  18  29
HETATM   29  S1  UNL     1      -6.565  49.528  54.895  1.00  0.00     0.297 S 
HETATM   30  O3  UNL     1      -7.411  50.315  53.931  1.00  0.00    -0.189 OA
HETATM   31  O4  UNL     1      -7.366  48.529  55.670  1.00  0.00    -0.189 OA
BRANCH  29  32
HETATM   32  N9  UNL     1      -5.915  50.678  56.007  1.00  0.00    -0.316 N 
ATOM     33  H92 UNL     1      -5.016  51.148  55.905  1.00  0.00     0.170 HD
ATOM     34  H91 UNL     1      -6.583  50.799  56.768  1.00  0.00     0.170 HD
ENDBRANCH  29  32
ENDBRANCH  18  29
ENDBRANCH   1  18
TORSDOF 6
ENDMDL
MODEL 5
REMARK VINA RESULT: -7.065825341      2.662      6.443
REMARK  6 active torsions:
REMARK  status: ('A' for Active; 'I' for Inactive)
REMARK       I    between atoms: C1_2  and  N5_14 
REMARK       I    between atoms: N2_3  and  C2_5 
REMARK       I    between atoms: C2_5  and  N3_6 
REMARK       I    between atoms: C2_5  and  N4_10 
REMARK    1  A    between atoms: N5_14  and  C3_16 
REMARK    2  A    between atoms: C3_16  and  C4_17 
REMARK    3  A    between atoms: C4_17  and  N6_18 
REMARK    4  A    between atoms: N6_18  and  C5_19 
REMARK    5  A    between atoms: N6_18  and  S1_29 
REMARK    6  A    between atoms: S1_29  and  N9_30 
ROOT
HETATM    1  C4  UNL     1      -3.837  46.623  54.603  1.00  0.00     0.129 C 
ENDROOT
BRANCH   1   2
HETATM    2  C3  UNL     1      -5.179  46.552  55.298  1.00  0.00     0.138 C 
BRANCH   2   3
HETATM    3  N5  UNL     1      -5.143  47.348  56.486  1.00  0.00    -0.363 N 
HETATM    4  C1  UNL     1      -5.518  46.974  57.793  1.00  0.00     0.186 C 
HETATM    5  N1  UNL     1      -6.590  46.099  58.124  1.00  0.00    -0.064 NA
HETATM    6  N2  UNL     1      -4.821  47.473  58.753  1.00  0.00    -0.315 N 
HETATM    7  C2  UNL     1      -4.979  47.265  60.149  1.00  0.00     0.482 C 
ATOM      8  H2  UNL     1      -4.062  48.095  58.477  1.00  0.00     0.165 HD
HETATM    9  N3  UNL     1      -5.514  45.972  60.415  1.00  0.00    -0.033 N 
HETATM   10  N4  UNL     1      -3.651  47.437  60.751  1.00  0.00    -0.033 N 
ATOM     11  H33 UNL     1      -6.387  45.814  59.910  1.00  0.00     0.278 HD
ATOM     12  H32 UNL     1      -4.952  45.236  59.987  1.00  0.00     0.278 HD
ATOM     13  H31 UNL     1      -5.628  45.822  61.418  1.00  0.00     0.278 HD
ATOM     14  H43 UNL     1      -2.938  46.840  60.331  1.00  0.00     0.278 HD
ATOM     15  H42 UNL     1      -3.217  48.331  60.523  1.00  0.00     0.278 HD
ATOM     16  H41 UNL     1      -3.765  47.287  61.754  1.00  0.00     0.278 HD
ATOM     17  H5  UNL     1      -4.804  48.304  56.374  1.00  0.00     0.162 HD
ENDBRANCH   2   3
ENDBRANCH   1   2
BRANCH   1  18
HETATM   18  N6  UNL     1      -3.924  46.383  53.208  1.00  0.00    -0.177 NA
BRANCH  18  19
HETATM   19  C5  UNL     1      -3.860  47.555  52.426  1.00  0.00     0.186 C 
HETATM   20  C6  UNL     1      -3.360  48.809  53.081  1.00  0.00     0.154 C 
HETATM   21  N7  UNL     1      -3.130  49.770  51.982  1.00  0.00    -0.341 N 
HETATM   22  C7  UNL     1      -4.078  49.932  50.946  1.00  0.00     0.322 C 
ATOM     23  H7  UNL     1      -2.275  50.325  51.971  1.00  0.00     0.164 HD
HETATM   24  O1  UNL     1      -4.032  50.866  50.104  1.00  0.00    -0.247 OA
HETATM   25  N8  UNL     1      -5.145  48.984  50.854  1.00  0.00    -0.278 N 
HETATM   26  C8  UNL     1      -5.186  47.933  51.813  1.00  0.00     0.246 C 
ATOM     27  H8  UNL     1      -5.854  49.059  50.124  1.00  0.00     0.173 HD
HETATM   28  O2  UNL     1      -6.236  47.348  52.145  1.00  0.00    -0.271 OA
ENDBRANCH  18  19
BRANCH  18  29
HETATM   29  S1  UNL     1      -2.787  45.212  52.651  1.00  0.00     0.297 S 
HETATM   30  O3  UNL     1      -1.374  45.628  52.960  1.00  0.00    -0.189 OA
HETATM   31  O4  UNL     1      -3.115  43.860  53.205  1.00  0.00    -0.189 OA
BRANCH  29  32
HETATM   32  N9  UNL     1      -2.893  45.129  50.930  1.00  0.00    -0.316 N 
ATOM     33  H92 UNL     1      -3.717  44.830  50.407  1.00  0.00     0.170 HD
ATOM     34  H91 UNL     1      -1.999  45.427  50.539  1.00  0.00     0.170 HD
ENDBRANCH  29  32
ENDBRANCH  18  29
ENDBRANCH   1  18
TORSDOF 6
ENDMDL
