MODEL 1
REMARK VINA RESULT: -8.695034929      0.000      0.000
REMARK  8 active torsions:
REMARK  status: ('A' for Active; 'I' for Inactive)
REMARK    1  A    between atoms: C2_9  and  N4_10 
REMARK    2  A    between atoms: N4_10  and  S1_12 
REMARK    3  A    between atoms: S1_12  and  C3_15 
REMARK    4  A    between atoms: C3_15  and  C4_16 
REMARK    5  A    between atoms: C4_16  and  N5_17 
REMARK       I    between atoms: N5_17  and  C5_19 
REMARK    6  A    between atoms: C5_19  and  C6_21 
REMARK       I    between atoms: C6_21  and  N6_23 
REMARK    7  A    between atoms: N6_23  and  C7_25 
REMARK    8  A    between atoms: C7_25  and  C8_26 
ROOT
HETATM    1  S1  UNL     1      -5.783  46.588  55.478  1.00  0.00     0.245 S 
HETATM    2  O1  UNL     1      -6.344  46.987  54.130  1.00  0.00    -0.205 OA
HETATM    3  O2  UNL     1      -6.915  45.878  56.231  1.00  0.00    -0.205 OA
ENDROOT
BRANCH   1   4
HETATM    4  N4  UNL     1      -4.500  45.534  55.392  1.00  0.00    -0.115 N 
ATOM      5  H4  UNL     1      -4.251  45.158  56.307  1.00  0.00     0.197 HD
BRANCH   4   6
HETATM    6  C2  UNL     1      -3.763  45.088  54.486  1.00  0.00     0.721 A 
HETATM    7  N3  UNL     1      -3.885  45.051  53.159  1.00  0.00    -0.117 N 
HETATM    8  N2  UNL     1      -2.811  44.458  52.604  1.00  0.00    -0.118 N 
ATOM      9  H3  UNL     1      -4.680  45.420  52.638  1.00  0.00     0.206 HD
HETATM   10  C1  UNL     1      -2.005  44.121  53.619  1.00  0.00     0.705 A 
ATOM     11  H2  UNL     1      -2.645  44.298  51.609  1.00  0.00     0.206 HD
HETATM   12  N1  UNL     1      -0.858  43.524  53.495  1.00  0.00    -0.233 N 
HETATM   13  N8  UNL     1      -2.563  44.494  54.761  1.00  0.00    -0.019 N 
ATOM     14  H12 UNL     1      -0.429  43.237  52.615  1.00  0.00     0.174 HD
ATOM     15  H11 UNL     1      -0.244  43.267  54.268  1.00  0.00     0.174 HD
ATOM     16  H8  UNL     1      -2.163  44.360  55.690  1.00  0.00     0.203 HD
ENDBRANCH   4   6
ENDBRANCH   1   4
BRANCH   1  17
HETATM   17  C3  UNL     1      -5.422  48.046  56.405  1.00  0.00     0.183 C 
BRANCH  17  18
HETATM   18  C4  UNL     1      -5.836  47.815  57.854  1.00  0.00     0.140 C 
BRANCH  18  19
HETATM   19  N5  UNL     1      -5.104  46.709  58.424  1.00  0.00    -0.352 N 
HETATM   20  C5  UNL     1      -4.813  46.708  59.814  1.00  0.00     0.309 C 
HETATM   21  O3  UNL     1      -5.184  47.652  60.543  1.00  0.00    -0.262 OA
ATOM     22  H5  UNL     1      -4.799  45.935  57.833  1.00  0.00     0.162 HD
BRANCH  20  23
HETATM   23  C6  UNL     1      -4.076  45.613  60.443  1.00  0.00     0.309 C 
HETATM   24  O4  UNL     1      -4.710  44.869  61.231  1.00  0.00    -0.262 OA
HETATM   25  N6  UNL     1      -2.702  45.385  60.185  1.00  0.00    -0.345 N 
ATOM     26  H6  UNL     1      -2.188  45.990  59.544  1.00  0.00     0.163 HD
BRANCH  25  27
HETATM   27  C7  UNL     1      -2.044  44.289  60.839  1.00  0.00     0.222 C 
BRANCH  27  28
HETATM   28  C8  UNL     1      -1.234  43.482  59.900  1.00  0.00     0.248 C 
HETATM   29  N7  UNL     1      -0.475  42.406  60.427  1.00  0.00    -0.061 NA
HETATM   30  O5  UNL     1      -1.182  43.694  58.668  1.00  0.00    -0.275 OA
ENDBRANCH  27  28
ENDBRANCH  25  27
ENDBRANCH  20  23
ENDBRANCH  18  19
ENDBRANCH  17  18
ENDBRANCH   1  17
TORSDOF 8
ENDMDL
MODEL 2
REMARK VINA RESULT: -8.261868527      3.524      5.451
REMARK  8 active torsions:
REMARK  status: ('A' for Active; 'I' for Inactive)
REMARK    1  A    between atoms: C2_9  and  N4_10 
REMARK    2  A    between atoms: N4_10  and  S1_12 
REMARK    3  A    between atoms: S1_12  and  C3_15 
REMARK    4  A    between atoms: C3_15  and  C4_16 
REMARK    5  A    between atoms: C4_16  and  N5_17 
REMARK       I    between atoms: N5_17  and  C5_19 
REMARK    6  A    between atoms: C5_19  and  C6_21 
REMARK       I    between atoms: C6_21  and  N6_23 
REMARK    7  A    between atoms: N6_23  and  C7_25 
REMARK    8  A    between atoms: C7_25  and  C8_26 
ROOT
HETATM    1  S1  UNL     1      -5.954  46.156  55.869  1.00  0.00     0.245 S 
HETATM    2  O1  UNL     1      -6.584  46.622  54.575  1.00  0.00    -0.205 OA
HETATM    3  O2  UNL     1      -6.919  45.135  56.485  1.00  0.00    -0.205 OA
ENDROOT
BRANCH   1   4
HETATM    4  N4  UNL     1      -4.485  45.401  55.672  1.00  0.00    -0.115 N 
ATOM      5  H4  UNL     1      -4.024  45.220  56.564  1.00  0.00     0.197 HD
BRANCH   4   6
HETATM    6  C2  UNL     1      -3.804  44.999  54.704  1.00  0.00     0.721 A 
HETATM    7  N3  UNL     1      -4.037  44.956  53.392  1.00  0.00    -0.117 N 
HETATM    8  N2  UNL     1      -2.982  44.429  52.743  1.00  0.00    -0.118 N 
ATOM      9  H3  UNL     1      -4.894  45.277  52.943  1.00  0.00     0.206 HD
HETATM   10  C1  UNL     1      -2.073  44.140  53.683  1.00  0.00     0.705 A 
ATOM     11  H2  UNL     1      -2.893  44.279  51.737  1.00  0.00     0.206 HD
HETATM   12  N1  UNL     1      -0.906  43.613  53.458  1.00  0.00    -0.233 N 
HETATM   13  N8  UNL     1      -2.551  44.479  54.871  1.00  0.00    -0.019 N 
ATOM     14  H12 UNL     1      -0.539  43.352  52.542  1.00  0.00     0.174 HD
ATOM     15  H11 UNL     1      -0.215  43.393  54.174  1.00  0.00     0.174 HD
ATOM     16  H8  UNL     1      -2.066  44.369  55.762  1.00  0.00     0.203 HD
ENDBRANCH   4   6
ENDBRANCH   1   4
BRANCH   1  17
HETATM   17  C3  UNL     1      -5.890  47.511  56.999  1.00  0.00     0.183 C 
BRANCH  17  18
HETATM   18  C4  UNL     1      -5.645  48.791  56.207  1.00  0.00     0.140 C 
BRANCH  18  19
HETATM   19  N5  UNL     1      -4.466  48.664  55.383  1.00  0.00    -0.352 N 
HETATM   20  C5  UNL     1      -4.440  49.283  54.106  1.00  0.00     0.309 C 
HETATM   21  O3  UNL     1      -5.423  49.933  53.692  1.00  0.00    -0.262 OA
ATOM     22  H5  UNL     1      -3.660  48.135  55.716  1.00  0.00     0.162 HD
BRANCH  20  23
HETATM   23  C6  UNL     1      -3.272  49.187  53.231  1.00  0.00     0.309 C 
HETATM   24  O4  UNL     1      -2.482  50.164  53.214  1.00  0.00    -0.262 OA
HETATM   25  N6  UNL     1      -3.025  48.047  52.429  1.00  0.00    -0.345 N 
ATOM     26  H6  UNL     1      -3.666  47.254  52.443  1.00  0.00     0.163 HD
BRANCH  25  27
HETATM   27  C7  UNL     1      -1.856  48.023  51.594  1.00  0.00     0.222 C 
BRANCH  27  28
HETATM   28  C8  UNL     1      -0.795  47.149  52.142  1.00  0.00     0.248 C 
HETATM   29  N7  UNL     1      -0.334  46.074  51.339  1.00  0.00    -0.061 NA
HETATM   30  O5  UNL     1      -0.282  47.304  53.272  1.00  0.00    -0.275 OA
ENDBRANCH  27  28
ENDBRANCH  25  27
ENDBRANCH  20  23
ENDBRANCH  18  19
ENDBRANCH  17  18
ENDBRANCH   1  17
TORSDOF 8
ENDMDL
MODEL 3
REMARK VINA RESULT: -8.258450192      3.869      6.289
REMARK  8 active torsions:
REMARK  status: ('A' for Active; 'I' for Inactive)
REMARK    1  A    between atoms: C2_9  and  N4_10 
REMARK    2  A    between atoms: N4_10  and  S1_12 
REMARK    3  A    between atoms: S1_12  and  C3_15 
REMARK    4  A    between atoms: C3_15  and  C4_16 
REMARK    5  A    between atoms: C4_16  and  N5_17 
REMARK       I    between atoms: N5_17  and  C5_19 
REMARK    6  A    between atoms: C5_19  and  C6_21 
REMARK       I    between atoms: C6_21  and  N6_23 
REMARK    7  A    between atoms: N6_23  and  C7_25 
REMARK    8  A    between atoms: C7_25  and  C8_26 
ROOT
HETATM    1  S1  UNL     1      -0.853  46.989  52.344  1.00  0.00     0.245 S 
HETATM    2  O1  UNL     1       0.082  47.689  51.381  1.00  0.00    -0.205 OA
HETATM    3  O2  UNL     1      -1.346  48.056  53.330  1.00  0.00    -0.205 OA
ENDROOT
BRANCH   1   4
HETATM    4  N4  UNL     1      -2.192  46.318  51.620  1.00  0.00    -0.115 N 
ATOM      5  H4  UNL     1      -2.048  45.335  51.385  1.00  0.00     0.197 HD
BRANCH   4   6
HETATM    6  C2  UNL     1      -3.330  46.716  51.292  1.00  0.00     0.721 A 
HETATM    7  N3  UNL     1      -4.066  46.544  50.194  1.00  0.00    -0.117 N 
HETATM    8  N2  UNL     1      -5.247  47.179  50.314  1.00  0.00    -0.118 N 
ATOM      9  H3  UNL     1      -3.776  46.007  49.378  1.00  0.00     0.206 HD
HETATM   10  C1  UNL     1      -5.237  47.758  51.521  1.00  0.00     0.705 A 
ATOM     11  H2  UNL     1      -5.998  47.213  49.623  1.00  0.00     0.206 HD
HETATM   12  N1  UNL     1      -6.206  48.470  52.016  1.00  0.00    -0.233 N 
HETATM   13  N8  UNL     1      -4.090  47.489  52.126  1.00  0.00    -0.019 N 
ATOM     14  H12 UNL     1      -7.089  48.678  51.550  1.00  0.00     0.174 HD
ATOM     15  H11 UNL     1      -6.198  48.911  52.936  1.00  0.00     0.174 HD
ATOM     16  H8  UNL     1      -3.819  47.805  53.057  1.00  0.00     0.203 HD
ENDBRANCH   4   6
ENDBRANCH   1   4
BRANCH   1  17
HETATM   17  C3  UNL     1       0.071  45.830  53.302  1.00  0.00     0.183 C 
BRANCH  17  18
HETATM   18  C4  UNL     1      -0.864  44.709  53.742  1.00  0.00     0.140 C 
BRANCH  18  19
HETATM   19  N5  UNL     1      -1.890  45.216  54.622  1.00  0.00    -0.352 N 
HETATM   20  C5  UNL     1      -3.226  44.758  54.472  1.00  0.00     0.309 C 
HETATM   21  O3  UNL     1      -3.518  43.924  53.589  1.00  0.00    -0.262 OA
ATOM     22  H5  UNL     1      -1.657  45.897  55.345  1.00  0.00     0.162 HD
BRANCH  20  23
HETATM   23  C6  UNL     1      -4.304  45.238  55.336  1.00  0.00     0.309 C 
HETATM   24  O4  UNL     1      -5.034  44.375  55.882  1.00  0.00    -0.262 OA
HETATM   25  N6  UNL     1      -4.528  46.618  55.561  1.00  0.00    -0.345 N 
ATOM     26  H6  UNL     1      -3.935  47.319  55.118  1.00  0.00     0.163 HD
BRANCH  25  27
HETATM   27  C7  UNL     1      -5.607  47.015  56.423  1.00  0.00     0.222 C 
BRANCH  27  28
HETATM   28  C8  UNL     1      -6.855  47.278  55.673  1.00  0.00     0.248 C 
HETATM   29  N7  UNL     1      -7.075  48.590  55.180  1.00  0.00    -0.061 NA
HETATM   30  O5  UNL     1      -7.726  46.409  55.448  1.00  0.00    -0.275 OA
ENDBRANCH  27  28
ENDBRANCH  25  27
ENDBRANCH  20  23
ENDBRANCH  18  19
ENDBRANCH  17  18
ENDBRANCH   1  17
TORSDOF 8
ENDMDL
MODEL 4
REMARK VINA RESULT: -7.982052573      3.551      5.624
REMARK  8 active torsions:
REMARK  status: ('A' for Active; 'I' for Inactive)
REMARK    1  A    between atoms: C2_9  and  N4_10 
REMARK    2  A    between atoms: N4_10  and  S1_12 
REMARK    3  A    between atoms: S1_12  and  C3_15 
REMARK    4  A    between atoms: C3_15  and  C4_16 
REMARK    5  A    between atoms: C4_16  and  N5_17 
REMARK       I    between atoms: N5_17  and  C5_19 
REMARK    6  A    between atoms: C5_19  and  C6_21 
REMARK       I    between atoms: C6_21  and  N6_23 
REMARK    7  A    between atoms: N6_23  and  C7_25 
REMARK    8  A    between atoms: C7_25  and  C8_26 
ROOT
HETATM    1  S1  UNL     1      -1.783  48.042  52.346  1.00  0.00     0.245 S 
HETATM    2  O1  UNL     1      -1.877  48.409  53.812  1.00  0.00    -0.205 OA
HETATM    3  O2  UNL     1      -0.317  48.235  51.939  1.00  0.00    -0.205 OA
ENDROOT
BRANCH   1   4
HETATM    4  N4  UNL     1      -2.191  46.463  52.017  1.00  0.00    -0.115 N 
ATOM      5  H4  UNL     1      -1.946  46.195  51.064  1.00  0.00     0.197 HD
BRANCH   4   6
HETATM    6  C2  UNL     1      -2.723  45.523  52.646  1.00  0.00     0.721 A 
HETATM    7  N3  UNL     1      -3.046  44.276  52.304  1.00  0.00    -0.117 N 
HETATM    8  N2  UNL     1      -3.608  43.632  53.345  1.00  0.00    -0.118 N 
ATOM      9  H3  UNL     1      -2.890  43.866  51.384  1.00  0.00     0.206 HD
HETATM   10  C1  UNL     1      -3.631  44.510  54.356  1.00  0.00     0.705 A 
ATOM     11  H2  UNL     1      -3.948  42.670  53.359  1.00  0.00     0.206 HD
HETATM   12  N1  UNL     1      -4.100  44.268  55.544  1.00  0.00    -0.233 N 
HETATM   13  N8  UNL     1      -3.100  45.655  53.954  1.00  0.00    -0.019 N 
ATOM     14  H12 UNL     1      -4.508  43.386  55.854  1.00  0.00     0.174 HD
ATOM     15  H11 UNL     1      -4.117  44.936  56.314  1.00  0.00     0.174 HD
ATOM     16  H8  UNL     1      -2.991  46.494  54.524  1.00  0.00     0.203 HD
ENDBRANCH   4   6
ENDBRANCH   1   4
BRANCH   1  17
HETATM   17  C3  UNL     1      -2.710  49.209  51.401  1.00  0.00     0.183 C 
BRANCH  17  18
HETATM   18  C4  UNL     1      -4.189  48.847  51.498  1.00  0.00     0.140 C 
BRANCH  18  19
HETATM   19  N5  UNL     1      -4.657  48.976  52.858  1.00  0.00    -0.352 N 
HETATM   20  C5  UNL     1      -5.503  47.973  53.401  1.00  0.00     0.309 C 
HETATM   21  O3  UNL     1      -5.843  46.986  52.715  1.00  0.00    -0.262 OA
ATOM     22  H5  UNL     1      -4.382  49.779  53.423  1.00  0.00     0.162 HD
BRANCH  20  23
HETATM   23  C6  UNL     1      -6.006  48.053  54.772  1.00  0.00     0.309 C 
HETATM   24  O4  UNL     1      -7.113  48.619  54.948  1.00  0.00    -0.262 OA
HETATM   25  N6  UNL     1      -5.287  47.519  55.869  1.00  0.00    -0.345 N 
ATOM     26  H6  UNL     1      -4.388  47.059  55.725  1.00  0.00     0.163 HD
BRANCH  25  27
HETATM   27  C7  UNL     1      -5.843  47.635  57.187  1.00  0.00     0.222 C 
BRANCH  27  28
HETATM   28  C8  UNL     1      -6.487  46.380  57.635  1.00  0.00     0.248 C 
HETATM   29  N7  UNL     1      -6.813  45.409  56.654  1.00  0.00    -0.061 NA
HETATM   30  O5  UNL     1      -6.759  46.127  58.830  1.00  0.00    -0.275 OA
ENDBRANCH  27  28
ENDBRANCH  25  27
ENDBRANCH  20  23
ENDBRANCH  18  19
ENDBRANCH  17  18
ENDBRANCH   1  17
TORSDOF 8
ENDMDL
MODEL 5
REMARK VINA RESULT: -7.887436035      2.101      3.077
REMARK  8 active torsions:
REMARK  status: ('A' for Active; 'I' for Inactive)
REMARK    1  A    between atoms: C2_9  and  N4_10 
REMARK    2  A    between atoms: N4_10  and  S1_12 
REMARK    3  A    between atoms: S1_12  and  C3_15 
REMARK    4  A    between atoms: C3_15  and  C4_16 
REMARK    5  A    between atoms: C4_16  and  N5_17 
REMARK       I    between atoms: N5_17  and  C5_19 
REMARK    6  A    between atoms: C5_19  and  C6_21 
REMARK       I    between atoms: C6_21  and  N6_23 
REMARK    7  A    between atoms: N6_23  and  C7_25 
REMARK    8  A    between atoms: C7_25  and  C8_26 
ROOT
HETATM    1  S1  UNL     1      -4.653  47.340  52.575  1.00  0.00     0.245 S 
HETATM    2  O1  UNL     1      -3.588  47.935  51.679  1.00  0.00    -0.205 OA
HETATM    3  O2  UNL     1      -5.936  47.261  51.739  1.00  0.00    -0.205 OA
ENDROOT
BRANCH   1   4
HETATM    4  N4  UNL     1      -4.307  45.803  53.109  1.00  0.00    -0.115 N 
ATOM      5  H4  UNL     1      -5.152  45.273  53.323  1.00  0.00     0.197 HD
BRANCH   4   6
HETATM    6  C2  UNL     1      -3.270  45.136  53.313  1.00  0.00     0.721 A 
HETATM    7  N3  UNL     1      -2.814  43.995  52.796  1.00  0.00    -0.117 N 
HETATM    8  N2  UNL     1      -1.627  43.670  53.343  1.00  0.00    -0.118 N 
ATOM      9  H3  UNL     1      -3.296  43.444  52.086  1.00  0.00     0.206 HD
HETATM   10  C1  UNL     1      -1.345  44.641  54.221  1.00  0.00     0.705 A 
ATOM     11  H2  UNL     1      -1.058  42.850  53.131  1.00  0.00     0.206 HD
HETATM   12  N1  UNL     1      -0.276  44.693  54.959  1.00  0.00    -0.233 N 
HETATM   13  N8  UNL     1      -2.324  45.534  54.216  1.00  0.00    -0.019 N 
ATOM     14  H12 UNL     1       0.478  44.006  54.963  1.00  0.00     0.174 HD
ATOM     15  H11 UNL     1      -0.061  45.432  55.628  1.00  0.00     0.174 HD
ATOM     16  H8  UNL     1      -2.365  46.376  54.789  1.00  0.00     0.203 HD
ENDBRANCH   4   6
ENDBRANCH   1   4
BRANCH   1  17
HETATM   17  C3  UNL     1      -4.996  48.469  53.888  1.00  0.00     0.183 C 
BRANCH  17  18
HETATM   18  C4  UNL     1      -6.157  47.919  54.710  1.00  0.00     0.140 C 
BRANCH  18  19
HETATM   19  N5  UNL     1      -5.798  47.835  56.107  1.00  0.00    -0.352 N 
HETATM   20  C5  UNL     1      -6.297  46.760  56.889  1.00  0.00     0.309 C 
HETATM   21  O3  UNL     1      -7.037  45.892  56.382  1.00  0.00    -0.262 OA
ATOM     22  H5  UNL     1      -5.193  48.541  56.526  1.00  0.00     0.162 HD
BRANCH  20  23
HETATM   23  C6  UNL     1      -5.965  46.626  58.308  1.00  0.00     0.309 C 
HETATM   24  O4  UNL     1      -6.770  45.989  59.031  1.00  0.00    -0.262 OA
HETATM   25  N6  UNL     1      -4.787  47.185  58.860  1.00  0.00    -0.345 N 
ATOM     26  H6  UNL     1      -4.133  47.702  58.272  1.00  0.00     0.163 HD
BRANCH  25  27
HETATM   27  C7  UNL     1      -4.527  47.013  60.262  1.00  0.00     0.222 C 
BRANCH  27  28
HETATM   28  C8  UNL     1      -3.705  45.813  60.535  1.00  0.00     0.248 C 
HETATM   29  N7  UNL     1      -4.340  44.685  61.116  1.00  0.00    -0.061 NA
HETATM   30  O5  UNL     1      -2.482  45.737  60.283  1.00  0.00    -0.275 OA
ENDBRANCH  27  28
ENDBRANCH  25  27
ENDBRANCH  20  23
ENDBRANCH  18  19
ENDBRANCH  17  18
ENDBRANCH   1  17
TORSDOF 8
ENDMDL
