MODEL 1
REMARK VINA RESULT: -7.923975037      0.000      0.000
REMARK  7 active torsions:
REMARK  status: ('A' for Active; 'I' for Inactive)
REMARK    1  A    between atoms: N3_4  and  C2_6 
REMARK    2  A    between atoms: C2_6  and  C3_7 
REMARK    3  A    between atoms: C3_7  and  C4_8 
REMARK    4  A    between atoms: C4_8  and  N4_9 
REMARK    5  A    between atoms: C4_8  and  C5_13 
REMARK    6  A    between atoms: C5_13  and  N5_14 
REMARK    7  A    between atoms: C8_23  and  C9_24 
REMARK       I    between atoms: C9_24  and  N8_26 
ROOT
HETATM    1  N5  UNL     1      -4.365  46.091  54.220  1.00  0.00    -0.276 N 
HETATM    2  N6  UNL     1      -4.125  46.549  52.977  1.00  0.00    -0.248 N 
ATOM      3  H6  UNL     1      -3.391  46.127  52.408  1.00  0.00     0.192 HD
HETATM    4  C6  UNL     1      -4.851  47.556  52.493  1.00  0.00     0.341 A 
HETATM    5  O1  UNL     1      -4.610  47.976  51.313  1.00  0.00    -0.245 OA
HETATM    6  N7  UNL     1      -5.823  48.120  53.241  1.00  0.00    -0.272 N 
ATOM      7  H7  UNL     1      -6.376  48.891  52.867  1.00  0.00     0.174 HD
HETATM    8  C7  UNL     1      -6.055  47.662  54.474  1.00  0.00     0.283 A 
HETATM    9  O2  UNL     1      -6.967  48.213  55.135  1.00  0.00    -0.265 OA
HETATM   10  C8  UNL     1      -5.304  46.596  55.020  1.00  0.00     0.187 A 
ENDROOT
BRANCH   1  11
HETATM   11  C5  UNL     1      -3.591  44.945  54.596  1.00  0.00     0.182 C 
BRANCH  11  12
HETATM   12  C4  UNL     1      -2.673  44.461  53.491  1.00  0.00     0.204 C 
BRANCH  12  13
HETATM   13  C3  UNL     1      -1.298  44.141  54.002  1.00  0.00     0.054 C 
BRANCH  13  14
HETATM   14  C2  UNL     1      -0.441  45.368  54.179  1.00  0.00     0.124 C 
BRANCH  14  15
HETATM   15  N3  UNL     1      -0.082  45.861  52.868  1.00  0.00    -0.367 N 
HETATM   16  C1  UNL     1      -0.451  47.013  52.426  1.00  0.00     0.196 C 
HETATM   17  N1  UNL     1      -1.250  47.890  53.221  1.00  0.00    -0.067 NA
HETATM   18  N2  UNL     1      -0.042  47.397  51.124  1.00  0.00    -0.067 NA
ATOM     19  H3  UNL     1       0.489  45.268  52.265  1.00  0.00     0.161 HD
ENDBRANCH  14  15
ENDBRANCH  13  14
ENDBRANCH  12  13
BRANCH  12  20
HETATM   20  N4  UNL     1      -3.238  43.363  52.801  1.00  0.00    -0.073 N 
ATOM     21  H43 UNL     1      -3.836  43.671  52.035  1.00  0.00     0.274 HD
ATOM     22  H42 UNL     1      -2.533  42.860  52.261  1.00  0.00     0.274 HD
ATOM     23  H41 UNL     1      -3.737  42.739  53.435  1.00  0.00     0.274 HD
ENDBRANCH  12  20
ENDBRANCH  11  12
ENDBRANCH   1  11
BRANCH  10  24
HETATM   24  C9  UNL     1      -5.585  46.237  56.391  1.00  0.00     0.281 C 
HETATM   25  O3  UNL     1      -6.431  45.276  56.578  1.00  0.00    -0.265 OA
HETATM   26  N8  UNL     1      -5.090  46.767  57.580  1.00  0.00    -0.298 N 
HETATM   27  C10 UNL     1      -5.789  46.987  58.639  1.00  0.00     0.203 C 
ATOM     28  H8  UNL     1      -4.098  46.999  57.615  1.00  0.00     0.171 HD
HETATM   29  N9  UNL     1      -5.188  47.528  59.793  1.00  0.00    -0.066 NA
HETATM   30  N10 UNL     1      -7.188  46.702  58.701  1.00  0.00    -0.066 NA
ENDBRANCH  10  24
TORSDOF 7
ENDMDL
MODEL 2
REMARK VINA RESULT: -7.870489274      2.039      2.845
REMARK  7 active torsions:
REMARK  status: ('A' for Active; 'I' for Inactive)
REMARK    1  A    between atoms: N3_4  and  C2_6 
REMARK    2  A    between atoms: C2_6  and  C3_7 
REMARK    3  A    between atoms: C3_7  and  C4_8 
REMARK    4  A    between atoms: C4_8  and  N4_9 
REMARK    5  A    between atoms: C4_8  and  C5_13 
REMARK    6  A    between atoms: C5_13  and  N5_14 
REMARK    7  A    between atoms: C8_23  and  C9_24 
REMARK       I    between atoms: C9_24  and  N8_26 
ROOT
HETATM    1  N5  UNL     1      -4.447  48.201  52.470  1.00  0.00    -0.276 N 
HETATM    2  N6  UNL     1      -4.148  48.941  51.386  1.00  0.00    -0.248 N 
ATOM      3  H6  UNL     1      -3.362  48.683  50.790  1.00  0.00     0.192 HD
HETATM    4  C6  UNL     1      -4.886  50.013  51.096  1.00  0.00     0.341 A 
HETATM    5  O1  UNL     1      -4.589  50.702  50.064  1.00  0.00    -0.245 OA
HETATM    6  N7  UNL     1      -5.927  50.360  51.881  1.00  0.00    -0.272 N 
ATOM      7  H7  UNL     1      -6.489  51.181  51.655  1.00  0.00     0.174 HD
HETATM    8  C7  UNL     1      -6.217  49.622  52.956  1.00  0.00     0.283 A 
HETATM    9  O2  UNL     1      -7.192  49.979  53.659  1.00  0.00    -0.265 OA
HETATM   10  C8  UNL     1      -5.456  48.480  53.295  1.00  0.00     0.187 A 
ENDROOT
BRANCH   1  11
HETATM   11  C5  UNL     1      -3.649  47.021  52.627  1.00  0.00     0.182 C 
BRANCH  11  12
HETATM   12  C4  UNL     1      -2.729  46.766  51.450  1.00  0.00     0.204 C 
BRANCH  12  13
HETATM   13  C3  UNL     1      -1.283  46.940  51.818  1.00  0.00     0.054 C 
BRANCH  13  14
HETATM   14  C2  UNL     1      -0.531  45.637  51.865  1.00  0.00     0.124 C 
BRANCH  14  15
HETATM   15  N3  UNL     1      -0.218  45.347  53.247  1.00  0.00    -0.367 N 
HETATM   16  C1  UNL     1      -0.902  44.524  53.964  1.00  0.00     0.196 C 
HETATM   17  N1  UNL     1      -2.032  43.834  53.426  1.00  0.00    -0.067 NA
HETATM   18  N2  UNL     1      -0.507  44.314  55.310  1.00  0.00    -0.067 NA
ATOM     19  H3  UNL     1       0.581  45.816  53.674  1.00  0.00     0.161 HD
ENDBRANCH  14  15
ENDBRANCH  13  14
ENDBRANCH  12  13
BRANCH  12  20
HETATM   20  N4  UNL     1      -2.968  45.495  50.879  1.00  0.00    -0.073 N 
ATOM     21  H43 UNL     1      -2.528  45.408  49.963  1.00  0.00     0.274 HD
ATOM     22  H42 UNL     1      -2.457  44.763  51.371  1.00  0.00     0.274 HD
ATOM     23  H41 UNL     1      -3.966  45.288  50.833  1.00  0.00     0.274 HD
ENDBRANCH  12  20
ENDBRANCH  11  12
ENDBRANCH   1  11
BRANCH  10  24
HETATM   24  C9  UNL     1      -5.808  47.805  54.523  1.00  0.00     0.281 C 
HETATM   25  O3  UNL     1      -6.594  46.782  54.418  1.00  0.00    -0.265 OA
HETATM   26  N8  UNL     1      -5.438  48.077  55.838  1.00  0.00    -0.298 N 
HETATM   27  C10 UNL     1      -6.225  48.013  56.856  1.00  0.00     0.203 C 
ATOM     28  H8  UNL     1      -4.470  48.348  56.008  1.00  0.00     0.171 HD
HETATM   29  N9  UNL     1      -5.748  48.309  58.148  1.00  0.00    -0.066 NA
HETATM   30  N10 UNL     1      -7.601  47.646  56.733  1.00  0.00    -0.066 NA
ENDBRANCH  10  24
TORSDOF 7
ENDMDL
MODEL 3
REMARK VINA RESULT: -7.660256211      2.302      3.172
REMARK  7 active torsions:
REMARK  status: ('A' for Active; 'I' for Inactive)
REMARK    1  A    between atoms: N3_4  and  C2_6 
REMARK    2  A    between atoms: C2_6  and  C3_7 
REMARK    3  A    between atoms: C3_7  and  C4_8 
REMARK    4  A    between atoms: C4_8  and  N4_9 
REMARK    5  A    between atoms: C4_8  and  C5_13 
REMARK    6  A    between atoms: C5_13  and  N5_14 
REMARK    7  A    between atoms: C8_23  and  C9_24 
REMARK       I    between atoms: C9_24  and  N8_26 
ROOT
HETATM    1  N5  UNL     1      -3.436  48.837  53.663  1.00  0.00    -0.276 N 
HETATM    2  N6  UNL     1      -2.954  50.046  53.320  1.00  0.00    -0.248 N 
ATOM      3  H6  UNL     1      -1.980  50.148  53.036  1.00  0.00     0.192 HD
HETATM    4  C6  UNL     1      -3.757  51.110  53.355  1.00  0.00     0.341 A 
HETATM    5  O1  UNL     1      -3.283  52.248  53.026  1.00  0.00    -0.245 OA
HETATM    6  N7  UNL     1      -5.046  50.982  53.731  1.00  0.00    -0.272 N 
ATOM      7  H7  UNL     1      -5.657  51.799  53.756  1.00  0.00     0.174 HD
HETATM    8  C7  UNL     1      -5.518  49.780  54.072  1.00  0.00     0.283 A 
HETATM    9  O2  UNL     1      -6.721  49.705  54.416  1.00  0.00    -0.265 OA
HETATM   10  C8  UNL     1      -4.696  48.630  54.048  1.00  0.00     0.187 A 
ENDROOT
BRANCH   1  11
HETATM   11  C5  UNL     1      -2.512  47.755  53.495  1.00  0.00     0.182 C 
BRANCH  11  12
HETATM   12  C4  UNL     1      -2.334  47.346  52.047  1.00  0.00     0.204 C 
BRANCH  12  13
HETATM   13  C3  UNL     1      -0.908  46.995  51.732  1.00  0.00     0.054 C 
BRANCH  13  14
HETATM   14  C2  UNL     1      -0.651  45.511  51.766  1.00  0.00     0.124 C 
BRANCH  14  15
HETATM   15  N3  UNL     1      -0.223  45.158  53.102  1.00  0.00    -0.367 N 
HETATM   16  C1  UNL     1      -0.943  44.457  53.908  1.00  0.00     0.196 C 
HETATM   17  N1  UNL     1      -2.231  43.975  53.521  1.00  0.00    -0.067 NA
HETATM   18  N2  UNL     1      -0.426  44.169  55.196  1.00  0.00    -0.067 NA
ATOM     19  H3  UNL     1       0.691  45.481  53.422  1.00  0.00     0.161 HD
ENDBRANCH  14  15
ENDBRANCH  13  14
ENDBRANCH  12  13
BRANCH  12  20
HETATM   20  N4  UNL     1      -3.215  46.296  51.699  1.00  0.00    -0.073 N 
ATOM     21  H43 UNL     1      -3.622  45.860  52.526  1.00  0.00     0.274 HD
ATOM     22  H42 UNL     1      -4.070  46.653  51.271  1.00  0.00     0.274 HD
ATOM     23  H41 UNL     1      -2.758  45.607  51.102  1.00  0.00     0.274 HD
ENDBRANCH  12  20
ENDBRANCH  11  12
ENDBRANCH   1  11
BRANCH  10  24
HETATM   24  C9  UNL     1      -5.287  47.397  54.514  1.00  0.00     0.281 C 
HETATM   25  O3  UNL     1      -5.794  46.619  53.612  1.00  0.00    -0.265 OA
HETATM   26  N8  UNL     1      -5.414  46.891  55.805  1.00  0.00    -0.298 N 
HETATM   27  C10 UNL     1      -6.457  46.293  56.267  1.00  0.00     0.203 C 
ATOM     28  H8  UNL     1      -4.619  47.002  56.435  1.00  0.00     0.171 HD
HETATM   29  N9  UNL     1      -6.481  45.816  57.592  1.00  0.00    -0.066 NA
HETATM   30  N10 UNL     1      -7.628  46.084  55.474  1.00  0.00    -0.066 NA
ENDBRANCH  10  24
TORSDOF 7
ENDMDL
MODEL 4
REMARK VINA RESULT: -7.644198352      2.180      3.434
REMARK  7 active torsions:
REMARK  status: ('A' for Active; 'I' for Inactive)
REMARK    1  A    between atoms: N3_4  and  C2_6 
REMARK    2  A    between atoms: C2_6  and  C3_7 
REMARK    3  A    between atoms: C3_7  and  C4_8 
REMARK    4  A    between atoms: C4_8  and  N4_9 
REMARK    5  A    between atoms: C4_8  and  C5_13 
REMARK    6  A    between atoms: C5_13  and  N5_14 
REMARK    7  A    between atoms: C8_23  and  C9_24 
REMARK       I    between atoms: C9_24  and  N8_26 
ROOT
HETATM    1  N5  UNL     1      -3.773  48.311  51.818  1.00  0.00    -0.276 N 
HETATM    2  N6  UNL     1      -3.279  49.306  51.057  1.00  0.00    -0.248 N 
ATOM      3  H6  UNL     1      -2.561  49.109  50.360  1.00  0.00     0.192 HD
HETATM    4  C6  UNL     1      -3.734  50.548  51.219  1.00  0.00     0.341 A 
HETATM    5  O1  UNL     1      -3.254  51.478  50.488  1.00  0.00    -0.245 OA
HETATM    6  N7  UNL     1      -4.683  50.815  52.140  1.00  0.00    -0.272 N 
ATOM      7  H7  UNL     1      -5.028  51.768  52.261  1.00  0.00     0.174 HD
HETATM    8  C7  UNL     1      -5.168  49.824  52.893  1.00  0.00     0.283 A 
HETATM    9  O2  UNL     1      -6.049  50.114  53.736  1.00  0.00    -0.265 OA
HETATM   10  C8  UNL     1      -4.709  48.495  52.750  1.00  0.00     0.187 A 
ENDROOT
BRANCH   1  11
HETATM   11  C5  UNL     1      -3.282  47.006  51.489  1.00  0.00     0.182 C 
BRANCH  11  12
HETATM   12  C4  UNL     1      -1.775  46.894  51.597  1.00  0.00     0.204 C 
BRANCH  12  13
HETATM   13  C3  UNL     1      -1.298  47.049  53.013  1.00  0.00     0.054 C 
BRANCH  13  14
HETATM   14  C2  UNL     1      -1.068  45.728  53.698  1.00  0.00     0.124 C 
BRANCH  14  15
HETATM   15  N3  UNL     1      -2.226  45.435  54.513  1.00  0.00    -0.367 N 
HETATM   16  C1  UNL     1      -3.078  44.515  54.219  1.00  0.00     0.196 C 
HETATM   17  N1  UNL     1      -2.925  43.712  53.047  1.00  0.00    -0.067 NA
HETATM   18  N2  UNL     1      -4.179  44.312  55.089  1.00  0.00    -0.067 NA
ATOM     19  H3  UNL     1      -2.376  45.983  55.361  1.00  0.00     0.161 HD
ENDBRANCH  14  15
ENDBRANCH  13  14
ENDBRANCH  12  13
BRANCH  12  20
HETATM   20  N4  UNL     1      -1.308  45.690  51.021  1.00  0.00    -0.073 N 
ATOM     21  H43 UNL     1      -1.389  45.706  50.005  1.00  0.00     0.274 HD
ATOM     22  H42 UNL     1      -0.294  45.609  51.097  1.00  0.00     0.274 HD
ATOM     23  H41 UNL     1      -1.778  44.878  51.420  1.00  0.00     0.274 HD
ENDBRANCH  12  20
ENDBRANCH  11  12
ENDBRANCH   1  11
BRANCH  10  24
HETATM   24  C9  UNL     1      -5.243  47.519  53.671  1.00  0.00     0.281 C 
HETATM   25  O3  UNL     1      -5.991  46.591  53.165  1.00  0.00    -0.265 OA
HETATM   26  N8  UNL     1      -5.090  47.405  55.051  1.00  0.00    -0.298 N 
HETATM   27  C10 UNL     1      -6.028  47.088  55.875  1.00  0.00     0.203 C 
ATOM     28  H8  UNL     1      -4.165  47.586  55.438  1.00  0.00     0.171 HD
HETATM   29  N9  UNL     1      -5.766  47.000  57.257  1.00  0.00    -0.066 NA
HETATM   30  N10 UNL     1      -7.363  46.816  55.442  1.00  0.00    -0.066 NA
ENDBRANCH  10  24
TORSDOF 7
ENDMDL
MODEL 5
REMARK VINA RESULT: -7.566954696      1.824      2.031
REMARK  7 active torsions:
REMARK  status: ('A' for Active; 'I' for Inactive)
REMARK    1  A    between atoms: N3_4  and  C2_6 
REMARK    2  A    between atoms: C2_6  and  C3_7 
REMARK    3  A    between atoms: C3_7  and  C4_8 
REMARK    4  A    between atoms: C4_8  and  N4_9 
REMARK    5  A    between atoms: C4_8  and  C5_13 
REMARK    6  A    between atoms: C5_13  and  N5_14 
REMARK    7  A    between atoms: C8_23  and  C9_24 
REMARK       I    between atoms: C9_24  and  N8_26 
ROOT
HETATM    1  N5  UNL     1      -4.325  46.564  52.978  1.00  0.00    -0.276 N 
HETATM    2  N6  UNL     1      -3.828  46.435  51.733  1.00  0.00    -0.248 N 
ATOM      3  H6  UNL     1      -3.024  45.832  51.562  1.00  0.00     0.192 HD
HETATM    4  C6  UNL     1      -4.393  47.101  50.726  1.00  0.00     0.341 A 
HETATM    5  O1  UNL     1      -3.909  46.967  49.553  1.00  0.00    -0.245 OA
HETATM    6  N7  UNL     1      -5.455  47.903  50.946  1.00  0.00    -0.272 N 
ATOM      7  H7  UNL     1      -5.884  48.411  50.172  1.00  0.00     0.174 HD
HETATM    8  C7  UNL     1      -5.942  48.028  52.183  1.00  0.00     0.283 A 
HETATM    9  O2  UNL     1      -6.931  48.782  52.344  1.00  0.00    -0.265 OA
HETATM   10  C8  UNL     1      -5.370  47.338  53.276  1.00  0.00     0.187 A 
ENDROOT
BRANCH   1  11
HETATM   11  C5  UNL     1      -3.701  45.728  53.960  1.00  0.00     0.182 C 
BRANCH  11  12
HETATM   12  C4  UNL     1      -2.832  44.645  53.353  1.00  0.00     0.204 C 
BRANCH  12  13
HETATM   13  C3  UNL     1      -1.604  44.382  54.176  1.00  0.00     0.054 C 
BRANCH  13  14
HETATM   14  C2  UNL     1      -0.640  45.539  54.174  1.00  0.00     0.124 C 
BRANCH  14  15
HETATM   15  N3  UNL     1      -0.251  45.798  52.805  1.00  0.00    -0.367 N 
HETATM   16  C1  UNL     1      -0.449  46.929  52.221  1.00  0.00     0.196 C 
HETATM   17  N1  UNL     1      -1.076  48.016  52.904  1.00  0.00    -0.067 NA
HETATM   18  N2  UNL     1      -0.027  47.075  50.875  1.00  0.00    -0.067 NA
ATOM     19  H3  UNL     1       0.201  45.051  52.277  1.00  0.00     0.161 HD
ENDBRANCH  14  15
ENDBRANCH  13  14
ENDBRANCH  12  13
BRANCH  12  20
HETATM   20  N4  UNL     1      -3.571  43.460  53.131  1.00  0.00    -0.073 N 
ATOM     21  H43 UNL     1      -4.006  43.459  52.208  1.00  0.00     0.274 HD
ATOM     22  H42 UNL     1      -2.957  42.654  53.017  1.00  0.00     0.274 HD
ATOM     23  H41 UNL     1      -4.259  43.305  53.867  1.00  0.00     0.274 HD
ENDBRANCH  12  20
ENDBRANCH  11  12
ENDBRANCH   1  11
BRANCH  10  24
HETATM   24  C9  UNL     1      -5.925  47.609  54.581  1.00  0.00     0.281 C 
HETATM   25  O3  UNL     1      -6.827  46.787  55.011  1.00  0.00    -0.265 OA
HETATM   26  N8  UNL     1      -5.651  48.637  55.480  1.00  0.00    -0.298 N 
HETATM   27  C10 UNL     1      -6.534  49.267  56.176  1.00  0.00     0.203 C 
ATOM     28  H8  UNL     1      -4.676  48.913  55.597  1.00  0.00     0.171 HD
HETATM   29  N9  UNL     1      -6.148  50.294  57.059  1.00  0.00    -0.066 NA
HETATM   30  N10 UNL     1      -7.928  48.965  56.090  1.00  0.00    -0.066 NA
ENDBRANCH  10  24
TORSDOF 7
ENDMDL
