MODEL 1
REMARK VINA RESULT: -4.779555086      0.000      0.000
REMARK  1 active torsions:
REMARK  status: ('A' for Active; 'I' for Inactive)
REMARK    1  A    between atoms: N1_1  and  C1_5 
ROOT
HETATM    1  C1  UNL     1     -21.924 -51.053 -12.571  1.00  0.00     0.125 C 
HETATM    2  C2  UNL     1     -21.297 -51.497 -13.865  1.00  0.00     0.045 C 
HETATM    3  C3  UNL     1     -20.528 -52.771 -13.739  1.00  0.00     0.007 C 
HETATM    4  C4  UNL     1     -21.383 -53.877 -13.121  1.00  0.00     0.011 C 
HETATM    5  C5  UNL     1     -21.675 -53.234 -11.758  1.00  0.00    -0.006 C 
HETATM    6  C6  UNL     1     -22.783 -52.210 -12.046  1.00  0.00     0.043 C 
HETATM    7  C7  UNL     1     -20.448 -52.455 -11.420  1.00  0.00     0.011 C 
HETATM    8  C8  UNL     1     -20.894 -50.989 -11.444  1.00  0.00     0.045 C 
HETATM    9  C9  UNL     1     -19.502 -52.575 -12.623  1.00  0.00     0.091 C 
HETATM   10 CL1  UNL     1     -18.402 -53.923 -12.472  1.00  0.00    -0.124 Cl
ENDROOT
BRANCH   1  11
HETATM   11  N1  UNL     1     -22.658 -49.848 -12.729  1.00  0.00    -0.070 N 
ATOM     12  H13 UNL     1     -22.737 -49.587 -13.712  1.00  0.00     0.275 HD
ATOM     13  H12 UNL     1     -23.647 -49.983 -12.521  1.00  0.00     0.275 HD
ATOM     14  H11 UNL     1     -22.261 -49.090 -12.174  1.00  0.00     0.275 HD
ENDBRANCH   1  11
TORSDOF 1
ENDMDL
MODEL 2
REMARK VINA RESULT: -4.576039758      0.912      2.150
REMARK  1 active torsions:
REMARK  status: ('A' for Active; 'I' for Inactive)
REMARK    1  A    between atoms: N1_1  and  C1_5 
ROOT
HETATM    1  C1  UNL     1     -21.738 -51.252 -12.658  1.00  0.00     0.125 C 
HETATM    2  C2  UNL     1     -22.509 -52.386 -12.036  1.00  0.00     0.045 C 
HETATM    3  C3  UNL     1     -21.695 -53.627 -11.869  1.00  0.00     0.007 C 
HETATM    4  C4  UNL     1     -20.400 -53.344 -11.108  1.00  0.00     0.011 C 
HETATM    5  C5  UNL     1     -19.753 -52.348 -12.081  1.00  0.00    -0.006 C 
HETATM    6  C6  UNL     1     -20.480 -51.022 -11.814  1.00  0.00     0.043 C 
HETATM    7  C7  UNL     1     -20.169 -52.800 -13.440  1.00  0.00     0.011 C 
HETATM    8  C8  UNL     1     -21.075 -51.680 -13.966  1.00  0.00     0.045 C 
HETATM    9  C9  UNL     1     -21.124 -53.985 -13.240  1.00  0.00     0.091 C 
HETATM   10 CL1  UNL     1     -20.289 -55.520 -13.245  1.00  0.00    -0.124 Cl
ENDROOT
BRANCH   1  11
HETATM   11  N1  UNL     1     -22.537 -50.085 -12.790  1.00  0.00    -0.070 N 
ATOM     12  H13 UNL     1     -23.467 -50.224 -12.395  1.00  0.00     0.275 HD
ATOM     13  H12 UNL     1     -22.212 -49.340 -12.173  1.00  0.00     0.275 HD
ATOM     14  H11 UNL     1     -22.588 -49.772 -13.759  1.00  0.00     0.275 HD
ENDBRANCH   1  11
TORSDOF 1
ENDMDL
MODEL 3
REMARK VINA RESULT: -4.575717403      1.021      2.218
REMARK  1 active torsions:
REMARK  status: ('A' for Active; 'I' for Inactive)
REMARK    1  A    between atoms: N1_1  and  C1_5 
ROOT
HETATM    1  C1  UNL     1     -22.461 -51.616 -13.213  1.00  0.00     0.125 C 
HETATM    2  C2  UNL     1     -22.417 -52.662 -12.132  1.00  0.00     0.045 C 
HETATM    3  C3  UNL     1     -21.034 -52.938 -11.639  1.00  0.00     0.007 C 
HETATM    4  C4  UNL     1     -20.331 -51.651 -11.207  1.00  0.00     0.011 C 
HETATM    5  C5  UNL     1     -20.334 -50.903 -12.547  1.00  0.00    -0.006 C 
HETATM    6  C6  UNL     1     -21.764 -50.359 -12.679  1.00  0.00     0.043 C 
HETATM    7  C7  UNL     1     -20.179 -51.961 -13.588  1.00  0.00     0.011 C 
HETATM    8  C8  UNL     1     -21.505 -51.953 -14.356  1.00  0.00     0.045 C 
HETATM    9  C9  UNL     1     -20.184 -53.309 -12.853  1.00  0.00     0.091 C 
HETATM   10 CL1  UNL     1     -18.576 -53.834 -12.418  1.00  0.00    -0.124 Cl
ENDROOT
BRANCH   1  11
HETATM   11  N1  UNL     1     -23.790 -51.368 -13.649  1.00  0.00    -0.070 N 
ATOM     12  H13 UNL     1     -23.898 -51.563 -14.644  1.00  0.00     0.275 HD
ATOM     13  H12 UNL     1     -24.439 -52.063 -13.280  1.00  0.00     0.275 HD
ATOM     14  H11 UNL     1     -24.090 -50.420 -13.421  1.00  0.00     0.275 HD
ENDBRANCH   1  11
TORSDOF 1
ENDMDL
MODEL 4
REMARK VINA RESULT: -4.539008172      1.078      1.746
REMARK  1 active torsions:
REMARK  status: ('A' for Active; 'I' for Inactive)
REMARK    1  A    between atoms: N1_1  and  C1_5 
ROOT
HETATM    1  C1  UNL     1     -22.082 -50.777 -12.630  1.00  0.00     0.125 C 
HETATM    2  C2  UNL     1     -20.596 -50.928 -12.440  1.00  0.00     0.045 C 
HETATM    3  C3  UNL     1     -20.135 -52.346 -12.530  1.00  0.00     0.007 C 
HETATM    4  C4  UNL     1     -20.605 -53.002 -13.828  1.00  0.00     0.011 C 
HETATM    5  C5  UNL     1     -22.123 -52.895 -13.625  1.00  0.00    -0.006 C 
HETATM    6  C6  UNL     1     -22.453 -51.434 -13.964  1.00  0.00     0.043 C 
HETATM    7  C7  UNL     1     -22.335 -53.053 -12.156  1.00  0.00     0.011 C 
HETATM    8  C8  UNL     1     -22.861 -51.692 -11.687  1.00  0.00     0.045 C 
HETATM    9  C9  UNL     1     -20.943 -53.153 -11.516  1.00  0.00     0.091 C 
HETATM   10 CL1  UNL     1     -20.395 -54.806 -11.375  1.00  0.00    -0.124 Cl
ENDROOT
BRANCH   1  11
HETATM   11  N1  UNL     1     -22.485 -49.417 -12.552  1.00  0.00    -0.070 N 
ATOM     12  H13 UNL     1     -22.362 -48.941 -13.446  1.00  0.00     0.275 HD
ATOM     13  H12 UNL     1     -23.498 -49.333 -12.465  1.00  0.00     0.275 HD
ATOM     14  H11 UNL     1     -22.004 -48.925 -11.800  1.00  0.00     0.275 HD
ENDBRANCH   1  11
TORSDOF 1
ENDMDL
MODEL 5
REMARK VINA RESULT: -4.506846489      2.524      3.239
REMARK  1 active torsions:
REMARK  status: ('A' for Active; 'I' for Inactive)
REMARK    1  A    between atoms: N1_1  and  C1_5 
ROOT
HETATM    1  C1  UNL     1     -19.938 -52.398 -12.652  1.00  0.00     0.125 C 
HETATM    2  C2  UNL     1     -20.553 -52.102 -13.994  1.00  0.00     0.045 C 
HETATM    3  C3  UNL     1     -22.009 -51.781 -13.914  1.00  0.00     0.007 C 
HETATM    4  C4  UNL     1     -22.276 -50.657 -12.913  1.00  0.00     0.011 C 
HETATM    5  C5  UNL     1     -21.757 -51.333 -11.636  1.00  0.00    -0.006 C 
HETATM    6  C6  UNL     1     -20.229 -51.209 -11.730  1.00  0.00     0.043 C 
HETATM    7  C7  UNL     1     -22.082 -52.780 -11.798  1.00  0.00     0.011 C 
HETATM    8  C8  UNL     1     -20.721 -53.477 -11.905  1.00  0.00     0.045 C 
HETATM    9  C9  UNL     1     -22.693 -52.943 -13.196  1.00  0.00     0.091 C 
HETATM   10 CL1  UNL     1     -24.434 -52.798 -13.180  1.00  0.00    -0.124 Cl
ENDROOT
BRANCH   1  11
HETATM   11  N1  UNL     1     -18.552 -52.686 -12.762  1.00  0.00    -0.070 N 
ATOM     12  H13 UNL     1     -18.392 -53.569 -13.247  1.00  0.00     0.275 HD
ATOM     13  H12 UNL     1     -18.092 -52.058 -13.422  1.00  0.00     0.275 HD
ATOM     14  H11 UNL     1     -18.091 -52.673 -11.853  1.00  0.00     0.275 HD
ENDBRANCH   1  11
TORSDOF 1
ENDMDL
