MODEL 1
REMARK VINA RESULT: -7.999054360      0.000      0.000
REMARK  11 active torsions:
REMARK  status: ('A' for Active; 'I' for Inactive)
REMARK    1  A    between atoms: C6_6  and  C7_7 
REMARK    2  A    between atoms: C7_7  and  C8_8 
REMARK    3  A    between atoms: C8_8  and  O1_9 
REMARK    4  A    between atoms: C8_8  and  C9_11 
REMARK    5  A    between atoms: C9_11  and  O2_12 
REMARK    6  A    between atoms: O2_12  and  C10_13 
REMARK    7  A    between atoms: C19_22  and  O3_23 
REMARK    8  A    between atoms: C20_25  and  O4_26 
REMARK    9  A    between atoms: C25_32  and  N1_33 
REMARK       I    between atoms: N1_33  and  C26_35 
REMARK   10  A    between atoms: C26_35  and  C27_37 
REMARK   11  A    between atoms: C27_37  and  O6_38 
ROOT
HETATM    1  C10 UNL     1     -26.859 -54.781 -15.387  1.00  0.00     0.144 C 
HETATM    2  C11 UNL     1     -26.245 -55.546 -14.206  1.00  0.00     0.044 C 
HETATM    3  C12 UNL     1     -27.257 -56.348 -13.461  1.00  0.00    -0.030 C 
HETATM    4  C13 UNL     1     -27.069 -57.798 -13.812  1.00  0.00     0.016 C 
HETATM    5  C14 UNL     1     -28.686 -55.998 -13.897  1.00  0.00    -0.004 C 
HETATM    6  C15 UNL     1     -29.616 -57.034 -13.249  1.00  0.00     0.006 C 
HETATM    7  C16 UNL     1     -29.584 -56.754 -11.766  1.00  0.00     0.006 C 
HETATM    8  C17 UNL     1     -28.209 -56.870 -11.210  1.00  0.00    -0.003 C 
HETATM    9  C18 UNL     1     -28.229 -56.473  -9.766  1.00  0.00     0.039 C 
HETATM   10  C19 UNL     1     -28.564 -55.037  -9.623  1.00  0.00     0.147 C 
HETATM   11  C20 UNL     1     -27.570 -54.204 -10.326  1.00  0.00     0.147 C 
HETATM   12  C21 UNL     1     -27.052 -54.676 -11.619  1.00  0.00     0.044 C 
HETATM   13  C22 UNL     1     -27.154 -56.112 -11.950  1.00  0.00    -0.030 C 
HETATM   14  C23 UNL     1     -25.815 -56.768 -11.566  1.00  0.00     0.016 C 
HETATM   15  C24 UNL     1     -28.885 -56.113 -15.363  1.00  0.00     0.033 C 
HETATM   16  C25 UNL     1     -27.698 -55.730 -16.199  1.00  0.00     0.114 C 
ENDROOT
BRANCH   1  17
HETATM   17  O2  UNL     1     -25.901 -54.124 -16.096  1.00  0.00    -0.381 OA
BRANCH  17  18
HETATM   18  C9  UNL     1     -24.653 -54.110 -15.494  1.00  0.00     0.199 C 
BRANCH  18  19
HETATM   19  C8  UNL     1     -24.366 -52.715 -14.973  1.00  0.00     0.142 C 
BRANCH  19  20
HETATM   20  C7  UNL     1     -22.912 -52.558 -14.607  1.00  0.00     0.039 C 
BRANCH  20  21
HETATM   21  C6  UNL     1     -22.640 -51.474 -13.630  1.00  0.00    -0.007 C 
HETATM   22  C5  UNL     1     -23.255 -51.891 -12.280  1.00  0.00     0.010 C 
HETATM   23  C4  UNL     1     -22.033 -51.746 -11.418  1.00  0.00    -0.006 C 
HETATM   24  C2  UNL     1     -21.385 -50.482 -11.923  1.00  0.00    -0.040 C 
HETATM   25  C29 UNL     1     -20.986 -52.471 -12.278  1.00  0.00     0.011 C 
HETATM   26  C1  UNL     1     -22.269 -49.284 -12.044  1.00  0.00     0.015 C 
HETATM   27  C3  UNL     1     -20.017 -50.195 -11.339  1.00  0.00     0.015 C 
HETATM   28  C28 UNL     1     -21.233 -51.292 -13.223  1.00  0.00    -0.002 C 
ENDBRANCH  20  21
ENDBRANCH  19  20
BRANCH  19  29
HETATM   29  O1  UNL     1     -24.619 -51.833 -16.035  1.00  0.00    -0.393 OA
ATOM     30  H1  UNL     1     -24.087 -52.121 -16.768  1.00  0.00     0.210 HD
ENDBRANCH  19  29
ENDBRANCH  18  19
ENDBRANCH  17  18
ENDBRANCH   1  17
BRANCH  16  31
HETATM   31  N1  UNL     1     -28.147 -55.028 -17.383  1.00  0.00    -0.352 N 
HETATM   32  C26 UNL     1     -28.105 -55.697 -18.631  1.00  0.00     0.241 C 
HETATM   33  O5  UNL     1     -27.690 -56.877 -18.739  1.00  0.00    -0.271 OA
ATOM     34  H1  UNL     1     -28.488 -54.069 -17.320  1.00  0.00     0.163 HD
BRANCH  32  35
HETATM   35  C27 UNL     1     -28.557 -55.004 -19.859  1.00  0.00     0.266 C 
BRANCH  35  36
HETATM   36  O6  UNL     1     -29.741 -54.310 -19.659  1.00  0.00    -0.392 OA
ATOM     37  H6  UNL     1     -30.487 -54.893 -19.582  1.00  0.00     0.210 HD
ENDBRANCH  35  36
ENDBRANCH  32  35
ENDBRANCH  16  31
BRANCH  11  38
HETATM   38  O4  UNL     1     -28.170 -52.936 -10.540  1.00  0.00    -0.393 OA
ATOM     39  H4  UNL     1     -27.846 -52.613 -11.374  1.00  0.00     0.210 HD
ENDBRANCH  11  38
BRANCH  10  40
HETATM   40  O3  UNL     1     -28.509 -54.736  -8.239  1.00  0.00    -0.393 OA
ATOM     41  H3  UNL     1     -29.373 -54.426  -7.989  1.00  0.00     0.210 HD
ENDBRANCH  10  40
TORSDOF 11
ENDMDL
MODEL 2
REMARK VINA RESULT: -7.945194697      2.972      8.320
REMARK  11 active torsions:
REMARK  status: ('A' for Active; 'I' for Inactive)
REMARK    1  A    between atoms: C6_6  and  C7_7 
REMARK    2  A    between atoms: C7_7  and  C8_8 
REMARK    3  A    between atoms: C8_8  and  O1_9 
REMARK    4  A    between atoms: C8_8  and  C9_11 
REMARK    5  A    between atoms: C9_11  and  O2_12 
REMARK    6  A    between atoms: O2_12  and  C10_13 
REMARK    7  A    between atoms: C19_22  and  O3_23 
REMARK    8  A    between atoms: C20_25  and  O4_26 
REMARK    9  A    between atoms: C25_32  and  N1_33 
REMARK       I    between atoms: N1_33  and  C26_35 
REMARK   10  A    between atoms: C26_35  and  C27_37 
REMARK   11  A    between atoms: C27_37  and  O6_38 
ROOT
HETATM    1  C10 UNL     1     -24.226 -52.406 -13.734  1.00  0.00     0.144 C 
HETATM    2  C11 UNL     1     -24.228 -53.871 -14.191  1.00  0.00     0.044 C 
HETATM    3  C12 UNL     1     -23.178 -54.149 -15.213  1.00  0.00    -0.030 C 
HETATM    4  C13 UNL     1     -22.060 -54.908 -14.554  1.00  0.00     0.016 C 
HETATM    5  C14 UNL     1     -22.546 -52.853 -15.738  1.00  0.00    -0.004 C 
HETATM    6  C15 UNL     1     -21.336 -53.261 -16.591  1.00  0.00     0.006 C 
HETATM    7  C16 UNL     1     -21.899 -53.941 -17.815  1.00  0.00     0.006 C 
HETATM    8  C17 UNL     1     -22.713 -55.135 -17.461  1.00  0.00    -0.003 C 
HETATM    9  C18 UNL     1     -23.331 -55.693 -18.706  1.00  0.00     0.039 C 
HETATM   10  C19 UNL     1     -24.309 -54.739 -19.279  1.00  0.00     0.147 C 
HETATM   11  C20 UNL     1     -25.381 -54.456 -18.307  1.00  0.00     0.147 C 
HETATM   12  C21 UNL     1     -25.021 -54.321 -16.888  1.00  0.00     0.044 C 
HETATM   13  C22 UNL     1     -23.753 -54.911 -16.412  1.00  0.00    -0.030 C 
HETATM   14  C23 UNL     1     -24.081 -56.302 -15.838  1.00  0.00     0.016 C 
HETATM   15  C24 UNL     1     -22.021 -51.987 -14.652  1.00  0.00     0.033 C 
HETATM   16  C25 UNL     1     -22.819 -52.007 -13.380  1.00  0.00     0.114 C 
ENDROOT
BRANCH   1  17
HETATM   17  O2  UNL     1     -25.138 -52.200 -12.744  1.00  0.00    -0.381 OA
BRANCH  17  18
HETATM   18  C9  UNL     1     -24.986 -53.032 -11.646  1.00  0.00     0.199 C 
BRANCH  18  19
HETATM   19  C8  UNL     1     -26.345 -53.563 -11.231  1.00  0.00     0.142 C 
BRANCH  19  20
HETATM   20  C7  UNL     1     -26.227 -54.920 -10.587  1.00  0.00     0.039 C 
BRANCH  20  21
HETATM   21  C6  UNL     1     -27.088 -55.109  -9.393  1.00  0.00    -0.007 C 
HETATM   22  C5  UNL     1     -28.220 -56.083  -9.778  1.00  0.00     0.010 C 
HETATM   23  C4  UNL     1     -28.030 -57.096  -8.685  1.00  0.00    -0.006 C 
HETATM   24  C2  UNL     1     -27.743 -56.260  -7.465  1.00  0.00    -0.040 C 
HETATM   25  C29 UNL     1     -26.508 -57.300  -8.743  1.00  0.00     0.011 C 
HETATM   26  C1  UNL     1     -28.693 -55.142  -7.186  1.00  0.00     0.015 C 
HETATM   27  C3  UNL     1     -27.328 -57.050  -6.240  1.00  0.00     0.015 C 
HETATM   28  C28 UNL     1     -26.493 -55.847  -8.262  1.00  0.00    -0.002 C 
ENDBRANCH  20  21
ENDBRANCH  19  20
BRANCH  19  29
HETATM   29  O1  UNL     1     -26.834 -52.685 -10.251  1.00  0.00    -0.393 OA
ATOM     30  H1  UNL     1     -26.150 -52.588  -9.599  1.00  0.00     0.210 HD
ENDBRANCH  19  29
ENDBRANCH  18  19
ENDBRANCH  17  18
ENDBRANCH   1  17
BRANCH  16  31
HETATM   31  N1  UNL     1     -22.860 -50.675 -12.815  1.00  0.00    -0.352 N 
HETATM   32  C26 UNL     1     -22.112 -50.406 -11.642  1.00  0.00     0.241 C 
HETATM   33  O5  UNL     1     -21.417 -51.288 -11.081  1.00  0.00    -0.271 OA
ATOM     34  H1  UNL     1     -23.419 -49.942 -13.253  1.00  0.00     0.163 HD
BRANCH  32  35
HETATM   35  C27 UNL     1     -22.136 -49.053 -11.042  1.00  0.00     0.266 C 
BRANCH  35  36
HETATM   36  O6  UNL     1     -23.272 -48.845 -10.272  1.00  0.00    -0.392 OA
ATOM     37  H6  UNL     1     -23.461 -49.586  -9.709  1.00  0.00     0.210 HD
ENDBRANCH  35  36
ENDBRANCH  32  35
ENDBRANCH  16  31
BRANCH  11  38
HETATM   38  O4  UNL     1     -25.997 -53.242 -18.712  1.00  0.00    -0.393 OA
ATOM     39  H4  UNL     1     -25.298 -52.621 -18.884  1.00  0.00     0.210 HD
ENDBRANCH  11  38
BRANCH  10  40
HETATM   40  O3  UNL     1     -24.880 -55.364 -20.415  1.00  0.00    -0.393 OA
ATOM     41  H3  UNL     1     -25.813 -55.443 -20.248  1.00  0.00     0.210 HD
ENDBRANCH  10  40
TORSDOF 11
ENDMDL
MODEL 3
REMARK VINA RESULT: -7.860073122      2.451      7.838
REMARK  11 active torsions:
REMARK  status: ('A' for Active; 'I' for Inactive)
REMARK    1  A    between atoms: C6_6  and  C7_7 
REMARK    2  A    between atoms: C7_7  and  C8_8 
REMARK    3  A    between atoms: C8_8  and  O1_9 
REMARK    4  A    between atoms: C8_8  and  C9_11 
REMARK    5  A    between atoms: C9_11  and  O2_12 
REMARK    6  A    between atoms: O2_12  and  C10_13 
REMARK    7  A    between atoms: C19_22  and  O3_23 
REMARK    8  A    between atoms: C20_25  and  O4_26 
REMARK    9  A    between atoms: C25_32  and  N1_33 
REMARK       I    between atoms: N1_33  and  C26_35 
REMARK   10  A    between atoms: C26_35  and  C27_37 
REMARK   11  A    between atoms: C27_37  and  O6_38 
ROOT
HETATM    1  C10 UNL     1     -25.014 -52.988 -13.727  1.00  0.00     0.144 C 
HETATM    2  C11 UNL     1     -25.053 -54.497 -14.005  1.00  0.00     0.044 C 
HETATM    3  C12 UNL     1     -24.307 -54.867 -15.241  1.00  0.00    -0.030 C 
HETATM    4  C13 UNL     1     -23.009 -55.511 -14.841  1.00  0.00     0.016 C 
HETATM    5  C14 UNL     1     -23.921 -53.627 -16.059  1.00  0.00    -0.004 C 
HETATM    6  C15 UNL     1     -22.968 -54.103 -17.165  1.00  0.00     0.006 C 
HETATM    7  C16 UNL     1     -23.802 -54.940 -18.103  1.00  0.00     0.006 C 
HETATM    8  C17 UNL     1     -24.415 -56.105 -17.410  1.00  0.00    -0.003 C 
HETATM    9  C18 UNL     1     -25.315 -56.826 -18.366  1.00  0.00     0.039 C 
HETATM   10  C19 UNL     1     -26.467 -55.975 -18.744  1.00  0.00     0.147 C 
HETATM   11  C20 UNL     1     -27.249 -55.606 -17.549  1.00  0.00     0.147 C 
HETATM   12  C21 UNL     1     -26.524 -55.291 -16.309  1.00  0.00     0.044 C 
HETATM   13  C22 UNL     1     -25.141 -55.785 -16.143  1.00  0.00    -0.030 C 
HETATM   14  C23 UNL     1     -25.216 -57.105 -15.354  1.00  0.00     0.016 C 
HETATM   15  C24 UNL     1     -23.173 -52.623 -15.262  1.00  0.00     0.033 C 
HETATM   16  C25 UNL     1     -23.590 -52.512 -13.824  1.00  0.00     0.114 C 
ENDROOT
BRANCH   1  17
HETATM   17  O2  UNL     1     -25.632 -52.690 -12.552  1.00  0.00    -0.381 OA
BRANCH  17  18
HETATM   18  C9  UNL     1     -25.584 -53.704 -11.608  1.00  0.00     0.199 C 
BRANCH  18  19
HETATM   19  C8  UNL     1     -26.739 -53.539 -10.640  1.00  0.00     0.142 C 
BRANCH  19  20
HETATM   20  C7  UNL     1     -28.063 -53.763 -11.326  1.00  0.00     0.039 C 
BRANCH  20  21
HETATM   21  C6  UNL     1     -28.188 -55.080 -11.999  1.00  0.00    -0.007 C 
HETATM   22  C5  UNL     1     -29.350 -55.843 -11.333  1.00  0.00     0.010 C 
HETATM   23  C4  UNL     1     -30.157 -56.149 -12.562  1.00  0.00    -0.006 C 
HETATM   24  C2  UNL     1     -29.119 -56.521 -13.590  1.00  0.00    -0.040 C 
HETATM   25  C29 UNL     1     -30.160 -54.776 -13.254  1.00  0.00     0.011 C 
HETATM   26  C1  UNL     1     -28.110 -57.542 -13.177  1.00  0.00     0.015 C 
HETATM   27  C3  UNL     1     -29.657 -56.704 -14.995  1.00  0.00     0.015 C 
HETATM   28  C28 UNL     1     -28.664 -55.063 -13.396  1.00  0.00    -0.002 C 
ENDBRANCH  20  21
ENDBRANCH  19  20
BRANCH  19  29
HETATM   29  O1  UNL     1     -26.600 -54.550  -9.676  1.00  0.00    -0.393 OA
ATOM     30  H1  UNL     1     -26.900 -54.189  -8.850  1.00  0.00     0.210 HD
ENDBRANCH  19  29
ENDBRANCH  18  19
ENDBRANCH  17  18
ENDBRANCH   1  17
BRANCH  16  31
HETATM   31  N1  UNL     1     -23.556 -51.122 -13.418  1.00  0.00    -0.352 N 
HETATM   32  C26 UNL     1     -22.895 -50.779 -12.212  1.00  0.00     0.241 C 
HETATM   33  O5  UNL     1     -22.341 -51.643 -11.489  1.00  0.00    -0.271 OA
ATOM     34  H1  UNL     1     -23.999 -50.403 -13.989  1.00  0.00     0.163 HD
BRANCH  32  35
HETATM   35  C27 UNL     1     -22.844 -49.367 -11.771  1.00  0.00     0.266 C 
BRANCH  35  36
HETATM   36  O6  UNL     1     -23.358 -49.202 -10.492  1.00  0.00    -0.392 OA
ATOM     37  H6  UNL     1     -22.874 -48.553  -9.995  1.00  0.00     0.210 HD
ENDBRANCH  35  36
ENDBRANCH  32  35
ENDBRANCH  16  31
BRANCH  11  38
HETATM   38  O4  UNL     1     -28.023 -54.468 -17.895  1.00  0.00    -0.393 OA
ATOM     39  H4  UNL     1     -28.883 -54.591 -17.511  1.00  0.00     0.210 HD
ENDBRANCH  11  38
BRANCH  10  40
HETATM   40  O3  UNL     1     -27.289 -56.748 -19.601  1.00  0.00    -0.393 OA
ATOM     41  H3  UNL     1     -27.416 -56.241 -20.395  1.00  0.00     0.210 HD
ENDBRANCH  10  40
TORSDOF 11
ENDMDL
MODEL 4
REMARK VINA RESULT: -7.821383182      4.284      8.973
REMARK  11 active torsions:
REMARK  status: ('A' for Active; 'I' for Inactive)
REMARK    1  A    between atoms: C6_6  and  C7_7 
REMARK    2  A    between atoms: C7_7  and  C8_8 
REMARK    3  A    between atoms: C8_8  and  O1_9 
REMARK    4  A    between atoms: C8_8  and  C9_11 
REMARK    5  A    between atoms: C9_11  and  O2_12 
REMARK    6  A    between atoms: O2_12  and  C10_13 
REMARK    7  A    between atoms: C19_22  and  O3_23 
REMARK    8  A    between atoms: C20_25  and  O4_26 
REMARK    9  A    between atoms: C25_32  and  N1_33 
REMARK       I    between atoms: N1_33  and  C26_35 
REMARK   10  A    between atoms: C26_35  and  C27_37 
REMARK   11  A    between atoms: C27_37  and  O6_38 
ROOT
HETATM    1  C10 UNL     1     -21.145 -52.615 -14.421  1.00  0.00     0.144 C 
HETATM    2  C11 UNL     1     -21.126 -54.102 -14.801  1.00  0.00     0.044 C 
HETATM    3  C12 UNL     1     -20.049 -54.855 -14.097  1.00  0.00    -0.030 C 
HETATM    4  C13 UNL     1     -20.678 -55.685 -13.012  1.00  0.00     0.016 C 
HETATM    5  C14 UNL     1     -19.074 -53.909 -13.383  1.00  0.00    -0.004 C 
HETATM    6  C15 UNL     1     -18.163 -54.784 -12.510  1.00  0.00     0.006 C 
HETATM    7  C16 UNL     1     -17.304 -55.576 -13.466  1.00  0.00     0.006 C 
HETATM    8  C17 UNL     1     -18.123 -56.423 -14.375  1.00  0.00    -0.003 C 
HETATM    9  C18 UNL     1     -17.221 -57.092 -15.366  1.00  0.00     0.039 C 
HETATM   10  C19 UNL     1     -16.593 -56.092 -16.261  1.00  0.00     0.147 C 
HETATM   11  C20 UNL     1     -17.626 -55.340 -16.998  1.00  0.00     0.147 C 
HETATM   12  C21 UNL     1     -18.858 -54.967 -16.288  1.00  0.00     0.044 C 
HETATM   13  C22 UNL     1     -19.240 -55.716 -15.074  1.00  0.00    -0.030 C 
HETATM   14  C23 UNL     1     -20.231 -56.814 -15.503  1.00  0.00     0.016 C 
HETATM   15  C24 UNL     1     -19.758 -52.965 -12.464  1.00  0.00     0.033 C 
HETATM   16  C25 UNL     1     -21.108 -52.495 -12.922  1.00  0.00     0.114 C 
ENDROOT
BRANCH   1  17
HETATM   17  O2  UNL     1     -22.187 -51.971 -15.015  1.00  0.00    -0.381 OA
BRANCH  17  18
HETATM   18  C9  UNL     1     -23.190 -52.810 -15.474  1.00  0.00     0.199 C 
BRANCH  18  19
HETATM   19  C8  UNL     1     -24.445 -52.582 -14.653  1.00  0.00     0.142 C 
BRANCH  19  20
HETATM   20  C7  UNL     1     -24.559 -53.592 -13.541  1.00  0.00     0.039 C 
BRANCH  20  21
HETATM   21  C6  UNL     1     -25.926 -53.734 -12.980  1.00  0.00    -0.007 C 
HETATM   22  C5  UNL     1     -26.382 -55.189 -13.209  1.00  0.00     0.010 C 
HETATM   23  C4  UNL     1     -26.739 -55.542 -11.793  1.00  0.00    -0.006 C 
HETATM   24  C2  UNL     1     -27.425 -54.304 -11.276  1.00  0.00    -0.040 C 
HETATM   25  C29 UNL     1     -25.506 -55.012 -11.044  1.00  0.00     0.011 C 
HETATM   26  C1  UNL     1     -28.519 -53.745 -12.126  1.00  0.00     0.015 C 
HETATM   27  C3  UNL     1     -27.732 -54.323  -9.793  1.00  0.00     0.015 C 
HETATM   28  C28 UNL     1     -26.047 -53.659 -11.511  1.00  0.00    -0.002 C 
ENDBRANCH  20  21
ENDBRANCH  19  20
BRANCH  19  29
HETATM   29  O1  UNL     1     -24.305 -51.322 -14.051  1.00  0.00    -0.393 OA
ATOM     30  H1  UNL     1     -24.423 -50.673 -14.735  1.00  0.00     0.210 HD
ENDBRANCH  19  29
ENDBRANCH  18  19
ENDBRANCH  17  18
ENDBRANCH   1  17
BRANCH  16  31
HETATM   31  N1  UNL     1     -21.273 -51.097 -12.582  1.00  0.00    -0.352 N 
HETATM   32  C26 UNL     1     -22.328 -50.725 -11.712  1.00  0.00     0.241 C 
HETATM   33  O5  UNL     1     -23.121 -51.571 -11.230  1.00  0.00    -0.271 OA
ATOM     34  H1  UNL     1     -20.641 -50.392 -12.962  1.00  0.00     0.163 HD
BRANCH  32  35
HETATM   35  C27 UNL     1     -22.522 -49.304 -11.347  1.00  0.00     0.266 C 
BRANCH  35  36
HETATM   36  O6  UNL     1     -23.402 -49.155 -10.285  1.00  0.00    -0.392 OA
ATOM     37  H6  UNL     1     -24.114 -48.561 -10.493  1.00  0.00     0.210 HD
ENDBRANCH  35  36
ENDBRANCH  32  35
ENDBRANCH  16  31
BRANCH  11  38
HETATM   38  O4  UNL     1     -17.017 -54.145 -17.460  1.00  0.00    -0.393 OA
ATOM     39  H4  UNL     1     -17.650 -53.446 -17.338  1.00  0.00     0.210 HD
ENDBRANCH  11  38
BRANCH  10  40
HETATM   40  O3  UNL     1     -15.804 -56.810 -17.194  1.00  0.00    -0.393 OA
ATOM     41  H3  UNL     1     -15.199 -57.344 -16.691  1.00  0.00     0.210 HD
ENDBRANCH  10  40
TORSDOF 11
ENDMDL
MODEL 5
REMARK VINA RESULT: -7.799203858      2.614      7.808
REMARK  11 active torsions:
REMARK  status: ('A' for Active; 'I' for Inactive)
REMARK    1  A    between atoms: C6_6  and  C7_7 
REMARK    2  A    between atoms: C7_7  and  C8_8 
REMARK    3  A    between atoms: C8_8  and  O1_9 
REMARK    4  A    between atoms: C8_8  and  C9_11 
REMARK    5  A    between atoms: C9_11  and  O2_12 
REMARK    6  A    between atoms: O2_12  and  C10_13 
REMARK    7  A    between atoms: C19_22  and  O3_23 
REMARK    8  A    between atoms: C20_25  and  O4_26 
REMARK    9  A    between atoms: C25_32  and  N1_33 
REMARK       I    between atoms: N1_33  and  C26_35 
REMARK   10  A    between atoms: C26_35  and  C27_37 
REMARK   11  A    between atoms: C27_37  and  O6_38 
ROOT
HETATM    1  C10 UNL     1     -24.790 -53.461 -14.154  1.00  0.00     0.144 C 
HETATM    2  C11 UNL     1     -24.576 -54.817 -14.840  1.00  0.00     0.044 C 
HETATM    3  C12 UNL     1     -24.192 -54.675 -16.274  1.00  0.00    -0.030 C 
HETATM    4  C13 UNL     1     -22.725 -54.973 -16.407  1.00  0.00     0.016 C 
HETATM    5  C14 UNL     1     -24.368 -53.231 -16.764  1.00  0.00    -0.004 C 
HETATM    6  C15 UNL     1     -23.729 -53.153 -18.158  1.00  0.00     0.006 C 
HETATM    7  C16 UNL     1     -24.606 -53.980 -19.066  1.00  0.00     0.006 C 
HETATM    8  C17 UNL     1     -24.694 -55.394 -18.614  1.00  0.00    -0.003 C 
HETATM    9  C18 UNL     1     -25.663 -56.129 -19.489  1.00  0.00     0.039 C 
HETATM   10  C19 UNL     1     -27.035 -55.599 -19.311  1.00  0.00     0.147 C 
HETATM   11  C20 UNL     1     -27.465 -55.745 -17.907  1.00  0.00     0.147 C 
HETATM   12  C21 UNL     1     -26.478 -55.501 -16.845  1.00  0.00     0.044 C 
HETATM   13  C22 UNL     1     -25.040 -55.584 -17.172  1.00  0.00    -0.030 C 
HETATM   14  C23 UNL     1     -24.567 -57.003 -16.807  1.00  0.00     0.016 C 
HETATM   15  C24 UNL     1     -23.653 -52.245 -15.917  1.00  0.00     0.033 C 
HETATM   16  C25 UNL     1     -23.613 -52.573 -14.453  1.00  0.00     0.114 C 
ENDROOT
BRANCH   1  17
HETATM   17  O2  UNL     1     -25.059 -53.619 -12.829  1.00  0.00    -0.381 OA
BRANCH  17  18
HETATM   18  C9  UNL     1     -26.409 -53.721 -12.529  1.00  0.00     0.199 C 
BRANCH  18  19
HETATM   19  C8  UNL     1     -26.604 -53.525 -11.038  1.00  0.00     0.142 C 
BRANCH  19  20
HETATM   20  C7  UNL     1     -26.213 -54.762 -10.270  1.00  0.00     0.039 C 
BRANCH  20  21
HETATM   21  C6  UNL     1     -27.113 -55.090  -9.137  1.00  0.00    -0.007 C 
HETATM   22  C5  UNL     1     -28.153 -56.111  -9.640  1.00  0.00     0.010 C 
HETATM   23  C4  UNL     1     -27.942 -57.180  -8.606  1.00  0.00    -0.006 C 
HETATM   24  C2  UNL     1     -27.774 -56.410  -7.322  1.00  0.00    -0.040 C 
HETATM   25  C29 UNL     1     -26.408 -57.274  -8.598  1.00  0.00     0.011 C 
HETATM   26  C1  UNL     1     -28.815 -55.381  -7.022  1.00  0.00     0.015 C 
HETATM   27  C3  UNL     1     -27.361 -57.249  -6.130  1.00  0.00     0.015 C 
HETATM   28  C28 UNL     1     -26.521 -55.859  -8.025  1.00  0.00    -0.002 C 
ENDBRANCH  20  21
ENDBRANCH  19  20
BRANCH  19  29
HETATM   29  O1  UNL     1     -25.720 -52.506 -10.650  1.00  0.00    -0.393 OA
ATOM     30  H1  UNL     1     -25.708 -52.496  -9.700  1.00  0.00     0.210 HD
ENDBRANCH  19  29
ENDBRANCH  18  19
ENDBRANCH  17  18
ENDBRANCH   1  17
BRANCH  16  31
HETATM   31  N1  UNL     1     -23.764 -51.357 -13.681  1.00  0.00    -0.352 N 
HETATM   32  C26 UNL     1     -22.823 -51.073 -12.660  1.00  0.00     0.241 C 
HETATM   33  O5  UNL     1     -21.865 -51.845 -12.407  1.00  0.00    -0.271 OA
ATOM     34  H1  UNL     1     -24.535 -50.716 -13.868  1.00  0.00     0.163 HD
BRANCH  32  35
HETATM   35  C27 UNL     1     -22.953 -49.838 -11.854  1.00  0.00     0.266 C 
BRANCH  35  36
HETATM   36  O6  UNL     1     -23.684 -50.048 -10.694  1.00  0.00    -0.392 OA
ATOM     37  H6  UNL     1     -24.441 -49.477 -10.642  1.00  0.00     0.210 HD
ENDBRANCH  35  36
ENDBRANCH  32  35
ENDBRANCH  16  31
BRANCH  11  38
HETATM   38  O4  UNL     1     -28.542 -54.842 -17.709  1.00  0.00    -0.393 OA
ATOM     39  H4  UNL     1     -29.218 -55.317 -17.238  1.00  0.00     0.210 HD
ENDBRANCH  11  38
BRANCH  10  40
HETATM   40  O3  UNL     1     -27.889 -56.380 -20.129  1.00  0.00    -0.393 OA
ATOM     41  H3  UNL     1     -27.470 -56.450 -20.980  1.00  0.00     0.210 HD
ENDBRANCH  10  40
TORSDOF 11
ENDMDL
