MODEL 1
REMARK VINA RESULT: -8.149869363      0.000      0.000
REMARK  9 active torsions:
REMARK  status: ('A' for Active; 'I' for Inactive)
REMARK    1  A    between atoms: C2_2  and  C3_3 
REMARK    2  A    between atoms: C2_2  and  N1_6 
REMARK    3  A    between atoms: C3_3  and  O1_4 
REMARK       I    between atoms: N1_6  and  C4_8 
REMARK       I    between atoms: C4_8  and  N2_10 
REMARK    4  A    between atoms: N2_10  and  C6_12 
REMARK    5  A    between atoms: C17_26  and  C18_27 
REMARK    6  A    between atoms: C23_35  and  O3_36 
REMARK    7  A    between atoms: N5_38  and  C24_39 
REMARK    8  A    between atoms: C24_39  and  C26_41 
REMARK    9  A    between atoms: C26_41  and  O4_42 
ROOT
HETATM    1  C6  UNL     1      51.822  22.161  11.311  1.00  0.00     0.098 C 
HETATM    2  C7  UNL     1      52.602  23.027  12.166  1.00  0.00    -0.056 C 
HETATM    3  C8  UNL     1      52.542  24.497  12.066  1.00  0.00     0.037 C 
HETATM    4  C9  UNL     1      53.694  25.229  11.423  1.00  0.00     0.013 C 
HETATM    5  C10 UNL     1      54.229  26.382  12.222  1.00  0.00     0.090 C 
HETATM    6  C11 UNL     1      55.613  26.240  12.736  1.00  0.00     0.165 C 
HETATM    7  F1  UNL     1      56.553  25.974  11.761  1.00  0.00    -0.191 F 
HETATM    8  N3  UNL     1      56.017  26.320  13.937  1.00  0.00    -0.335 N 
ATOM      9  H3  UNL     1      57.027  26.174  13.924  1.00  0.00     0.168 HD
HETATM   10  C12 UNL     1      55.653  26.523  15.250  1.00  0.00     0.059 A 
HETATM   11  C13 UNL     1      55.353  25.409  16.100  1.00  0.00     0.043 A 
HETATM   12  C14 UNL     1      54.951  25.650  17.409  1.00  0.00     0.018 A 
HETATM   13  C15 UNL     1      54.838  26.915  17.907  1.00  0.00     0.002 A 
HETATM   14  C16 UNL     1      55.124  27.971  17.112  1.00  0.00     0.014 A 
HETATM   15  C17 UNL     1      55.543  27.819  15.766  1.00  0.00    -0.006 A 
HETATM   16  C23 UNL     1      55.551  23.997  15.814  1.00  0.00     0.155 C 
HETATM   17  N5  UNL     1      55.146  23.090  14.821  1.00  0.00    -0.334 N 
HETATM   18  C27 UNL     1      54.035  23.267  14.011  1.00  0.00     0.075 C 
HETATM   19  C28 UNL     1      52.889  22.509  13.614  1.00  0.00     0.050 C 
HETATM   20  C29 UNL     1      52.949  21.035  13.677  1.00  0.00     0.020 C 
ENDROOT
BRANCH   1  21
HETATM   21  N2  UNL     1      50.422  22.187  11.177  1.00  0.00    -0.314 N 
HETATM   22  C4  UNL     1      49.574  21.151  11.632  1.00  0.00     0.322 C 
HETATM   23  N1  UNL     1      48.163  21.115  11.505  1.00  0.00    -0.336 N 
HETATM   24  O2  UNL     1      50.088  20.134  12.223  1.00  0.00    -0.247 OA
ATOM     25  H1  UNL     1      47.690  21.886  11.035  1.00  0.00     0.164 HD
HETATM   26  C5  UNL     1      49.757  23.297  10.551  1.00  0.00     0.160 C 
BRANCH  23  27
HETATM   27  C2  UNL     1      47.369  20.015  12.025  1.00  0.00     0.105 C 
HETATM   28  C1  UNL     1      47.545  18.724  11.274  1.00  0.00     0.034 C 
BRANCH  27  29
HETATM   29  C3  UNL     1      45.872  20.367  11.922  1.00  0.00     0.189 C 
BRANCH  29  30
HETATM   30  O1  UNL     1      45.558  21.421  12.774  1.00  0.00    -0.399 OA
ATOM     31  H1  UNL     1      44.623  21.449  12.940  1.00  0.00     0.209 HD
ENDBRANCH  29  30
ENDBRANCH  27  29
ENDBRANCH  23  27
ENDBRANCH   1  21
BRANCH  17  32
HETATM   32  C24 UNL     1      55.986  21.923  14.600  1.00  0.00     0.110 C 
HETATM   33  C25 UNL     1      56.248  21.606  13.149  1.00  0.00     0.035 C 
BRANCH  32  34
HETATM   34  C26 UNL     1      55.320  20.658  15.177  1.00  0.00     0.189 C 
BRANCH  34  35
HETATM   35  O4  UNL     1      55.845  20.518  16.460  1.00  0.00    -0.399 OA
ATOM     36  H4  UNL     1      55.092  20.431  17.032  1.00  0.00     0.209 HD
ENDBRANCH  34  35
ENDBRANCH  32  34
ENDBRANCH  17  32
BRANCH  16  37
HETATM   37  O3  UNL     1      56.311  23.398  16.719  1.00  0.00    -0.345 OA
ATOM     38  H3  UNL     1      57.218  23.678  16.675  1.00  0.00     0.219 HD
ENDBRANCH  16  37
BRANCH  15  39
HETATM   39  C18 UNL     1      55.785  29.103  15.092  1.00  0.00    -0.064 C 
HETATM   40  C19 UNL     1      57.251  29.481  15.024  1.00  0.00     0.062 C 
HETATM   41  C20 UNL     1      57.622  29.262  13.520  1.00  0.00     0.236 C 
HETATM   42  N4  UNL     1      57.039  30.321  12.747  1.00  0.00    -0.075 N 
HETATM   43  C21 UNL     1      55.811  30.797  13.341  1.00  0.00     0.236 C 
ATOM     44  H42 UNL     1      57.701  31.083  12.598  1.00  0.00     0.277 HD
ATOM     45  H41 UNL     1      56.899  30.041  11.776  1.00  0.00     0.277 HD
HETATM   46  C22 UNL     1      55.075  29.537  13.906  1.00  0.00     0.062 C 
ENDBRANCH  15  39
TORSDOF 9
ENDMDL
MODEL 2
REMARK VINA RESULT: -7.868073001      0.758      1.075
REMARK  9 active torsions:
REMARK  status: ('A' for Active; 'I' for Inactive)
REMARK    1  A    between atoms: C2_2  and  C3_3 
REMARK    2  A    between atoms: C2_2  and  N1_6 
REMARK    3  A    between atoms: C3_3  and  O1_4 
REMARK       I    between atoms: N1_6  and  C4_8 
REMARK       I    between atoms: C4_8  and  N2_10 
REMARK    4  A    between atoms: N2_10  and  C6_12 
REMARK    5  A    between atoms: C17_26  and  C18_27 
REMARK    6  A    between atoms: C23_35  and  O3_36 
REMARK    7  A    between atoms: N5_38  and  C24_39 
REMARK    8  A    between atoms: C24_39  and  C26_41 
REMARK    9  A    between atoms: C26_41  and  O4_42 
ROOT
HETATM    1  C6  UNL     1      51.849  22.085  11.349  1.00  0.00     0.098 C 
HETATM    2  C7  UNL     1      52.701  23.033  12.031  1.00  0.00    -0.056 C 
HETATM    3  C8  UNL     1      52.714  24.468  11.693  1.00  0.00     0.037 C 
HETATM    4  C9  UNL     1      53.880  25.019  10.909  1.00  0.00     0.013 C 
HETATM    5  C10 UNL     1      54.501  26.255  11.494  1.00  0.00     0.090 C 
HETATM    6  C11 UNL     1      55.892  26.120  11.989  1.00  0.00     0.165 C 
HETATM    7  F1  UNL     1      56.784  25.647  11.048  1.00  0.00    -0.191 F 
HETATM    8  N3  UNL     1      56.342  26.371  13.151  1.00  0.00    -0.335 N 
ATOM      9  H3  UNL     1      57.341  26.168  13.136  1.00  0.00     0.168 HD
HETATM   10  C12 UNL     1      56.034  26.804  14.422  1.00  0.00     0.059 A 
HETATM   11  C13 UNL     1      55.706  25.862  15.450  1.00  0.00     0.043 A 
HETATM   12  C14 UNL     1      55.362  26.335  16.711  1.00  0.00     0.018 A 
HETATM   13  C15 UNL     1      55.331  27.668  16.998  1.00  0.00     0.002 A 
HETATM   14  C16 UNL     1      55.644  28.563  16.034  1.00  0.00     0.014 A 
HETATM   15  C17 UNL     1      56.009  28.172  14.721  1.00  0.00    -0.006 A 
HETATM   16  C23 UNL     1      55.821  24.414  15.394  1.00  0.00     0.155 C 
HETATM   17  N5  UNL     1      55.335  23.382  14.574  1.00  0.00    -0.334 N 
HETATM   18  C27 UNL     1      54.207  23.488  13.774  1.00  0.00     0.075 C 
HETATM   19  C28 UNL     1      53.011  22.741  13.537  1.00  0.00     0.050 C 
HETATM   20  C29 UNL     1      52.996  21.296  13.839  1.00  0.00     0.020 C 
ENDROOT
BRANCH   1  21
HETATM   21  N2  UNL     1      50.448  22.169  11.249  1.00  0.00    -0.314 N 
HETATM   22  C4  UNL     1      49.572  21.136  11.657  1.00  0.00     0.322 C 
HETATM   23  N1  UNL     1      48.158  21.158  11.560  1.00  0.00    -0.336 N 
HETATM   24  O2  UNL     1      50.061  20.067  12.172  1.00  0.00    -0.247 OA
ATOM     25  H1  UNL     1      47.704  21.973  11.149  1.00  0.00     0.164 HD
HETATM   26  C5  UNL     1      49.811  23.338  10.709  1.00  0.00     0.160 C 
BRANCH  23  27
HETATM   27  C2  UNL     1      47.336  20.055  12.027  1.00  0.00     0.105 C 
HETATM   28  C1  UNL     1      47.555  18.768  11.281  1.00  0.00     0.034 C 
BRANCH  27  29
HETATM   29  C3  UNL     1      45.847  20.409  11.841  1.00  0.00     0.189 C 
BRANCH  29  30
HETATM   30  O1  UNL     1      45.455  21.375  12.762  1.00  0.00    -0.399 OA
ATOM     31  H1  UNL     1      44.705  21.075  13.262  1.00  0.00     0.209 HD
ENDBRANCH  29  30
ENDBRANCH  27  29
ENDBRANCH  23  27
ENDBRANCH   1  21
BRANCH  17  32
HETATM   32  C24 UNL     1      56.105  22.149  14.526  1.00  0.00     0.110 C 
HETATM   33  C25 UNL     1      56.297  21.584  13.141  1.00  0.00     0.035 C 
BRANCH  32  34
HETATM   34  C26 UNL     1      55.397  21.036  15.324  1.00  0.00     0.189 C 
BRANCH  34  35
HETATM   35  O4  UNL     1      55.929  21.108  16.609  1.00  0.00    -0.399 OA
ATOM     36  H4  UNL     1      56.658  20.500  16.614  1.00  0.00     0.209 HD
ENDBRANCH  34  35
ENDBRANCH  32  34
ENDBRANCH  17  32
BRANCH  16  37
HETATM   37  O3  UNL     1      56.579  23.927  16.366  1.00  0.00    -0.345 OA
ATOM     38  H3  UNL     1      57.158  23.237  16.064  1.00  0.00     0.219 HD
ENDBRANCH  16  37
BRANCH  15  39
HETATM   39  C18 UNL     1      56.293  29.313  13.840  1.00  0.00    -0.064 C 
HETATM   40  C19 UNL     1      55.214  30.376  13.862  1.00  0.00     0.062 C 
HETATM   41  C20 UNL     1      55.865  31.551  14.663  1.00  0.00     0.236 C 
HETATM   42  N4  UNL     1      56.845  32.186  13.827  1.00  0.00    -0.075 N 
HETATM   43  C21 UNL     1      57.440  31.248  12.904  1.00  0.00     0.236 C 
ATOM     44  H42 UNL     1      56.453  32.993  13.340  1.00  0.00     0.277 HD
ATOM     45  H41 UNL     1      57.554  32.665  14.381  1.00  0.00     0.277 HD
HETATM   46  C22 UNL     1      57.608  29.903  13.684  1.00  0.00     0.062 C 
ENDBRANCH  15  39
TORSDOF 9
ENDMDL
MODEL 3
REMARK VINA RESULT: -7.569363132      3.736      8.966
REMARK  9 active torsions:
REMARK  status: ('A' for Active; 'I' for Inactive)
REMARK    1  A    between atoms: C2_2  and  C3_3 
REMARK    2  A    between atoms: C2_2  and  N1_6 
REMARK    3  A    between atoms: C3_3  and  O1_4 
REMARK       I    between atoms: N1_6  and  C4_8 
REMARK       I    between atoms: C4_8  and  N2_10 
REMARK    4  A    between atoms: N2_10  and  C6_12 
REMARK    5  A    between atoms: C17_26  and  C18_27 
REMARK    6  A    between atoms: C23_35  and  O3_36 
REMARK    7  A    between atoms: N5_38  and  C24_39 
REMARK    8  A    between atoms: C24_39  and  C26_41 
REMARK    9  A    between atoms: C26_41  and  O4_42 
ROOT
HETATM    1  C6  UNL     1      56.751  27.038  11.534  1.00  0.00     0.098 C 
HETATM    2  C7  UNL     1      55.963  25.855  11.798  1.00  0.00    -0.056 C 
HETATM    3  C8  UNL     1      54.859  25.430  10.919  1.00  0.00     0.037 C 
HETATM    4  C9  UNL     1      53.438  25.650  11.380  1.00  0.00     0.013 C 
HETATM    5  C10 UNL     1      52.552  24.442  11.275  1.00  0.00     0.090 C 
HETATM    6  C11 UNL     1      52.063  23.874  12.555  1.00  0.00     0.165 C 
HETATM    7  F1  UNL     1      51.394  24.778  13.356  1.00  0.00    -0.191 F 
HETATM    8  N3  UNL     1      52.196  22.688  12.991  1.00  0.00    -0.335 N 
ATOM      9  H3  UNL     1      51.735  22.649  13.900  1.00  0.00     0.168 HD
HETATM   10  C12 UNL     1      52.707  21.434  12.740  1.00  0.00     0.059 A 
HETATM   11  C13 UNL     1      54.008  21.071  13.217  1.00  0.00     0.043 A 
HETATM   12  C14 UNL     1      54.510  19.811  12.914  1.00  0.00     0.018 A 
HETATM   13  C15 UNL     1      53.799  18.910  12.178  1.00  0.00     0.002 A 
HETATM   14  C16 UNL     1      52.568  19.243  11.728  1.00  0.00     0.014 A 
HETATM   15  C17 UNL     1      51.976  20.504  11.992  1.00  0.00    -0.006 A 
HETATM   16  C23 UNL     1      54.857  21.820  14.131  1.00  0.00     0.155 C 
HETATM   17  N5  UNL     1      55.419  23.107  14.180  1.00  0.00    -0.334 N 
HETATM   18  C27 UNL     1      55.625  23.910  13.069  1.00  0.00     0.075 C 
HETATM   19  C28 UNL     1      56.698  24.666  12.500  1.00  0.00     0.050 C 
HETATM   20  C29 UNL     1      57.793  25.126  13.377  1.00  0.00     0.020 C 
ENDROOT
BRANCH   1  21
HETATM   21  N2  UNL     1      57.470  27.296  10.352  1.00  0.00    -0.314 N 
HETATM   22  C4  UNL     1      57.013  28.165   9.334  1.00  0.00     0.322 C 
HETATM   23  N1  UNL     1      57.684  28.445   8.117  1.00  0.00    -0.336 N 
HETATM   24  O2  UNL     1      55.896  28.778   9.487  1.00  0.00    -0.247 OA
ATOM     25  H1  UNL     1      58.571  27.981   7.924  1.00  0.00     0.164 HD
HETATM   26  C5  UNL     1      58.741  26.673  10.105  1.00  0.00     0.160 C 
BRANCH  23  27
HETATM   27  C2  UNL     1      57.147  29.371   7.135  1.00  0.00     0.105 C 
HETATM   28  C1  UNL     1      57.496  29.028   5.713  1.00  0.00     0.034 C 
BRANCH  27  29
HETATM   29  C3  UNL     1      57.721  30.779   7.388  1.00  0.00     0.189 C 
BRANCH  29  30
HETATM   30  O1  UNL     1      56.862  31.520   8.194  1.00  0.00    -0.399 OA
ATOM     31  H1  UNL     1      57.342  31.933   8.902  1.00  0.00     0.209 HD
ENDBRANCH  29  30
ENDBRANCH  27  29
ENDBRANCH  23  27
ENDBRANCH   1  21
BRANCH  17  32
HETATM   32  C24 UNL     1      55.746  23.642  15.493  1.00  0.00     0.110 C 
HETATM   33  C25 UNL     1      56.759  22.833  16.263  1.00  0.00     0.035 C 
BRANCH  32  34
HETATM   34  C26 UNL     1      54.492  23.683  16.389  1.00  0.00     0.189 C 
BRANCH  34  35
HETATM   35  O4  UNL     1      54.804  22.898  17.496  1.00  0.00    -0.399 OA
ATOM     36  H4  UNL     1      55.189  23.493  18.127  1.00  0.00     0.209 HD
ENDBRANCH  34  35
ENDBRANCH  32  34
ENDBRANCH  17  32
BRANCH  16  37
HETATM   37  O3  UNL     1      55.198  21.115  15.200  1.00  0.00    -0.345 OA
ATOM     38  H3  UNL     1      56.010  21.416  15.589  1.00  0.00     0.219 HD
ENDBRANCH  16  37
BRANCH  15  39
HETATM   39  C18 UNL     1      50.641  20.648  11.394  1.00  0.00    -0.064 C 
HETATM   40  C19 UNL     1      50.207  19.438  10.590  1.00  0.00     0.062 C 
HETATM   41  C20 UNL     1      49.117  18.766  11.488  1.00  0.00     0.236 C 
HETATM   42  N4  UNL     1      47.924  19.563  11.432  1.00  0.00    -0.075 N 
HETATM   43  C21 UNL     1      48.230  20.960  11.231  1.00  0.00     0.236 C 
ATOM     44  H42 UNL     1      47.277  19.217  10.724  1.00  0.00     0.277 HD
ATOM     45  H41 UNL     1      47.343  19.424  12.259  1.00  0.00     0.277 HD
HETATM   46  C22 UNL     1      49.515  21.259  12.071  1.00  0.00     0.062 C 
ENDBRANCH  15  39
TORSDOF 9
ENDMDL
MODEL 4
REMARK VINA RESULT: -7.535323374      1.990      2.500
REMARK  9 active torsions:
REMARK  status: ('A' for Active; 'I' for Inactive)
REMARK    1  A    between atoms: C2_2  and  C3_3 
REMARK    2  A    between atoms: C2_2  and  N1_6 
REMARK    3  A    between atoms: C3_3  and  O1_4 
REMARK       I    between atoms: N1_6  and  C4_8 
REMARK       I    between atoms: C4_8  and  N2_10 
REMARK    4  A    between atoms: N2_10  and  C6_12 
REMARK    5  A    between atoms: C17_26  and  C18_27 
REMARK    6  A    between atoms: C23_35  and  O3_36 
REMARK    7  A    between atoms: N5_38  and  C24_39 
REMARK    8  A    between atoms: C24_39  and  C26_41 
REMARK    9  A    between atoms: C26_41  and  O4_42 
ROOT
HETATM    1  C6  UNL     1      52.573  21.399  12.419  1.00  0.00     0.098 C 
HETATM    2  C7  UNL     1      53.130  22.206  13.481  1.00  0.00    -0.056 C 
HETATM    3  C8  UNL     1      53.390  23.649  13.322  1.00  0.00     0.037 C 
HETATM    4  C9  UNL     1      54.814  24.116  13.145  1.00  0.00     0.013 C 
HETATM    5  C10 UNL     1      55.223  25.240  14.052  1.00  0.00     0.090 C 
HETATM    6  C11 UNL     1      56.266  24.925  15.058  1.00  0.00     0.165 C 
HETATM    7  F1  UNL     1      57.432  24.414  14.524  1.00  0.00    -0.191 F 
HETATM    8  N3  UNL     1      56.205  25.057  16.321  1.00  0.00    -0.335 N 
ATOM      9  H3  UNL     1      57.102  24.748  16.698  1.00  0.00     0.168 HD
HETATM   10  C12 UNL     1      55.427  25.445  17.389  1.00  0.00     0.059 A 
HETATM   11  C13 UNL     1      54.631  24.486  18.094  1.00  0.00     0.043 A 
HETATM   12  C14 UNL     1      53.827  24.917  19.143  1.00  0.00     0.018 A 
HETATM   13  C15 UNL     1      53.779  26.227  19.521  1.00  0.00     0.002 A 
HETATM   14  C16 UNL     1      54.532  27.137  18.865  1.00  0.00     0.014 A 
HETATM   15  C17 UNL     1      55.381  26.787  17.785  1.00  0.00    -0.006 A 
HETATM   16  C23 UNL     1      54.651  23.039  17.947  1.00  0.00     0.155 C 
HETATM   17  N5  UNL     1      54.477  22.116  16.902  1.00  0.00    -0.334 N 
HETATM   18  C27 UNL     1      53.799  22.391  15.725  1.00  0.00     0.075 C 
HETATM   19  C28 UNL     1      52.759  21.794  14.944  1.00  0.00     0.050 C 
HETATM   20  C29 UNL     1      52.512  20.344  15.069  1.00  0.00     0.020 C 
ENDROOT
BRANCH   1  21
HETATM   21  N2  UNL     1      51.354  21.640  11.762  1.00  0.00    -0.314 N 
HETATM   22  C4  UNL     1      50.307  20.692  11.684  1.00  0.00     0.322 C 
HETATM   23  N1  UNL     1      49.068  20.872  11.018  1.00  0.00    -0.336 N 
HETATM   24  O2  UNL     1      50.449  19.552  12.258  1.00  0.00    -0.247 OA
ATOM     25  H1  UNL     1      48.894  21.750  10.530  1.00  0.00     0.164 HD
HETATM   26  C5  UNL     1      51.095  22.895  11.112  1.00  0.00     0.160 C 
BRANCH  23  27
HETATM   27  C2  UNL     1      48.040  19.846  11.009  1.00  0.00     0.105 C 
HETATM   28  C1  UNL     1      46.910  20.102  11.967  1.00  0.00     0.034 C 
BRANCH  27  29
HETATM   29  C3  UNL     1      48.657  18.496  11.427  1.00  0.00     0.189 C 
BRANCH  29  30
HETATM   30  O1  UNL     1      49.202  17.845  10.324  1.00  0.00    -0.399 OA
ATOM     31  H1  UNL     1      50.087  17.555  10.512  1.00  0.00     0.209 HD
ENDBRANCH  29  30
ENDBRANCH  27  29
ENDBRANCH  23  27
ENDBRANCH   1  21
BRANCH  17  32
HETATM   32  C24 UNL     1      55.103  20.812  17.053  1.00  0.00     0.110 C 
HETATM   33  C25 UNL     1      55.684  20.245  15.781  1.00  0.00     0.035 C 
BRANCH  32  34
HETATM   34  C26 UNL     1      54.073  19.768  17.529  1.00  0.00     0.189 C 
BRANCH  34  35
HETATM   35  O4  UNL     1      54.460  19.431  18.823  1.00  0.00    -0.399 OA
ATOM     36  H4  UNL     1      55.162  20.032  19.041  1.00  0.00     0.209 HD
ENDBRANCH  34  35
ENDBRANCH  32  34
ENDBRANCH  17  32
BRANCH  16  37
HETATM   37  O3  UNL     1      54.895  22.416  19.091  1.00  0.00    -0.345 OA
ATOM     38  H3  UNL     1      55.048  23.021  19.808  1.00  0.00     0.219 HD
ENDBRANCH  16  37
BRANCH  15  39
HETATM   39  C18 UNL     1      56.092  27.941  17.216  1.00  0.00    -0.064 C 
HETATM   40  C19 UNL     1      57.530  28.052  17.681  1.00  0.00     0.062 C 
HETATM   41  C20 UNL     1      58.361  27.632  16.425  1.00  0.00     0.236 C 
HETATM   42  N4  UNL     1      58.310  28.699  15.465  1.00  0.00    -0.075 N 
HETATM   43  C21 UNL     1      57.069  29.433  15.557  1.00  0.00     0.236 C 
ATOM     44  H42 UNL     1      59.117  29.318  15.552  1.00  0.00     0.277 HD
ATOM     45  H41 UNL     1      58.473  28.358  14.519  1.00  0.00     0.277 HD
HETATM   46  C22 UNL     1      55.950  28.378  15.842  1.00  0.00     0.062 C 
ENDBRANCH  15  39
TORSDOF 9
ENDMDL
MODEL 5
REMARK VINA RESULT: -7.400788223      4.900      8.635
REMARK  9 active torsions:
REMARK  status: ('A' for Active; 'I' for Inactive)
REMARK    1  A    between atoms: C2_2  and  C3_3 
REMARK    2  A    between atoms: C2_2  and  N1_6 
REMARK    3  A    between atoms: C3_3  and  O1_4 
REMARK       I    between atoms: N1_6  and  C4_8 
REMARK       I    between atoms: C4_8  and  N2_10 
REMARK    4  A    between atoms: N2_10  and  C6_12 
REMARK    5  A    between atoms: C17_26  and  C18_27 
REMARK    6  A    between atoms: C23_35  and  O3_36 
REMARK    7  A    between atoms: N5_38  and  C24_39 
REMARK    8  A    between atoms: C24_39  and  C26_41 
REMARK    9  A    between atoms: C26_41  and  O4_42 
ROOT
HETATM    1  C6  UNL     1      55.767  27.384   9.033  1.00  0.00     0.098 C 
HETATM    2  C7  UNL     1      55.543  26.983  10.404  1.00  0.00    -0.056 C 
HETATM    3  C8  UNL     1      55.362  25.573  10.794  1.00  0.00     0.037 C 
HETATM    4  C9  UNL     1      53.976  25.088  11.142  1.00  0.00     0.013 C 
HETATM    5  C10 UNL     1      53.882  24.335  12.438  1.00  0.00     0.090 C 
HETATM    6  C11 UNL     1      53.090  24.978  13.515  1.00  0.00     0.165 C 
HETATM    7  F1  UNL     1      51.795  25.292  13.154  1.00  0.00    -0.191 F 
HETATM    8  N3  UNL     1      53.461  25.275  14.693  1.00  0.00    -0.335 N 
ATOM      9  H3  UNL     1      52.660  25.701  15.161  1.00  0.00     0.168 HD
HETATM   10  C12 UNL     1      54.499  25.258  15.598  1.00  0.00     0.059 A 
HETATM   11  C13 UNL     1      55.367  26.391  15.728  1.00  0.00     0.043 A 
HETATM   12  C14 UNL     1      56.429  26.327  16.623  1.00  0.00     0.018 A 
HETATM   13  C15 UNL     1      56.665  25.219  17.382  1.00  0.00     0.002 A 
HETATM   14  C16 UNL     1      55.847  24.148  17.269  1.00  0.00     0.014 A 
HETATM   15  C17 UNL     1      54.739  24.126  16.384  1.00  0.00    -0.006 A 
HETATM   16  C23 UNL     1      55.204  27.705  15.127  1.00  0.00     0.155 C 
HETATM   17  N5  UNL     1      55.052  28.224  13.831  1.00  0.00    -0.334 N 
HETATM   18  C27 UNL     1      55.447  27.565  12.677  1.00  0.00     0.075 C 
HETATM   19  C28 UNL     1      56.221  27.857  11.510  1.00  0.00     0.050 C 
HETATM   20  C29 UNL     1      56.381  29.263  11.090  1.00  0.00     0.020 C 
ENDROOT
BRANCH   1  21
HETATM   21  N2  UNL     1      56.808  26.926   8.206  1.00  0.00    -0.314 N 
HETATM   22  C4  UNL     1      57.023  27.393   6.889  1.00  0.00     0.322 C 
HETATM   23  N1  UNL     1      58.040  26.953   6.005  1.00  0.00    -0.336 N 
HETATM   24  O2  UNL     1      56.251  28.302   6.412  1.00  0.00    -0.247 OA
ATOM     25  H1  UNL     1      58.681  26.223   6.315  1.00  0.00     0.164 HD
HETATM   26  C5  UNL     1      57.735  25.928   8.664  1.00  0.00     0.160 C 
BRANCH  23  27
HETATM   27  C2  UNL     1      58.198  27.508   4.672  1.00  0.00     0.105 C 
HETATM   28  C1  UNL     1      58.859  26.576   3.694  1.00  0.00     0.034 C 
BRANCH  27  29
HETATM   29  C3  UNL     1      59.094  28.761   4.739  1.00  0.00     0.189 C 
BRANCH  29  30
HETATM   30  O1  UNL     1      58.318  29.914   4.805  1.00  0.00    -0.399 OA
ATOM     31  H1  UNL     1      58.690  30.598   4.262  1.00  0.00     0.209 HD
ENDBRANCH  29  30
ENDBRANCH  27  29
ENDBRANCH  23  27
ENDBRANCH   1  21
BRANCH  17  32
HETATM   32  C24 UNL     1      54.384  29.510  13.701  1.00  0.00     0.110 C 
HETATM   33  C25 UNL     1      53.453  29.615  12.519  1.00  0.00     0.035 C 
BRANCH  32  34
HETATM   34  C26 UNL     1      55.415  30.639  13.506  1.00  0.00     0.189 C 
BRANCH  34  35
HETATM   35  O4  UNL     1      55.476  31.299  14.731  1.00  0.00    -0.399 OA
ATOM     36  H4  UNL     1      56.330  31.088  15.088  1.00  0.00     0.209 HD
ENDBRANCH  34  35
ENDBRANCH  32  34
ENDBRANCH  17  32
BRANCH  16  37
HETATM   37  O3  UNL     1      55.195  28.676  16.029  1.00  0.00    -0.345 OA
ATOM     38  H3  UNL     1      55.562  28.403  16.861  1.00  0.00     0.219 HD
ENDBRANCH  16  37
BRANCH  15  39
HETATM   39  C18 UNL     1      54.002  22.855  16.420  1.00  0.00    -0.064 C 
HETATM   40  C19 UNL     1      54.420  21.884  15.334  1.00  0.00     0.062 C 
HETATM   41  C20 UNL     1      55.229  20.790  16.105  1.00  0.00     0.236 C 
HETATM   42  N4  UNL     1      54.307  19.977  16.846  1.00  0.00    -0.075 N 
HETATM   43  C21 UNL     1      53.144  20.732  17.253  1.00  0.00     0.236 C 
ATOM     44  H42 UNL     1      54.045  19.140  16.325  1.00  0.00     0.277 HD
ATOM     45  H41 UNL     1      54.760  19.531  17.644  1.00  0.00     0.277 HD
HETATM   46  C22 UNL     1      53.656  22.158  17.643  1.00  0.00     0.062 C 
ENDBRANCH  15  39
TORSDOF 9
ENDMDL
