MODEL 1
REMARK VINA RESULT: -8.843163269      0.000      0.000
REMARK  1 active torsions:
REMARK  status: ('A' for Active; 'I' for Inactive)
REMARK    1  A    between atoms: C17_22  and  C18_23 
ROOT
HETATM    1  C1  UNL     1      -5.550  14.928 -11.724  1.00  0.00     0.018 C 
HETATM    2  C2  UNL     1      -4.167  14.605 -11.139  1.00  0.00     0.050 C 
HETATM    3  C3  UNL     1      -4.337  14.019  -9.779  1.00  0.00     0.047 C 
HETATM    4  C4  UNL     1      -4.501  12.545  -9.731  1.00  0.00     0.223 C 
HETATM    5  C5  UNL     1      -5.910  12.047  -9.843  1.00  0.00     0.037 C 
HETATM    6  C6  UNL     1      -5.767  10.614  -9.363  1.00  0.00     0.032 C 
HETATM    7  C7  UNL     1      -4.630  10.699  -8.376  1.00  0.00     0.273 C 
HETATM    8  N1  UNL     1      -4.110  12.048  -8.427  1.00  0.00     0.093 N 
HETATM    9  C8  UNL     1      -4.627  12.798  -7.328  1.00  0.00     0.273 C 
HETATM   10  C9  UNL     1      -3.832  12.474  -6.082  1.00  0.00     0.031 C 
HETATM   11  C10 UNL     1      -3.644  13.682  -5.200  1.00  0.00     0.011 C 
HETATM   12  C11 UNL     1      -2.539  14.591  -5.642  1.00  0.00     0.105 C 
HETATM   13  C12 UNL     1      -1.192  14.111  -5.234  1.00  0.00     0.238 C 
HETATM   14  O1  UNL     1      -0.758  13.099  -5.865  1.00  0.00    -0.272 OA
HETATM   15  N2  UNL     1      -0.371  14.653  -4.240  1.00  0.00    -0.256 N 
HETATM   16  C13 UNL     1       0.444  13.955  -3.232  1.00  0.00     0.154 C 
HETATM   17  C14 UNL     1      -0.039  14.701  -2.008  1.00  0.00     0.044 C 
HETATM   18  C15 UNL     1      -0.039  16.127  -2.491  1.00  0.00     0.154 C 
HETATM   19  N3  UNL     1      -0.145  16.017  -3.960  1.00  0.00    -0.255 N 
HETATM   20  C16 UNL     1      -0.056  17.063  -4.913  1.00  0.00     0.269 C 
HETATM   21  O2  UNL     1      -0.808  18.083  -4.647  1.00  0.00    -0.269 OA
HETATM   22  C17 UNL     1       0.751  17.150  -6.129  1.00  0.00     0.282 C 
HETATM   23  N4  UNL     1       0.575  16.121  -7.101  1.00  0.00    -0.062 N 
ATOM     24  H41 UNL     1      -0.301  15.622  -6.946  1.00  0.00     0.278 HD
ATOM     25  H42 UNL     1       1.233  15.357  -6.943  1.00  0.00     0.278 HD
HETATM   26  C21 UNL     1       0.660  16.603  -8.471  1.00  0.00     0.233 C 
HETATM   27  C22 UNL     1       1.391  15.622  -9.319  1.00  0.00     0.027 C 
HETATM   28  C23 UNL     1       0.722  15.301 -10.629  1.00  0.00     0.003 C 
HETATM   29  C24 UNL     1      -0.753  15.021 -10.470  1.00  0.00     0.020 C 
HETATM   30  C25 UNL     1      -1.052  13.688 -11.048  1.00  0.00     0.121 C 
HETATM   31  N5  UNL     1      -1.971  13.728 -12.176  1.00  0.00    -0.380 N 
ATOM     32  H5  UNL     1      -1.566  13.722 -13.111  1.00  0.00     0.160 HD
HETATM   33  C26 UNL     1      -3.383  13.775 -12.080  1.00  0.00     0.074 C 
HETATM   34  N6  UNL     1      -4.073  13.034 -12.882  1.00  0.00    -0.389 N 
ATOM     35  H61 UNL     1      -3.532  12.462 -13.529  1.00  0.00     0.157 HD
ATOM     36  H62 UNL     1      -5.090  13.067 -12.812  1.00  0.00     0.157 HD
ENDROOT
BRANCH  22  37
HETATM   37  C18 UNL     1       2.235  17.338  -5.886  1.00  0.00     0.017 C 
HETATM   38  C19 UNL     1       2.513  18.445  -4.896  1.00  0.00     0.012 C 
HETATM   39  C20 UNL     1       3.013  16.140  -5.566  1.00  0.00     0.012 C 
ENDBRANCH  22  37
TORSDOF 1
ENDMDL
MODEL 2
REMARK VINA RESULT: -8.414649154      1.565      1.771
REMARK  1 active torsions:
REMARK  status: ('A' for Active; 'I' for Inactive)
REMARK    1  A    between atoms: C17_22  and  C18_23 
ROOT
HETATM    1  C1  UNL     1      -6.119  14.531 -12.737  1.00  0.00     0.018 C 
HETATM    2  C2  UNL     1      -4.879  14.120 -11.929  1.00  0.00     0.050 C 
HETATM    3  C3  UNL     1      -5.316  13.513 -10.639  1.00  0.00     0.047 C 
HETATM    4  C4  UNL     1      -5.559  12.051 -10.668  1.00  0.00     0.223 C 
HETATM    5  C5  UNL     1      -6.950  11.633 -11.041  1.00  0.00     0.037 C 
HETATM    6  C6  UNL     1      -6.965  10.184 -10.590  1.00  0.00     0.032 C 
HETATM    7  C7  UNL     1      -6.018  10.184  -9.416  1.00  0.00     0.273 C 
HETATM    8  N1  UNL     1      -5.430  11.503  -9.332  1.00  0.00     0.093 N 
HETATM    9  C8  UNL     1      -6.095  12.255  -8.317  1.00  0.00     0.273 C 
HETATM   10  C9  UNL     1      -5.550  11.860  -6.962  1.00  0.00     0.031 C 
HETATM   11  C10 UNL     1      -5.460  13.035  -6.023  1.00  0.00     0.011 C 
HETATM   12  C11 UNL     1      -4.251  13.892  -6.235  1.00  0.00     0.105 C 
HETATM   13  C12 UNL     1      -3.023  13.330  -5.613  1.00  0.00     0.238 C 
HETATM   14  O1  UNL     1      -2.535  12.310  -6.190  1.00  0.00    -0.272 OA
HETATM   15  N2  UNL     1      -2.365  13.804  -4.474  1.00  0.00    -0.256 N 
HETATM   16  C13 UNL     1      -1.776  13.039  -3.361  1.00  0.00     0.154 C 
HETATM   17  C14 UNL     1      -2.430  13.783  -2.218  1.00  0.00     0.044 C 
HETATM   18  C15 UNL     1      -2.273  15.218  -2.648  1.00  0.00     0.154 C 
HETATM   19  N3  UNL     1      -2.123  15.146  -4.115  1.00  0.00    -0.255 N 
HETATM   20  C16 UNL     1      -1.815  16.208  -5.004  1.00  0.00     0.269 C 
HETATM   21  O2  UNL     1      -2.550  17.260  -4.841  1.00  0.00    -0.269 OA
HETATM   22  C17 UNL     1      -0.802  16.277  -6.056  1.00  0.00     0.282 C 
HETATM   23  N4  UNL     1      -0.855  15.281  -7.076  1.00  0.00    -0.062 N 
ATOM     24  H41 UNL     1      -1.769  14.828  -7.093  1.00  0.00     0.278 HD
ATOM     25  H42 UNL     1      -0.275  14.480  -6.831  1.00  0.00     0.278 HD
HETATM   26  C21 UNL     1      -0.506  15.789  -8.394  1.00  0.00     0.233 C 
HETATM   27  C22 UNL     1       0.314  14.789  -9.132  1.00  0.00     0.027 C 
HETATM   28  C23 UNL     1      -0.128  14.535 -10.549  1.00  0.00     0.003 C 
HETATM   29  C24 UNL     1      -1.620  14.333 -10.660  1.00  0.00     0.020 C 
HETATM   30  C25 UNL     1      -1.879  13.032 -11.323  1.00  0.00     0.121 C 
HETATM   31  N5  UNL     1      -2.582  13.148 -12.593  1.00  0.00    -0.380 N 
ATOM     32  H5  UNL     1      -2.018  13.140 -13.442  1.00  0.00     0.160 HD
HETATM   33  C26 UNL     1      -3.984  13.270 -12.744  1.00  0.00     0.074 C 
HETATM   34  N6  UNL     1      -4.558  12.586 -13.678  1.00  0.00    -0.389 N 
ATOM     35  H61 UNL     1      -3.940  12.000 -14.239  1.00  0.00     0.157 HD
ATOM     36  H62 UNL     1      -5.568  12.674 -13.786  1.00  0.00     0.157 HD
ENDROOT
BRANCH  22  37
HETATM   37  C18 UNL     1       0.622  16.378  -5.551  1.00  0.00     0.017 C 
HETATM   38  C19 UNL     1       0.779  17.455  -4.503  1.00  0.00     0.012 C 
HETATM   39  C20 UNL     1       1.267  15.134  -5.127  1.00  0.00     0.012 C 
ENDBRANCH  22  37
TORSDOF 1
ENDMDL
MODEL 3
REMARK VINA RESULT: -7.852252894      2.288      7.789
REMARK  1 active torsions:
REMARK  status: ('A' for Active; 'I' for Inactive)
REMARK    1  A    between atoms: C17_22  and  C18_23 
ROOT
HETATM    1  C1  UNL     1       6.218  15.190  -6.654  1.00  0.00     0.018 C 
HETATM    2  C2  UNL     1       4.836  15.685  -7.106  1.00  0.00     0.050 C 
HETATM    3  C3  UNL     1       3.840  15.404  -6.032  1.00  0.00     0.047 C 
HETATM    4  C4  UNL     1       3.686  16.465  -5.007  1.00  0.00     0.223 C 
HETATM    5  C5  UNL     1       4.606  16.365  -3.828  1.00  0.00     0.037 C 
HETATM    6  C6  UNL     1       3.936  17.299  -2.837  1.00  0.00     0.032 C 
HETATM    7  C7  UNL     1       2.475  17.184  -3.196  1.00  0.00     0.273 C 
HETATM    8  N1  UNL     1       2.383  16.358  -4.380  1.00  0.00     0.093 N 
HETATM    9  C8  UNL     1       2.012  15.032  -4.007  1.00  0.00     0.273 C 
HETATM   10  C9  UNL     1       0.518  14.975  -3.777  1.00  0.00     0.031 C 
HETATM   11  C10 UNL     1      -0.078  13.670  -4.242  1.00  0.00     0.011 C 
HETATM   12  C11 UNL     1      -0.324  13.607  -5.718  1.00  0.00     0.105 C 
HETATM   13  C12 UNL     1      -1.575  14.298  -6.130  1.00  0.00     0.238 C 
HETATM   14  O1  UNL     1      -1.539  15.566  -6.081  1.00  0.00    -0.272 OA
HETATM   15  N2  UNL     1      -2.765  13.701  -6.556  1.00  0.00    -0.256 N 
HETATM   16  C13 UNL     1      -4.152  14.061  -6.218  1.00  0.00     0.154 C 
HETATM   17  C14 UNL     1      -4.638  12.689  -5.809  1.00  0.00     0.044 C 
HETATM   18  C15 UNL     1      -4.060  11.816  -6.892  1.00  0.00     0.154 C 
HETATM   19  N3  UNL     1      -2.912  12.587  -7.409  1.00  0.00    -0.255 N 
HETATM   20  C16 UNL     1      -2.098  12.278  -8.529  1.00  0.00     0.269 C 
HETATM   21  O2  UNL     1      -1.654  11.062  -8.535  1.00  0.00    -0.269 OA
HETATM   22  C17 UNL     1      -1.700  13.123  -9.653  1.00  0.00     0.282 C 
HETATM   23  N4  UNL     1      -1.018  14.337  -9.344  1.00  0.00    -0.062 N 
ATOM     24  H41 UNL     1      -0.642  14.311  -8.396  1.00  0.00     0.278 HD
ATOM     25  H42 UNL     1      -1.678  15.108  -9.242  1.00  0.00     0.278 HD
HETATM   26  C21 UNL     1       0.024  14.672 -10.303  1.00  0.00     0.233 C 
HETATM   27  C22 UNL     1       0.032  16.137 -10.566  1.00  0.00     0.027 C 
HETATM   28  C23 UNL     1       1.395  16.777 -10.515  1.00  0.00     0.003 C 
HETATM   29  C24 UNL     1       2.189  16.347  -9.305  1.00  0.00     0.020 C 
HETATM   30  C25 UNL     1       2.610  17.556  -8.555  1.00  0.00     0.121 C 
HETATM   31  N5  UNL     1       4.053  17.728  -8.477  1.00  0.00    -0.380 N 
ATOM     32  H5  UNL     1       4.487  18.351  -9.157  1.00  0.00     0.160 HD
HETATM   33  C26 UNL     1       4.903  17.100  -7.536  1.00  0.00     0.074 C 
HETATM   34  N6  UNL     1       5.835  17.807  -6.989  1.00  0.00    -0.389 N 
ATOM     35  H61 UNL     1       5.881  18.781  -7.285  1.00  0.00     0.157 HD
ATOM     36  H62 UNL     1       6.447  17.354  -6.310  1.00  0.00     0.157 HD
ENDROOT
BRANCH  22  37
HETATM   37  C18 UNL     1      -2.814  13.428 -10.634  1.00  0.00     0.017 C 
HETATM   38  C19 UNL     1      -3.223  12.209 -11.427  1.00  0.00     0.012 C 
HETATM   39  C20 UNL     1      -3.985  14.134 -10.111  1.00  0.00     0.012 C 
ENDBRANCH  22  37
TORSDOF 1
ENDMDL
MODEL 4
REMARK VINA RESULT: -7.455843421      2.869      8.266
REMARK  1 active torsions:
REMARK  status: ('A' for Active; 'I' for Inactive)
REMARK    1  A    between atoms: C17_22  and  C18_23 
ROOT
HETATM    1  C1  UNL     1       7.447  16.345  -7.194  1.00  0.00     0.018 C 
HETATM    2  C2  UNL     1       5.986  16.773  -7.397  1.00  0.00     0.050 C 
HETATM    3  C3  UNL     1       5.223  16.520  -6.141  1.00  0.00     0.047 C 
HETATM    4  C4  UNL     1       5.222  17.629  -5.156  1.00  0.00     0.223 C 
HETATM    5  C5  UNL     1       6.351  17.621  -4.171  1.00  0.00     0.037 C 
HETATM    6  C6  UNL     1       5.842  18.586  -3.116  1.00  0.00     0.032 C 
HETATM    7  C7  UNL     1       4.347  18.406  -3.184  1.00  0.00     0.273 C 
HETATM    8  N1  UNL     1       4.066  17.516  -4.289  1.00  0.00     0.093 N 
HETATM    9  C8  UNL     1       3.826  16.201  -3.790  1.00  0.00     0.273 C 
HETATM   10  C9  UNL     1       2.405  16.110  -3.277  1.00  0.00     0.031 C 
HETATM   11  C10 UNL     1       1.786  14.765  -3.559  1.00  0.00     0.011 C 
HETATM   12  C11 UNL     1       1.269  14.615  -4.956  1.00  0.00     0.105 C 
HETATM   13  C12 UNL     1      -0.064  15.244  -5.154  1.00  0.00     0.238 C 
HETATM   14  O1  UNL     1      -0.072  16.513  -5.173  1.00  0.00    -0.272 OA
HETATM   15  N2  UNL     1      -1.288  14.589  -5.317  1.00  0.00    -0.256 N 
HETATM   16  C13 UNL     1      -2.601  14.924  -4.739  1.00  0.00     0.154 C 
HETATM   17  C14 UNL     1      -2.945  13.561  -4.180  1.00  0.00     0.044 C 
HETATM   18  C15 UNL     1      -2.546  12.650  -5.312  1.00  0.00     0.154 C 
HETATM   19  N3  UNL     1      -1.549  13.427  -6.074  1.00  0.00    -0.255 N 
HETATM   20  C16 UNL     1      -0.948  13.083  -7.312  1.00  0.00     0.269 C 
HETATM   21  O2  UNL     1      -0.465  11.883  -7.346  1.00  0.00    -0.269 OA
HETATM   22  C17 UNL     1      -0.804  13.878  -8.530  1.00  0.00     0.282 C 
HETATM   23  N4  UNL     1      -0.126  15.127  -8.414  1.00  0.00    -0.062 N 
ATOM     24  H41 UNL     1       0.422  15.164  -7.555  1.00  0.00     0.278 HD
ATOM     25  H42 UNL     1      -0.786  15.882  -8.225  1.00  0.00     0.278 HD
HETATM   26  C21 UNL     1       0.702  15.442  -9.569  1.00  0.00     0.233 C 
HETATM   27  C22 UNL     1       0.602  16.890  -9.896  1.00  0.00     0.027 C 
HETATM   28  C23 UNL     1       1.923  17.574 -10.136  1.00  0.00     0.003 C 
HETATM   29  C24 UNL     1       2.947  17.234  -9.080  1.00  0.00     0.020 C 
HETATM   30  C25 UNL     1       3.453  18.494  -8.482  1.00  0.00     0.121 C 
HETATM   31  N5  UNL     1       4.877  18.714  -8.689  1.00  0.00    -0.380 N 
ATOM     32  H5  UNL     1       5.150  19.313  -9.467  1.00  0.00     0.160 HD
HETATM   33  C26 UNL     1       5.913  18.163  -7.897  1.00  0.00     0.074 C 
HETATM   34  N6  UNL     1       6.903  18.927  -7.572  1.00  0.00    -0.389 N 
ATOM     35  H61 UNL     1       6.853  19.885  -7.917  1.00  0.00     0.157 HD
ATOM     36  H62 UNL     1       7.649  18.531  -7.002  1.00  0.00     0.157 HD
ENDROOT
BRANCH  22  37
HETATM   37  C18 UNL     1      -2.094  14.096  -9.294  1.00  0.00     0.017 C 
HETATM   38  C19 UNL     1      -2.112  13.344 -10.604  1.00  0.00     0.012 C 
HETATM   39  C20 UNL     1      -3.345  13.900  -8.558  1.00  0.00     0.012 C 
ENDBRANCH  22  37
TORSDOF 1
ENDMDL
MODEL 5
REMARK VINA RESULT: -7.330381533      3.737      7.697
REMARK  1 active torsions:
REMARK  status: ('A' for Active; 'I' for Inactive)
REMARK    1  A    between atoms: C17_22  and  C18_23 
ROOT
HETATM    1  C1  UNL     1       5.180  20.699 -10.452  1.00  0.00     0.018 C 
HETATM    2  C2  UNL     1       3.809  20.010 -10.378  1.00  0.00     0.050 C 
HETATM    3  C3  UNL     1       3.179  20.316  -9.061  1.00  0.00     0.047 C 
HETATM    4  C4  UNL     1       2.360  21.551  -9.013  1.00  0.00     0.223 C 
HETATM    5  C5  UNL     1       3.101  22.806  -8.662  1.00  0.00     0.037 C 
HETATM    6  C6  UNL     1       1.962  23.745  -8.309  1.00  0.00     0.032 C 
HETATM    7  C7  UNL     1       0.912  22.813  -7.760  1.00  0.00     0.273 C 
HETATM    8  N1  UNL     1       1.395  21.462  -7.934  1.00  0.00     0.093 N 
HETATM    9  C8  UNL     1       1.931  20.985  -6.700  1.00  0.00     0.273 C 
HETATM   10  C9  UNL     1       0.798  20.528  -5.806  1.00  0.00     0.031 C 
HETATM   11  C10 UNL     1       1.171  19.312  -4.996  1.00  0.00     0.011 C 
HETATM   12  C11 UNL     1       1.065  18.024  -5.752  1.00  0.00     0.105 C 
HETATM   13  C12 UNL     1      -0.328  17.512  -5.837  1.00  0.00     0.238 C 
HETATM   14  O1  UNL     1      -1.100  18.155  -6.613  1.00  0.00    -0.272 OA
HETATM   15  N2  UNL     1      -0.864  16.413  -5.159  1.00  0.00    -0.256 N 
HETATM   16  C13 UNL     1      -2.178  16.279  -4.509  1.00  0.00     0.154 C 
HETATM   17  C14 UNL     1      -1.706  15.763  -3.168  1.00  0.00     0.044 C 
HETATM   18  C15 UNL     1      -0.674  14.743  -3.573  1.00  0.00     0.154 C 
HETATM   19  N3  UNL     1      -0.251  15.164  -4.923  1.00  0.00    -0.255 N 
HETATM   20  C16 UNL     1       0.611  14.474  -5.814  1.00  0.00     0.269 C 
HETATM   21  O2  UNL     1       1.721  14.084  -5.274  1.00  0.00    -0.269 OA
HETATM   22  C17 UNL     1       0.423  14.147  -7.226  1.00  0.00     0.282 C 
HETATM   23  N4  UNL     1       0.180  15.234  -8.117  1.00  0.00    -0.062 N 
ATOM     24  H41 UNL     1       0.458  16.119  -7.695  1.00  0.00     0.278 HD
ATOM     25  H42 UNL     1      -0.821  15.403  -8.218  1.00  0.00     0.278 HD
HETATM   26  C21 UNL     1       0.808  15.062  -9.418  1.00  0.00     0.233 C 
HETATM   27  C22 UNL     1      -0.099  15.543 -10.497  1.00  0.00     0.027 C 
HETATM   28  C23 UNL     1       0.555  16.437 -11.517  1.00  0.00     0.003 C 
HETATM   29  C24 UNL     1       1.405  17.511 -10.881  1.00  0.00     0.020 C 
HETATM   30  C25 UNL     1       0.948  18.835 -11.372  1.00  0.00     0.121 C 
HETATM   31  N5  UNL     1       1.959  19.565 -12.122  1.00  0.00    -0.380 N 
ATOM     32  H5  UNL     1       1.925  19.500 -13.139  1.00  0.00     0.160 HD
HETATM   33  C26 UNL     1       2.984  20.359 -11.556  1.00  0.00     0.074 C 
HETATM   34  N6  UNL     1       3.247  21.499 -12.105  1.00  0.00    -0.389 N 
ATOM     35  H61 UNL     1       2.679  21.739 -12.916  1.00  0.00     0.157 HD
ATOM     36  H62 UNL     1       3.985  22.071 -11.696  1.00  0.00     0.157 HD
ENDROOT
BRANCH  22  37
HETATM   37  C18 UNL     1      -0.604  13.065  -7.489  1.00  0.00     0.017 C 
HETATM   38  C19 UNL     1      -0.456  11.899  -6.540  1.00  0.00     0.012 C 
HETATM   39  C20 UNL     1      -2.002  13.485  -7.592  1.00  0.00     0.012 C 
ENDBRANCH  22  37
TORSDOF 1
ENDMDL
