MODEL 1
REMARK VINA RESULT: -6.099053493      0.000      0.000
REMARK  1 active torsions:
REMARK  status: ('A' for Active; 'I' for Inactive)
REMARK    1  A    between atoms: C1_2  and  C2_4 
ROOT
HETATM    1  C2  UNL     1     -13.309  -6.675  40.523  1.00  0.00     0.115 A 
HETATM    2  C3  UNL     1     -12.390  -7.700  40.419  1.00  0.00     0.128 A 
HETATM    3  N2  UNL     1     -11.168  -7.596  40.936  1.00  0.00    -0.199 N 
ATOM      4  H2  UNL     1     -10.515  -8.373  40.839  1.00  0.00     0.183 HD
HETATM    5  C4  UNL     1     -10.776  -6.476  41.588  1.00  0.00     0.707 A 
HETATM    6  N3  UNL     1      -9.636  -6.096  42.198  1.00  0.00    -0.184 N 
ATOM      7  H3  UNL     1      -8.792  -6.664  42.270  1.00  0.00     0.185 HD
HETATM    8  C5  UNL     1      -9.776  -4.855  42.697  1.00  0.00     0.216 A 
HETATM    9  N4  UNL     1     -11.029  -4.478  42.383  1.00  0.00    -0.272 N 
ATOM     10  H4  UNL     1     -11.443  -3.578  42.627  1.00  0.00     0.189 HD
HETATM   11  N5  UNL     1     -11.649  -5.436  41.716  1.00  0.00    -0.046 N 
HETATM   12  C6  UNL     1     -12.884  -5.546  41.191  1.00  0.00     0.299 A 
HETATM   13  O2  UNL     1     -13.692  -4.590  41.306  1.00  0.00    -0.264 OA
ENDROOT
BRANCH   1  14
HETATM   14  C1  UNL     1     -14.636  -6.795  39.957  1.00  0.00     0.271 C 
HETATM   15  N1  UNL     1     -15.689  -7.289  40.772  1.00  0.00    -0.057 NA
HETATM   16  O1  UNL     1     -14.855  -6.469  38.769  1.00  0.00    -0.271 OA
ENDBRANCH   1  14
TORSDOF 1
ENDMDL
MODEL 2
REMARK VINA RESULT: -5.527615875      1.748      4.228
REMARK  1 active torsions:
REMARK  status: ('A' for Active; 'I' for Inactive)
REMARK    1  A    between atoms: C1_2  and  C2_4 
ROOT
HETATM    1  C2  UNL     1     -11.844  -6.224  40.932  1.00  0.00     0.115 A 
HETATM    2  C3  UNL     1     -12.132  -7.472  40.417  1.00  0.00     0.128 A 
HETATM    3  N2  UNL     1     -13.375  -7.828  40.107  1.00  0.00    -0.199 N 
ATOM      4  H2  UNL     1     -13.550  -8.759  39.729  1.00  0.00     0.183 HD
HETATM    5  C4  UNL     1     -14.413  -6.977  40.284  1.00  0.00     0.707 A 
HETATM    6  N3  UNL     1     -15.740  -7.058  40.065  1.00  0.00    -0.184 N 
ATOM      7  H3  UNL     1     -16.224  -7.873  39.687  1.00  0.00     0.185 HD
HETATM    8  C5  UNL     1     -16.333  -5.905  40.421  1.00  0.00     0.216 A 
HETATM    9  N4  UNL     1     -15.342  -5.109  40.862  1.00  0.00    -0.272 N 
ATOM     10  H4  UNL     1     -15.471  -4.157  41.205  1.00  0.00     0.189 HD
HETATM   11  N5  UNL     1     -14.178  -5.733  40.789  1.00  0.00    -0.046 N 
HETATM   12  C6  UNL     1     -12.918  -5.377  41.102  1.00  0.00     0.299 A 
HETATM   13  O2  UNL     1     -12.697  -4.231  41.569  1.00  0.00    -0.264 OA
ENDROOT
BRANCH   1  14
HETATM   14  C1  UNL     1     -10.488  -5.843  41.268  1.00  0.00     0.271 C 
HETATM   15  N1  UNL     1      -9.946  -6.257  42.514  1.00  0.00    -0.057 NA
HETATM   16  O1  UNL     1      -9.803  -5.160  40.475  1.00  0.00    -0.271 OA
ENDBRANCH   1  14
TORSDOF 1
ENDMDL
MODEL 3
REMARK VINA RESULT: -5.510007891      1.810      4.352
REMARK  1 active torsions:
REMARK  status: ('A' for Active; 'I' for Inactive)
REMARK    1  A    between atoms: C1_2  and  C2_4 
ROOT
HETATM    1  C2  UNL     1     -10.901  -4.004  42.485  1.00  0.00     0.115 A 
HETATM    2  C3  UNL     1      -9.819  -4.854  42.596  1.00  0.00     0.128 A 
HETATM    3  N2  UNL     1      -9.849  -6.089  42.103  1.00  0.00    -0.199 N 
ATOM      4  H2  UNL     1      -9.031  -6.689  42.204  1.00  0.00     0.183 HD
HETATM    5  C4  UNL     1     -10.947  -6.563  41.469  1.00  0.00     0.707 A 
HETATM    6  N3  UNL     1     -11.259  -7.737  40.883  1.00  0.00    -0.184 N 
ATOM      7  H3  UNL     1     -10.638  -8.544  40.822  1.00  0.00     0.185 HD
HETATM    8  C5  UNL     1     -12.509  -7.685  40.393  1.00  0.00     0.216 A 
HETATM    9  N4  UNL     1     -12.963  -6.453  40.687  1.00  0.00    -0.272 N 
ATOM     10  H4  UNL     1     -13.889  -6.102  40.443  1.00  0.00     0.189 HD
HETATM   11  N5  UNL     1     -12.041  -5.761  41.334  1.00  0.00    -0.046 N 
HETATM   12  C6  UNL     1     -12.005  -4.511  41.835  1.00  0.00     0.299 A 
HETATM   13  O2  UNL     1     -13.012  -3.768  41.714  1.00  0.00    -0.264 OA
ENDROOT
BRANCH   1  14
HETATM   14  C1  UNL     1     -10.861  -2.661  43.024  1.00  0.00     0.271 C 
HETATM   15  N1  UNL     1     -10.099  -1.670  42.349  1.00  0.00    -0.057 NA
HETATM   16  O1  UNL     1     -11.487  -2.375  44.069  1.00  0.00    -0.271 OA
ENDBRANCH   1  14
TORSDOF 1
ENDMDL
MODEL 4
REMARK VINA RESULT: -5.497422000      1.351      2.077
REMARK  1 active torsions:
REMARK  status: ('A' for Active; 'I' for Inactive)
REMARK    1  A    between atoms: C1_2  and  C2_4 
ROOT
HETATM    1  C2  UNL     1     -13.594  -5.938  40.710  1.00  0.00     0.115 A 
HETATM    2  C3  UNL     1     -13.760  -4.630  41.116  1.00  0.00     0.128 A 
HETATM    3  N2  UNL     1     -12.808  -3.979  41.779  1.00  0.00    -0.199 N 
ATOM      4  H2  UNL     1     -12.966  -3.013  42.065  1.00  0.00     0.183 HD
HETATM    5  C4  UNL     1     -11.632  -4.577  42.083  1.00  0.00     0.707 A 
HETATM    6  N3  UNL     1     -10.515  -4.180  42.725  1.00  0.00    -0.184 N 
ATOM      7  H3  UNL     1     -10.369  -3.255  43.129  1.00  0.00     0.185 HD
HETATM    8  C5  UNL     1      -9.623  -5.185  42.753  1.00  0.00     0.216 A 
HETATM    9  N4  UNL     1     -10.212  -6.211  42.114  1.00  0.00    -0.272 N 
ATOM     10  H4  UNL     1      -9.785  -7.126  41.967  1.00  0.00     0.189 HD
HETATM   11  N5  UNL     1     -11.421  -5.869  41.702  1.00  0.00    -0.046 N 
HETATM   12  C6  UNL     1     -12.388  -6.523  41.031  1.00  0.00     0.299 A 
HETATM   13  O2  UNL     1     -12.198  -7.715  40.679  1.00  0.00    -0.264 OA
ENDROOT
BRANCH   1  14
HETATM   14  C1  UNL     1     -14.635  -6.640  39.989  1.00  0.00     0.271 C 
HETATM   15  N1  UNL     1     -15.617  -7.356  40.724  1.00  0.00    -0.057 NA
HETATM   16  O1  UNL     1     -14.671  -6.618  38.739  1.00  0.00    -0.271 OA
ENDBRANCH   1  14
TORSDOF 1
ENDMDL
MODEL 5
REMARK VINA RESULT: -5.493736563      1.805      4.322
REMARK  1 active torsions:
REMARK  status: ('A' for Active; 'I' for Inactive)
REMARK    1  A    between atoms: C1_2  and  C2_4 
ROOT
HETATM    1  C2  UNL     1     -11.056  -5.674  41.716  1.00  0.00     0.115 A 
HETATM    2  C3  UNL     1     -10.852  -6.947  41.222  1.00  0.00     0.128 A 
HETATM    3  N2  UNL     1     -11.816  -7.614  40.593  1.00  0.00    -0.199 N 
ATOM      4  H2  UNL     1     -11.629  -8.552  40.242  1.00  0.00     0.183 HD
HETATM    5  C4  UNL     1     -13.041  -7.068  40.411  1.00  0.00     0.707 A 
HETATM    6  N3  UNL     1     -14.180  -7.492  39.828  1.00  0.00    -0.184 N 
ATOM      7  H3  UNL     1     -14.307  -8.399  39.381  1.00  0.00     0.185 HD
HETATM    8  C5  UNL     1     -15.125  -6.540  39.925  1.00  0.00     0.216 A 
HETATM    9  N4  UNL     1     -14.544  -5.518  40.578  1.00  0.00    -0.272 N 
ATOM     10  H4  UNL     1     -15.006  -4.638  40.808  1.00  0.00     0.189 HD
HETATM   11  N5  UNL     1     -13.291  -5.813  40.882  1.00  0.00    -0.046 N 
HETATM   12  C6  UNL     1     -12.312  -5.142  41.518  1.00  0.00     0.299 A 
HETATM   13  O2  UNL     1     -12.538  -3.985  41.954  1.00  0.00    -0.264 OA
ENDROOT
BRANCH   1  14
HETATM   14  C1  UNL     1     -10.002  -4.955  42.400  1.00  0.00     0.271 C 
HETATM   15  N1  UNL     1      -9.571  -3.706  41.879  1.00  0.00    -0.057 NA
HETATM   16  O1  UNL     1      -9.477  -5.424  43.434  1.00  0.00    -0.271 OA
ENDBRANCH   1  14
TORSDOF 1
ENDMDL
