MODEL 1
REMARK VINA RESULT: -6.807378175      0.000      0.000
REMARK  6 active torsions:
REMARK  status: ('A' for Active; 'I' for Inactive)
REMARK    1  A    between atoms: N3_8  and  C4_10 
REMARK    2  A    between atoms: C4_10  and  C5_11 
REMARK    3  A    between atoms: C4_10  and  C10_18 
REMARK    4  A    between atoms: C5_11  and  N4_12 
REMARK    5  A    between atoms: C11_29  and  C12_30 
REMARK       I    between atoms: C12_30  and  N10_32 
REMARK    6  A    between atoms: N10_32  and  C13_34 
ROOT
HETATM    1  N1  UNL     1      -9.806  48.304 -12.870  1.00  0.00    -0.080 NA
HETATM    2  C1  UNL     1      -8.541  48.277 -12.224  1.00  0.00     0.151 A 
HETATM    3  N2  UNL     1      -7.602  49.210 -12.464  1.00  0.00    -0.307 N 
ATOM      4  H2  UNL     1      -7.775  49.969 -13.123  1.00  0.00     0.170 HD
HETATM    5  C2  UNL     1      -6.408  49.113 -11.802  1.00  0.00     0.290 A 
HETATM    6  O1  UNL     1      -5.567  50.018 -12.068  1.00  0.00    -0.264 OA
HETATM    7  C3  UNL     1      -6.130  48.115 -10.910  1.00  0.00     0.172 A 
HETATM    8  N3  UNL     1      -5.058  47.992 -10.287  1.00  0.00    -0.358 N 
ATOM      9  H3  UNL     1      -5.058  47.178  -9.673  1.00  0.00     0.162 HD
HETATM   10  N9  UNL     1      -7.140  47.185 -10.707  1.00  0.00    -0.331 N 
ATOM     11  H9  UNL     1      -6.974  46.423 -10.049  1.00  0.00     0.168 HD
HETATM   12  C11 UNL     1      -8.310  47.240 -11.328  1.00  0.00     0.144 A 
ENDROOT
BRANCH   8  13
HETATM   13  C4  UNL     1      -3.856  48.702 -10.229  1.00  0.00     0.171 C 
BRANCH  13  14
HETATM   14  C5  UNL     1      -2.755  47.935 -10.933  1.00  0.00     0.158 C 
BRANCH  14  15
HETATM   15  N4  UNL     1      -3.196  46.606 -11.300  1.00  0.00    -0.350 N 
HETATM   16  C6  UNL     1      -3.585  46.229 -12.650  1.00  0.00     0.126 C 
HETATM   17  C7  UNL     1      -4.272  44.906 -12.458  1.00  0.00     0.029 C 
HETATM   18  C8  UNL     1      -3.452  44.271 -11.340  1.00  0.00     0.104 C 
HETATM   19  C9  UNL     1      -3.313  45.484 -10.443  1.00  0.00     0.219 C 
HETATM   20  O2  UNL     1      -3.306  45.478  -9.196  1.00  0.00    -0.273 OA
ENDBRANCH  14  15
ENDBRANCH  13  14
BRANCH  13  21
HETATM   21  C10 UNL     1      -3.452  49.001  -8.812  1.00  0.00     0.137 A 
HETATM   22  N5  UNL     1      -3.953  49.931  -7.976  1.00  0.00    -0.270 N 
HETATM   23  N6  UNL     1      -3.279  49.820  -6.835  1.00  0.00    -0.227 N 
ATOM     24  H5  UNL     1      -4.703  50.592  -8.179  1.00  0.00     0.190 HD
HETATM   25  N7  UNL     1      -2.376  48.861  -6.915  1.00  0.00    -0.227 N 
ATOM     26  H6  UNL     1      -3.438  50.398  -6.010  1.00  0.00     0.210 HD
HETATM   27  N8  UNL     1      -2.495  48.362  -8.146  1.00  0.00    -0.270 N 
ATOM     28  H7  UNL     1      -1.725  48.564  -6.188  1.00  0.00     0.210 HD
ATOM     29  H8  UNL     1      -1.932  47.600  -8.523  1.00  0.00     0.190 HD
ENDBRANCH  13  21
ENDBRANCH   8  13
BRANCH  12  30
HETATM   30  C12 UNL     1      -9.356  46.250 -11.097  1.00  0.00     0.272 C 
HETATM   31  O3  UNL     1      -9.109  45.022 -11.317  1.00  0.00    -0.266 OA
HETATM   32  N10 UNL     1     -10.654  46.565 -10.634  1.00  0.00    -0.351 N 
ATOM     33  H10 UNL     1     -10.893  47.539 -10.445  1.00  0.00     0.163 HD
BRANCH  32  34
HETATM   34  C13 UNL     1     -11.638  45.550 -10.425  1.00  0.00     0.084 C 
HETATM   35  C14 UNL     1     -12.948  45.841 -11.102  1.00  0.00     0.025 C 
HETATM   36  C15 UNL     1     -14.019  44.864 -10.823  1.00  0.00     0.002 C 
HETATM   37  C16 UNL     1     -14.080  44.340  -9.433  1.00  0.00     0.000 C 
HETATM   38  C17 UNL     1     -12.743  44.153  -8.780  1.00  0.00     0.002 C 
HETATM   39  C18 UNL     1     -11.921  45.392  -8.945  1.00  0.00     0.025 C 
ENDBRANCH  32  34
ENDBRANCH  12  30
TORSDOF 6
ENDMDL
MODEL 2
REMARK VINA RESULT: -6.719009393      1.080      1.324
REMARK  6 active torsions:
REMARK  status: ('A' for Active; 'I' for Inactive)
REMARK    1  A    between atoms: N3_8  and  C4_10 
REMARK    2  A    between atoms: C4_10  and  C5_11 
REMARK    3  A    between atoms: C4_10  and  C10_18 
REMARK    4  A    between atoms: C5_11  and  N4_12 
REMARK    5  A    between atoms: C11_29  and  C12_30 
REMARK       I    between atoms: C12_30  and  N10_32 
REMARK    6  A    between atoms: N10_32  and  C13_34 
ROOT
HETATM    1  N1  UNL     1      -9.259  48.485 -12.550  1.00  0.00    -0.080 NA
HETATM    2  C1  UNL     1      -8.012  48.197 -11.932  1.00  0.00     0.151 A 
HETATM    3  N2  UNL     1      -6.953  49.016 -12.060  1.00  0.00    -0.307 N 
ATOM      4  H2  UNL     1      -7.016  49.873 -12.609  1.00  0.00     0.170 HD
HETATM    5  C2  UNL     1      -5.786  48.668 -11.434  1.00  0.00     0.290 A 
HETATM    6  O1  UNL     1      -4.827  49.476 -11.590  1.00  0.00    -0.264 OA
HETATM    7  C3  UNL     1      -5.652  47.530 -10.689  1.00  0.00     0.172 A 
HETATM    8  N3  UNL     1      -4.610  47.178 -10.104  1.00  0.00    -0.358 N 
ATOM      9  H3  UNL     1      -4.725  46.296  -9.604  1.00  0.00     0.162 HD
HETATM   10  N9  UNL     1      -6.782  46.728 -10.597  1.00  0.00    -0.331 N 
ATOM     11  H9  UNL     1      -6.725  45.870 -10.049  1.00  0.00     0.168 HD
HETATM   12  C11 UNL     1      -7.931  47.027 -11.187  1.00  0.00     0.144 A 
ENDROOT
BRANCH   8  13
HETATM   13  C4  UNL     1      -3.321  47.701  -9.969  1.00  0.00     0.171 C 
BRANCH  13  14
HETATM   14  C5  UNL     1      -2.292  46.588 -10.011  1.00  0.00     0.158 C 
BRANCH  14  15
HETATM   15  N4  UNL     1      -2.110  46.095 -11.360  1.00  0.00    -0.350 N 
HETATM   16  C6  UNL     1      -1.914  46.958 -12.514  1.00  0.00     0.126 C 
HETATM   17  C7  UNL     1      -2.122  46.032 -13.680  1.00  0.00     0.029 C 
HETATM   18  C8  UNL     1      -1.514  44.729 -13.174  1.00  0.00     0.104 C 
HETATM   19  C9  UNL     1      -2.084  44.740 -11.771  1.00  0.00     0.219 C 
HETATM   20  O2  UNL     1      -2.455  43.743 -11.121  1.00  0.00    -0.273 OA
ENDBRANCH  14  15
ENDBRANCH  13  14
BRANCH  13  21
HETATM   21  C10 UNL     1      -3.171  48.497  -8.703  1.00  0.00     0.137 A 
HETATM   22  N5  UNL     1      -2.373  48.247  -7.646  1.00  0.00    -0.270 N 
HETATM   23  N6  UNL     1      -2.586  49.225  -6.769  1.00  0.00    -0.227 N 
ATOM     24  H5  UNL     1      -1.732  47.462  -7.539  1.00  0.00     0.190 HD
HETATM   25  N7  UNL     1      -3.481  50.079  -7.228  1.00  0.00    -0.227 N 
ATOM     26  H6  UNL     1      -2.121  49.304  -5.866  1.00  0.00     0.210 HD
HETATM   27  N8  UNL     1      -3.835  49.614  -8.428  1.00  0.00    -0.270 N 
ATOM     28  H7  UNL     1      -3.829  50.918  -6.763  1.00  0.00     0.210 HD
ATOM     29  H8  UNL     1      -4.517  50.054  -9.045  1.00  0.00     0.190 HD
ENDBRANCH  13  21
ENDBRANCH   8  13
BRANCH  12  30
HETATM   30  C12 UNL     1      -9.104  46.168 -11.075  1.00  0.00     0.272 C 
HETATM   31  O3  UNL     1      -9.018  44.949 -11.426  1.00  0.00    -0.266 OA
HETATM   32  N10 UNL     1     -10.359  46.604 -10.592  1.00  0.00    -0.351 N 
ATOM     33  H10 UNL     1     -10.470  47.576 -10.300  1.00  0.00     0.163 HD
BRANCH  32  34
HETATM   34  C13 UNL     1     -11.474  45.716 -10.504  1.00  0.00     0.084 C 
HETATM   35  C14 UNL     1     -12.719  46.254 -11.152  1.00  0.00     0.025 C 
HETATM   36  C15 UNL     1     -13.917  45.406 -10.991  1.00  0.00     0.002 C 
HETATM   37  C16 UNL     1     -14.077  44.746  -9.669  1.00  0.00     0.000 C 
HETATM   38  C17 UNL     1     -12.791  44.309  -9.032  1.00  0.00     0.002 C 
HETATM   39  C18 UNL     1     -11.807  45.436  -9.053  1.00  0.00     0.025 C 
ENDBRANCH  32  34
ENDBRANCH  12  30
TORSDOF 6
ENDMDL
MODEL 3
REMARK VINA RESULT: -6.597763381      1.685      2.287
REMARK  6 active torsions:
REMARK  status: ('A' for Active; 'I' for Inactive)
REMARK    1  A    between atoms: N3_8  and  C4_10 
REMARK    2  A    between atoms: C4_10  and  C5_11 
REMARK    3  A    between atoms: C4_10  and  C10_18 
REMARK    4  A    between atoms: C5_11  and  N4_12 
REMARK    5  A    between atoms: C11_29  and  C12_30 
REMARK       I    between atoms: C12_30  and  N10_32 
REMARK    6  A    between atoms: N10_32  and  C13_34 
ROOT
HETATM    1  N1  UNL     1      -9.086  48.863 -12.988  1.00  0.00    -0.080 NA
HETATM    2  C1  UNL     1      -7.939  48.506 -12.228  1.00  0.00     0.151 A 
HETATM    3  N2  UNL     1      -6.831  49.268 -12.218  1.00  0.00    -0.307 N 
ATOM      4  H2  UNL     1      -6.783  50.131 -12.760  1.00  0.00     0.170 HD
HETATM    5  C2  UNL     1      -5.768  48.855 -11.461  1.00  0.00     0.290 A 
HETATM    6  O1  UNL     1      -4.756  49.611 -11.490  1.00  0.00    -0.264 OA
HETATM    7  C3  UNL     1      -5.783  47.707 -10.719  1.00  0.00     0.172 A 
HETATM    8  N3  UNL     1      -4.839  47.297 -10.017  1.00  0.00    -0.358 N 
ATOM      9  H3  UNL     1      -5.060  46.420  -9.545  1.00  0.00     0.162 HD
HETATM   10  N9  UNL     1      -6.957  46.966 -10.773  1.00  0.00    -0.331 N 
ATOM     11  H9  UNL     1      -7.011  46.103 -10.233  1.00  0.00     0.168 HD
HETATM   12  C11 UNL     1      -8.009  47.329 -11.492  1.00  0.00     0.144 A 
ENDROOT
BRANCH   8  13
HETATM   13  C4  UNL     1      -3.551  47.750  -9.722  1.00  0.00     0.171 C 
BRANCH  13  14
HETATM   14  C5  UNL     1      -2.606  46.578  -9.547  1.00  0.00     0.158 C 
BRANCH  14  15
HETATM   15  N4  UNL     1      -1.234  47.026  -9.431  1.00  0.00    -0.350 N 
HETATM   16  C6  UNL     1      -0.401  47.377 -10.570  1.00  0.00     0.126 C 
HETATM   17  C7  UNL     1       0.983  47.435  -9.985  1.00  0.00     0.029 C 
HETATM   18  C8  UNL     1       0.726  48.016  -8.599  1.00  0.00     0.104 C 
HETATM   19  C9  UNL     1      -0.499  47.203  -8.233  1.00  0.00     0.219 C 
HETATM   20  O2  UNL     1      -0.786  46.780  -7.096  1.00  0.00    -0.273 OA
ENDBRANCH  14  15
ENDBRANCH  13  14
BRANCH  13  21
HETATM   21  C10 UNL     1      -3.531  48.618  -8.495  1.00  0.00     0.137 A 
HETATM   22  N5  UNL     1      -3.493  48.241  -7.202  1.00  0.00    -0.270 N 
HETATM   23  N6  UNL     1      -3.491  49.358  -6.480  1.00  0.00    -0.227 N 
ATOM     24  H5  UNL     1      -3.470  47.285  -6.847  1.00  0.00     0.190 HD
HETATM   25  N7  UNL     1      -3.526  50.421  -7.260  1.00  0.00    -0.227 N 
ATOM     26  H6  UNL     1      -3.466  49.388  -5.461  1.00  0.00     0.210 HD
HETATM   27  N8  UNL     1      -3.550  49.947  -8.507  1.00  0.00    -0.270 N 
ATOM     28  H7  UNL     1      -3.532  51.399  -6.971  1.00  0.00     0.210 HD
ATOM     29  H8  UNL     1      -3.580  50.522  -9.348  1.00  0.00     0.190 HD
ENDBRANCH  13  21
ENDBRANCH   8  13
BRANCH  12  30
HETATM   30  C12 UNL     1      -9.231  46.533 -11.532  1.00  0.00     0.272 C 
HETATM   31  O3  UNL     1      -9.182  45.342 -11.974  1.00  0.00    -0.266 OA
HETATM   32  N10 UNL     1     -10.493  47.002 -11.104  1.00  0.00    -0.351 N 
ATOM     33  H10 UNL     1     -10.575  47.953 -10.742  1.00  0.00     0.163 HD
BRANCH  32  34
HETATM   34  C13 UNL     1     -11.657  46.175 -11.166  1.00  0.00     0.084 C 
HETATM   35  C14 UNL     1     -12.910  46.932 -11.506  1.00  0.00     0.025 C 
HETATM   36  C15 UNL     1     -14.146  46.126 -11.478  1.00  0.00     0.002 C 
HETATM   37  C16 UNL     1     -14.243  45.114 -10.394  1.00  0.00     0.000 C 
HETATM   38  C17 UNL     1     -12.943  44.456 -10.040  1.00  0.00     0.002 C 
HETATM   39  C18 UNL     1     -11.888  45.496  -9.832  1.00  0.00     0.025 C 
ENDBRANCH  32  34
ENDBRANCH  12  30
TORSDOF 6
ENDMDL
MODEL 4
REMARK VINA RESULT: -6.594592011      3.943      9.289
REMARK  6 active torsions:
REMARK  status: ('A' for Active; 'I' for Inactive)
REMARK    1  A    between atoms: N3_8  and  C4_10 
REMARK    2  A    between atoms: C4_10  and  C5_11 
REMARK    3  A    between atoms: C4_10  and  C10_18 
REMARK    4  A    between atoms: C5_11  and  N4_12 
REMARK    5  A    between atoms: C11_29  and  C12_30 
REMARK       I    between atoms: C12_30  and  N10_32 
REMARK    6  A    between atoms: N10_32  and  C13_34 
ROOT
HETATM    1  N1  UNL     1      -1.565  42.560 -12.288  1.00  0.00    -0.080 NA
HETATM    2  C1  UNL     1      -1.995  43.845 -11.857  1.00  0.00     0.151 A 
HETATM    3  N2  UNL     1      -3.091  44.007 -11.096  1.00  0.00    -0.307 N 
ATOM      4  H2  UNL     1      -3.649  43.205 -10.803  1.00  0.00     0.170 HD
HETATM    5  C2  UNL     1      -3.439  45.278 -10.723  1.00  0.00     0.290 A 
HETATM    6  O1  UNL     1      -4.477  45.367 -10.008  1.00  0.00    -0.264 OA
HETATM    7  C3  UNL     1      -2.724  46.383 -11.090  1.00  0.00     0.172 A 
HETATM    8  N3  UNL     1      -3.006  47.554 -10.772  1.00  0.00    -0.358 N 
ATOM      9  H3  UNL     1      -2.341  48.229 -11.150  1.00  0.00     0.162 HD
HETATM   10  N9  UNL     1      -1.604  46.147 -11.876  1.00  0.00    -0.331 N 
ATOM     11  H9  UNL     1      -1.041  46.945 -12.171  1.00  0.00     0.168 HD
HETATM   12  C11 UNL     1      -1.231  44.935 -12.259  1.00  0.00     0.144 A 
ENDROOT
BRANCH   8  13
HETATM   13  C4  UNL     1      -4.014  48.165 -10.021  1.00  0.00     0.171 C 
BRANCH  13  14
HETATM   14  C5  UNL     1      -4.647  49.296 -10.807  1.00  0.00     0.158 C 
BRANCH  14  15
HETATM   15  N4  UNL     1      -5.909  48.887 -11.386  1.00  0.00    -0.350 N 
HETATM   16  C6  UNL     1      -6.723  47.803 -10.860  1.00  0.00     0.126 C 
HETATM   17  C7  UNL     1      -7.712  47.543 -11.963  1.00  0.00     0.029 C 
HETATM   18  C8  UNL     1      -7.975  48.946 -12.502  1.00  0.00     0.104 C 
HETATM   19  C9  UNL     1      -6.549  49.457 -12.514  1.00  0.00     0.219 C 
HETATM   20  O2  UNL     1      -6.052  50.225 -13.360  1.00  0.00    -0.273 OA
ENDBRANCH  14  15
ENDBRANCH  13  14
BRANCH  13  21
HETATM   21  C10 UNL     1      -3.499  48.675  -8.704  1.00  0.00     0.137 A 
HETATM   22  N5  UNL     1      -2.438  48.245  -7.995  1.00  0.00    -0.270 N 
HETATM   23  N6  UNL     1      -2.380  48.999  -6.901  1.00  0.00    -0.227 N 
ATOM     24  H5  UNL     1      -1.803  47.488  -8.248  1.00  0.00     0.190 HD
HETATM   25  N7  UNL     1      -3.357  49.885  -6.890  1.00  0.00    -0.227 N 
ATOM     26  H6  UNL     1      -1.676  48.904  -6.169  1.00  0.00     0.210 HD
HETATM   27  N8  UNL     1      -4.043  49.673  -8.014  1.00  0.00    -0.270 N 
ATOM     28  H7  UNL     1      -3.547  50.585  -6.173  1.00  0.00     0.210 HD
ATOM     29  H8  UNL     1      -4.866  50.200  -8.303  1.00  0.00     0.190 HD
ENDBRANCH  13  21
ENDBRANCH   8  13
BRANCH  12  30
HETATM   30  C12 UNL     1      -0.050  44.713 -13.085  1.00  0.00     0.272 C 
HETATM   31  O3  UNL     1      -0.048  45.123 -14.289  1.00  0.00    -0.266 OA
HETATM   32  N10 UNL     1       1.120  44.063 -12.632  1.00  0.00    -0.351 N 
ATOM     33  H10 UNL     1       1.159  43.719 -11.672  1.00  0.00     0.163 HD
BRANCH  32  34
HETATM   34  C13 UNL     1       2.249  43.875 -13.488  1.00  0.00     0.084 C 
HETATM   35  C14 UNL     1       2.948  42.562 -13.275  1.00  0.00     0.025 C 
HETATM   36  C15 UNL     1       4.178  42.379 -14.071  1.00  0.00     0.002 C 
HETATM   37  C16 UNL     1       5.037  43.581 -14.233  1.00  0.00     0.000 C 
HETATM   38  C17 UNL     1       4.282  44.872 -14.353  1.00  0.00     0.002 C 
HETATM   39  C18 UNL     1       3.269  44.970 -13.258  1.00  0.00     0.025 C 
ENDBRANCH  32  34
ENDBRANCH  12  30
TORSDOF 6
ENDMDL
MODEL 5
REMARK VINA RESULT: -6.419253778      4.249      9.409
REMARK  6 active torsions:
REMARK  status: ('A' for Active; 'I' for Inactive)
REMARK    1  A    between atoms: N3_8  and  C4_10 
REMARK    2  A    between atoms: C4_10  and  C5_11 
REMARK    3  A    between atoms: C4_10  and  C10_18 
REMARK    4  A    between atoms: C5_11  and  N4_12 
REMARK    5  A    between atoms: C11_29  and  C12_30 
REMARK       I    between atoms: C12_30  and  N10_32 
REMARK    6  A    between atoms: N10_32  and  C13_34 
ROOT
HETATM    1  N1  UNL     1      -1.707  41.771 -12.699  1.00  0.00    -0.080 NA
HETATM    2  C1  UNL     1      -1.884  43.066 -12.140  1.00  0.00     0.151 A 
HETATM    3  N2  UNL     1      -3.103  43.546 -11.838  1.00  0.00    -0.307 N 
ATOM      4  H2  UNL     1      -3.942  42.989 -12.002  1.00  0.00     0.170 HD
HETATM    5  C2  UNL     1      -3.189  44.804 -11.303  1.00  0.00     0.290 A 
HETATM    6  O1  UNL     1      -4.359  45.200 -11.038  1.00  0.00    -0.264 OA
HETATM    7  C3  UNL     1      -2.095  45.588 -11.064  1.00  0.00     0.172 A 
HETATM    8  N3  UNL     1      -2.130  46.735 -10.579  1.00  0.00    -0.358 N 
ATOM      9  H3  UNL     1      -1.201  47.144 -10.484  1.00  0.00     0.162 HD
HETATM   10  N9  UNL     1      -0.867  45.033 -11.399  1.00  0.00    -0.331 N 
ATOM     11  H9  UNL     1      -0.024  45.584 -11.236  1.00  0.00     0.168 HD
HETATM   12  C11 UNL     1      -0.738  43.821 -11.919  1.00  0.00     0.144 A 
ENDROOT
BRANCH   8  13
HETATM   13  C4  UNL     1      -3.137  47.595 -10.134  1.00  0.00     0.171 C 
BRANCH  13  14
HETATM   14  C5  UNL     1      -3.209  48.826 -11.015  1.00  0.00     0.158 C 
BRANCH  14  15
HETATM   15  N4  UNL     1      -4.567  49.080 -11.448  1.00  0.00    -0.350 N 
HETATM   16  C6  UNL     1      -5.716  48.322 -10.981  1.00  0.00     0.126 C 
HETATM   17  C7  UNL     1      -6.804  48.712 -11.944  1.00  0.00     0.029 C 
HETATM   18  C8  UNL     1      -6.497  50.182 -12.205  1.00  0.00     0.104 C 
HETATM   19  C9  UNL     1      -4.994  50.078 -12.358  1.00  0.00     0.219 C 
HETATM   20  O2  UNL     1      -4.287  50.747 -13.138  1.00  0.00    -0.273 OA
ENDBRANCH  14  15
ENDBRANCH  13  14
BRANCH  13  21
HETATM   21  C10 UNL     1      -2.936  47.997  -8.700  1.00  0.00     0.137 A 
HETATM   22  N5  UNL     1      -2.339  47.304  -7.711  1.00  0.00    -0.270 N 
HETATM   23  N6  UNL     1      -2.403  48.064  -6.621  1.00  0.00    -0.227 N 
ATOM     24  H5  UNL     1      -1.920  46.377  -7.783  1.00  0.00     0.190 HD
HETATM   25  N7  UNL     1      -3.012  49.205  -6.880  1.00  0.00    -0.227 N 
ATOM     26  H6  UNL     1      -2.031  47.801  -5.709  1.00  0.00     0.210 HD
HETATM   27  N8  UNL     1      -3.337  49.149  -8.173  1.00  0.00    -0.270 N 
ATOM     28  H7  UNL     1      -3.196  49.969  -6.229  1.00  0.00     0.210 HD
ATOM     29  H8  UNL     1      -3.824  49.885  -8.683  1.00  0.00     0.190 HD
ENDBRANCH  13  21
ENDBRANCH   8  13
BRANCH  12  30
HETATM   30  C12 UNL     1       0.564  43.260 -12.262  1.00  0.00     0.272 C 
HETATM   31  O3  UNL     1       1.384  43.961 -12.936  1.00  0.00    -0.266 OA
HETATM   32  N10 UNL     1       0.989  41.965 -11.890  1.00  0.00    -0.351 N 
ATOM     33  H10 UNL     1       0.361  41.371 -11.348  1.00  0.00     0.163 HD
BRANCH  32  34
HETATM   34  C13 UNL     1       2.279  41.469 -12.255  1.00  0.00     0.084 C 
HETATM   35  C14 UNL     1       2.259  40.599 -13.479  1.00  0.00     0.025 C 
HETATM   36  C15 UNL     1       3.558  39.987 -13.825  1.00  0.00     0.002 C 
HETATM   37  C16 UNL     1       4.387  39.524 -12.682  1.00  0.00     0.000 C 
HETATM   38  C17 UNL     1       4.297  40.387 -11.458  1.00  0.00     0.002 C 
HETATM   39  C18 UNL     1       2.862  40.646 -11.125  1.00  0.00     0.025 C 
ENDBRANCH  32  34
ENDBRANCH  12  30
TORSDOF 6
ENDMDL
