MODEL 1
REMARK VINA RESULT: -6.195732147      0.000      0.000
REMARK  7 active torsions:
REMARK  status: ('A' for Active; 'I' for Inactive)
REMARK    1  A    between atoms: C2_2  and  N2_6 
REMARK    2  A    between atoms: C3_7  and  C4_8 
REMARK    3  A    between atoms: C4_8  and  O1_9 
REMARK    4  A    between atoms: C5_11  and  O2_12 
REMARK    5  A    between atoms: C6_14  and  C7_15 
REMARK    6  A    between atoms: C7_15  and  O3_16 
REMARK    7  A    between atoms: N3_18  and  O4_19 
ROOT
HETATM    1  N2  UNL     1       1.103   1.647  54.214  1.00  0.00    -0.266 N 
HETATM    2  C3  UNL     1       2.163   2.614  54.376  1.00  0.00     0.160 C 
HETATM    3  C5  UNL     1       2.773   2.642  52.972  1.00  0.00     0.168 C 
HETATM    4  C6  UNL     1       2.541   1.193  52.612  1.00  0.00     0.164 C 
HETATM    5  N3  UNL     1       1.135   1.065  52.943  1.00  0.00    -0.094 NA
ENDROOT
BRANCH   1   6
HETATM    6  C2  UNL     1       0.138   1.305  55.192  1.00  0.00     0.099 C 
HETATM    7  C1  UNL     1       0.440   1.320  56.648  1.00  0.00     0.091 C 
HETATM    8  N1  UNL     1      -1.065   0.962  54.841  1.00  0.00    -0.308 N 
HETATM    9  S1  UNL     1      -2.299   0.529  56.009  1.00  0.00     0.043 SA
ATOM     10  H1  UNL     1      -1.301   0.943  53.848  1.00  0.00     0.176 HD
ENDBRANCH   1   6
BRANCH   2  11
HETATM   11  C4  UNL     1       1.699   3.957  54.829  1.00  0.00     0.193 C 
BRANCH  11  12
HETATM   12  O1  UNL     1       2.656   4.936  54.791  1.00  0.00    -0.399 OA
ATOM     13  H1  UNL     1       2.886   5.300  55.638  1.00  0.00     0.209 HD
ENDBRANCH  11  12
ENDBRANCH   2  11
BRANCH   5  14
HETATM   14  O4  UNL     1       0.344   1.725  52.086  1.00  0.00    -0.293 OA
ATOM     15  H4  UNL     1       0.405   1.362  51.210  1.00  0.00     0.239 HD
ENDBRANCH   5  14
BRANCH   3  16
HETATM   16  O2  UNL     1       2.031   3.489  52.149  1.00  0.00    -0.392 OA
ATOM     17  H2  UNL     1       1.108   3.419  52.362  1.00  0.00     0.210 HD
ENDBRANCH   3  16
BRANCH   4  18
HETATM   18  C7  UNL     1       2.840   0.878  51.181  1.00  0.00     0.190 C 
BRANCH  18  19
HETATM   19  O3  UNL     1       4.022   1.557  50.855  1.00  0.00    -0.399 OA
ATOM     20  H3  UNL     1       4.273   1.269  49.986  1.00  0.00     0.209 HD
ENDBRANCH  18  19
ENDBRANCH   4  18
TORSDOF 7
ENDMDL
MODEL 2
REMARK VINA RESULT: -6.095943647      1.744      3.374
REMARK  7 active torsions:
REMARK  status: ('A' for Active; 'I' for Inactive)
REMARK    1  A    between atoms: C2_2  and  N2_6 
REMARK    2  A    between atoms: C3_7  and  C4_8 
REMARK    3  A    between atoms: C4_8  and  O1_9 
REMARK    4  A    between atoms: C5_11  and  O2_12 
REMARK    5  A    between atoms: C6_14  and  C7_15 
REMARK    6  A    between atoms: C7_15  and  O3_16 
REMARK    7  A    between atoms: N3_18  and  O4_19 
ROOT
HETATM    1  N2  UNL     1       1.213   2.107  53.472  1.00  0.00    -0.266 N 
HETATM    2  C3  UNL     1       1.758   1.794  52.172  1.00  0.00     0.160 C 
HETATM    3  C5  UNL     1       3.030   2.647  52.156  1.00  0.00     0.168 C 
HETATM    4  C6  UNL     1       2.514   3.809  52.972  1.00  0.00     0.164 C 
HETATM    5  N3  UNL     1       1.959   3.102  54.111  1.00  0.00    -0.094 NA
ENDROOT
BRANCH   1   6
HETATM    6  C2  UNL     1       0.073   1.507  54.057  1.00  0.00     0.099 C 
HETATM    7  C1  UNL     1      -1.226   1.395  53.340  1.00  0.00     0.091 C 
HETATM    8  N1  UNL     1       0.126   1.024  55.263  1.00  0.00    -0.308 N 
HETATM    9  S1  UNL     1      -1.254   0.270  56.037  1.00  0.00     0.043 SA
ATOM     10  H1  UNL     1       1.004   1.087  55.778  1.00  0.00     0.176 HD
ENDBRANCH   1   6
BRANCH   2  11
HETATM   11  C4  UNL     1       2.034   0.345  51.959  1.00  0.00     0.193 C 
BRANCH  11  12
HETATM   12  O1  UNL     1       2.787   0.062  50.850  1.00  0.00    -0.399 OA
ATOM     13  H1  UNL     1       3.120   0.824  50.392  1.00  0.00     0.209 HD
ENDBRANCH  11  12
ENDBRANCH   2  11
BRANCH   5  14
HETATM   14  O4  UNL     1       2.907   2.571  54.896  1.00  0.00    -0.293 OA
ATOM     15  H4  UNL     1       3.540   2.077  54.389  1.00  0.00     0.239 HD
ENDBRANCH   5  14
BRANCH   3  16
HETATM   16  O2  UNL     1       4.056   1.980  52.824  1.00  0.00    -0.392 OA
ATOM     17  H2  UNL     1       4.178   1.116  52.449  1.00  0.00     0.210 HD
ENDBRANCH   3  16
BRANCH   4  18
HETATM   18  C7  UNL     1       3.577   4.791  53.351  1.00  0.00     0.190 C 
BRANCH  18  19
HETATM   19  O3  UNL     1       3.130   5.445  54.508  1.00  0.00    -0.399 OA
ATOM     20  H3  UNL     1       3.447   4.940  55.248  1.00  0.00     0.209 HD
ENDBRANCH  18  19
ENDBRANCH   4  18
TORSDOF 7
ENDMDL
MODEL 3
REMARK VINA RESULT: -5.987911069      1.187      1.227
REMARK  7 active torsions:
REMARK  status: ('A' for Active; 'I' for Inactive)
REMARK    1  A    between atoms: C2_2  and  N2_6 
REMARK    2  A    between atoms: C3_7  and  C4_8 
REMARK    3  A    between atoms: C4_8  and  O1_9 
REMARK    4  A    between atoms: C5_11  and  O2_12 
REMARK    5  A    between atoms: C6_14  and  C7_15 
REMARK    6  A    between atoms: C7_15  and  O3_16 
REMARK    7  A    between atoms: N3_18  and  O4_19 
ROOT
HETATM    1  N2  UNL     1       1.252   2.038  54.378  1.00  0.00    -0.266 N 
HETATM    2  C3  UNL     1       2.410   2.898  54.313  1.00  0.00     0.160 C 
HETATM    3  C5  UNL     1       2.853   2.711  52.859  1.00  0.00     0.168 C 
HETATM    4  C6  UNL     1       2.445   1.265  52.699  1.00  0.00     0.164 C 
HETATM    5  N3  UNL     1       1.080   1.324  53.188  1.00  0.00    -0.094 NA
ENDROOT
BRANCH   1   6
HETATM    6  C2  UNL     1       0.380   1.908  55.485  1.00  0.00     0.099 C 
HETATM    7  C1  UNL     1      -0.472   0.706  55.691  1.00  0.00     0.091 C 
HETATM    8  N1  UNL     1       0.296   2.852  56.374  1.00  0.00    -0.308 N 
HETATM    9  S1  UNL     1      -0.767   2.744  57.764  1.00  0.00     0.043 SA
ATOM     10  H1  UNL     1       0.869   3.688  56.259  1.00  0.00     0.176 HD
ENDBRANCH   1   6
BRANCH   2  11
HETATM   11  C4  UNL     1       2.132   4.323  54.651  1.00  0.00     0.193 C 
BRANCH  11  12
HETATM   12  O1  UNL     1       3.132   5.197  54.317  1.00  0.00    -0.399 OA
ATOM     13  H1  UNL     1       3.493   5.685  55.047  1.00  0.00     0.209 HD
ENDBRANCH  11  12
ENDBRANCH   2  11
BRANCH   5  14
HETATM   14  O4  UNL     1       0.261   1.970  52.347  1.00  0.00    -0.293 OA
ATOM     15  H4  UNL     1       0.667   2.096  51.498  1.00  0.00     0.239 HD
ENDBRANCH   5  14
BRANCH   3  16
HETATM   16  O2  UNL     1       2.103   3.540  52.024  1.00  0.00    -0.392 OA
ATOM     17  H2  UNL     1       1.646   3.017  51.376  1.00  0.00     0.210 HD
ENDBRANCH   3  16
BRANCH   4  18
HETATM   18  C7  UNL     1       2.543   0.769  51.291  1.00  0.00     0.190 C 
BRANCH  18  19
HETATM   19  O3  UNL     1       3.640   1.420  50.708  1.00  0.00    -0.399 OA
ATOM     20  H3  UNL     1       4.329   1.434  51.362  1.00  0.00     0.209 HD
ENDBRANCH  18  19
ENDBRANCH   4  18
TORSDOF 7
ENDMDL
MODEL 4
REMARK VINA RESULT: -5.608942805      3.367      5.183
REMARK  7 active torsions:
REMARK  status: ('A' for Active; 'I' for Inactive)
REMARK    1  A    between atoms: C2_2  and  N2_6 
REMARK    2  A    between atoms: C3_7  and  C4_8 
REMARK    3  A    between atoms: C4_8  and  O1_9 
REMARK    4  A    between atoms: C5_11  and  O2_12 
REMARK    5  A    between atoms: C6_14  and  C7_15 
REMARK    6  A    between atoms: C7_15  and  O3_16 
REMARK    7  A    between atoms: N3_18  and  O4_19 
ROOT
HETATM    1  N2  UNL     1       0.759   2.154  55.235  1.00  0.00    -0.266 N 
HETATM    2  C3  UNL     1       0.206   1.018  54.536  1.00  0.00     0.160 C 
HETATM    3  C5  UNL     1      -0.757   0.450  55.582  1.00  0.00     0.168 C 
HETATM    4  C6  UNL     1       0.040   0.803  56.816  1.00  0.00     0.164 C 
HETATM    5  N3  UNL     1       0.311   2.205  56.558  1.00  0.00    -0.094 NA
ENDROOT
BRANCH   1   6
HETATM    6  C2  UNL     1       1.645   3.112  54.686  1.00  0.00     0.099 C 
HETATM    7  C1  UNL     1       1.600   4.549  55.068  1.00  0.00     0.091 C 
HETATM    8  N1  UNL     1       2.542   2.759  53.815  1.00  0.00    -0.308 N 
HETATM    9  S1  UNL     1       3.664   3.903  53.103  1.00  0.00     0.043 SA
ATOM     10  H1  UNL     1       2.597   1.780  53.536  1.00  0.00     0.176 HD
ENDBRANCH   1   6
BRANCH   2  11
HETATM   11  C4  UNL     1      -0.475   1.363  53.255  1.00  0.00     0.193 C 
BRANCH  11  12
HETATM   12  O1  UNL     1      -1.266   2.480  53.310  1.00  0.00    -0.399 OA
ATOM     13  H1  UNL     1      -1.168   3.073  52.574  1.00  0.00     0.209 HD
ENDBRANCH  11  12
ENDBRANCH   2  11
BRANCH   5  14
HETATM   14  O4  UNL     1      -0.786   2.968  56.671  1.00  0.00    -0.293 OA
ATOM     15  H4  UNL     1      -1.101   2.989  57.567  1.00  0.00     0.239 HD
ENDBRANCH   5  14
BRANCH   3  16
HETATM   16  O2  UNL     1      -1.963   1.149  55.547  1.00  0.00    -0.392 OA
ATOM     17  H2  UNL     1      -2.549   0.817  56.216  1.00  0.00     0.210 HD
ENDBRANCH   3  16
BRANCH   4  18
HETATM   18  C7  UNL     1      -0.702   0.573  58.094  1.00  0.00     0.190 C 
BRANCH  18  19
HETATM   19  O3  UNL     1      -0.116   1.406  59.058  1.00  0.00    -0.399 OA
ATOM     20  H3  UNL     1       0.253   0.837  59.723  1.00  0.00     0.209 HD
ENDBRANCH  18  19
ENDBRANCH   4  18
TORSDOF 7
ENDMDL
MODEL 5
REMARK VINA RESULT: -5.573325009      3.353      5.255
REMARK  7 active torsions:
REMARK  status: ('A' for Active; 'I' for Inactive)
REMARK    1  A    between atoms: C2_2  and  N2_6 
REMARK    2  A    between atoms: C3_7  and  C4_8 
REMARK    3  A    between atoms: C4_8  and  O1_9 
REMARK    4  A    between atoms: C5_11  and  O2_12 
REMARK    5  A    between atoms: C6_14  and  C7_15 
REMARK    6  A    between atoms: C7_15  and  O3_16 
REMARK    7  A    between atoms: N3_18  and  O4_19 
ROOT
HETATM    1  N2  UNL     1       0.599   2.091  55.437  1.00  0.00    -0.266 N 
HETATM    2  C3  UNL     1       0.111   0.972  54.666  1.00  0.00     0.160 C 
HETATM    3  C5  UNL     1      -0.901   0.349  55.632  1.00  0.00     0.168 C 
HETATM    4  C6  UNL     1      -0.187   0.672  56.923  1.00  0.00     0.164 C 
HETATM    5  N3  UNL     1       0.071   2.087  56.731  1.00  0.00    -0.094 NA
ENDROOT
BRANCH   1   6
HETATM    6  C2  UNL     1       1.497   3.084  54.976  1.00  0.00     0.099 C 
HETATM    7  C1  UNL     1       2.612   2.778  54.040  1.00  0.00     0.091 C 
HETATM    8  N1  UNL     1       1.371   4.318  55.363  1.00  0.00    -0.308 N 
HETATM    9  S1  UNL     1       2.454   5.588  54.824  1.00  0.00     0.043 SA
ATOM     10  H1  UNL     1       0.615   4.557  56.004  1.00  0.00     0.176 HD
ENDBRANCH   1   6
BRANCH   2  11
HETATM   11  C4  UNL     1      -0.498   1.351  53.359  1.00  0.00     0.193 C 
BRANCH  11  12
HETATM   12  O1  UNL     1      -1.307   2.455  53.403  1.00  0.00    -0.399 OA
ATOM     13  H1  UNL     1      -1.050   3.159  52.820  1.00  0.00     0.209 HD
ENDBRANCH  11  12
ENDBRANCH   2  11
BRANCH   5  14
HETATM   14  O4  UNL     1      -1.045   2.826  56.804  1.00  0.00    -0.293 OA
ATOM     15  H4  UNL     1      -0.894   3.711  56.493  1.00  0.00     0.239 HD
ENDBRANCH   5  14
BRANCH   3  16
HETATM   16  O2  UNL     1      -2.117   1.028  55.548  1.00  0.00    -0.392 OA
ATOM     17  H2  UNL     1      -2.349   1.382  56.398  1.00  0.00     0.210 HD
ENDBRANCH   3  16
BRANCH   4  18
HETATM   18  C7  UNL     1      -1.000   0.383  58.145  1.00  0.00     0.190 C 
BRANCH  18  19
HETATM   19  O3  UNL     1      -0.486   1.188  59.172  1.00  0.00    -0.399 OA
ATOM     20  H3  UNL     1      -1.025   1.031  59.938  1.00  0.00     0.209 HD
ENDBRANCH  18  19
ENDBRANCH   4  18
TORSDOF 7
ENDMDL
