MODEL 1
REMARK VINA RESULT: -5.611213039      0.000      0.000
REMARK  2 active torsions:
REMARK  status: ('A' for Active; 'I' for Inactive)
REMARK    1  A    between atoms: N1_2  and  N2_3 
REMARK       I    between atoms: N1_2  and  C3_10 
REMARK       I    between atoms: N2_3  and  C2_5 
REMARK    2  A    between atoms: C3_10  and  C4_12 
ROOT
HETATM    1  C1  UNL     1      99.125  10.669   5.530  1.00  0.00     0.181 C 
HETATM    2  N1  UNL     1      99.574  11.887   6.123  1.00  0.00    -0.255 N 
HETATM    3  C3  UNL     1     100.702  11.948   6.957  1.00  0.00     0.326 C 
HETATM    4  O1  UNL     1     101.134  13.092   7.379  1.00  0.00    -0.261 OA
ENDROOT
BRANCH   2   5
HETATM    5  N2  UNL     1      98.846  13.083   5.921  1.00  0.00    -0.269 N 
HETATM    6  C2  UNL     1      97.726  13.523   6.560  1.00  0.00     0.201 C 
HETATM    7  N3  UNL     1      97.110  12.943   7.515  1.00  0.00    -0.372 N 
HETATM    8  N4  UNL     1      97.177  14.796   6.117  1.00  0.00    -0.062 NA
ATOM      9  H32 UNL     1      97.495  12.051   7.826  1.00  0.00     0.158 HD
ATOM     10  H31 UNL     1      96.272  13.271   7.994  1.00  0.00     0.158 HD
ATOM     11  H2  UNL     1      99.209  13.701   5.196  1.00  0.00     0.190 HD
ENDBRANCH   2   5
BRANCH   3  12
HETATM   12  C4  UNL     1     101.505  10.817   7.446  1.00  0.00     0.324 C 
HETATM   13  N5  UNL     1     101.006   9.826   8.281  1.00  0.00    -0.053 NA
HETATM   14  O2  UNL     1     102.711  10.859   7.004  1.00  0.00    -0.266 OA
ENDBRANCH   3  12
TORSDOF 2
ENDMDL
MODEL 2
REMARK VINA RESULT: -5.512698011      1.688      4.410
REMARK  2 active torsions:
REMARK  status: ('A' for Active; 'I' for Inactive)
REMARK    1  A    between atoms: N1_2  and  N2_3 
REMARK       I    between atoms: N1_2  and  C3_10 
REMARK       I    between atoms: N2_3  and  C2_5 
REMARK    2  A    between atoms: C3_10  and  C4_12 
ROOT
HETATM    1  C1  UNL     1      98.832  10.399   6.663  1.00  0.00     0.181 C 
HETATM    2  N1  UNL     1      99.857  11.350   6.954  1.00  0.00    -0.255 N 
HETATM    3  C3  UNL     1      99.579  12.701   7.211  1.00  0.00     0.326 C 
HETATM    4  O1  UNL     1     100.529  13.498   7.580  1.00  0.00    -0.261 OA
ENDROOT
BRANCH   2   5
HETATM    5  N2  UNL     1     101.215  10.953   6.938  1.00  0.00    -0.269 N 
HETATM    6  C2  UNL     1     101.962  10.416   7.942  1.00  0.00     0.201 C 
HETATM    7  N3  UNL     1     101.570  10.128   9.122  1.00  0.00    -0.372 N 
HETATM    8  N4  UNL     1     103.356  10.127   7.638  1.00  0.00    -0.062 NA
ATOM      9  H32 UNL     1     100.593  10.329   9.335  1.00  0.00     0.158 HD
ATOM     10  H31 UNL     1     102.129   9.726   9.874  1.00  0.00     0.158 HD
ATOM     11  H2  UNL     1     101.701  11.087   6.052  1.00  0.00     0.190 HD
ENDBRANCH   2   5
BRANCH   3  12
HETATM   12  C4  UNL     1      98.275  13.373   7.111  1.00  0.00     0.324 C 
HETATM   13  N5  UNL     1      97.454  13.623   8.204  1.00  0.00    -0.053 NA
HETATM   14  O2  UNL     1      97.997  13.701   5.900  1.00  0.00    -0.266 OA
ENDBRANCH   3  12
TORSDOF 2
ENDMDL
MODEL 3
REMARK VINA RESULT: -5.455279863      1.013      1.013
REMARK  2 active torsions:
REMARK  status: ('A' for Active; 'I' for Inactive)
REMARK    1  A    between atoms: N1_2  and  N2_3 
REMARK       I    between atoms: N1_2  and  C3_10 
REMARK       I    between atoms: N2_3  and  C2_5 
REMARK    2  A    between atoms: C3_10  and  C4_12 
ROOT
HETATM    1  C1  UNL     1      99.115  10.583   5.504  1.00  0.00     0.181 C 
HETATM    2  N1  UNL     1      99.561  11.779   6.143  1.00  0.00    -0.255 N 
HETATM    3  C3  UNL     1     100.637  11.795   7.045  1.00  0.00     0.326 C 
HETATM    4  O1  UNL     1     101.075  12.920   7.510  1.00  0.00    -0.261 OA
ENDROOT
BRANCH   2   5
HETATM    5  N2  UNL     1      98.880  12.998   5.915  1.00  0.00    -0.269 N 
HETATM    6  C2  UNL     1      97.753  13.474   6.513  1.00  0.00     0.201 C 
HETATM    7  N3  UNL     1      97.082  12.914   7.443  1.00  0.00    -0.372 N 
HETATM    8  N4  UNL     1      97.262  14.764   6.051  1.00  0.00    -0.062 NA
ATOM      9  H32 UNL     1      97.425  12.009   7.767  1.00  0.00     0.158 HD
ATOM     10  H31 UNL     1      96.237  13.269   7.890  1.00  0.00     0.158 HD
ATOM     11  H2  UNL     1      99.291  13.605   5.206  1.00  0.00     0.190 HD
ENDBRANCH   2   5
BRANCH   3  12
HETATM   12  C4  UNL     1     101.376  10.635   7.564  1.00  0.00     0.324 C 
HETATM   13  N5  UNL     1     102.751  10.480   7.435  1.00  0.00    -0.053 NA
HETATM   14  O2  UNL     1     100.600   9.795   8.149  1.00  0.00    -0.266 OA
ENDBRANCH   3  12
TORSDOF 2
ENDMDL
MODEL 4
REMARK VINA RESULT: -5.254567327      2.268      4.893
REMARK  2 active torsions:
REMARK  status: ('A' for Active; 'I' for Inactive)
REMARK    1  A    between atoms: N1_2  and  N2_3 
REMARK       I    between atoms: N1_2  and  C3_10 
REMARK       I    between atoms: N2_3  and  C2_5 
REMARK    2  A    between atoms: C3_10  and  C4_12 
ROOT
HETATM    1  C1  UNL     1     100.818  12.511   7.290  1.00  0.00     0.181 C 
HETATM    2  N1  UNL     1     100.205  11.222   7.329  1.00  0.00    -0.255 N 
HETATM    3  C3  UNL     1      99.182  10.849   6.443  1.00  0.00     0.326 C 
HETATM    4  O1  UNL     1      98.737   9.633   6.444  1.00  0.00    -0.261 OA
ENDROOT
BRANCH   2   5
HETATM    5  N2  UNL     1     100.588  10.286   8.318  1.00  0.00    -0.269 N 
HETATM    6  C2  UNL     1     101.815   9.745   8.557  1.00  0.00     0.201 C 
HETATM    7  N3  UNL     1     102.902  10.004   7.939  1.00  0.00    -0.372 N 
HETATM    8  N4  UNL     1     101.904   8.777   9.640  1.00  0.00    -0.062 NA
ATOM      9  H32 UNL     1     102.840  10.683   7.180  1.00  0.00     0.158 HD
ATOM     10  H31 UNL     1     103.821   9.599   8.117  1.00  0.00     0.158 HD
ATOM     11  H2  UNL     1      99.842   9.972   8.938  1.00  0.00     0.190 HD
ENDBRANCH   2   5
BRANCH   3  12
HETATM   12  C4  UNL     1      98.507  11.704   5.457  1.00  0.00     0.324 C 
HETATM   13  N5  UNL     1      97.971  12.950   5.760  1.00  0.00    -0.053 NA
HETATM   14  O2  UNL     1      98.479  11.163   4.292  1.00  0.00    -0.266 OA
ENDBRANCH   3  12
TORSDOF 2
ENDMDL
MODEL 5
REMARK VINA RESULT: -5.056141885      2.199      4.872
REMARK  2 active torsions:
REMARK  status: ('A' for Active; 'I' for Inactive)
REMARK    1  A    between atoms: N1_2  and  N2_3 
REMARK       I    between atoms: N1_2  and  C3_10 
REMARK       I    between atoms: N2_3  and  C2_5 
REMARK    2  A    between atoms: C3_10  and  C4_12 
ROOT
HETATM    1  C1  UNL     1     101.828  12.657   6.951  1.00  0.00     0.181 C 
HETATM    2  N1  UNL     1     101.067  11.498   7.291  1.00  0.00    -0.255 N 
HETATM    3  C3  UNL     1      99.665  11.473   7.228  1.00  0.00     0.326 C 
HETATM    4  O1  UNL     1      99.028  10.366   7.437  1.00  0.00    -0.261 OA
ENDROOT
BRANCH   2   5
HETATM    5  N2  UNL     1     101.722  10.334   7.759  1.00  0.00    -0.269 N 
HETATM    6  C2  UNL     1     102.383  10.137   8.934  1.00  0.00     0.201 C 
HETATM    7  N3  UNL     1     102.525  10.976   9.885  1.00  0.00    -0.372 N 
HETATM    8  N4  UNL     1     102.986   8.828   9.134  1.00  0.00    -0.062 NA
ATOM      9  H32 UNL     1     102.102  11.894   9.745  1.00  0.00     0.158 HD
ATOM     10  H31 UNL     1     103.020  10.829  10.764  1.00  0.00     0.158 HD
ATOM     11  H2  UNL     1     101.694   9.532   7.131  1.00  0.00     0.190 HD
ENDBRANCH   2   5
BRANCH   3  12
HETATM   12  C4  UNL     1      98.770  12.603   6.941  1.00  0.00     0.324 C 
HETATM   13  N5  UNL     1      98.473  13.600   7.862  1.00  0.00    -0.053 NA
HETATM   14  O2  UNL     1      98.308  12.557   5.743  1.00  0.00    -0.266 OA
ENDBRANCH   3  12
TORSDOF 2
ENDMDL
