MODEL 1
REMARK VINA RESULT: -6.864800202      0.000      0.000
REMARK  3 active torsions:
REMARK  status: ('A' for Active; 'I' for Inactive)
REMARK    1  A    between atoms: N1_1  and  N2_4 
REMARK       I    between atoms: N2_4  and  C1_6 
REMARK    2  A    between atoms: C1_6  and  C2_8 
REMARK    3  A    between atoms: C2_8  and  N3_9 
ROOT
HETATM    1  C2  UNL     1      40.975 -47.228   7.508  1.00  0.00     0.362 C 
HETATM    2  N4  UNL     1      41.058 -45.865   7.082  1.00  0.00    -0.294 N 
ATOM      3  H4  UNL     1      41.790 -45.200   7.333  1.00  0.00     0.167 HD
HETATM    4  C3  UNL     1      39.935 -45.600   6.246  1.00  0.00     0.325 C 
HETATM    5  O2  UNL     1      39.422 -44.472   5.959  1.00  0.00    -0.247 OA
HETATM    6  N5  UNL     1      39.471 -46.875   5.770  1.00  0.00    -0.275 N 
ATOM      7  H5  UNL     1      38.679 -47.035   5.149  1.00  0.00     0.173 HD
HETATM    8  C4  UNL     1      40.321 -47.871   6.327  1.00  0.00     0.292 C 
HETATM    9  O3  UNL     1      40.452 -49.035   5.874  1.00  0.00    -0.268 OA
ENDROOT
BRANCH   1  10
HETATM   10  C1  UNL     1      42.245 -47.857   7.826  1.00  0.00     0.302 C 
HETATM   11  N2  UNL     1      42.410 -48.719   8.937  1.00  0.00    -0.272 N 
ATOM     12  H2  UNL     1      41.605 -48.902   9.535  1.00  0.00     0.189 HD
HETATM   13  O1  UNL     1      43.250 -47.648   7.108  1.00  0.00    -0.266 OA
BRANCH  11  14
HETATM   14  N1  UNL     1      43.626 -49.328   9.250  1.00  0.00    -0.342 N 
ATOM     15  H12 UNL     1      44.422 -48.720   9.437  1.00  0.00     0.176 HD
ATOM     16  H11 UNL     1      43.743 -50.340   9.297  1.00  0.00     0.176 HD
ENDBRANCH  11  14
ENDBRANCH   1  10
BRANCH   1  17
HETATM   17  N3  UNL     1      40.021 -47.270   8.621  1.00  0.00    -0.034 N 
ATOM     18  H33 UNL     1      40.342 -47.905   9.352  1.00  0.00     0.278 HD
ATOM     19  H32 UNL     1      40.033 -46.394   9.143  1.00  0.00     0.278 HD
ATOM     20  H31 UNL     1      39.075 -47.505   8.325  1.00  0.00     0.278 HD
ENDBRANCH   1  17
TORSDOF 3
ENDMDL
MODEL 2
REMARK VINA RESULT: -6.732018411      2.018      4.470
REMARK  3 active torsions:
REMARK  status: ('A' for Active; 'I' for Inactive)
REMARK    1  A    between atoms: N1_1  and  N2_4 
REMARK       I    between atoms: N2_4  and  C1_6 
REMARK    2  A    between atoms: C1_6  and  C2_8 
REMARK    3  A    between atoms: C2_8  and  N3_9 
ROOT
HETATM    1  C2  UNL     1      40.000 -46.153   7.027  1.00  0.00     0.362 C 
HETATM    2  N4  UNL     1      39.512 -47.206   6.190  1.00  0.00    -0.294 N 
ATOM      3  H4  UNL     1      38.575 -47.270   5.790  1.00  0.00     0.167 HD
HETATM    4  C3  UNL     1      40.565 -48.148   6.014  1.00  0.00     0.325 C 
HETATM    5  O2  UNL     1      40.474 -49.369   5.671  1.00  0.00    -0.247 OA
HETATM    6  N5  UNL     1      41.789 -47.452   6.304  1.00  0.00    -0.275 N 
ATOM      7  H5  UNL     1      42.729 -47.844   6.272  1.00  0.00     0.173 HD
HETATM    8  C4  UNL     1      41.445 -46.113   6.644  1.00  0.00     0.292 C 
HETATM    9  O3  UNL     1      42.238 -45.140   6.611  1.00  0.00    -0.268 OA
ENDROOT
BRANCH   1  10
HETATM   10  C1  UNL     1      39.360 -44.864   6.840  1.00  0.00     0.302 C 
HETATM   11  N2  UNL     1      39.266 -44.238   5.574  1.00  0.00    -0.272 N 
ATOM     12  H2  UNL     1      39.665 -44.713   4.764  1.00  0.00     0.189 HD
HETATM   13  O1  UNL     1      38.863 -44.257   7.818  1.00  0.00    -0.266 OA
BRANCH  11  14
HETATM   14  N1  UNL     1      38.653 -42.998   5.384  1.00  0.00    -0.342 N 
ATOM     15  H12 UNL     1      38.143 -42.600   6.172  1.00  0.00     0.176 HD
ATOM     16  H11 UNL     1      38.697 -42.487   4.503  1.00  0.00     0.176 HD
ENDBRANCH  11  14
ENDBRANCH   1  10
BRANCH   1  17
HETATM   17  N3  UNL     1      39.921 -46.637   8.409  1.00  0.00    -0.034 N 
ATOM     18  H33 UNL     1      40.849 -46.855   8.773  1.00  0.00     0.278 HD
ATOM     19  H32 UNL     1      39.665 -45.882   9.045  1.00  0.00     0.278 HD
ATOM     20  H31 UNL     1      39.292 -47.432   8.517  1.00  0.00     0.278 HD
ENDBRANCH   1  17
TORSDOF 3
ENDMDL
MODEL 3
REMARK VINA RESULT: -6.406545765      1.908      2.407
REMARK  3 active torsions:
REMARK  status: ('A' for Active; 'I' for Inactive)
REMARK    1  A    between atoms: N1_1  and  N2_4 
REMARK       I    between atoms: N2_4  and  C1_6 
REMARK    2  A    between atoms: C1_6  and  C2_8 
REMARK    3  A    between atoms: C2_8  and  N3_9 
ROOT
HETATM    1  C2  UNL     1      41.304 -46.746   7.275  1.00  0.00     0.362 C 
HETATM    2  N4  UNL     1      41.057 -45.496   7.925  1.00  0.00    -0.294 N 
ATOM      3  H4  UNL     1      41.761 -44.881   8.334  1.00  0.00     0.167 HD
HETATM    4  C3  UNL     1      39.652 -45.262   7.899  1.00  0.00     0.325 C 
HETATM    5  O2  UNL     1      38.973 -44.494   8.652  1.00  0.00    -0.247 OA
HETATM    6  N5  UNL     1      39.121 -46.074   6.839  1.00  0.00    -0.275 N 
ATOM      7  H5  UNL     1      38.143 -46.138   6.558  1.00  0.00     0.173 HD
HETATM    8  C4  UNL     1      40.213 -46.773   6.252  1.00  0.00     0.292 C 
HETATM    9  O3  UNL     1      40.203 -47.286   5.106  1.00  0.00    -0.268 OA
ENDROOT
BRANCH   1  10
HETATM   10  C1  UNL     1      42.615 -46.879   6.664  1.00  0.00     0.302 C 
HETATM   11  N2  UNL     1      42.996 -46.147   5.514  1.00  0.00    -0.272 N 
ATOM     12  H2  UNL     1      42.322 -45.503   5.101  1.00  0.00     0.189 HD
HETATM   13  O1  UNL     1      43.462 -47.664   7.151  1.00  0.00    -0.266 OA
BRANCH  11  14
HETATM   14  N1  UNL     1      44.253 -46.269   4.920  1.00  0.00    -0.342 N 
ATOM     15  H12 UNL     1      45.067 -46.037   5.489  1.00  0.00     0.176 HD
ATOM     16  H11 UNL     1      44.383 -46.575   3.956  1.00  0.00     0.176 HD
ENDBRANCH  11  14
ENDBRANCH   1  10
BRANCH   1  17
HETATM   17  N3  UNL     1      41.019 -47.799   8.255  1.00  0.00    -0.034 N 
ATOM     18  H33 UNL     1      40.315 -47.491   8.925  1.00  0.00     0.278 HD
ATOM     19  H32 UNL     1      40.513 -48.571   7.823  1.00  0.00     0.278 HD
ATOM     20  H31 UNL     1      41.855 -48.134   8.734  1.00  0.00     0.278 HD
ENDBRANCH   1  17
TORSDOF 3
ENDMDL
MODEL 4
REMARK VINA RESULT: -6.360804034      1.551      1.888
REMARK  3 active torsions:
REMARK  status: ('A' for Active; 'I' for Inactive)
REMARK    1  A    between atoms: N1_1  and  N2_4 
REMARK       I    between atoms: N2_4  and  C1_6 
REMARK    2  A    between atoms: C1_6  and  C2_8 
REMARK    3  A    between atoms: C2_8  and  N3_9 
ROOT
HETATM    1  C2  UNL     1      41.087 -47.358   7.478  1.00  0.00     0.362 C 
HETATM    2  N4  UNL     1      40.225 -46.506   8.239  1.00  0.00    -0.294 N 
ATOM      3  H4  UNL     1      39.994 -46.613   9.227  1.00  0.00     0.167 HD
HETATM    4  C3  UNL     1      39.747 -45.482   7.371  1.00  0.00     0.325 C 
HETATM    5  O2  UNL     1      38.712 -44.757   7.513  1.00  0.00    -0.247 OA
HETATM    6  N5  UNL     1      40.672 -45.413   6.273  1.00  0.00    -0.275 N 
ATOM      7  H5  UNL     1      40.615 -44.780   5.475  1.00  0.00     0.173 HD
HETATM    8  C4  UNL     1      41.680 -46.390   6.504  1.00  0.00     0.292 C 
HETATM    9  O3  UNL     1      42.816 -46.387   5.969  1.00  0.00    -0.268 OA
ENDROOT
BRANCH   1  10
HETATM   10  C1  UNL     1      42.112 -48.045   8.242  1.00  0.00     0.302 C 
HETATM   11  N2  UNL     1      43.241 -47.377   8.774  1.00  0.00    -0.272 N 
ATOM     12  H2  UNL     1      43.335 -46.374   8.612  1.00  0.00     0.189 HD
HETATM   13  O1  UNL     1      42.022 -49.277   8.454  1.00  0.00    -0.266 OA
BRANCH  11  14
HETATM   14  N1  UNL     1      44.232 -48.029   9.509  1.00  0.00    -0.342 N 
ATOM     15  H12 UNL     1      45.132 -48.182   9.054  1.00  0.00     0.176 HD
ATOM     16  H11 UNL     1      44.091 -48.351  10.466  1.00  0.00     0.176 HD
ENDBRANCH  11  14
ENDBRANCH   1  10
BRANCH   1  17
HETATM   17  N3  UNL     1      40.224 -48.273   6.725  1.00  0.00    -0.034 N 
ATOM     18  H33 UNL     1      39.566 -48.746   7.344  1.00  0.00     0.278 HD
ATOM     19  H32 UNL     1      39.564 -47.755   6.144  1.00  0.00     0.278 HD
ATOM     20  H31 UNL     1      40.748 -48.947   6.168  1.00  0.00     0.278 HD
ENDBRANCH   1  17
TORSDOF 3
ENDMDL
MODEL 5
REMARK VINA RESULT: -6.128032543      2.026      2.899
REMARK  3 active torsions:
REMARK  status: ('A' for Active; 'I' for Inactive)
REMARK    1  A    between atoms: N1_1  and  N2_4 
REMARK       I    between atoms: N2_4  and  C1_6 
REMARK    2  A    between atoms: C1_6  and  C2_8 
REMARK    3  A    between atoms: C2_8  and  N3_9 
ROOT
HETATM    1  C2  UNL     1      41.809 -46.368   7.146  1.00  0.00     0.362 C 
HETATM    2  N4  UNL     1      40.804 -45.354   7.052  1.00  0.00    -0.294 N 
ATOM      3  H4  UNL     1      40.763 -44.610   6.354  1.00  0.00     0.167 HD
HETATM    4  C3  UNL     1      39.869 -45.568   8.105  1.00  0.00     0.325 C 
HETATM    5  O2  UNL     1      39.057 -44.731   8.612  1.00  0.00    -0.247 OA
HETATM    6  N5  UNL     1      40.013 -46.941   8.507  1.00  0.00    -0.275 N 
ATOM      7  H5  UNL     1      39.487 -47.413   9.242  1.00  0.00     0.173 HD
HETATM    8  C4  UNL     1      41.024 -47.519   7.689  1.00  0.00     0.292 C 
HETATM    9  O3  UNL     1      41.175 -48.751   7.501  1.00  0.00    -0.268 OA
ENDROOT
BRANCH   1  10
HETATM   10  C1  UNL     1      42.465 -46.709   5.896  1.00  0.00     0.302 C 
HETATM   11  N2  UNL     1      41.756 -47.200   4.774  1.00  0.00    -0.272 N 
ATOM     12  H2  UNL     1      40.746 -47.319   4.849  1.00  0.00     0.189 HD
HETATM   13  O1  UNL     1      43.705 -46.574   5.777  1.00  0.00    -0.266 OA
BRANCH  11  14
HETATM   14  N1  UNL     1      42.378 -47.531   3.569  1.00  0.00    -0.342 N 
ATOM     15  H12 UNL     1      42.604 -46.767   2.931  1.00  0.00     0.176 HD
ATOM     16  H11 UNL     1      42.609 -48.489   3.309  1.00  0.00     0.176 HD
ENDBRANCH  11  14
ENDBRANCH   1  10
BRANCH   1  17
HETATM   17  N3  UNL     1      42.748 -45.940   8.188  1.00  0.00    -0.034 N 
ATOM     18  H33 UNL     1      42.544 -46.403   9.074  1.00  0.00     0.278 HD
ATOM     19  H32 UNL     1      43.680 -46.316   8.014  1.00  0.00     0.278 HD
ATOM     20  H31 UNL     1      42.779 -44.928   8.304  1.00  0.00     0.278 HD
ENDBRANCH   1  17
TORSDOF 3
ENDMDL
