MODEL 1
REMARK VINA RESULT: -6.649489130      0.000      0.000
REMARK  3 active torsions:
REMARK  status: ('A' for Active; 'I' for Inactive)
REMARK    1  A    between atoms: N1_1  and  N2_4 
REMARK    2  A    between atoms: N2_4  and  C1_6 
REMARK    3  A    between atoms: C3_15  and  N6_16 
REMARK       I    between atoms: N6_16  and  C4_18 
ROOT
HETATM    1  C1  UNL     1      41.084 -47.371   7.650  1.00  0.00     0.179 A 
HETATM    2  N3  UNL     1      40.060 -46.975   8.419  1.00  0.00    -0.277 N 
ATOM      3  H3  UNL     1      39.836 -47.515   9.255  1.00  0.00     0.189 HD
HETATM    4  N4  UNL     1      39.328 -45.908   8.133  1.00  0.00    -0.250 N 
ATOM      5  H4  UNL     1      38.558 -45.652   8.753  1.00  0.00     0.192 HD
HETATM    6  C2  UNL     1      39.574 -45.153   7.046  1.00  0.00     0.340 A 
HETATM    7  O1  UNL     1      38.871 -44.126   6.769  1.00  0.00    -0.245 OA
HETATM    8  N5  UNL     1      40.600 -45.535   6.261  1.00  0.00    -0.290 N 
ATOM      9  H5  UNL     1      40.811 -44.984   5.430  1.00  0.00     0.172 HD
HETATM   10  C3  UNL     1      41.362 -46.619   6.530  1.00  0.00     0.160 A 
ENDROOT
BRANCH   1  11
HETATM   11  N2  UNL     1      41.742 -48.417   8.000  1.00  0.00    -0.288 N 
ATOM     12  H2  UNL     1      41.567 -49.285   7.494  1.00  0.00     0.188 HD
BRANCH  11  13
HETATM   13  N1  UNL     1      42.681 -48.436   9.029  1.00  0.00    -0.343 N 
ATOM     14  H12 UNL     1      42.966 -47.535   9.413  1.00  0.00     0.176 HD
ATOM     15  H11 UNL     1      43.089 -49.290   9.411  1.00  0.00     0.176 HD
ENDBRANCH  11  13
ENDBRANCH   1  11
BRANCH  10  16
HETATM   16  N6  UNL     1      42.341 -46.979   5.775  1.00  0.00    -0.294 N 
HETATM   17  C4  UNL     1      43.677 -46.584   5.992  1.00  0.00     0.334 C 
HETATM   18  N7  UNL     1      44.335 -45.778   5.041  1.00  0.00    -0.040 NA
HETATM   19  O2  UNL     1      44.288 -46.940   7.019  1.00  0.00    -0.251 OA
ATOM     20  H6  UNL     1      42.140 -47.583   4.978  1.00  0.00     0.172 HD
ENDBRANCH  10  16
TORSDOF 3
ENDMDL
MODEL 2
REMARK VINA RESULT: -6.473793225      2.079      2.348
REMARK  3 active torsions:
REMARK  status: ('A' for Active; 'I' for Inactive)
REMARK    1  A    between atoms: N1_1  and  N2_4 
REMARK    2  A    between atoms: N2_4  and  C1_6 
REMARK    3  A    between atoms: C3_15  and  N6_16 
REMARK       I    between atoms: N6_16  and  C4_18 
ROOT
HETATM    1  C1  UNL     1      40.517 -47.018   7.846  1.00  0.00     0.179 A 
HETATM    2  N3  UNL     1      39.779 -46.325   8.724  1.00  0.00    -0.277 N 
ATOM      3  H3  UNL     1      39.728 -46.652   9.690  1.00  0.00     0.189 HD
HETATM    4  N4  UNL     1      39.112 -45.231   8.385  1.00  0.00    -0.250 N 
ATOM      5  H4  UNL     1      38.564 -44.742   9.094  1.00  0.00     0.192 HD
HETATM    6  C2  UNL     1      39.139 -44.748   7.128  1.00  0.00     0.340 A 
HETATM    7  O1  UNL     1      38.499 -43.696   6.800  1.00  0.00    -0.245 OA
HETATM    8  N5  UNL     1      39.876 -45.432   6.231  1.00  0.00    -0.290 N 
ATOM      9  H5  UNL     1      39.916 -45.092   5.271  1.00  0.00     0.172 HD
HETATM   10  C3  UNL     1      40.565 -46.550   6.551  1.00  0.00     0.160 A 
ENDROOT
BRANCH   1  11
HETATM   11  N2  UNL     1      41.131 -48.068   8.258  1.00  0.00    -0.288 N 
ATOM     12  H2  UNL     1      40.615 -48.948   8.283  1.00  0.00     0.188 HD
BRANCH  11  13
HETATM   13  N1  UNL     1      42.462 -48.076   8.673  1.00  0.00    -0.343 N 
ATOM     14  H12 UNL     1      43.070 -47.351   8.293  1.00  0.00     0.176 HD
ATOM     15  H11 UNL     1      42.849 -48.757   9.326  1.00  0.00     0.176 HD
ENDBRANCH  11  13
ENDBRANCH   1  11
BRANCH  10  16
HETATM   16  N6  UNL     1      41.268 -47.199   5.689  1.00  0.00    -0.294 N 
HETATM   17  C4  UNL     1      40.709 -47.914   4.609  1.00  0.00     0.334 C 
HETATM   18  N7  UNL     1      40.857 -49.314   4.542  1.00  0.00    -0.040 NA
HETATM   19  O2  UNL     1      40.083 -47.322   3.709  1.00  0.00    -0.251 OA
ATOM     20  H6  UNL     1      42.282 -47.196   5.793  1.00  0.00     0.172 HD
ENDBRANCH  10  16
TORSDOF 3
ENDMDL
MODEL 3
REMARK VINA RESULT: -6.405181818      2.592      4.435
REMARK  3 active torsions:
REMARK  status: ('A' for Active; 'I' for Inactive)
REMARK    1  A    between atoms: N1_1  and  N2_4 
REMARK    2  A    between atoms: N2_4  and  C1_6 
REMARK    3  A    between atoms: C3_15  and  N6_16 
REMARK       I    between atoms: N6_16  and  C4_18 
ROOT
HETATM    1  C1  UNL     1      42.449 -46.794   7.884  1.00  0.00     0.179 A 
HETATM    2  N3  UNL     1      43.624 -46.905   8.520  1.00  0.00    -0.277 N 
ATOM      3  H3  UNL     1      44.280 -46.125   8.480  1.00  0.00     0.189 HD
HETATM    4  N4  UNL     1      43.965 -47.992   9.199  1.00  0.00    -0.250 N 
ATOM      5  H4  UNL     1      44.873 -48.023   9.664  1.00  0.00     0.192 HD
HETATM    6  C2  UNL     1      43.143 -49.054   9.290  1.00  0.00     0.340 A 
HETATM    7  O1  UNL     1      43.468 -50.100   9.943  1.00  0.00    -0.245 OA
HETATM    8  N5  UNL     1      41.957 -48.960   8.657  1.00  0.00    -0.290 N 
ATOM      9  H5  UNL     1      41.313 -49.749   8.707  1.00  0.00     0.172 HD
HETATM   10  C3  UNL     1      41.585 -47.865   7.958  1.00  0.00     0.160 A 
ENDROOT
BRANCH   1  11
HETATM   11  N2  UNL     1      42.199 -45.706   7.249  1.00  0.00    -0.288 N 
ATOM     12  H2  UNL     1      41.611 -45.008   7.704  1.00  0.00     0.188 HD
BRANCH  11  13
HETATM   13  N1  UNL     1      42.684 -45.423   5.973  1.00  0.00    -0.343 N 
ATOM     14  H12 UNL     1      42.600 -46.160   5.272  1.00  0.00     0.176 HD
ATOM     15  H11 UNL     1      43.109 -44.534   5.711  1.00  0.00     0.176 HD
ENDBRANCH  11  13
ENDBRANCH   1  11
BRANCH  10  16
HETATM   16  N6  UNL     1      40.451 -47.782   7.355  1.00  0.00    -0.294 N 
HETATM   17  C4  UNL     1      40.268 -48.098   5.993  1.00  0.00     0.334 C 
HETATM   18  N7  UNL     1      39.881 -47.092   5.085  1.00  0.00    -0.040 NA
HETATM   19  O2  UNL     1      40.446 -49.259   5.580  1.00  0.00    -0.251 OA
ATOM     20  H6  UNL     1      39.641 -47.471   7.892  1.00  0.00     0.172 HD
ENDBRANCH  10  16
TORSDOF 3
ENDMDL
MODEL 4
REMARK VINA RESULT: -6.387037213      1.847      2.597
REMARK  3 active torsions:
REMARK  status: ('A' for Active; 'I' for Inactive)
REMARK    1  A    between atoms: N1_1  and  N2_4 
REMARK    2  A    between atoms: N2_4  and  C1_6 
REMARK    3  A    between atoms: C3_15  and  N6_16 
REMARK       I    between atoms: N6_16  and  C4_18 
ROOT
HETATM    1  C1  UNL     1      40.547 -46.794   5.845  1.00  0.00     0.179 A 
HETATM    2  N3  UNL     1      39.292 -46.323   5.888  1.00  0.00    -0.277 N 
ATOM      3  H3  UNL     1      38.666 -46.521   5.108  1.00  0.00     0.189 HD
HETATM    4  N4  UNL     1      38.836 -45.609   6.909  1.00  0.00    -0.250 N 
ATOM      5  H4  UNL     1      37.872 -45.274   6.890  1.00  0.00     0.192 HD
HETATM    6  C2  UNL     1      39.613 -45.316   7.969  1.00  0.00     0.340 A 
HETATM    7  O1  UNL     1      39.177 -44.630   8.951  1.00  0.00    -0.245 OA
HETATM    8  N5  UNL     1      40.877 -45.781   7.942  1.00  0.00    -0.290 N 
ATOM      9  H5  UNL     1      41.490 -45.575   8.731  1.00  0.00     0.172 HD
HETATM   10  C3  UNL     1      41.367 -46.510   6.915  1.00  0.00     0.160 A 
ENDROOT
BRANCH   1  11
HETATM   11  N2  UNL     1      40.908 -47.476   4.818  1.00  0.00    -0.288 N 
ATOM     12  H2  UNL     1      41.483 -47.015   4.113  1.00  0.00     0.188 HD
BRANCH  11  13
HETATM   13  N1  UNL     1      40.560 -48.810   4.611  1.00  0.00    -0.343 N 
ATOM     14  H12 UNL     1      39.696 -49.136   5.044  1.00  0.00     0.176 HD
ATOM     15  H11 UNL     1      41.116 -49.462   4.059  1.00  0.00     0.176 HD
ENDBRANCH  11  13
ENDBRANCH   1  11
BRANCH  10  16
HETATM   16  N6  UNL     1      42.576 -46.952   6.896  1.00  0.00    -0.294 N 
HETATM   17  C4  UNL     1      43.140 -47.722   7.933  1.00  0.00     0.334 C 
HETATM   18  N7  UNL     1      44.224 -47.212   8.677  1.00  0.00    -0.040 NA
HETATM   19  O2  UNL     1      42.692 -48.852   8.204  1.00  0.00    -0.251 OA
ATOM     20  H6  UNL     1      43.157 -46.733   6.086  1.00  0.00     0.172 HD
ENDBRANCH  10  16
TORSDOF 3
ENDMDL
MODEL 5
REMARK VINA RESULT: -6.261387193      1.812      2.248
REMARK  3 active torsions:
REMARK  status: ('A' for Active; 'I' for Inactive)
REMARK    1  A    between atoms: N1_1  and  N2_4 
REMARK    2  A    between atoms: N2_4  and  C1_6 
REMARK    3  A    between atoms: C3_15  and  N6_16 
REMARK       I    between atoms: N6_16  and  C4_18 
ROOT
HETATM    1  C1  UNL     1      40.706 -46.765   5.993  1.00  0.00     0.179 A 
HETATM    2  N3  UNL     1      39.379 -46.586   6.050  1.00  0.00    -0.277 N 
ATOM      3  H3  UNL     1      38.792 -47.033   5.346  1.00  0.00     0.189 HD
HETATM    4  N4  UNL     1      38.801 -45.848   6.988  1.00  0.00    -0.250 N 
ATOM      5  H4  UNL     1      37.786 -45.744   6.985  1.00  0.00     0.192 HD
HETATM    6  C2  UNL     1      39.522 -45.233   7.946  1.00  0.00     0.340 A 
HETATM    7  O1  UNL     1      38.968 -44.524   8.849  1.00  0.00    -0.245 OA
HETATM    8  N5  UNL     1      40.857 -45.403   7.904  1.00  0.00    -0.290 N 
ATOM      9  H5  UNL     1      41.430 -44.949   8.616  1.00  0.00     0.172 HD
HETATM   10  C3  UNL     1      41.471 -46.149   6.959  1.00  0.00     0.160 A 
ENDROOT
BRANCH   1  11
HETATM   11  N2  UNL     1      41.184 -47.496   5.050  1.00  0.00    -0.288 N 
ATOM     12  H2  UNL     1      42.079 -47.227   4.641  1.00  0.00     0.188 HD
BRANCH  11  13
HETATM   13  N1  UNL     1      40.551 -48.633   4.553  1.00  0.00    -0.343 N 
ATOM     14  H12 UNL     1      41.002 -49.111   3.773  1.00  0.00     0.176 HD
ATOM     15  H11 UNL     1      39.677 -49.005   4.925  1.00  0.00     0.176 HD
ENDBRANCH  11  13
ENDBRANCH   1  11
BRANCH  10  16
HETATM   16  N6  UNL     1      42.748 -46.307   6.925  1.00  0.00    -0.294 N 
HETATM   17  C4  UNL     1      43.646 -45.300   6.513  1.00  0.00     0.334 C 
HETATM   18  N7  UNL     1      44.430 -45.488   5.357  1.00  0.00    -0.040 NA
HETATM   19  O2  UNL     1      43.756 -44.242   7.161  1.00  0.00    -0.251 OA
ATOM     20  H6  UNL     1      43.131 -47.208   7.210  1.00  0.00     0.172 HD
ENDBRANCH  10  16
TORSDOF 3
ENDMDL
