MODEL 1
REMARK VINA RESULT: -6.726958800      0.000      0.000
REMARK  4 active torsions:
REMARK  status: ('A' for Active; 'I' for Inactive)
REMARK    1  A    between atoms: N1_1  and  N2_4 
REMARK       I    between atoms: N2_4  and  C1_5 
REMARK    2  A    between atoms: C1_5  and  C2_7 
REMARK    3  A    between atoms: C2_7  and  N5_13 
REMARK       I    between atoms: N3_8  and  C3_10 
REMARK    4  A    between atoms: N5_13  and  N6_15 
ROOT
HETATM    1  C2  UNL     1      41.053 -46.866   7.851  1.00  0.00     0.209 C 
HETATM    2  N3  UNL     1      39.849 -46.473   7.968  1.00  0.00    -0.290 N 
ATOM      3  H3  UNL     1      39.099 -47.165   7.971  1.00  0.00     0.172 HD
HETATM    4  C3  UNL     1      39.522 -45.104   8.095  1.00  0.00     0.334 C 
HETATM    5  N4  UNL     1      38.584 -44.563   7.180  1.00  0.00    -0.040 NA
HETATM    6  O2  UNL     1      40.014 -44.345   8.962  1.00  0.00    -0.251 OA
ENDROOT
BRANCH   1   7
HETATM    7  C1  UNL     1      41.343 -48.342   7.720  1.00  0.00     0.380 C 
HETATM    8  N2  UNL     1      42.056 -48.962   8.660  1.00  0.00    -0.285 NA
HETATM    9  O1  UNL     1      40.839 -48.846   6.667  1.00  0.00    -0.246 OA
BRANCH   8  10
HETATM   10  N1  UNL     1      42.779 -49.589   9.612  1.00  0.00    -0.276 N 
ATOM     11  H12 UNL     1      42.250 -49.113   8.881  1.00  0.00     0.191 HD
ATOM     12  H11 UNL     1      43.324 -50.063  10.331  1.00  0.00     0.191 HD
ENDBRANCH   8  10
ENDBRANCH   1   7
BRANCH   1  13
HETATM   13  N5  UNL     1      42.090 -45.911   7.852  1.00  0.00    -0.286 N 
ATOM     14  H5  UNL     1      41.897 -44.955   7.555  1.00  0.00     0.188 HD
BRANCH  13  15
HETATM   15  N6  UNL     1      43.334 -46.250   8.241  1.00  0.00    -0.343 N 
ATOM     16  H62 UNL     1      44.020 -46.498   7.527  1.00  0.00     0.176 HD
ATOM     17  H61 UNL     1      43.585 -46.259   9.229  1.00  0.00     0.176 HD
ENDBRANCH  13  15
ENDBRANCH   1  13
TORSDOF 4
ENDMDL
MODEL 2
REMARK VINA RESULT: -6.661546082      1.762      2.206
REMARK  4 active torsions:
REMARK  status: ('A' for Active; 'I' for Inactive)
REMARK    1  A    between atoms: N1_1  and  N2_4 
REMARK       I    between atoms: N2_4  and  C1_5 
REMARK    2  A    between atoms: C1_5  and  C2_7 
REMARK    3  A    between atoms: C2_7  and  N5_13 
REMARK       I    between atoms: N3_8  and  C3_10 
REMARK    4  A    between atoms: N5_13  and  N6_15 
ROOT
HETATM    1  C2  UNL     1      41.160 -47.301   7.694  1.00  0.00     0.209 C 
HETATM    2  N3  UNL     1      40.995 -46.055   7.884  1.00  0.00    -0.290 N 
ATOM      3  H3  UNL     1      41.781 -45.495   8.217  1.00  0.00     0.172 HD
HETATM    4  C3  UNL     1      39.752 -45.423   7.647  1.00  0.00     0.334 C 
HETATM    5  N4  UNL     1      39.184 -44.669   8.703  1.00  0.00    -0.040 NA
HETATM    6  O2  UNL     1      39.128 -45.495   6.563  1.00  0.00    -0.251 OA
ENDROOT
BRANCH   1   7
HETATM    7  C1  UNL     1      42.510 -47.921   7.962  1.00  0.00     0.380 C 
HETATM    8  N2  UNL     1      42.683 -48.691   9.036  1.00  0.00    -0.285 NA
HETATM    9  O1  UNL     1      43.370 -47.618   7.076  1.00  0.00    -0.246 OA
BRANCH   8  10
HETATM   10  N1  UNL     1      42.857 -49.470  10.124  1.00  0.00    -0.276 N 
ATOM     11  H12 UNL     1      42.727 -48.864   9.314  1.00  0.00     0.191 HD
ATOM     12  H11 UNL     1      42.989 -50.059  10.946  1.00  0.00     0.191 HD
ENDBRANCH   8  10
ENDBRANCH   1   7
BRANCH   1  13
HETATM   13  N5  UNL     1      40.076 -48.074   7.229  1.00  0.00    -0.286 N 
ATOM     14  H5  UNL     1      39.334 -48.343   7.875  1.00  0.00     0.188 HD
BRANCH  13  15
HETATM   15  N6  UNL     1      40.011 -48.461   5.941  1.00  0.00    -0.343 N 
ATOM     16  H62 UNL     1      39.901 -49.453   5.732  1.00  0.00     0.176 HD
ATOM     17  H61 UNL     1      40.071 -47.774   5.189  1.00  0.00     0.176 HD
ENDBRANCH  13  15
ENDBRANCH   1  13
TORSDOF 4
ENDMDL
MODEL 3
REMARK VINA RESULT: -6.626237897      1.687      4.889
REMARK  4 active torsions:
REMARK  status: ('A' for Active; 'I' for Inactive)
REMARK    1  A    between atoms: N1_1  and  N2_4 
REMARK       I    between atoms: N2_4  and  C1_5 
REMARK    2  A    between atoms: C1_5  and  C2_7 
REMARK    3  A    between atoms: C2_7  and  N5_13 
REMARK       I    between atoms: N3_8  and  C3_10 
REMARK    4  A    between atoms: N5_13  and  N6_15 
ROOT
HETATM    1  C2  UNL     1      40.061 -46.090   6.855  1.00  0.00     0.209 C 
HETATM    2  N3  UNL     1      40.199 -47.030   7.702  1.00  0.00    -0.290 N 
ATOM      3  H3  UNL     1      39.779 -46.931   8.626  1.00  0.00     0.172 HD
HETATM    4  C3  UNL     1      40.920 -48.207   7.397  1.00  0.00     0.334 C 
HETATM    5  N4  UNL     1      41.973 -48.580   8.269  1.00  0.00    -0.040 NA
HETATM    6  O2  UNL     1      40.685 -48.932   6.402  1.00  0.00    -0.251 OA
ENDROOT
BRANCH   1   7
HETATM    7  C1  UNL     1      39.279 -44.857   7.236  1.00  0.00     0.380 C 
HETATM    8  N2  UNL     1      38.957 -43.962   6.303  1.00  0.00    -0.285 NA
HETATM    9  O1  UNL     1      39.002 -44.820   8.478  1.00  0.00    -0.246 OA
BRANCH   8  10
HETATM   10  N1  UNL     1      38.632 -43.057   5.357  1.00  0.00    -0.276 N 
ATOM     11  H12 UNL     1      38.866 -43.755   6.062  1.00  0.00     0.191 HD
ATOM     12  H11 UNL     1      38.387 -42.372   4.641  1.00  0.00     0.191 HD
ENDBRANCH   8  10
ENDBRANCH   1   7
BRANCH   1  13
HETATM   13  N5  UNL     1      40.638 -46.228   5.576  1.00  0.00    -0.286 N 
ATOM     14  H5  UNL     1      41.636 -46.062   5.452  1.00  0.00     0.188 HD
BRANCH  13  15
HETATM   15  N6  UNL     1      39.882 -46.577   4.517  1.00  0.00    -0.343 N 
ATOM     16  H62 UNL     1      39.248 -47.371   4.608  1.00  0.00     0.176 HD
ATOM     17  H61 UNL     1      39.943 -46.057   3.642  1.00  0.00     0.176 HD
ENDBRANCH  13  15
ENDBRANCH   1  13
TORSDOF 4
ENDMDL
MODEL 4
REMARK VINA RESULT: -6.473125677      1.788      2.118
REMARK  4 active torsions:
REMARK  status: ('A' for Active; 'I' for Inactive)
REMARK    1  A    between atoms: N1_1  and  N2_4 
REMARK       I    between atoms: N2_4  and  C1_5 
REMARK    2  A    between atoms: C1_5  and  C2_7 
REMARK    3  A    between atoms: C2_7  and  N5_13 
REMARK       I    between atoms: N3_8  and  C3_10 
REMARK    4  A    between atoms: N5_13  and  N6_15 
ROOT
HETATM    1  C2  UNL     1      40.768 -46.681   7.427  1.00  0.00     0.209 C 
HETATM    2  N3  UNL     1      39.618 -46.228   7.128  1.00  0.00    -0.290 N 
ATOM      3  H3  UNL     1      38.990 -46.801   6.562  1.00  0.00     0.172 HD
HETATM    4  C3  UNL     1      39.184 -44.953   7.558  1.00  0.00     0.334 C 
HETATM    5  N4  UNL     1      38.725 -44.046   6.572  1.00  0.00    -0.040 NA
HETATM    6  O2  UNL     1      39.187 -44.581   8.754  1.00  0.00    -0.251 OA
ENDROOT
BRANCH   1   7
HETATM    7  C1  UNL     1      41.176 -48.051   6.941  1.00  0.00     0.380 C 
HETATM    8  N2  UNL     1      40.880 -48.427   5.698  1.00  0.00    -0.285 NA
HETATM    9  O1  UNL     1      41.793 -48.719   7.830  1.00  0.00    -0.246 OA
BRANCH   8  10
HETATM   10  N1  UNL     1      40.580 -48.807   4.438  1.00  0.00    -0.276 N 
ATOM     11  H12 UNL     1      40.787 -48.523   5.395  1.00  0.00     0.191 HD
ATOM     12  H11 UNL     1      40.353 -49.095   3.486  1.00  0.00     0.191 HD
ENDBRANCH   8  10
ENDBRANCH   1   7
BRANCH   1  13
HETATM   13  N5  UNL     1      41.633 -45.893   8.212  1.00  0.00    -0.286 N 
ATOM     14  H5  UNL     1      41.252 -45.326   8.970  1.00  0.00     0.188 HD
BRANCH  13  15
HETATM   15  N6  UNL     1      42.958 -45.880   7.972  1.00  0.00    -0.343 N 
ATOM     16  H62 UNL     1      43.450 -46.770   7.892  1.00  0.00     0.176 HD
ATOM     17  H61 UNL     1      43.459 -44.998   7.871  1.00  0.00     0.176 HD
ENDBRANCH  13  15
ENDBRANCH   1  13
TORSDOF 4
ENDMDL
MODEL 5
REMARK VINA RESULT: -6.450526378      1.727      4.287
REMARK  4 active torsions:
REMARK  status: ('A' for Active; 'I' for Inactive)
REMARK    1  A    between atoms: N1_1  and  N2_4 
REMARK       I    between atoms: N2_4  and  C1_5 
REMARK    2  A    between atoms: C1_5  and  C2_7 
REMARK    3  A    between atoms: C2_7  and  N5_13 
REMARK       I    between atoms: N3_8  and  C3_10 
REMARK    4  A    between atoms: N5_13  and  N6_15 
ROOT
HETATM    1  C2  UNL     1      40.481 -46.036   7.649  1.00  0.00     0.209 C 
HETATM    2  N3  UNL     1      40.629 -47.153   8.238  1.00  0.00    -0.290 N 
ATOM      3  H3  UNL     1      40.409 -47.223   9.232  1.00  0.00     0.172 HD
HETATM    4  C3  UNL     1      41.090 -48.301   7.554  1.00  0.00     0.334 C 
HETATM    5  N4  UNL     1      42.217 -48.976   8.085  1.00  0.00    -0.040 NA
HETATM    6  O2  UNL     1      40.564 -48.749   6.509  1.00  0.00    -0.251 OA
ENDROOT
BRANCH   1   7
HETATM    7  C1  UNL     1      39.983 -44.844   8.430  1.00  0.00     0.380 C 
HETATM    8  N2  UNL     1      40.820 -44.177   9.224  1.00  0.00    -0.285 NA
HETATM    9  O1  UNL     1      38.751 -44.605   8.222  1.00  0.00    -0.246 OA
BRANCH   8  10
HETATM   10  N1  UNL     1      41.668 -43.502  10.027  1.00  0.00    -0.276 N 
ATOM     11  H12 UNL     1      41.035 -44.030   9.427  1.00  0.00     0.191 HD
ATOM     12  H11 UNL     1      42.309 -42.991  10.635  1.00  0.00     0.191 HD
ENDBRANCH   8  10
ENDBRANCH   1   7
BRANCH   1  13
HETATM   13  N5  UNL     1      40.780 -45.940   6.275  1.00  0.00    -0.286 N 
ATOM     14  H5  UNL     1      41.749 -45.999   5.964  1.00  0.00     0.188 HD
BRANCH  13  15
HETATM   15  N6  UNL     1      39.798 -45.771   5.369  1.00  0.00    -0.343 N 
ATOM     16  H62 UNL     1      40.049 -45.496   4.419  1.00  0.00     0.176 HD
ATOM     17  H61 UNL     1      38.822 -45.916   5.628  1.00  0.00     0.176 HD
ENDBRANCH  13  15
ENDBRANCH   1  13
TORSDOF 4
ENDMDL
