MODEL 1
REMARK VINA RESULT: -8.381951927      0.000      0.000
REMARK  5 active torsions:
REMARK  status: ('A' for Active; 'I' for Inactive)
REMARK    1  A    between atoms: C2_2  and  C4_4 
REMARK    2  A    between atoms: C4_4  and  C5_5 
REMARK       I    between atoms: C5_5  and  N1_7 
REMARK    3  A    between atoms: N1_7  and  C6_9 
REMARK    4  A    between atoms: C6_9  and  C7_10 
REMARK    5  A    between atoms: C7_10  and  O2_11 
ROOT
HETATM    1  C7  UNL     1       7.307   9.124  23.434  1.00  0.00     0.074 C 
HETATM    2  C8  UNL     1       5.982   8.872  24.128  1.00  0.00     0.042 C 
HETATM    3  C9  UNL     1       5.372   7.569  23.735  1.00  0.00     0.044 C 
HETATM    4  C10 UNL     1       6.306   6.466  24.175  1.00  0.00     0.101 C 
HETATM    5  C11 UNL     1       7.698   6.649  23.668  1.00  0.00     0.044 C 
HETATM    6  C12 UNL     1       8.246   8.042  23.883  1.00  0.00     0.042 C 
HETATM    7  C13 UNL     1       5.821   5.105  23.710  1.00  0.00     0.116 C 
HETATM    8  C14 UNL     1       5.437   4.482  25.048  1.00  0.00     0.295 C 
HETATM    9  C15 UNL     1       4.277   3.535  24.909  1.00  0.00     0.077 C 
HETATM   10  C16 UNL     1       4.443   2.677  26.168  1.00  0.00     0.042 C 
HETATM   11  C17 UNL     1       5.913   2.683  26.440  1.00  0.00     0.255 A 
HETATM   12  C18 UNL     1       6.789   2.390  25.266  1.00  0.00     0.313 A 
HETATM   13  N2  UNL     1       6.502   3.741  25.642  1.00  0.00     0.135 N 
HETATM   14  O3  UNL     1       5.157   5.596  25.799  1.00  0.00    -0.196 OA
HETATM   15  O4  UNL     1       6.222   6.368  25.560  1.00  0.00    -0.227 OA
ENDROOT
BRANCH   1  16
HETATM   16  C6  UNL     1       7.857  10.447  23.842  1.00  0.00     0.160 C 
BRANCH  16  17
HETATM   17  N1  UNL     1       6.778  11.293  24.302  1.00  0.00    -0.358 N 
HETATM   18  C5  UNL     1       6.857  12.711  24.287  1.00  0.00     0.217 C 
HETATM   19  O1  UNL     1       7.891  13.260  23.860  1.00  0.00    -0.274 OA
ATOM     20  H1  UNL     1       5.927  10.854  24.653  1.00  0.00     0.162 HD
BRANCH  18  21
HETATM   21  C4  UNL     1       5.717  13.499  24.773  1.00  0.00     0.106 C 
BRANCH  21  22
HETATM   22  C2  UNL     1       6.151  14.847  25.275  1.00  0.00    -0.014 C 
HETATM   23  C1  UNL     1       6.884  14.634  26.600  1.00  0.00     0.010 C 
HETATM   24  C3  UNL     1       4.949  15.752  25.504  1.00  0.00     0.010 C 
ENDBRANCH  21  22
ENDBRANCH  18  21
ENDBRANCH  16  17
ENDBRANCH   1  16
BRANCH   1  25
HETATM   25  O2  UNL     1       7.095   9.090  22.063  1.00  0.00    -0.388 OA
ATOM     26  H2  UNL     1       6.727   8.253  21.806  1.00  0.00     0.210 HD
ENDBRANCH   1  25
TORSDOF 5
ENDMDL
MODEL 2
REMARK VINA RESULT: -8.261270521      3.982      9.101
REMARK  5 active torsions:
REMARK  status: ('A' for Active; 'I' for Inactive)
REMARK    1  A    between atoms: C2_2  and  C4_4 
REMARK    2  A    between atoms: C4_4  and  C5_5 
REMARK       I    between atoms: C5_5  and  N1_7 
REMARK    3  A    between atoms: N1_7  and  C6_9 
REMARK    4  A    between atoms: C6_9  and  C7_10 
REMARK    5  A    between atoms: C7_10  and  O2_11 
ROOT
HETATM    1  C7  UNL     1       6.687  14.424  25.245  1.00  0.00     0.074 C 
HETATM    2  C8  UNL     1       7.828  14.192  24.272  1.00  0.00     0.042 C 
HETATM    3  C9  UNL     1       9.013  15.046  24.571  1.00  0.00     0.044 C 
HETATM    4  C10 UNL     1       9.529  14.663  25.939  1.00  0.00     0.101 C 
HETATM    5  C11 UNL     1       8.473  14.720  26.993  1.00  0.00     0.044 C 
HETATM    6  C12 UNL     1       7.187  14.027  26.604  1.00  0.00     0.042 C 
HETATM    7  C13 UNL     1      10.668  15.566  26.379  1.00  0.00     0.116 C 
HETATM    8  C14 UNL     1      11.828  14.577  26.336  1.00  0.00     0.295 C 
HETATM    9  C15 UNL     1      13.120  15.252  25.964  1.00  0.00     0.077 C 
HETATM   10  C16 UNL     1      14.144  14.249  26.508  1.00  0.00     0.042 C 
HETATM   11  C17 UNL     1      13.462  13.605  27.671  1.00  0.00     0.255 A 
HETATM   12  C18 UNL     1      12.807  14.537  28.637  1.00  0.00     0.313 A 
HETATM   13  N2  UNL     1      12.051  13.926  27.586  1.00  0.00     0.135 N 
HETATM   14  O3  UNL     1      11.385  13.674  25.402  1.00  0.00    -0.196 OA
HETATM   15  O4  UNL     1      10.144  13.421  25.828  1.00  0.00    -0.227 OA
ENDROOT
BRANCH   1  16
HETATM   16  C6  UNL     1       5.522  13.567  24.885  1.00  0.00     0.160 C 
BRANCH  16  17
HETATM   17  N1  UNL     1       5.989  12.401  24.168  1.00  0.00    -0.358 N 
HETATM   18  C5  UNL     1       5.293  11.163  24.185  1.00  0.00     0.217 C 
HETATM   19  O1  UNL     1       4.238  11.065  24.839  1.00  0.00    -0.274 OA
ATOM     20  H1  UNL     1       6.852  12.470  23.629  1.00  0.00     0.162 HD
BRANCH  18  21
HETATM   21  C4  UNL     1       5.835  10.025  23.430  1.00  0.00     0.106 C 
BRANCH  21  22
HETATM   22  C2  UNL     1       7.274   9.768  23.776  1.00  0.00    -0.014 C 
HETATM   23  C1  UNL     1       8.094   9.924  22.494  1.00  0.00     0.010 C 
HETATM   24  C3  UNL     1       7.458   8.360  24.323  1.00  0.00     0.010 C 
ENDBRANCH  21  22
ENDBRANCH  18  21
ENDBRANCH  16  17
ENDBRANCH   1  16
BRANCH   1  25
HETATM   25  O2  UNL     1       6.335  15.765  25.195  1.00  0.00    -0.388 OA
ATOM     26  H2  UNL     1       5.427  15.878  25.447  1.00  0.00     0.210 HD
ENDBRANCH   1  25
TORSDOF 5
ENDMDL
MODEL 3
REMARK VINA RESULT: -7.989067180      3.417      4.228
REMARK  5 active torsions:
REMARK  status: ('A' for Active; 'I' for Inactive)
REMARK    1  A    between atoms: C2_2  and  C4_4 
REMARK    2  A    between atoms: C4_4  and  C5_5 
REMARK       I    between atoms: C5_5  and  N1_7 
REMARK    3  A    between atoms: N1_7  and  C6_9 
REMARK    4  A    between atoms: C6_9  and  C7_10 
REMARK    5  A    between atoms: C7_10  and  O2_11 
ROOT
HETATM    1  C7  UNL     1       6.542  10.157  23.047  1.00  0.00     0.074 C 
HETATM    2  C8  UNL     1       5.300  11.026  23.081  1.00  0.00     0.042 C 
HETATM    3  C9  UNL     1       4.043  10.227  23.006  1.00  0.00     0.044 C 
HETATM    4  C10 UNL     1       3.982   9.338  24.227  1.00  0.00     0.101 C 
HETATM    5  C11 UNL     1       5.209   8.506  24.398  1.00  0.00     0.044 C 
HETATM    6  C12 UNL     1       6.498   9.285  24.268  1.00  0.00     0.042 C 
HETATM    7  C13 UNL     1       2.790   8.399  24.174  1.00  0.00     0.116 C 
HETATM    8  C14 UNL     1       1.943   8.976  25.303  1.00  0.00     0.295 C 
HETATM    9  C15 UNL     1       0.472   8.816  25.031  1.00  0.00     0.077 C 
HETATM   10  C16 UNL     1      -0.105   8.937  26.446  1.00  0.00     0.042 C 
HETATM   11  C17 UNL     1       0.975   8.420  27.341  1.00  0.00     0.255 A 
HETATM   12  C18 UNL     1       1.583   7.117  26.936  1.00  0.00     0.313 A 
HETATM   13  N2  UNL     1       2.196   8.355  26.563  1.00  0.00     0.135 N 
HETATM   14  O3  UNL     1       2.364  10.282  25.324  1.00  0.00    -0.196 OA
HETATM   15  O4  UNL     1       3.694  10.145  25.323  1.00  0.00    -0.227 OA
ENDROOT
BRANCH   1  16
HETATM   16  C6  UNL     1       7.765  11.006  23.098  1.00  0.00     0.160 C 
BRANCH  16  17
HETATM   17  N1  UNL     1       7.395  12.358  23.458  1.00  0.00    -0.358 N 
HETATM   18  C5  UNL     1       8.086  13.101  24.452  1.00  0.00     0.217 C 
HETATM   19  O1  UNL     1       9.050  12.580  25.044  1.00  0.00    -0.274 OA
ATOM     20  H1  UNL     1       6.607  12.794  22.979  1.00  0.00     0.162 HD
BRANCH  18  21
HETATM   21  C4  UNL     1       7.646  14.469  24.759  1.00  0.00     0.106 C 
BRANCH  21  22
HETATM   22  C2  UNL     1       6.566  14.480  25.804  1.00  0.00    -0.014 C 
HETATM   23  C1  UNL     1       5.587  15.598  25.446  1.00  0.00     0.010 C 
HETATM   24  C3  UNL     1       7.150  14.744  27.184  1.00  0.00     0.010 C 
ENDBRANCH  21  22
ENDBRANCH  18  21
ENDBRANCH  16  17
ENDBRANCH   1  16
BRANCH   1  25
HETATM   25  O2  UNL     1       6.521   9.410  21.877  1.00  0.00    -0.388 OA
ATOM     26  H2  UNL     1       6.895   8.550  22.028  1.00  0.00     0.210 HD
ENDBRANCH   1  25
TORSDOF 5
ENDMDL
MODEL 4
REMARK VINA RESULT: -7.908158202      3.681      4.387
REMARK  5 active torsions:
REMARK  status: ('A' for Active; 'I' for Inactive)
REMARK    1  A    between atoms: C2_2  and  C4_4 
REMARK    2  A    between atoms: C4_4  and  C5_5 
REMARK       I    between atoms: C5_5  and  N1_7 
REMARK    3  A    between atoms: N1_7  and  C6_9 
REMARK    4  A    between atoms: C6_9  and  C7_10 
REMARK    5  A    between atoms: C7_10  and  O2_11 
ROOT
HETATM    1  C7  UNL     1       5.526   8.830  22.917  1.00  0.00     0.074 C 
HETATM    2  C8  UNL     1       4.434   9.865  23.107  1.00  0.00     0.042 C 
HETATM    3  C9  UNL     1       3.108   9.247  23.398  1.00  0.00     0.044 C 
HETATM    4  C10 UNL     1       3.221   8.495  24.704  1.00  0.00     0.101 C 
HETATM    5  C11 UNL     1       4.350   7.518  24.713  1.00  0.00     0.044 C 
HETATM    6  C12 UNL     1       5.657   8.093  24.218  1.00  0.00     0.042 C 
HETATM    7  C13 UNL     1       1.947   7.733  25.021  1.00  0.00     0.116 C 
HETATM    8  C14 UNL     1       1.450   8.527  26.223  1.00  0.00     0.295 C 
HETATM    9  C15 UNL     1      -0.053   8.552  26.291  1.00  0.00     0.077 C 
HETATM   10  C16 UNL     1      -0.277   8.885  27.770  1.00  0.00     0.042 C 
HETATM   11  C17 UNL     1       0.909   8.307  28.473  1.00  0.00     0.255 A 
HETATM   12  C18 UNL     1       1.254   6.899  28.112  1.00  0.00     0.313 A 
HETATM   13  N2  UNL     1       1.907   7.998  27.467  1.00  0.00     0.135 N 
HETATM   14  O3  UNL     1       2.015   9.757  25.994  1.00  0.00    -0.196 OA
HETATM   15  O4  UNL     1       3.284   9.434  25.728  1.00  0.00    -0.227 OA
ENDROOT
BRANCH   1  16
HETATM   16  C6  UNL     1       6.820   9.500  22.604  1.00  0.00     0.160 C 
BRANCH  16  17
HETATM   17  N1  UNL     1       6.681  10.926  22.801  1.00  0.00    -0.358 N 
HETATM   18  C5  UNL     1       7.620  11.691  23.543  1.00  0.00     0.217 C 
HETATM   19  O1  UNL     1       8.607  11.123  24.047  1.00  0.00    -0.274 OA
ATOM     20  H1  UNL     1       5.877  11.401  22.391  1.00  0.00     0.162 HD
BRANCH  18  21
HETATM   21  C4  UNL     1       7.406  13.136  23.697  1.00  0.00     0.106 C 
BRANCH  21  22
HETATM   22  C2  UNL     1       6.619  13.448  24.938  1.00  0.00    -0.014 C 
HETATM   23  C1  UNL     1       5.138  13.253  24.609  1.00  0.00     0.010 C 
HETATM   24  C3  UNL     1       6.851  14.886  25.380  1.00  0.00     0.010 C 
ENDBRANCH  21  22
ENDBRANCH  18  21
ENDBRANCH  16  17
ENDBRANCH   1  16
BRANCH   1  25
HETATM   25  O2  UNL     1       5.155   7.987  21.880  1.00  0.00    -0.388 OA
ATOM     26  H2  UNL     1       4.238   7.752  21.957  1.00  0.00     0.210 HD
ENDBRANCH   1  25
TORSDOF 5
ENDMDL
MODEL 5
REMARK VINA RESULT: -7.852444301      4.371      6.690
REMARK  5 active torsions:
REMARK  status: ('A' for Active; 'I' for Inactive)
REMARK    1  A    between atoms: C2_2  and  C4_4 
REMARK    2  A    between atoms: C4_4  and  C5_5 
REMARK       I    between atoms: C5_5  and  N1_7 
REMARK    3  A    between atoms: N1_7  and  C6_9 
REMARK    4  A    between atoms: C6_9  and  C7_10 
REMARK    5  A    between atoms: C7_10  and  O2_11 
ROOT
HETATM    1  C7  UNL     1       1.495   7.155  24.821  1.00  0.00     0.074 C 
HETATM    2  C8  UNL     1       2.511   7.659  25.829  1.00  0.00     0.042 C 
HETATM    3  C9  UNL     1       3.915   7.396  25.402  1.00  0.00     0.044 C 
HETATM    4  C10 UNL     1       4.164   8.158  24.121  1.00  0.00     0.101 C 
HETATM    5  C11 UNL     1       3.153   7.858  23.064  1.00  0.00     0.044 C 
HETATM    6  C12 UNL     1       1.724   7.924  23.552  1.00  0.00     0.042 C 
HETATM    7  C13 UNL     1       5.536   7.854  23.548  1.00  0.00     0.116 C 
HETATM    8  C14 UNL     1       6.223   9.198  23.765  1.00  0.00     0.295 C 
HETATM    9  C15 UNL     1       7.695   9.034  24.031  1.00  0.00     0.077 C 
HETATM   10  C16 UNL     1       8.218  10.429  23.670  1.00  0.00     0.042 C 
HETATM   11  C17 UNL     1       7.274  10.929  22.625  1.00  0.00     0.255 A 
HETATM   12  C18 UNL     1       6.977   9.977  21.512  1.00  0.00     0.313 A 
HETATM   13  N2  UNL     1       6.105  10.071  22.643  1.00  0.00     0.135 N 
HETATM   14  O3  UNL     1       5.519   9.697  24.832  1.00  0.00    -0.196 OA
HETATM   15  O4  UNL     1       4.254   9.508  24.444  1.00  0.00    -0.227 OA
ENDROOT
BRANCH   1  16
HETATM   16  C6  UNL     1       0.112   7.419  25.309  1.00  0.00     0.160 C 
BRANCH  16  17
HETATM   17  N1  UNL     1      -0.276   8.764  24.943  1.00  0.00    -0.358 N 
HETATM   18  C5  UNL     1      -0.423   9.805  25.898  1.00  0.00     0.217 C 
HETATM   19  O1  UNL     1      -0.212   9.563  27.101  1.00  0.00    -0.274 OA
ATOM     20  H1  UNL     1      -0.451   8.973  23.960  1.00  0.00     0.162 HD
BRANCH  18  21
HETATM   21  C4  UNL     1      -0.822  11.144  25.444  1.00  0.00     0.106 C 
BRANCH  21  22
HETATM   22  C2  UNL     1      -0.492  11.356  23.994  1.00  0.00    -0.014 C 
HETATM   23  C1  UNL     1       0.779  12.204  23.926  1.00  0.00     0.010 C 
HETATM   24  C3  UNL     1      -1.622  12.085  23.282  1.00  0.00     0.010 C 
ENDBRANCH  21  22
ENDBRANCH  18  21
ENDBRANCH  16  17
ENDBRANCH   1  16
BRANCH   1  25
HETATM   25  O2  UNL     1       1.693   5.793  24.644  1.00  0.00    -0.388 OA
ATOM     26  H2  UNL     1       2.181   5.631  23.846  1.00  0.00     0.210 HD
ENDBRANCH   1  25
TORSDOF 5
ENDMDL
