MODEL 1
REMARK VINA RESULT: -7.764423710      0.000      0.000
REMARK  4 active torsions:
REMARK  status: ('A' for Active; 'I' for Inactive)
REMARK    1  A    between atoms: C7_7  and  N1_9 
REMARK    2  A    between atoms: N1_9  and  C9_11 
REMARK    3  A    between atoms: C10_14  and  N3_15 
REMARK    4  A    between atoms: C16_23  and  N5_24 
ROOT
HETATM    1  C9  UNL     1       4.087   9.919  24.604  1.00  0.00     0.707 A 
HETATM    2  N2  UNL     1       4.593  11.102  24.949  1.00  0.00    -0.021 N 
ATOM      3  H2  UNL     1       5.583  11.151  25.190  1.00  0.00     0.203 HD
HETATM    4  C10 UNL     1       3.876  12.234  24.997  1.00  0.00     0.709 A 
HETATM    5  N4  UNL     1       2.573  12.181  24.682  1.00  0.00    -0.022 N 
ATOM      6  H4  UNL     1       2.004  13.026  24.711  1.00  0.00     0.203 HD
HETATM    7  C16 UNL     1       2.018  11.001  24.326  1.00  0.00     0.705 A 
HETATM    8  N6  UNL     1       2.767   9.896  24.290  1.00  0.00    -0.022 N 
ATOM      9  H6  UNL     1       2.336   9.012  24.019  1.00  0.00     0.203 HD
ENDROOT
BRANCH   1  10
HETATM   10  N1  UNL     1       4.707   8.808  24.535  1.00  0.00    -0.216 N 
ATOM     11  H1  UNL     1       4.678   8.237  25.380  1.00  0.00     0.178 HD
BRANCH  10  12
HETATM   12  C7  UNL     1       5.433   8.253  23.446  1.00  0.00     0.047 C 
HETATM   13  C2  UNL     1       6.818   7.788  23.842  1.00  0.00     0.010 C 
HETATM   14  C1  UNL     1       6.780   6.558  24.711  1.00  0.00     0.012 C 
HETATM   15  C3  UNL     1       7.578   8.856  24.566  1.00  0.00     0.007 C 
HETATM   16  C4  UNL     1       7.723  10.029  23.614  1.00  0.00     0.001 C 
HETATM   17  C5  UNL     1       7.092   9.742  22.277  1.00  0.00     0.002 C 
HETATM   18  C6  UNL     1       5.655   9.360  22.410  1.00  0.00     0.031 C 
HETATM   19  C8  UNL     1       4.681   7.096  22.866  1.00  0.00     0.039 C 
ENDBRANCH  10  12
ENDBRANCH   1  10
BRANCH   4  20
HETATM   20  N3  UNL     1       4.420  13.495  25.366  1.00  0.00    -0.217 N 
HETATM   21  C11 UNL     1       3.490  14.546  25.693  1.00  0.00     0.141 C 
HETATM   22  C12 UNL     1       4.110  15.619  26.569  1.00  0.00     0.020 C 
HETATM   23  C13 UNL     1       5.395  16.044  25.906  1.00  0.00     0.003 C 
HETATM   24  C14 UNL     1       6.355  14.889  25.978  1.00  0.00     0.020 C 
HETATM   25  C15 UNL     1       5.849  13.629  25.385  1.00  0.00     0.141 C 
ENDBRANCH   4  20
BRANCH   7  26
HETATM   26  N5  UNL     1       0.769  10.964  24.027  1.00  0.00    -0.234 N 
ATOM     27  H52 UNL     1       0.449  10.534  23.159  1.00  0.00     0.174 HD
ATOM     28  H51 UNL     1       0.093  11.373  24.672  1.00  0.00     0.174 HD
ENDBRANCH   7  26
TORSDOF 4
ENDMDL
MODEL 2
REMARK VINA RESULT: -7.597714909      1.996      3.651
REMARK  4 active torsions:
REMARK  status: ('A' for Active; 'I' for Inactive)
REMARK    1  A    between atoms: C7_7  and  N1_9 
REMARK    2  A    between atoms: N1_9  and  C9_11 
REMARK    3  A    between atoms: C10_14  and  N3_15 
REMARK    4  A    between atoms: C16_23  and  N5_24 
ROOT
HETATM    1  C9  UNL     1       2.617  10.667  24.174  1.00  0.00     0.707 A 
HETATM    2  N2  UNL     1       3.518  11.517  24.668  1.00  0.00    -0.021 N 
ATOM      3  H2  UNL     1       4.452  11.161  24.875  1.00  0.00     0.203 HD
HETATM    4  C10 UNL     1       3.268  12.812  24.908  1.00  0.00     0.709 A 
HETATM    5  N4  UNL     1       2.043  13.289  24.639  1.00  0.00    -0.022 N 
ATOM      6  H4  UNL     1       1.826  14.270  24.812  1.00  0.00     0.203 HD
HETATM    7  C16 UNL     1       1.099  12.462  24.137  1.00  0.00     0.705 A 
HETATM    8  N6  UNL     1       1.387  11.178  23.912  1.00  0.00    -0.022 N 
ATOM      9  H6  UNL     1       0.665  10.565  23.533  1.00  0.00     0.203 HD
ENDROOT
BRANCH   1  10
HETATM   10  N1  UNL     1       2.784   9.430  23.922  1.00  0.00    -0.216 N 
ATOM     11  H1  UNL     1       2.747   9.175  22.935  1.00  0.00     0.178 HD
BRANCH  10  12
HETATM   12  C7  UNL     1       3.016   8.356  24.824  1.00  0.00     0.047 C 
HETATM   13  C2  UNL     1       2.307   7.083  24.414  1.00  0.00     0.010 C 
HETATM   14  C1  UNL     1       2.920   6.458  23.188  1.00  0.00     0.012 C 
HETATM   15  C3  UNL     1       0.851   7.318  24.147  1.00  0.00     0.007 C 
HETATM   16  C4  UNL     1       0.232   7.813  25.441  1.00  0.00     0.001 C 
HETATM   17  C5  UNL     1       1.247   7.887  26.552  1.00  0.00     0.002 C 
HETATM   18  C6  UNL     1       2.416   8.737  26.182  1.00  0.00     0.031 C 
HETATM   19  C8  UNL     1       4.485   8.080  24.925  1.00  0.00     0.039 C 
ENDBRANCH  10  12
ENDBRANCH   1  10
BRANCH   4  20
HETATM   20  N3  UNL     1       4.232  13.714  25.434  1.00  0.00    -0.217 N 
HETATM   21  C11 UNL     1       5.613  13.305  25.393  1.00  0.00     0.141 C 
HETATM   22  C12 UNL     1       6.570  14.481  25.446  1.00  0.00     0.020 C 
HETATM   23  C13 UNL     1       6.160  15.334  26.619  1.00  0.00     0.003 C 
HETATM   24  C14 UNL     1       4.823  15.942  26.301  1.00  0.00     0.020 C 
HETATM   25  C15 UNL     1       3.763  14.963  25.966  1.00  0.00     0.141 C 
ENDBRANCH   4  20
BRANCH   7  26
HETATM   26  N5  UNL     1      -0.071  12.932  23.884  1.00  0.00    -0.234 N 
ATOM     27  H52 UNL     1      -0.825  12.860  24.567  1.00  0.00     0.174 HD
ATOM     28  H51 UNL     1      -0.239  13.383  22.985  1.00  0.00     0.174 HD
ENDBRANCH   7  26
TORSDOF 4
ENDMDL
MODEL 3
REMARK VINA RESULT: -7.571662715      1.944      3.823
REMARK  4 active torsions:
REMARK  status: ('A' for Active; 'I' for Inactive)
REMARK    1  A    between atoms: C7_7  and  N1_9 
REMARK    2  A    between atoms: N1_9  and  C9_11 
REMARK    3  A    between atoms: C10_14  and  N3_15 
REMARK    4  A    between atoms: C16_23  and  N5_24 
ROOT
HETATM    1  C9  UNL     1       5.985   9.771  24.568  1.00  0.00     0.707 A 
HETATM    2  N2  UNL     1       5.526  10.967  24.934  1.00  0.00    -0.021 N 
ATOM      3  H2  UNL     1       4.542  11.046  25.190  1.00  0.00     0.203 HD
HETATM    4  C10 UNL     1       6.283  12.072  24.984  1.00  0.00     0.709 A 
HETATM    5  N4  UNL     1       7.579  11.978  24.648  1.00  0.00    -0.022 N 
ATOM      6  H4  UNL     1       8.177  12.803  24.677  1.00  0.00     0.203 HD
HETATM    7  C16 UNL     1       8.086  10.783  24.270  1.00  0.00     0.705 A 
HETATM    8  N6  UNL     1       7.299   9.705  24.233  1.00  0.00    -0.022 N 
ATOM      9  H6  UNL     1       7.695   8.810  23.947  1.00  0.00     0.203 HD
ENDROOT
BRANCH   1  10
HETATM   10  N1  UNL     1       5.327   8.683  24.497  1.00  0.00    -0.216 N 
ATOM     11  H1  UNL     1       5.433   8.053  25.293  1.00  0.00     0.178 HD
BRANCH  10  12
HETATM   12  C7  UNL     1       4.464   8.223  23.465  1.00  0.00     0.047 C 
HETATM   13  C2  UNL     1       3.011   8.192  23.886  1.00  0.00     0.010 C 
HETATM   14  C1  UNL     1       2.431   9.574  24.037  1.00  0.00     0.012 C 
HETATM   15  C3  UNL     1       2.821   7.455  25.176  1.00  0.00     0.007 C 
HETATM   16  C4  UNL     1       3.283   6.027  24.950  1.00  0.00     0.001 C 
HETATM   17  C5  UNL     1       3.750   5.810  23.535  1.00  0.00     0.002 C 
HETATM   18  C6  UNL     1       4.830   6.767  23.153  1.00  0.00     0.031 C 
HETATM   19  C8  UNL     1       4.600   9.098  22.257  1.00  0.00     0.039 C 
ENDBRANCH  10  12
ENDBRANCH   1  10
BRANCH   4  20
HETATM   20  N3  UNL     1       5.789  13.346  25.375  1.00  0.00    -0.217 N 
HETATM   21  C11 UNL     1       4.399  13.626  25.114  1.00  0.00     0.141 C 
HETATM   22  C12 UNL     1       3.846  14.713  26.016  1.00  0.00     0.020 C 
HETATM   23  C13 UNL     1       4.791  15.884  25.931  1.00  0.00     0.003 C 
HETATM   24  C14 UNL     1       6.087  15.477  26.574  1.00  0.00     0.020 C 
HETATM   25  C15 UNL     1       6.705  14.259  26.000  1.00  0.00     0.141 C 
ENDBRANCH   4  20
BRANCH   7  26
HETATM   26  N5  UNL     1       9.329  10.707  23.951  1.00  0.00    -0.234 N 
ATOM     27  H52 UNL     1       9.708   9.867  23.514  1.00  0.00     0.174 HD
ATOM     28  H51 UNL     1       9.938  11.503  24.138  1.00  0.00     0.174 HD
ENDBRANCH   7  26
TORSDOF 4
ENDMDL
MODEL 4
REMARK VINA RESULT: -7.485590221      2.059      4.108
REMARK  4 active torsions:
REMARK  status: ('A' for Active; 'I' for Inactive)
REMARK    1  A    between atoms: C7_7  and  N1_9 
REMARK    2  A    between atoms: N1_9  and  C9_11 
REMARK    3  A    between atoms: C10_14  and  N3_15 
REMARK    4  A    between atoms: C16_23  and  N5_24 
ROOT
HETATM    1  C9  UNL     1       4.047   9.934  24.112  1.00  0.00     0.707 A 
HETATM    2  N2  UNL     1       4.058  11.167  24.615  1.00  0.00    -0.021 N 
ATOM      3  H2  UNL     1       3.199  11.524  25.035  1.00  0.00     0.203 HD
HETATM    4  C10 UNL     1       5.133  11.968  24.601  1.00  0.00     0.709 A 
HETATM    5  N4  UNL     1       6.267  11.509  24.051  1.00  0.00    -0.022 N 
ATOM      6  H4  UNL     1       7.100  12.097  24.027  1.00  0.00     0.203 HD
HETATM    7  C16 UNL     1       6.301  10.263  23.529  1.00  0.00     0.705 A 
HETATM    8  N6  UNL     1       5.208   9.496  23.562  1.00  0.00    -0.022 N 
ATOM      9  H6  UNL     1       5.247   8.557  23.165  1.00  0.00     0.203 HD
ENDROOT
BRANCH   1  10
HETATM   10  N1  UNL     1       3.067   9.120  24.092  1.00  0.00    -0.216 N 
ATOM     11  H1  UNL     1       2.502   9.136  23.243  1.00  0.00     0.178 HD
BRANCH  10  12
HETATM   12  C7  UNL     1       2.650   8.195  25.087  1.00  0.00     0.047 C 
HETATM   13  C2  UNL     1       1.185   7.833  24.975  1.00  0.00     0.010 C 
HETATM   14  C1  UNL     1       0.899   6.979  23.767  1.00  0.00     0.012 C 
HETATM   15  C3  UNL     1       0.315   9.051  24.910  1.00  0.00     0.007 C 
HETATM   16  C4  UNL     1       0.520   9.819  26.203  1.00  0.00     0.001 C 
HETATM   17  C5  UNL     1       1.487   9.118  27.119  1.00  0.00     0.002 C 
HETATM   18  C6  UNL     1       2.801   8.868  26.456  1.00  0.00     0.031 C 
HETATM   19  C8  UNL     1       3.466   6.942  24.994  1.00  0.00     0.039 C 
ENDBRANCH  10  12
ENDBRANCH   1  10
BRANCH   4  20
HETATM   20  N3  UNL     1       5.141  13.284  25.139  1.00  0.00    -0.217 N 
HETATM   21  C11 UNL     1       3.864  13.916  25.359  1.00  0.00     0.141 C 
HETATM   22  C12 UNL     1       3.933  15.021  26.397  1.00  0.00     0.020 C 
HETATM   23  C13 UNL     1       5.070  15.928  26.004  1.00  0.00     0.003 C 
HETATM   24  C14 UNL     1       6.352  15.162  26.175  1.00  0.00     0.020 C 
HETATM   25  C15 UNL     1       6.412  13.886  25.423  1.00  0.00     0.141 C 
ENDBRANCH   4  20
BRANCH   7  26
HETATM   26  N5  UNL     1       7.394   9.835  23.005  1.00  0.00    -0.234 N 
ATOM     27  H52 UNL     1       7.980  10.449  22.439  1.00  0.00     0.174 HD
ATOM     28  H51 UNL     1       7.672   8.867  23.162  1.00  0.00     0.174 HD
ENDBRANCH   7  26
TORSDOF 4
ENDMDL
MODEL 5
REMARK VINA RESULT: -7.472920623      2.071      6.031
REMARK  4 active torsions:
REMARK  status: ('A' for Active; 'I' for Inactive)
REMARK    1  A    between atoms: C7_7  and  N1_9 
REMARK    2  A    between atoms: N1_9  and  C9_11 
REMARK    3  A    between atoms: C10_14  and  N3_15 
REMARK    4  A    between atoms: C16_23  and  N5_24 
ROOT
HETATM    1  C9  UNL     1       2.434  13.265  24.866  1.00  0.00     0.707 A 
HETATM    2  N2  UNL     1       3.413  12.405  24.591  1.00  0.00    -0.021 N 
ATOM      3  H2  UNL     1       3.167  11.525  24.138  1.00  0.00     0.203 HD
HETATM    4  C10 UNL     1       4.704  12.630  24.876  1.00  0.00     0.709 A 
HETATM    5  N4  UNL     1       5.037  13.784  25.473  1.00  0.00    -0.022 N 
ATOM      6  H4  UNL     1       6.011  13.981  25.701  1.00  0.00     0.203 HD
HETATM    7  C16 UNL     1       4.075  14.686  25.770  1.00  0.00     0.705 A 
HETATM    8  N6  UNL     1       2.800  14.425  25.470  1.00  0.00    -0.022 N 
ATOM      9  H6  UNL     1       2.084  15.114  25.699  1.00  0.00     0.203 HD
ENDROOT
BRANCH   1  10
HETATM   10  N1  UNL     1       1.192  13.119  24.625  1.00  0.00    -0.216 N 
ATOM     11  H1  UNL     1       0.574  13.788  25.084  1.00  0.00     0.178 HD
BRANCH  10  12
HETATM   12  C7  UNL     1       0.546  12.153  23.805  1.00  0.00     0.047 C 
HETATM   13  C2  UNL     1      -0.880  11.882  24.231  1.00  0.00     0.010 C 
HETATM   14  C1  UNL     1      -1.794  13.044  23.937  1.00  0.00     0.012 C 
HETATM   15  C3  UNL     1      -0.975  11.564  25.692  1.00  0.00     0.007 C 
HETATM   16  C4  UNL     1      -0.158  10.307  25.931  1.00  0.00     0.001 C 
HETATM   17  C5  UNL     1       0.449   9.786  24.656  1.00  0.00     0.002 C 
HETATM   18  C6  UNL     1       1.282  10.819  23.973  1.00  0.00     0.031 C 
HETATM   19  C8  UNL     1       0.548  12.609  22.379  1.00  0.00     0.039 C 
ENDBRANCH  10  12
ENDBRANCH   1  10
BRANCH   4  20
HETATM   20  N3  UNL     1       5.746  11.709  24.581  1.00  0.00    -0.217 N 
HETATM   21  C11 UNL     1       7.049  12.255  24.294  1.00  0.00     0.141 C 
HETATM   22  C12 UNL     1       8.164  11.254  24.534  1.00  0.00     0.020 C 
HETATM   23  C13 UNL     1       7.791   9.991  23.801  1.00  0.00     0.003 C 
HETATM   24  C14 UNL     1       6.591   9.398  24.486  1.00  0.00     0.020 C 
HETATM   25  C15 UNL     1       5.428  10.309  24.589  1.00  0.00     0.141 C 
ENDBRANCH   4  20
BRANCH   7  26
HETATM   26  N5  UNL     1       4.408  15.788  26.342  1.00  0.00    -0.234 N 
ATOM     27  H52 UNL     1       5.243  16.297  26.054  1.00  0.00     0.174 HD
ATOM     28  H51 UNL     1       3.823  16.152  27.093  1.00  0.00     0.174 HD
ENDBRANCH   7  26
TORSDOF 4
ENDMDL
