MODEL 1
REMARK VINA RESULT: -8.155294063      0.000      0.000
REMARK  4 active torsions:
REMARK  status: ('A' for Active; 'I' for Inactive)
REMARK    1  A    between atoms: O1_1  and  C1_3 
REMARK    2  A    between atoms: C2_4  and  O2_5 
REMARK    3  A    between atoms: O2_5  and  C3_6 
REMARK    4  A    between atoms: C16_23  and  O3_24 
ROOT
HETATM    1  C1  UNL     1       4.060  10.610  23.976  1.00  0.00     0.176 C 
HETATM    2  C2  UNL     1       3.296  11.797  24.435  1.00  0.00     0.153 C 
HETATM    3  C8  UNL     1       1.845  11.565  24.712  1.00  0.00     0.042 C 
HETATM    4  C9  UNL     1       1.488  10.128  24.667  1.00  0.00     0.024 C 
HETATM    5  C10 UNL     1       2.496   9.257  25.404  1.00  0.00     0.024 C 
HETATM    6  C11 UNL     1       1.813   7.917  25.229  1.00  0.00     0.010 C 
HETATM    7  C12 UNL     1       0.357   8.218  25.399  1.00  0.00     0.033 C 
HETATM    8  C13 UNL     1       0.223   9.747  25.353  1.00  0.00     0.049 C 
HETATM    9  C14 UNL     1       0.092  10.223  26.755  1.00  0.00     0.050 C 
HETATM   10  C15 UNL     1      -0.991  11.228  26.981  1.00  0.00     0.135 C 
HETATM   11  N1  UNL     1      -2.088  11.130  26.060  1.00  0.00    -0.127 NA
HETATM   12  N2  UNL     1      -1.528  11.227  24.761  1.00  0.00    -0.035 NA
HETATM   13  N3  UNL     1      -0.885  10.047  24.500  1.00  0.00    -0.313 N 
ATOM     14  H3  UNL     1      -1.177   9.424  23.748  1.00  0.00     0.178 HD
HETATM   15  C16 UNL     1       3.813   9.344  24.704  1.00  0.00     0.154 C 
ENDROOT
BRANCH   2  16
HETATM   16  O2  UNL     1       3.963  12.388  25.509  1.00  0.00    -0.378 OA
BRANCH  16  17
HETATM   17  C3  UNL     1       4.547  13.595  25.190  1.00  0.00     0.122 C 
HETATM   18  C4  UNL     1       5.916  13.778  25.787  1.00  0.00     0.032 C 
HETATM   19  C5  UNL     1       6.072  15.299  25.876  1.00  0.00     0.002 C 
HETATM   20  C6  UNL     1       4.689  15.758  26.280  1.00  0.00     0.002 C 
HETATM   21  C7  UNL     1       3.724  14.696  25.835  1.00  0.00     0.032 C 
ENDBRANCH  16  17
ENDBRANCH   2  16
BRANCH   1  22
HETATM   22  O1  UNL     1       3.912  10.435  22.583  1.00  0.00    -0.390 OA
ATOM     23  H1  UNL     1       4.402   9.676  22.289  1.00  0.00     0.210 HD
ENDBRANCH   1  22
BRANCH  15  24
HETATM   24  O3  UNL     1       3.873   8.289  23.764  1.00  0.00    -0.393 OA
ATOM     25  H3  UNL     1       3.622   7.489  24.212  1.00  0.00     0.210 HD
ENDBRANCH  15  24
TORSDOF 4
ENDMDL
MODEL 2
REMARK VINA RESULT: -7.608090350      1.910      2.484
REMARK  4 active torsions:
REMARK  status: ('A' for Active; 'I' for Inactive)
REMARK    1  A    between atoms: O1_1  and  C1_3 
REMARK    2  A    between atoms: C2_4  and  O2_5 
REMARK    3  A    between atoms: O2_5  and  C3_6 
REMARK    4  A    between atoms: C16_23  and  O3_24 
ROOT
HETATM    1  C1  UNL     1       5.033   8.946  22.549  1.00  0.00     0.176 C 
HETATM    2  C2  UNL     1       4.497  10.045  23.392  1.00  0.00     0.153 C 
HETATM    3  C8  UNL     1       3.176   9.777  24.039  1.00  0.00     0.042 C 
HETATM    4  C9  UNL     1       2.746   8.369  23.877  1.00  0.00     0.024 C 
HETATM    5  C10 UNL     1       3.875   7.384  24.141  1.00  0.00     0.024 C 
HETATM    6  C11 UNL     1       3.102   6.094  23.966  1.00  0.00     0.010 C 
HETATM    7  C12 UNL     1       1.774   6.370  24.598  1.00  0.00     0.033 C 
HETATM    8  C13 UNL     1       1.713   7.886  24.833  1.00  0.00     0.049 C 
HETATM    9  C14 UNL     1       2.015   8.124  26.269  1.00  0.00     0.050 C 
HETATM   10  C15 UNL     1       1.097   9.083  26.956  1.00  0.00     0.135 C 
HETATM   11  N1  UNL     1      -0.222   9.144  26.391  1.00  0.00    -0.127 NA
HETATM   12  N2  UNL     1      -0.054   9.452  25.018  1.00  0.00    -0.035 NA
HETATM   13  N3  UNL     1       0.424   8.328  24.399  1.00  0.00    -0.313 N 
ATOM     14  H3  UNL     1      -0.104   7.840  23.677  1.00  0.00     0.178 HD
HETATM   15  C16 UNL     1       4.939   7.579  23.110  1.00  0.00     0.154 C 
ENDROOT
BRANCH   2  16
HETATM   16  O2  UNL     1       5.473  10.448  24.303  1.00  0.00    -0.378 OA
BRANCH  16  17
HETATM   17  C3  UNL     1       5.855  11.763  24.147  1.00  0.00     0.122 C 
HETATM   18  C4  UNL     1       7.192  12.080  24.762  1.00  0.00     0.032 C 
HETATM   19  C5  UNL     1       7.110  13.581  25.052  1.00  0.00     0.002 C 
HETATM   20  C6  UNL     1       5.682  13.759  25.515  1.00  0.00     0.002 C 
HETATM   21  C7  UNL     1       4.885  12.626  24.932  1.00  0.00     0.032 C 
ENDBRANCH  16  17
ENDBRANCH   2  16
BRANCH   1  22
HETATM   22  O1  UNL     1       4.482   9.005  21.250  1.00  0.00    -0.390 OA
ATOM     23  H1  UNL     1       4.289   8.132  20.931  1.00  0.00     0.210 HD
ENDBRANCH   1  22
BRANCH  15  24
HETATM   24  O3  UNL     1       4.671   6.693  22.041  1.00  0.00    -0.393 OA
ATOM     25  H3  UNL     1       5.393   6.079  21.987  1.00  0.00     0.210 HD
ENDBRANCH  15  24
TORSDOF 4
ENDMDL
MODEL 3
REMARK VINA RESULT: -7.568289789      2.626      4.235
REMARK  4 active torsions:
REMARK  status: ('A' for Active; 'I' for Inactive)
REMARK    1  A    between atoms: O1_1  and  C1_3 
REMARK    2  A    between atoms: C2_4  and  O2_5 
REMARK    3  A    between atoms: O2_5  and  C3_6 
REMARK    4  A    between atoms: C16_23  and  O3_24 
ROOT
HETATM    1  C1  UNL     1       0.818   6.997  25.974  1.00  0.00     0.176 C 
HETATM    2  C2  UNL     1       1.143   7.689  24.701  1.00  0.00     0.153 C 
HETATM    3  C8  UNL     1       0.389   8.955  24.443  1.00  0.00     0.042 C 
HETATM    4  C9  UNL     1      -0.402   9.387  25.619  1.00  0.00     0.024 C 
HETATM    5  C10 UNL     1       0.387   9.286  26.917  1.00  0.00     0.024 C 
HETATM    6  C11 UNL     1      -0.652   9.850  27.863  1.00  0.00     0.010 C 
HETATM    7  C12 UNL     1      -1.282  10.971  27.095  1.00  0.00     0.033 C 
HETATM    8  C13 UNL     1      -0.812  10.817  25.642  1.00  0.00     0.049 C 
HETATM    9  C14 UNL     1       0.285  11.796  25.426  1.00  0.00     0.050 C 
HETATM   10  C15 UNL     1       0.186  12.586  24.161  1.00  0.00     0.135 C 
HETATM   11  N1  UNL     1      -1.156  12.764  23.681  1.00  0.00    -0.127 NA
HETATM   12  N2  UNL     1      -1.707  11.465  23.548  1.00  0.00    -0.035 NA
HETATM   13  N3  UNL     1      -1.960  10.993  24.807  1.00  0.00    -0.313 N 
ATOM     14  H3  UNL     1      -2.904  10.781  25.129  1.00  0.00     0.178 HD
HETATM   15  C16 UNL     1       0.706   7.850  27.179  1.00  0.00     0.154 C 
ENDROOT
BRANCH   2  16
HETATM   16  O2  UNL     1       2.525   7.855  24.604  1.00  0.00    -0.378 OA
BRANCH  16  17
HETATM   17  C3  UNL     1       2.897   9.133  24.245  1.00  0.00     0.122 C 
HETATM   18  C4  UNL     1       3.930   9.176  23.152  1.00  0.00     0.032 C 
HETATM   19  C5  UNL     1       4.633  10.517  23.371  1.00  0.00     0.002 C 
HETATM   20  C6  UNL     1       4.706  10.620  24.878  1.00  0.00     0.002 C 
HETATM   21  C7  UNL     1       3.603   9.763  25.432  1.00  0.00     0.032 C 
ENDBRANCH  16  17
ENDBRANCH   2  16
BRANCH   1  22
HETATM   22  O1  UNL     1      -0.324   6.182  25.816  1.00  0.00    -0.390 OA
ATOM     23  H1  UNL     1      -1.010   6.451  26.415  1.00  0.00     0.210 HD
ENDBRANCH   1  22
BRANCH  15  24
HETATM   24  O3  UNL     1      -0.326   7.319  27.986  1.00  0.00    -0.393 OA
ATOM     25  H3  UNL     1      -0.421   6.400  27.767  1.00  0.00     0.210 HD
ENDBRANCH  15  24
TORSDOF 4
ENDMDL
MODEL 4
REMARK VINA RESULT: -7.495938660      2.279      3.120
REMARK  4 active torsions:
REMARK  status: ('A' for Active; 'I' for Inactive)
REMARK    1  A    between atoms: O1_1  and  C1_3 
REMARK    2  A    between atoms: C2_4  and  O2_5 
REMARK    3  A    between atoms: O2_5  and  C3_6 
REMARK    4  A    between atoms: C16_23  and  O3_24 
ROOT
HETATM    1  C1  UNL     1       6.784  10.504  23.551  1.00  0.00     0.176 C 
HETATM    2  C2  UNL     1       5.582  11.244  24.010  1.00  0.00     0.153 C 
HETATM    3  C8  UNL     1       4.348  10.421  24.194  1.00  0.00     0.042 C 
HETATM    4  C9  UNL     1       4.618   8.970  24.076  1.00  0.00     0.024 C 
HETATM    5  C10 UNL     1       5.867   8.549  24.836  1.00  0.00     0.024 C 
HETATM    6  C11 UNL     1       5.806   7.059  24.574  1.00  0.00     0.010 C 
HETATM    7  C12 UNL     1       4.350   6.726  24.671  1.00  0.00     0.033 C 
HETATM    8  C13 UNL     1       3.599   8.064  24.674  1.00  0.00     0.049 C 
HETATM    9  C14 UNL     1       3.231   8.363  26.083  1.00  0.00     0.050 C 
HETATM   10  C15 UNL     1       1.823   8.820  26.285  1.00  0.00     0.135 C 
HETATM   11  N1  UNL     1       0.899   8.333  25.299  1.00  0.00    -0.127 NA
HETATM   12  N2  UNL     1       1.416   8.726  24.039  1.00  0.00    -0.035 NA
HETATM   13  N3  UNL     1       2.497   7.932  23.772  1.00  0.00    -0.313 N 
ATOM     14  H3  UNL     1       2.516   7.288  22.981  1.00  0.00     0.178 HD
HETATM   15  C16 UNL     1       7.056   9.209  24.217  1.00  0.00     0.154 C 
ENDROOT
BRANCH   2  16
HETATM   16  O2  UNL     1       5.906  11.994  25.141  1.00  0.00    -0.378 OA
BRANCH  16  17
HETATM   17  C3  UNL     1       5.674  13.344  24.985  1.00  0.00     0.122 C 
HETATM   18  C4  UNL     1       6.537  14.210  25.862  1.00  0.00     0.032 C 
HETATM   19  C5  UNL     1       5.719  15.494  26.022  1.00  0.00     0.002 C 
HETATM   20  C6  UNL     1       4.302  14.980  26.136  1.00  0.00     0.002 C 
HETATM   21  C7  UNL     1       4.265  13.634  25.469  1.00  0.00     0.032 C 
ENDBRANCH  16  17
ENDBRANCH   2  16
BRANCH   1  22
HETATM   22  O1  UNL     1       6.773  10.364  22.146  1.00  0.00    -0.390 OA
ATOM     23  H1  UNL     1       7.588   9.982  21.843  1.00  0.00     0.210 HD
ENDBRANCH   1  22
BRANCH  15  24
HETATM   24  O3  UNL     1       7.580   8.327  23.243  1.00  0.00    -0.393 OA
ATOM     25  H3  UNL     1       6.853   8.009  22.721  1.00  0.00     0.210 HD
ENDBRANCH  15  24
TORSDOF 4
ENDMDL
MODEL 5
REMARK VINA RESULT: -7.389471632      3.245      4.332
REMARK  4 active torsions:
REMARK  status: ('A' for Active; 'I' for Inactive)
REMARK    1  A    between atoms: O1_1  and  C1_3 
REMARK    2  A    between atoms: C2_4  and  O2_5 
REMARK    3  A    between atoms: O2_5  and  C3_6 
REMARK    4  A    between atoms: C16_23  and  O3_24 
ROOT
HETATM    1  C1  UNL     1       7.259   9.741  23.284  1.00  0.00     0.176 C 
HETATM    2  C2  UNL     1       5.931  10.235  23.728  1.00  0.00     0.153 C 
HETATM    3  C8  UNL     1       4.871   9.191  23.879  1.00  0.00     0.042 C 
HETATM    4  C9  UNL     1       5.412   7.818  23.752  1.00  0.00     0.024 C 
HETATM    5  C10 UNL     1       6.705   7.630  24.531  1.00  0.00     0.024 C 
HETATM    6  C11 UNL     1       6.931   6.159  24.252  1.00  0.00     0.010 C 
HETATM    7  C12 UNL     1       5.563   5.556  24.317  1.00  0.00     0.033 C 
HETATM    8  C13 UNL     1       4.573   6.729  24.320  1.00  0.00     0.049 C 
HETATM    9  C14 UNL     1       4.131   6.933  25.724  1.00  0.00     0.050 C 
HETATM   10  C15 UNL     1       2.658   7.113  25.903  1.00  0.00     0.135 C 
HETATM   11  N1  UNL     1       1.860   6.475  24.895  1.00  0.00    -0.127 NA
HETATM   12  N2  UNL     1       2.315   6.976  23.649  1.00  0.00    -0.035 NA
HETATM   13  N3  UNL     1       3.531   6.403  23.395  1.00  0.00    -0.313 N 
ATOM     14  H3  UNL     1       3.685   5.786  22.598  1.00  0.00     0.178 HD
HETATM   15  C16 UNL     1       7.759   8.511  23.942  1.00  0.00     0.154 C 
ENDROOT
BRANCH   2  16
HETATM   16  O2  UNL     1       6.088  11.016  24.873  1.00  0.00    -0.378 OA
BRANCH  16  17
HETATM   17  C3  UNL     1       5.900  12.362  24.644  1.00  0.00     0.122 C 
HETATM   18  C4  UNL     1       6.665  13.247  25.590  1.00  0.00     0.032 C 
HETATM   19  C5  UNL     1       5.856  14.547  25.604  1.00  0.00     0.002 C 
HETATM   20  C6  UNL     1       4.426  14.056  25.562  1.00  0.00     0.002 C 
HETATM   21  C7  UNL     1       4.448  12.688  24.941  1.00  0.00     0.032 C 
ENDBRANCH  16  17
ENDBRANCH   2  16
BRANCH   1  22
HETATM   22  O1  UNL     1       7.298   9.621  21.878  1.00  0.00    -0.390 OA
ATOM     23  H1  UNL     1       7.762  10.355  21.494  1.00  0.00     0.210 HD
ENDBRANCH   1  22
BRANCH  15  24
HETATM   24  O3  UNL     1       8.456   7.757  22.969  1.00  0.00    -0.393 OA
ATOM     25  H3  UNL     1       8.533   8.294  22.189  1.00  0.00     0.210 HD
ENDBRANCH  15  24
TORSDOF 4
ENDMDL
