MODEL 1
REMARK VINA RESULT: -9.098910782      0.000      0.000
REMARK  5 active torsions:
REMARK  status: ('A' for Active; 'I' for Inactive)
REMARK    1  A    between atoms: C1_2  and  O2_3 
REMARK    2  A    between atoms: C1_2  and  C13_20 
REMARK    3  A    between atoms: O2_3  and  C2_4 
REMARK    4  A    between atoms: C3_5  and  O3_6 
REMARK    5  A    between atoms: C12_17  and  O5_18 
ROOT
HETATM    1  C2  UNL     1       2.533  10.624  24.807  1.00  0.00     0.173 C 
HETATM    2  C3  UNL     1       1.594  10.506  23.664  1.00  0.00     0.218 C 
HETATM    3  C4  UNL     1       0.280  10.321  24.382  1.00  0.00     0.169 C 
HETATM    4  O4  UNL     1      -0.744  10.850  24.036  1.00  0.00    -0.294 OA
HETATM    5  C5  UNL     1       0.547   9.422  25.491  1.00  0.00     0.055 C 
HETATM    6  C6  UNL     1      -0.222   9.717  26.748  1.00  0.00     0.020 C 
HETATM    7  C7  UNL     1      -0.166   8.487  27.620  1.00  0.00     0.002 C 
HETATM    8  C8  UNL     1       1.117   7.721  27.470  1.00  0.00     0.007 C 
HETATM    9  C9  UNL     1       1.450   7.361  26.059  1.00  0.00     0.016 C 
HETATM   10  C10 UNL     1       2.621   8.247  25.613  1.00  0.00     0.015 C 
HETATM   11  C11 UNL     1       2.014   9.608  25.795  1.00  0.00     0.037 C 
HETATM   12  C12 UNL     1       0.342   7.960  25.181  1.00  0.00     0.138 C 
ENDROOT
BRANCH   1  13
HETATM   13  O2  UNL     1       3.883  10.534  24.543  1.00  0.00    -0.312 OA
BRANCH  13  14
HETATM   14  C1  UNL     1       4.733  11.482  24.095  1.00  0.00     0.263 C 
HETATM   15  O1  UNL     1       5.367  11.252  23.051  1.00  0.00    -0.265 OA
BRANCH  14  16
HETATM   16  C13 UNL     1       4.936  12.761  24.786  1.00  0.00     0.085 C 
HETATM   17  C14 UNL     1       3.811  13.745  24.535  1.00  0.00     0.014 C 
HETATM   18  C15 UNL     1       4.063  14.935  25.416  1.00  0.00     0.001 C 
HETATM   19  C16 UNL     1       5.370  15.604  25.188  1.00  0.00     0.000 C 
HETATM   20  C17 UNL     1       6.535  14.666  25.061  1.00  0.00     0.001 C 
HETATM   21  C18 UNL     1       6.197  13.404  24.308  1.00  0.00     0.014 C 
ENDBRANCH  14  16
ENDBRANCH  13  14
ENDBRANCH   1  13
BRANCH   2  22
HETATM   22  O3  UNL     1       1.573  11.696  22.914  1.00  0.00    -0.385 OA
ATOM     23  H3  UNL     1       0.686  11.912  22.651  1.00  0.00     0.210 HD
ENDBRANCH   2  22
BRANCH  12  24
HETATM   24  O5  UNL     1       0.497   7.646  23.860  1.00  0.00    -0.394 OA
ATOM     25  H5  UNL     1       0.510   6.712  23.683  1.00  0.00     0.210 HD
ENDBRANCH  12  24
TORSDOF 5
ENDMDL
MODEL 2
REMARK VINA RESULT: -9.004900795      2.680      3.785
REMARK  5 active torsions:
REMARK  status: ('A' for Active; 'I' for Inactive)
REMARK    1  A    between atoms: C1_2  and  O2_3 
REMARK    2  A    between atoms: C1_2  and  C13_20 
REMARK    3  A    between atoms: O2_3  and  C2_4 
REMARK    4  A    between atoms: C3_5  and  O3_6 
REMARK    5  A    between atoms: C12_17  and  O5_18 
ROOT
HETATM    1  C2  UNL     1       4.937  10.302  23.731  1.00  0.00     0.173 C 
HETATM    2  C3  UNL     1       3.943   9.797  22.752  1.00  0.00     0.218 C 
HETATM    3  C4  UNL     1       3.374   8.613  23.496  1.00  0.00     0.169 C 
HETATM    4  O4  UNL     1       2.203   8.337  23.505  1.00  0.00    -0.294 OA
HETATM    5  C5  UNL     1       4.502   7.955  24.134  1.00  0.00     0.055 C 
HETATM    6  C6  UNL     1       4.214   7.375  25.490  1.00  0.00     0.020 C 
HETATM    7  C7  UNL     1       5.311   6.389  25.809  1.00  0.00     0.002 C 
HETATM    8  C8  UNL     1       6.638   6.779  25.223  1.00  0.00     0.007 C 
HETATM    9  C9  UNL     1       6.601   7.043  23.753  1.00  0.00     0.016 C 
HETATM   10  C10 UNL     1       6.735   8.558  23.545  1.00  0.00     0.015 C 
HETATM   11  C11 UNL     1       5.535   9.041  24.307  1.00  0.00     0.037 C 
HETATM   12  C12 UNL     1       5.141   6.863  23.313  1.00  0.00     0.138 C 
ENDROOT
BRANCH   1  13
HETATM   13  O2  UNL     1       5.858  11.229  23.293  1.00  0.00    -0.312 OA
BRANCH  13  14
HETATM   14  C1  UNL     1       6.420  12.259  23.960  1.00  0.00     0.263 C 
HETATM   15  O1  UNL     1       7.577  12.115  24.390  1.00  0.00    -0.265 OA
BRANCH  14  16
HETATM   16  C13 UNL     1       5.724  13.530  24.197  1.00  0.00     0.085 C 
HETATM   17  C14 UNL     1       6.450  14.417  25.188  1.00  0.00     0.014 C 
HETATM   18  C15 UNL     1       5.723  15.731  25.217  1.00  0.00     0.001 C 
HETATM   19  C16 UNL     1       4.290  15.634  25.592  1.00  0.00     0.000 C 
HETATM   20  C17 UNL     1       3.542  14.524  24.912  1.00  0.00     0.001 C 
HETATM   21  C18 UNL     1       4.363  13.269  24.755  1.00  0.00     0.014 C 
ENDBRANCH  14  16
ENDBRANCH  13  14
ENDBRANCH   1  13
BRANCH   2  22
HETATM   22  O3  UNL     1       2.938  10.755  22.525  1.00  0.00    -0.385 OA
ATOM     23  H3  UNL     1       3.235  11.414  21.909  1.00  0.00     0.210 HD
ENDBRANCH   2  22
BRANCH  12  24
HETATM   24  O5  UNL     1       4.981   7.017  21.964  1.00  0.00    -0.394 OA
ATOM     25  H5  UNL     1       4.436   6.351  21.561  1.00  0.00     0.210 HD
ENDBRANCH  12  24
TORSDOF 5
ENDMDL
MODEL 3
REMARK VINA RESULT: -8.866143002      1.340      1.917
REMARK  5 active torsions:
REMARK  status: ('A' for Active; 'I' for Inactive)
REMARK    1  A    between atoms: C1_2  and  O2_3 
REMARK    2  A    between atoms: C1_2  and  C13_20 
REMARK    3  A    between atoms: O2_3  and  C2_4 
REMARK    4  A    between atoms: C3_5  and  O3_6 
REMARK    5  A    between atoms: C12_17  and  O5_18 
ROOT
HETATM    1  C2  UNL     1       1.001  11.913  24.645  1.00  0.00     0.173 C 
HETATM    2  C3  UNL     1       0.026  11.367  23.670  1.00  0.00     0.218 C 
HETATM    3  C4  UNL     1      -0.853  10.533  24.571  1.00  0.00     0.169 C 
HETATM    4  O4  UNL     1      -2.051  10.487  24.469  1.00  0.00    -0.294 OA
HETATM    5  C5  UNL     1       0.039   9.864  25.502  1.00  0.00     0.055 C 
HETATM    6  C6  UNL     1      -0.498   9.708  26.896  1.00  0.00     0.020 C 
HETATM    7  C7  UNL     1       0.327   8.652  27.590  1.00  0.00     0.002 C 
HETATM    8  C8  UNL     1       1.758   8.634  27.135  1.00  0.00     0.007 C 
HETATM    9  C9  UNL     1       1.924   8.519  25.654  1.00  0.00     0.016 C 
HETATM   10  C10 UNL     1       2.397   9.882  25.129  1.00  0.00     0.015 C 
HETATM   11  C11 UNL     1       1.258  10.753  25.575  1.00  0.00     0.037 C 
HETATM   12  C12 UNL     1       0.511   8.503  25.055  1.00  0.00     0.138 C 
ENDROOT
BRANCH   1  13
HETATM   13  O2  UNL     1       2.138  12.516  24.149  1.00  0.00    -0.312 OA
BRANCH  13  14
HETATM   14  C1  UNL     1       2.691  13.702  24.480  1.00  0.00     0.263 C 
HETATM   15  O1  UNL     1       1.987  14.722  24.390  1.00  0.00    -0.265 OA
BRANCH  14  16
HETATM   16  C13 UNL     1       4.080  13.833  24.938  1.00  0.00     0.085 C 
HETATM   17  C14 UNL     1       4.544  15.276  24.989  1.00  0.00     0.014 C 
HETATM   18  C15 UNL     1       5.908  15.276  25.616  1.00  0.00     0.001 C 
HETATM   19  C16 UNL     1       6.916  14.454  24.899  1.00  0.00     0.000 C 
HETATM   20  C17 UNL     1       6.427  13.100  24.476  1.00  0.00     0.001 C 
HETATM   21  C18 UNL     1       4.995  13.110  24.004  1.00  0.00     0.014 C 
ENDBRANCH  14  16
ENDBRANCH  13  14
ENDBRANCH   1  13
BRANCH   2  22
HETATM   22  O3  UNL     1      -0.725  12.403  23.085  1.00  0.00    -0.385 OA
ATOM     23  H3  UNL     1      -1.656  12.244  23.191  1.00  0.00     0.210 HD
ENDBRANCH   2  22
BRANCH  12  24
HETATM   24  O5  UNL     1       0.523   8.338  23.698  1.00  0.00    -0.394 OA
ATOM     25  H5  UNL     1       1.236   8.787  23.260  1.00  0.00     0.210 HD
ENDBRANCH  12  24
TORSDOF 5
ENDMDL
MODEL 4
REMARK VINA RESULT: -8.828491691      2.414      3.948
REMARK  5 active torsions:
REMARK  status: ('A' for Active; 'I' for Inactive)
REMARK    1  A    between atoms: C1_2  and  O2_3 
REMARK    2  A    between atoms: C1_2  and  C13_20 
REMARK    3  A    between atoms: O2_3  and  C2_4 
REMARK    4  A    between atoms: C3_5  and  O3_6 
REMARK    5  A    between atoms: C12_17  and  O5_18 
ROOT
HETATM    1  C2  UNL     1       3.478  10.036  24.132  1.00  0.00     0.173 C 
HETATM    2  C3  UNL     1       2.711   8.986  23.419  1.00  0.00     0.218 C 
HETATM    3  C4  UNL     1       3.225   7.737  24.092  1.00  0.00     0.169 C 
HETATM    4  O4  UNL     1       2.521   6.811  24.399  1.00  0.00    -0.294 OA
HETATM    5  C5  UNL     1       4.657   7.926  24.256  1.00  0.00     0.055 C 
HETATM    6  C6  UNL     1       5.232   7.358  25.522  1.00  0.00     0.020 C 
HETATM    7  C7  UNL     1       6.726   7.251  25.341  1.00  0.00     0.002 C 
HETATM    8  C8  UNL     1       7.288   8.334  24.464  1.00  0.00     0.007 C 
HETATM    9  C9  UNL     1       6.620   8.448  23.133  1.00  0.00     0.016 C 
HETATM   10  C10 UNL     1       5.767   9.724  23.145  1.00  0.00     0.015 C 
HETATM   11  C11 UNL     1       4.847   9.423  24.294  1.00  0.00     0.037 C 
HETATM   12  C12 UNL     1       5.496   7.402  23.116  1.00  0.00     0.138 C 
ENDROOT
BRANCH   1  13
HETATM   13  O2  UNL     1       3.475  11.308  23.601  1.00  0.00    -0.312 OA
BRANCH  13  14
HETATM   14  C1  UNL     1       3.220  12.488  24.206  1.00  0.00     0.263 C 
HETATM   15  O1  UNL     1       2.048  12.902  24.208  1.00  0.00    -0.265 OA
BRANCH  14  16
HETATM   16  C13 UNL     1       4.262  13.293  24.855  1.00  0.00     0.085 C 
HETATM   17  C14 UNL     1       3.898  14.763  24.936  1.00  0.00     0.014 C 
HETATM   18  C15 UNL     1       4.964  15.435  25.751  1.00  0.00     0.001 C 
HETATM   19  C16 UNL     1       6.339  15.291  25.207  1.00  0.00     0.000 C 
HETATM   20  C17 UNL     1       6.686  13.904  24.753  1.00  0.00     0.001 C 
HETATM   21  C18 UNL     1       5.536  13.197  24.081  1.00  0.00     0.014 C 
ENDBRANCH  14  16
ENDBRANCH  13  14
ENDBRANCH   1  13
BRANCH   2  22
HETATM   22  O3  UNL     1       1.331   9.131  23.656  1.00  0.00    -0.385 OA
ATOM     23  H3  UNL     1       1.158   9.921  24.153  1.00  0.00     0.210 HD
ENDBRANCH   2  22
BRANCH  12  24
HETATM   24  O5  UNL     1       4.840   7.362  21.917  1.00  0.00    -0.394 OA
ATOM     25  H5  UNL     1       5.414   7.264  21.166  1.00  0.00     0.210 HD
ENDBRANCH  12  24
TORSDOF 5
ENDMDL
MODEL 5
REMARK VINA RESULT: -8.749271416      2.847      4.424
REMARK  5 active torsions:
REMARK  status: ('A' for Active; 'I' for Inactive)
REMARK    1  A    between atoms: C1_2  and  O2_3 
REMARK    2  A    between atoms: C1_2  and  C13_20 
REMARK    3  A    between atoms: O2_3  and  C2_4 
REMARK    4  A    between atoms: C3_5  and  O3_6 
REMARK    5  A    between atoms: C12_17  and  O5_18 
ROOT
HETATM    1  C2  UNL     1       5.756   9.283  23.748  1.00  0.00     0.173 C 
HETATM    2  C3  UNL     1       6.558   8.301  24.518  1.00  0.00     0.218 C 
HETATM    3  C4  UNL     1       6.159   7.008  23.850  1.00  0.00     0.169 C 
HETATM    4  O4  UNL     1       6.938   6.126  23.595  1.00  0.00    -0.294 OA
HETATM    5  C5  UNL     1       4.728   7.096  23.618  1.00  0.00     0.055 C 
HETATM    6  C6  UNL     1       4.251   6.467  22.340  1.00  0.00     0.020 C 
HETATM    7  C7  UNL     1       2.760   6.263  22.457  1.00  0.00     0.002 C 
HETATM    8  C8  UNL     1       2.087   7.321  23.283  1.00  0.00     0.007 C 
HETATM    9  C9  UNL     1       2.685   7.505  24.640  1.00  0.00     0.016 C 
HETATM   10  C10 UNL     1       3.450   8.836  24.638  1.00  0.00     0.015 C 
HETATM   11  C11 UNL     1       4.440   8.576  23.539  1.00  0.00     0.037 C 
HETATM   12  C12 UNL     1       3.874   6.539  24.730  1.00  0.00     0.138 C 
ENDROOT
BRANCH   1  13
HETATM   13  O2  UNL     1       5.649  10.562  24.251  1.00  0.00    -0.312 OA
BRANCH  13  14
HETATM   14  C1  UNL     1       6.431  11.639  24.023  1.00  0.00     0.263 C 
HETATM   15  O1  UNL     1       7.616  11.444  23.704  1.00  0.00    -0.265 OA
BRANCH  14  16
HETATM   16  C13 UNL     1       5.941  13.018  24.138  1.00  0.00     0.085 C 
HETATM   17  C14 UNL     1       6.850  13.893  24.977  1.00  0.00     0.014 C 
HETATM   18  C15 UNL     1       6.322  15.295  24.881  1.00  0.00     0.001 C 
HETATM   19  C16 UNL     1       4.917  15.457  25.336  1.00  0.00     0.000 C 
HETATM   20  C17 UNL     1       3.975  14.403  24.832  1.00  0.00     0.001 C 
HETATM   21  C18 UNL     1       4.596  13.029  24.789  1.00  0.00     0.014 C 
ENDBRANCH  14  16
ENDBRANCH  13  14
ENDBRANCH   1  13
BRANCH   2  22
HETATM   22  O3  UNL     1       7.934   8.534  24.340  1.00  0.00    -0.385 OA
ATOM     23  H3  UNL     1       8.184   9.370  24.715  1.00  0.00     0.210 HD
ENDBRANCH   2  22
BRANCH  12  24
HETATM   24  O5  UNL     1       4.475   6.565  25.958  1.00  0.00    -0.394 OA
ATOM     25  H5  UNL     1       4.283   7.344  26.466  1.00  0.00     0.210 HD
ENDBRANCH  12  24
TORSDOF 5
ENDMDL
