MODEL 1
REMARK VINA RESULT: -8.685430097      0.000      0.000
REMARK  5 active torsions:
REMARK  status: ('A' for Active; 'I' for Inactive)
REMARK    1  A    between atoms: C7_8  and  O2_9 
REMARK    2  A    between atoms: C7_8  and  C8_11 
REMARK    3  A    between atoms: C8_11  and  O3_12 
REMARK    4  A    between atoms: O3_12  and  C9_13 
REMARK    5  A    between atoms: C18_26  and  O6_27 
ROOT
HETATM    1  C1  UNL     1       2.297   5.196  23.824  1.00  0.00     0.017 C 
HETATM    2  C2  UNL     1       2.831   5.968  24.758  1.00  0.00    -0.053 C 
HETATM    3  C3  UNL     1       2.029   6.231  25.989  1.00  0.00     0.024 C 
HETATM    4  C4  UNL     1       2.913   7.143  26.810  1.00  0.00     0.020 C 
HETATM    5  C5  UNL     1       3.187   8.296  25.834  1.00  0.00     0.068 C 
HETATM    6  C6  UNL     1       1.894   8.813  25.270  1.00  0.00     0.132 C 
HETATM    7  O1  UNL     1       2.129  10.198  25.112  1.00  0.00    -0.333 OA
HETATM    8  C7  UNL     1       2.973  10.263  23.995  1.00  0.00     0.222 C 
HETATM    9  C14 UNL     1       3.243   8.824  23.611  1.00  0.00     0.182 A 
HETATM   10  O4  UNL     1       2.522   8.047  22.844  1.00  0.00    -0.356 OA
HETATM   11  C15 UNL     1       1.760   8.445  23.818  1.00  0.00     0.204 A 
HETATM   12  C16 UNL     1       3.966   8.043  24.706  1.00  0.00     0.137 A 
HETATM   13  O5  UNL     1       4.880   7.383  24.050  1.00  0.00    -0.360 OA
HETATM   14  C17 UNL     1       4.130   6.532  24.655  1.00  0.00     0.190 A 
HETATM   15  C18 UNL     1       0.655   8.364  25.855  1.00  0.00     0.096 C 
HETATM   16  C19 UNL     1       0.209   8.791  27.179  1.00  0.00     0.041 C 
HETATM   17  C20 UNL     1      -0.287   7.560  27.872  1.00  0.00     0.004 C 
HETATM   18  C21 UNL     1      -0.327   6.459  26.805  1.00  0.00     0.008 C 
HETATM   19  C22 UNL     1       0.694   6.837  25.773  1.00  0.00     0.031 C 
ENDROOT
BRANCH   8  20
HETATM   20  O2  UNL     1       2.112  10.738  22.966  1.00  0.00    -0.361 OA
ATOM     21  H2  UNL     1       2.560  10.473  22.172  1.00  0.00     0.213 HD
ENDBRANCH   8  20
BRANCH   8  22
HETATM   22  C8  UNL     1       4.113  11.158  24.043  1.00  0.00     0.240 C 
BRANCH  22  23
HETATM   23  O3  UNL     1       3.930  12.499  24.170  1.00  0.00    -0.380 OA
BRANCH  23  24
HETATM   24  C9  UNL     1       4.784  13.122  25.046  1.00  0.00     0.124 C 
HETATM   25  C10 UNL     1       6.220  12.744  24.845  1.00  0.00     0.051 C 
HETATM   26  C11 UNL     1       7.107  13.957  24.651  1.00  0.00     0.116 C 
HETATM   27  N1  UNL     1       6.954  14.873  25.739  1.00  0.00    -0.421 N 
HETATM   28  C12 UNL     1       5.591  15.224  26.046  1.00  0.00     0.116 C 
ATOM     29  H1  UNL     1       7.748  15.249  26.257  1.00  0.00     0.153 HD
HETATM   30  C13 UNL     1       4.703  14.631  24.977  1.00  0.00     0.051 C 
ENDBRANCH  23  24
ENDBRANCH  22  23
ENDBRANCH   8  22
BRANCH  15  31
HETATM   31  O6  UNL     1      -0.400   8.720  24.963  1.00  0.00    -0.386 OA
ATOM     32  H6  UNL     1      -1.199   8.783  25.473  1.00  0.00     0.210 HD
ENDBRANCH  15  31
TORSDOF 5
ENDMDL
MODEL 2
REMARK VINA RESULT: -8.643546536      0.777      1.104
REMARK  5 active torsions:
REMARK  status: ('A' for Active; 'I' for Inactive)
REMARK    1  A    between atoms: C7_8  and  O2_9 
REMARK    2  A    between atoms: C7_8  and  C8_11 
REMARK    3  A    between atoms: C8_11  and  O3_12 
REMARK    4  A    between atoms: O3_12  and  C9_13 
REMARK    5  A    between atoms: C18_26  and  O6_27 
ROOT
HETATM    1  C1  UNL     1       2.516   5.137  23.591  1.00  0.00     0.017 C 
HETATM    2  C2  UNL     1       3.042   5.878  24.554  1.00  0.00    -0.053 C 
HETATM    3  C3  UNL     1       2.194   6.180  25.744  1.00  0.00     0.024 C 
HETATM    4  C4  UNL     1       3.082   7.043  26.613  1.00  0.00     0.020 C 
HETATM    5  C5  UNL     1       3.465   8.181  25.658  1.00  0.00     0.068 C 
HETATM    6  C6  UNL     1       2.231   8.767  25.032  1.00  0.00     0.132 C 
HETATM    7  O1  UNL     1       2.547  10.138  24.892  1.00  0.00    -0.333 OA
HETATM    8  C7  UNL     1       3.449  10.161  23.819  1.00  0.00     0.222 C 
HETATM    9  C14 UNL     1       3.661   8.711  23.443  1.00  0.00     0.182 A 
HETATM   10  O4  UNL     1       2.940   7.974  22.637  1.00  0.00    -0.356 OA
HETATM   11  C15 UNL     1       2.152   8.409  23.573  1.00  0.00     0.204 A 
HETATM   12  C16 UNL     1       4.286   7.890  24.569  1.00  0.00     0.137 A 
HETATM   13  O5  UNL     1       5.196   7.184  23.956  1.00  0.00    -0.360 OA
HETATM   14  C17 UNL     1       4.373   6.372  24.519  1.00  0.00     0.190 A 
HETATM   15  C18 UNL     1       0.943   8.383  25.552  1.00  0.00     0.096 C 
HETATM   16  C19 UNL     1       0.454   8.831  26.854  1.00  0.00     0.041 C 
HETATM   17  C20 UNL     1      -0.141   7.626  27.515  1.00  0.00     0.004 C 
HETATM   18  C21 UNL     1      -0.185   6.531  26.442  1.00  0.00     0.008 C 
HETATM   19  C22 UNL     1       0.905   6.857  25.464  1.00  0.00     0.031 C 
ENDROOT
BRANCH   8  20
HETATM   20  O2  UNL     1       2.666  10.682  22.751  1.00  0.00    -0.361 OA
ATOM     21  H2  UNL     1       2.288   9.903  22.362  1.00  0.00     0.213 HD
ENDBRANCH   8  20
BRANCH   8  22
HETATM   22  C8  UNL     1       4.630  10.994  23.929  1.00  0.00     0.240 C 
BRANCH  22  23
HETATM   23  O3  UNL     1       4.811  11.793  25.013  1.00  0.00    -0.380 OA
BRANCH  23  24
HETATM   24  C9  UNL     1       5.024  13.120  24.730  1.00  0.00     0.124 C 
HETATM   25  C10 UNL     1       3.770  13.939  24.746  1.00  0.00     0.051 C 
HETATM   26  C11 UNL     1       3.880  15.133  25.673  1.00  0.00     0.116 C 
HETATM   27  N1  UNL     1       5.021  15.927  25.339  1.00  0.00    -0.421 N 
HETATM   28  C12 UNL     1       6.256  15.195  25.226  1.00  0.00     0.116 C 
ATOM     29  H1  UNL     1       4.964  16.935  25.191  1.00  0.00     0.153 HD
HETATM   30  C13 UNL     1       6.001  13.776  25.680  1.00  0.00     0.051 C 
ENDBRANCH  23  24
ENDBRANCH  22  23
ENDBRANCH   8  22
BRANCH  15  31
HETATM   31  O6  UNL     1      -0.045   8.796  24.610  1.00  0.00    -0.386 OA
ATOM     32  H6  UNL     1      -0.539   9.506  25.003  1.00  0.00     0.210 HD
ENDBRANCH  15  31
TORSDOF 5
ENDMDL
MODEL 3
REMARK VINA RESULT: -8.573893937      0.895      1.181
REMARK  5 active torsions:
REMARK  status: ('A' for Active; 'I' for Inactive)
REMARK    1  A    between atoms: C7_8  and  O2_9 
REMARK    2  A    between atoms: C7_8  and  C8_11 
REMARK    3  A    between atoms: C8_11  and  O3_12 
REMARK    4  A    between atoms: O3_12  and  C9_13 
REMARK    5  A    between atoms: C18_26  and  O6_27 
ROOT
HETATM    1  C1  UNL     1       3.149   5.828  23.138  1.00  0.00     0.017 C 
HETATM    2  C2  UNL     1       3.477   6.536  24.209  1.00  0.00    -0.053 C 
HETATM    3  C3  UNL     1       2.496   6.600  25.332  1.00  0.00     0.024 C 
HETATM    4  C4  UNL     1       3.172   7.486  26.354  1.00  0.00     0.020 C 
HETATM    5  C5  UNL     1       3.464   8.755  25.542  1.00  0.00     0.068 C 
HETATM    6  C6  UNL     1       2.216   9.225  24.851  1.00  0.00     0.132 C 
HETATM    7  O1  UNL     1       2.338  10.633  24.861  1.00  0.00    -0.333 OA
HETATM    8  C7  UNL     1       3.314  10.886  23.887  1.00  0.00     0.222 C 
HETATM    9  C14 UNL     1       3.767   9.523  23.411  1.00  0.00     0.182 A 
HETATM   10  O4  UNL     1       3.233   8.778  22.477  1.00  0.00    -0.356 OA
HETATM   11  C15 UNL     1       2.313   9.006  23.366  1.00  0.00     0.204 A 
HETATM   12  C16 UNL     1       4.408   8.689  24.518  1.00  0.00     0.137 A 
HETATM   13  O5  UNL     1       5.460   8.179  23.939  1.00  0.00    -0.360 OA
HETATM   14  C17 UNL     1       4.720   7.210  24.347  1.00  0.00     0.190 A 
HETATM   15  C18 UNL     1       0.957   8.617  25.207  1.00  0.00     0.096 C 
HETATM   16  C19 UNL     1       0.300   8.863  26.489  1.00  0.00     0.041 C 
HETATM   17  C20 UNL     1      -0.166   7.528  26.983  1.00  0.00     0.004 C 
HETATM   18  C21 UNL     1       0.041   6.549  25.821  1.00  0.00     0.008 C 
HETATM   19  C22 UNL     1       1.151   7.117  24.986  1.00  0.00     0.031 C 
ENDROOT
BRANCH   8  20
HETATM   20  O2  UNL     1       2.557  11.398  22.796  1.00  0.00    -0.361 OA
ATOM     21  H2  UNL     1       1.721  10.957  22.889  1.00  0.00     0.213 HD
ENDBRANCH   8  20
BRANCH   8  22
HETATM   22  C8  UNL     1       4.347  11.859  24.183  1.00  0.00     0.240 C 
BRANCH  22  23
HETATM   23  O3  UNL     1       4.020  13.151  24.450  1.00  0.00    -0.380 OA
BRANCH  23  24
HETATM   24  C9  UNL     1       5.070  13.950  24.833  1.00  0.00     0.124 C 
HETATM   25  C10 UNL     1       5.113  14.203  26.309  1.00  0.00     0.051 C 
HETATM   26  C11 UNL     1       6.453  13.835  26.913  1.00  0.00     0.116 C 
HETATM   27  N1  UNL     1       7.515  14.511  26.233  1.00  0.00    -0.421 N 
HETATM   28  C12 UNL     1       7.495  14.380  24.799  1.00  0.00     0.116 C 
ATOM     29  H1  UNL     1       8.230  15.045  26.726  1.00  0.00     0.153 HD
HETATM   30  C13 UNL     1       6.415  13.386  24.435  1.00  0.00     0.051 C 
ENDBRANCH  23  24
ENDBRANCH  22  23
ENDBRANCH   8  22
BRANCH  15  31
HETATM   31  O6  UNL     1       0.003   8.981  24.212  1.00  0.00    -0.386 OA
ATOM     32  H6  UNL     1      -0.588   8.247  24.097  1.00  0.00     0.210 HD
ENDBRANCH  15  31
TORSDOF 5
ENDMDL
MODEL 4
REMARK VINA RESULT: -8.230496704      1.431      1.699
REMARK  5 active torsions:
REMARK  status: ('A' for Active; 'I' for Inactive)
REMARK    1  A    between atoms: C7_8  and  O2_9 
REMARK    2  A    between atoms: C7_8  and  C8_11 
REMARK    3  A    between atoms: C8_11  and  O3_12 
REMARK    4  A    between atoms: O3_12  and  C9_13 
REMARK    5  A    between atoms: C18_26  and  O6_27 
ROOT
HETATM    1  C1  UNL     1       1.595   5.018  24.038  1.00  0.00     0.017 C 
HETATM    2  C2  UNL     1       2.627   5.770  24.389  1.00  0.00    -0.053 C 
HETATM    3  C3  UNL     1       2.921   5.914  25.846  1.00  0.00     0.024 C 
HETATM    4  C4  UNL     1       4.122   6.833  25.884  1.00  0.00     0.020 C 
HETATM    5  C5  UNL     1       3.623   8.052  25.097  1.00  0.00     0.068 C 
HETATM    6  C6  UNL     1       2.305   8.517  25.646  1.00  0.00     0.132 C 
HETATM    7  O1  UNL     1       2.352   9.921  25.484  1.00  0.00    -0.333 OA
HETATM    8  C7  UNL     1       2.166  10.101  24.106  1.00  0.00     0.222 C 
HETATM    9  C14 UNL     1       2.096   8.705  23.526  1.00  0.00     0.182 A 
HETATM   10  O4  UNL     1       1.049   7.928  23.423  1.00  0.00    -0.356 OA
HETATM   11  C15 UNL     1       1.191   8.222  24.680  1.00  0.00     0.204 A 
HETATM   12  C16 UNL     1       3.385   7.912  23.730  1.00  0.00     0.137 A 
HETATM   13  O5  UNL     1       3.576   7.347  22.570  1.00  0.00    -0.360 OA
HETATM   14  C17 UNL     1       3.475   6.419  23.453  1.00  0.00     0.190 A 
HETATM   15  C18 UNL     1       1.839   7.960  26.891  1.00  0.00     0.096 C 
HETATM   16  C19 UNL     1       2.451   8.286  28.178  1.00  0.00     0.041 C 
HETATM   17  C20 UNL     1       2.593   6.989  28.913  1.00  0.00     0.004 C 
HETATM   18  C21 UNL     1       1.820   5.948  28.094  1.00  0.00     0.008 C 
HETATM   19  C22 UNL     1       1.817   6.446  26.679  1.00  0.00     0.031 C 
ENDROOT
BRANCH   8  20
HETATM   20  O2  UNL     1       0.827  10.576  24.021  1.00  0.00    -0.361 OA
ATOM     21  H2  UNL     1       0.744  10.819  23.107  1.00  0.00     0.213 HD
ENDBRANCH   8  20
BRANCH   8  22
HETATM   22  C8  UNL     1       3.004  11.062  23.417  1.00  0.00     0.240 C 
BRANCH  22  23
HETATM   23  O3  UNL     1       3.447  12.175  24.058  1.00  0.00    -0.380 OA
BRANCH  23  24
HETATM   24  C9  UNL     1       4.715  12.081  24.578  1.00  0.00     0.124 C 
HETATM   25  C10 UNL     1       5.594  11.128  23.828  1.00  0.00     0.051 C 
HETATM   26  C11 UNL     1       6.887  11.778  23.378  1.00  0.00     0.116 C 
HETATM   27  N1  UNL     1       7.573  12.359  24.490  1.00  0.00    -0.421 N 
HETATM   28  C12 UNL     1       6.768  13.229  25.309  1.00  0.00     0.116 C 
ATOM     29  H1  UNL     1       8.556  12.172  24.688  1.00  0.00     0.153 HD
HETATM   30  C13 UNL     1       5.433  13.411  24.625  1.00  0.00     0.051 C 
ENDBRANCH  23  24
ENDBRANCH  22  23
ENDBRANCH   8  22
BRANCH  15  31
HETATM   31  O6  UNL     1       0.460   8.298  27.028  1.00  0.00    -0.386 OA
ATOM     32  H6  UNL     1       0.124   7.836  27.787  1.00  0.00     0.210 HD
ENDBRANCH  15  31
TORSDOF 5
ENDMDL
MODEL 5
REMARK VINA RESULT: -8.120669531      3.165      4.638
REMARK  5 active torsions:
REMARK  status: ('A' for Active; 'I' for Inactive)
REMARK    1  A    between atoms: C7_8  and  O2_9 
REMARK    2  A    between atoms: C7_8  and  C8_11 
REMARK    3  A    between atoms: C8_11  and  O3_12 
REMARK    4  A    between atoms: O3_12  and  C9_13 
REMARK    5  A    between atoms: C18_26  and  O6_27 
ROOT
HETATM    1  C1  UNL     1       3.963   6.876  21.573  1.00  0.00     0.017 C 
HETATM    2  C2  UNL     1       4.238   7.580  22.661  1.00  0.00    -0.053 C 
HETATM    3  C3  UNL     1       4.915   6.881  23.792  1.00  0.00     0.024 C 
HETATM    4  C4  UNL     1       5.055   7.953  24.850  1.00  0.00     0.020 C 
HETATM    5  C5  UNL     1       3.606   8.428  25.024  1.00  0.00     0.068 C 
HETATM    6  C6  UNL     1       2.702   7.253  25.262  1.00  0.00     0.132 C 
HETATM    7  O1  UNL     1       1.721   7.759  26.145  1.00  0.00    -0.333 OA
HETATM    8  C7  UNL     1       0.925   8.570  25.324  1.00  0.00     0.222 C 
HETATM    9  C14 UNL     1       1.584   8.532  23.963  1.00  0.00     0.182 A 
HETATM   10  O4  UNL     1       1.417   7.649  23.012  1.00  0.00    -0.356 OA
HETATM   11  C15 UNL     1       1.818   7.009  24.069  1.00  0.00     0.204 A 
HETATM   12  C16 UNL     1       2.997   9.110  23.971  1.00  0.00     0.137 A 
HETATM   13  O5  UNL     1       3.023   9.854  22.899  1.00  0.00    -0.360 OA
HETATM   14  C17 UNL     1       3.944   8.963  22.790  1.00  0.00     0.190 A 
HETATM   15  C18 UNL     1       3.295   5.964  25.521  1.00  0.00     0.096 C 
HETATM   16  C19 UNL     1       3.978   5.650  26.774  1.00  0.00     0.041 C 
HETATM   17  C20 UNL     1       5.237   4.933  26.395  1.00  0.00     0.004 C 
HETATM   18  C21 UNL     1       5.126   4.642  24.894  1.00  0.00     0.008 C 
HETATM   19  C22 UNL     1       4.214   5.691  24.329  1.00  0.00     0.031 C 
ENDROOT
BRANCH   8  20
HETATM   20  O2  UNL     1      -0.258   7.795  25.155  1.00  0.00    -0.361 OA
ATOM     21  H2  UNL     1      -0.619   7.761  26.033  1.00  0.00     0.213 HD
ENDBRANCH   8  20
BRANCH   8  22
HETATM   22  C8  UNL     1       0.516   9.868  25.824  1.00  0.00     0.240 C 
BRANCH  22  23
HETATM   23  O3  UNL     1      -0.761  10.300  25.654  1.00  0.00    -0.380 OA
BRANCH  23  24
HETATM   24  C9  UNL     1      -0.895  11.434  24.891  1.00  0.00     0.124 C 
HETATM   25  C10 UNL     1       0.416  12.046  24.503  1.00  0.00     0.051 C 
HETATM   26  C11 UNL     1       0.536  12.237  23.005  1.00  0.00     0.116 C 
HETATM   27  N1  UNL     1      -0.566  12.998  22.504  1.00  0.00    -0.421 N 
HETATM   28  C12 UNL     1      -1.864  12.517  22.902  1.00  0.00     0.116 C 
ATOM     29  H1  UNL     1      -0.442  13.819  21.911  1.00  0.00     0.153 HD
HETATM   30  C13 UNL     1      -1.675  11.198  23.617  1.00  0.00     0.051 C 
ENDBRANCH  23  24
ENDBRANCH  22  23
ENDBRANCH   8  22
BRANCH  15  31
HETATM   31  O6  UNL     1       2.271   4.981  25.386  1.00  0.00    -0.386 OA
ATOM     32  H6  UNL     1       1.974   4.753  26.259  1.00  0.00     0.210 HD
ENDBRANCH  15  31
TORSDOF 5
ENDMDL
