MODEL 1
REMARK VINA RESULT: -7.039547703      0.000      0.000
REMARK  6 active torsions:
REMARK  status: ('A' for Active; 'I' for Inactive)
REMARK    1  A    between atoms: N2_6  and  C4_8 
REMARK    2  A    between atoms: C4_8  and  O1_9 
REMARK    3  A    between atoms: C4_8  and  C5_11 
REMARK    4  A    between atoms: C8_16  and  C10_18 
REMARK    5  A    between atoms: C10_18  and  N3_19 
REMARK       I    between atoms: N3_19  and  C11_20 
REMARK    6  A    between atoms: C11_20  and  O3_22 
ROOT
HETATM    1  O3  UNL     1      -0.777  11.558  26.149  1.00  0.00    -0.174 OA
HETATM    2  C12 UNL     1      -1.201  11.422  24.873  1.00  0.00     0.238 C 
HETATM    3  N4  UNL     1      -1.574  11.299  23.787  1.00  0.00    -0.163 NA
ENDROOT
BRANCH   1   4
HETATM    4  C11 UNL     1      -0.819  10.469  27.089  1.00  0.00     0.454 C 
HETATM    5  N3  UNL     1       0.066   9.464  27.048  1.00  0.00    -0.360 NA
HETATM    6  O2  UNL     1      -1.801  10.650  27.912  1.00  0.00    -0.220 OA
BRANCH   5   7
HETATM    7  C10 UNL     1       0.967   8.439  27.005  1.00  0.00     0.184 C 
BRANCH   7   8
HETATM    8  C8  UNL     1       1.393   7.924  25.646  1.00  0.00     0.076 C 
HETATM    9  C2  UNL     1       2.644   7.110  25.803  1.00  0.00     0.104 C 
HETATM   10  C1  UNL     1       3.482   7.533  26.992  1.00  0.00     0.034 C 
HETATM   11  N1  UNL     1       3.421   7.203  24.611  1.00  0.00    -0.364 N 
HETATM   12  C3  UNL     1       3.655   8.570  24.253  1.00  0.00     0.143 C 
ATOM     13  H1  UNL     1       3.766   6.401  24.083  1.00  0.00     0.162 HD
HETATM   14  N2  UNL     1       4.583   9.223  23.798  1.00  0.00    -0.320 N 
HETATM   15  S1  UNL     1       2.016   9.314  24.623  1.00  0.00    -0.076 SA
ATOM     16  H2  UNL     1       4.355  10.211  23.680  1.00  0.00     0.169 HD
HETATM   17  C9  UNL     1       0.361   7.104  24.960  1.00  0.00     0.036 C 
BRANCH  14  18
HETATM   18  C4  UNL     1       5.866   8.919  23.409  1.00  0.00     0.140 C 
BRANCH  18  19
HETATM   19  O1  UNL     1       6.207   7.664  23.443  1.00  0.00    -0.348 OA
ATOM     20  H1  UNL     1       6.882   7.388  22.835  1.00  0.00     0.219 HD
ENDBRANCH  18  19
BRANCH  18  21
HETATM   21  C5  UNL     1       6.845   9.923  22.969  1.00  0.00     0.094 C 
HETATM   22  C6  UNL     1       6.755  10.151  21.491  1.00  0.00     0.041 C 
HETATM   23  C7  UNL     1       8.233   9.281  23.202  1.00  0.00     0.041 C 
HETATM   24 CL1  UNL     1       6.808  11.441  23.845  1.00  0.00    -0.111 Cl
ENDBRANCH  18  21
ENDBRANCH  14  18
ENDBRANCH   7   8
ENDBRANCH   5   7
ENDBRANCH   1   4
TORSDOF 6
ENDMDL
MODEL 2
REMARK VINA RESULT: -6.989250865      0.752      1.030
REMARK  6 active torsions:
REMARK  status: ('A' for Active; 'I' for Inactive)
REMARK    1  A    between atoms: N2_6  and  C4_8 
REMARK    2  A    between atoms: C4_8  and  O1_9 
REMARK    3  A    between atoms: C4_8  and  C5_11 
REMARK    4  A    between atoms: C8_16  and  C10_18 
REMARK    5  A    between atoms: C10_18  and  N3_19 
REMARK       I    between atoms: N3_19  and  C11_20 
REMARK    6  A    between atoms: C11_20  and  O3_22 
ROOT
HETATM    1  O3  UNL     1      -0.782  11.557  26.150  1.00  0.00    -0.174 OA
HETATM    2  C12 UNL     1      -1.194  11.427  24.870  1.00  0.00     0.238 C 
HETATM    3  N4  UNL     1      -1.556  11.309  23.780  1.00  0.00    -0.163 NA
ENDROOT
BRANCH   1   4
HETATM    4  C11 UNL     1      -0.885  10.481  27.100  1.00  0.00     0.454 C 
HETATM    5  N3  UNL     1      -0.028   9.452  27.101  1.00  0.00    -0.360 NA
HETATM    6  O2  UNL     1      -1.890  10.698  27.886  1.00  0.00    -0.220 OA
BRANCH   5   7
HETATM    7  C10 UNL     1       0.846   8.403  27.100  1.00  0.00     0.184 C 
BRANCH   7   8
HETATM    8  C8  UNL     1       1.335   7.886  25.763  1.00  0.00     0.076 C 
HETATM    9  C2  UNL     1       2.593   7.095  25.976  1.00  0.00     0.104 C 
HETATM   10  C1  UNL     1       3.375   7.542  27.195  1.00  0.00     0.034 C 
HETATM   11  N1  UNL     1       3.416   7.195  24.815  1.00  0.00    -0.364 N 
HETATM   12  C3  UNL     1       3.640   8.564  24.458  1.00  0.00     0.143 C 
ATOM     13  H1  UNL     1       3.795   6.395  24.307  1.00  0.00     0.162 HD
HETATM   14  N2  UNL     1       4.574   9.230  24.035  1.00  0.00    -0.320 N 
HETATM   15  S1  UNL     1       1.975   9.280  24.755  1.00  0.00    -0.076 SA
ATOM     16  H2  UNL     1       4.334  10.212  23.901  1.00  0.00     0.169 HD
HETATM   17  C9  UNL     1       0.347   7.044  25.042  1.00  0.00     0.036 C 
BRANCH  14  18
HETATM   18  C4  UNL     1       5.877   8.946  23.701  1.00  0.00     0.140 C 
BRANCH  18  19
HETATM   19  O1  UNL     1       6.321   7.766  24.022  1.00  0.00    -0.348 OA
ATOM     20  H1  UNL     1       6.072   7.434  24.877  1.00  0.00     0.219 HD
ENDBRANCH  18  19
BRANCH  18  21
HETATM   21  C5  UNL     1       6.768   9.892  23.014  1.00  0.00     0.094 C 
HETATM   22  C6  UNL     1       8.204   9.593  23.315  1.00  0.00     0.041 C 
HETATM   23  C7  UNL     1       6.490  11.270  23.661  1.00  0.00     0.041 C 
HETATM   24 CL1  UNL     1       6.505  10.052  21.288  1.00  0.00    -0.111 Cl
ENDBRANCH  18  21
ENDBRANCH  14  18
ENDBRANCH   7   8
ENDBRANCH   5   7
ENDBRANCH   1   4
TORSDOF 6
ENDMDL
MODEL 3
REMARK VINA RESULT: -6.700522904      1.249      1.494
REMARK  6 active torsions:
REMARK  status: ('A' for Active; 'I' for Inactive)
REMARK    1  A    between atoms: N2_6  and  C4_8 
REMARK    2  A    between atoms: C4_8  and  O1_9 
REMARK    3  A    between atoms: C4_8  and  C5_11 
REMARK    4  A    between atoms: C8_16  and  C10_18 
REMARK    5  A    between atoms: C10_18  and  N3_19 
REMARK       I    between atoms: N3_19  and  C11_20 
REMARK    6  A    between atoms: C11_20  and  O3_22 
ROOT
HETATM    1  O3  UNL     1      -0.643  11.683  24.191  1.00  0.00    -0.174 OA
HETATM    2  C12 UNL     1      -1.457  11.964  23.149  1.00  0.00     0.238 C 
HETATM    3  N4  UNL     1      -2.162  12.206  22.268  1.00  0.00    -0.163 NA
ENDROOT
BRANCH   1   4
HETATM    4  C11 UNL     1      -1.086  10.908  25.320  1.00  0.00     0.454 C 
HETATM    5  N3  UNL     1      -0.344   9.918  25.834  1.00  0.00    -0.360 NA
HETATM    6  O2  UNL     1      -2.246  11.332  25.703  1.00  0.00    -0.220 OA
BRANCH   5   7
HETATM    7  C10 UNL     1       0.412   8.908  26.356  1.00  0.00     0.184 C 
BRANCH   7   8
HETATM    8  C8  UNL     1       1.169   8.016  25.394  1.00  0.00     0.076 C 
HETATM    9  C2  UNL     1       2.415   7.519  26.068  1.00  0.00     0.104 C 
HETATM   10  C1  UNL     1       2.931   8.466  27.133  1.00  0.00     0.034 C 
HETATM   11  N1  UNL     1       3.428   7.303  25.087  1.00  0.00    -0.364 N 
HETATM   12  C3  UNL     1       3.625   8.472  24.282  1.00  0.00     0.143 C 
ATOM     13  H1  UNL     1       3.944   6.430  24.974  1.00  0.00     0.162 HD
HETATM   14  N2  UNL     1       4.576   9.057  23.783  1.00  0.00    -0.320 N 
HETATM   15  S1  UNL     1       1.891   9.030  24.045  1.00  0.00    -0.076 SA
ATOM     16  H2  UNL     1       4.301   9.888  23.260  1.00  0.00     0.169 HD
HETATM   17  C9  UNL     1       0.385   6.855  24.903  1.00  0.00     0.036 C 
BRANCH  14  18
HETATM   18  C4  UNL     1       5.933   8.840  23.773  1.00  0.00     0.140 C 
BRANCH  18  19
HETATM   19  O1  UNL     1       6.361   7.773  24.381  1.00  0.00    -0.348 OA
ATOM     20  H1  UNL     1       6.275   6.950  23.914  1.00  0.00     0.219 HD
ENDBRANCH  18  19
BRANCH  18  21
HETATM   21  C5  UNL     1       6.898   9.738  23.122  1.00  0.00     0.094 C 
HETATM   22  C6  UNL     1       6.849  11.108  23.726  1.00  0.00     0.041 C 
HETATM   23  C7  UNL     1       6.393   9.910  21.670  1.00  0.00     0.041 C 
HETATM   24 CL1  UNL     1       8.544   9.141  23.046  1.00  0.00    -0.111 Cl
ENDBRANCH  18  21
ENDBRANCH  14  18
ENDBRANCH   7   8
ENDBRANCH   5   7
ENDBRANCH   1   4
TORSDOF 6
ENDMDL
MODEL 4
REMARK VINA RESULT: -6.638547759      1.798      2.343
REMARK  6 active torsions:
REMARK  status: ('A' for Active; 'I' for Inactive)
REMARK    1  A    between atoms: N2_6  and  C4_8 
REMARK    2  A    between atoms: C4_8  and  O1_9 
REMARK    3  A    between atoms: C4_8  and  C5_11 
REMARK    4  A    between atoms: C8_16  and  C10_18 
REMARK    5  A    between atoms: C10_18  and  N3_19 
REMARK       I    between atoms: N3_19  and  C11_20 
REMARK    6  A    between atoms: C11_20  and  O3_22 
ROOT
HETATM    1  O3  UNL     1      -0.357   8.892  28.573  1.00  0.00    -0.174 OA
HETATM    2  C12 UNL     1      -0.770   9.967  27.865  1.00  0.00     0.238 C 
HETATM    3  N4  UNL     1      -1.126  10.877  27.251  1.00  0.00    -0.163 NA
ENDROOT
BRANCH   1   4
HETATM    4  C11 UNL     1       0.282   7.764  27.948  1.00  0.00     0.454 C 
HETATM    5  N3  UNL     1       0.383   7.655  26.617  1.00  0.00    -0.360 NA
HETATM    6  O2  UNL     1       0.704   6.950  28.861  1.00  0.00    -0.220 OA
BRANCH   5   7
HETATM    7  C10 UNL     1       0.484   7.543  25.260  1.00  0.00     0.184 C 
BRANCH   7   8
HETATM    8  C8  UNL     1       1.198   8.647  24.508  1.00  0.00     0.076 C 
HETATM    9  C2  UNL     1       1.843   8.064  23.284  1.00  0.00     0.104 C 
HETATM   10  C1  UNL     1       2.202   6.601  23.442  1.00  0.00     0.034 C 
HETATM   11  N1  UNL     1       3.014   8.814  22.965  1.00  0.00    -0.364 N 
HETATM   12  C3  UNL     1       3.888   8.912  24.095  1.00  0.00     0.143 C 
ATOM     13  H1  UNL     1       3.203   9.226  22.051  1.00  0.00     0.162 HD
HETATM   14  N2  UNL     1       5.094   8.879  24.291  1.00  0.00    -0.320 N 
HETATM   15  S1  UNL     1       2.678   9.184  25.451  1.00  0.00    -0.076 SA
ATOM     16  H2  UNL     1       5.341   8.986  25.275  1.00  0.00     0.169 HD
HETATM   17  C9  UNL     1       0.316   9.772  24.104  1.00  0.00     0.036 C 
BRANCH  14  18
HETATM   18  C4  UNL     1       6.191   8.729  23.477  1.00  0.00     0.140 C 
BRANCH  18  19
HETATM   19  O1  UNL     1       6.556   7.510  23.203  1.00  0.00    -0.348 OA
ATOM     20  H1  UNL     1       7.444   7.267  23.436  1.00  0.00     0.219 HD
ENDBRANCH  18  19
BRANCH  18  21
HETATM   21  C5  UNL     1       6.952   9.855  22.916  1.00  0.00     0.094 C 
HETATM   22  C6  UNL     1       6.610  10.071  21.474  1.00  0.00     0.041 C 
HETATM   23  C7  UNL     1       8.432   9.403  22.926  1.00  0.00     0.041 C 
HETATM   24 CL1  UNL     1       6.848  11.353  23.821  1.00  0.00    -0.111 Cl
ENDBRANCH  18  21
ENDBRANCH  14  18
ENDBRANCH   7   8
ENDBRANCH   5   7
ENDBRANCH   1   4
TORSDOF 6
ENDMDL
MODEL 5
REMARK VINA RESULT: -6.512787416      3.974      6.221
REMARK  6 active torsions:
REMARK  status: ('A' for Active; 'I' for Inactive)
REMARK    1  A    between atoms: N2_6  and  C4_8 
REMARK    2  A    between atoms: C4_8  and  O1_9 
REMARK    3  A    between atoms: C4_8  and  C5_11 
REMARK    4  A    between atoms: C8_16  and  C10_18 
REMARK    5  A    between atoms: C10_18  and  N3_19 
REMARK       I    between atoms: N3_19  and  C11_20 
REMARK    6  A    between atoms: C11_20  and  O3_22 
ROOT
HETATM    1  O3  UNL     1       1.265   7.189  31.760  1.00  0.00    -0.174 OA
HETATM    2  C12 UNL     1       0.795   6.317  32.680  1.00  0.00     0.238 C 
HETATM    3  N4  UNL     1       0.402   5.564  33.462  1.00  0.00    -0.163 NA
ENDROOT
BRANCH   1   4
HETATM    4  C11 UNL     1       1.692   6.765  30.452  1.00  0.00     0.454 C 
HETATM    5  N3  UNL     1       1.726   7.607  29.412  1.00  0.00    -0.360 NA
HETATM    6  O2  UNL     1       2.010   5.512  30.490  1.00  0.00    -0.220 OA
BRANCH   5   7
HETATM    7  C10 UNL     1       1.760   8.466  28.350  1.00  0.00     0.184 C 
BRANCH   7   8
HETATM    8  C8  UNL     1       0.620   8.409  27.354  1.00  0.00     0.076 C 
HETATM    9  C2  UNL     1       1.177   8.549  25.967  1.00  0.00     0.104 C 
HETATM   10  C1  UNL     1       2.471   9.336  25.925  1.00  0.00     0.034 C 
HETATM   11  N1  UNL     1       0.207   9.175  25.130  1.00  0.00    -0.364 N 
HETATM   12  C3  UNL     1      -0.252  10.406  25.703  1.00  0.00     0.143 C 
ATOM     13  H1  UNL     1      -0.118   8.797  24.240  1.00  0.00     0.162 HD
HETATM   14  N2  UNL     1      -0.547  11.520  25.296  1.00  0.00    -0.320 N 
HETATM   15  S1  UNL     1      -0.387   9.938  27.475  1.00  0.00    -0.076 SA
ATOM     16  H2  UNL     1      -0.839  12.152  26.042  1.00  0.00     0.169 HD
HETATM   17  C9  UNL     1      -0.188   7.164  27.431  1.00  0.00     0.036 C 
BRANCH  14  18
HETATM   18  C4  UNL     1      -0.571  12.109  24.054  1.00  0.00     0.140 C 
BRANCH  18  19
HETATM   19  O1  UNL     1      -1.723  12.155  23.449  1.00  0.00    -0.348 OA
ATOM     20  H1  UNL     1      -2.353  12.786  23.777  1.00  0.00     0.219 HD
ENDBRANCH  18  19
BRANCH  18  21
HETATM   21  C5  UNL     1       0.615  12.672  23.394  1.00  0.00     0.094 C 
HETATM   22  C6  UNL     1       1.036  13.953  24.047  1.00  0.00     0.041 C 
HETATM   23  C7  UNL     1       0.152  13.068  21.972  1.00  0.00     0.041 C 
HETATM   24 CL1  UNL     1       1.971  11.574  23.224  1.00  0.00    -0.111 Cl
ENDBRANCH  18  21
ENDBRANCH  14  18
ENDBRANCH   7   8
ENDBRANCH   5   7
ENDBRANCH   1   4
TORSDOF 6
ENDMDL
