MODEL 1
REMARK VINA RESULT: -4.698096823      0.000      0.000
REMARK  10 active torsions:
REMARK  status: ('A' for Active; 'I' for Inactive)
REMARK    1  A    between atoms: N1_1  and  C1_4 
REMARK    2  A    between atoms: C2_7  and  O1_8 
REMARK    3  A    between atoms: C3_10  and  C4_11 
REMARK    4  A    between atoms: C4_11  and  N3_12 
REMARK    5  A    between atoms: N3_12  and  C5_14 
REMARK    6  A    between atoms: C6_19  and  C7_20 
REMARK    7  A    between atoms: C7_20  and  N6_21 
REMARK    8  A    between atoms: C7_20  and  O2_25 
REMARK    9  A    between atoms: N8_30  and  N9_32 
REMARK   10  A    between atoms: N9_32  and  C9_34 
ROOT
HETATM    1  C1  UNL     1      42.772  20.686  34.723  1.00  0.00     0.679 A 
HETATM    2  N2  UNL     1      43.822  21.135  34.021  1.00  0.00    -0.170 N 
ATOM      3  H2  UNL     1      43.764  22.049  33.571  1.00  0.00     0.186 HD
HETATM    4  C2  UNL     1      44.956  20.406  33.894  1.00  0.00     0.167 A 
HETATM    5  C3  UNL     1      45.029  19.184  34.498  1.00  0.00     0.057 A 
HETATM    6  C8  UNL     1      43.950  18.714  35.212  1.00  0.00     0.147 A 
HETATM    7  N8  UNL     1      44.022  17.530  35.645  1.00  0.00    -0.282 N 
ATOM      8  H8  UNL     1      44.899  17.065  35.410  1.00  0.00     0.188 HD
HETATM    9  N10 UNL     1      42.823  19.488  35.315  1.00  0.00    -0.175 N 
ATOM     10  H10 UNL     1      42.020  19.148  35.845  1.00  0.00     0.186 HD
ENDROOT
BRANCH   5  11
HETATM   11  C4  UNL     1      46.336  18.415  34.403  1.00  0.00     0.185 C 
BRANCH  11  12
HETATM   12  N3  UNL     1      46.285  17.746  33.148  1.00  0.00    -0.220 N 
ATOM     13  H3  UNL     1      46.537  18.326  32.349  1.00  0.00     0.178 HD
BRANCH  12  14
HETATM   14  C5  UNL     1      45.985  16.578  32.861  1.00  0.00     0.694 A 
HETATM   15  N4  UNL     1      44.707  16.117  32.579  1.00  0.00    -0.131 N 
HETATM   16  N5  UNL     1      44.809  14.856  32.248  1.00  0.00    -0.271 N 
ATOM     17  H4  UNL     1      43.846  16.661  32.622  1.00  0.00     0.205 HD
HETATM   18  C6  UNL     1      46.118  14.521  32.316  1.00  0.00     0.169 A 
ATOM     19  H5  UNL     1      44.042  14.238  31.986  1.00  0.00     0.189 HD
HETATM   20  N7  UNL     1      46.863  15.567  32.696  1.00  0.00    -0.174 N 
ATOM     21  H7  UNL     1      47.873  15.593  32.831  1.00  0.00     0.185 HD
BRANCH  18  22
HETATM   22  C7  UNL     1      46.715  13.186  31.965  1.00  0.00     0.386 C 
BRANCH  22  23
HETATM   23  N6  UNL     1      45.651  12.325  31.482  1.00  0.00    -0.046 N 
ATOM     24  H63 UNL     1      45.591  11.447  31.997  1.00  0.00     0.277 HD
ATOM     25  H62 UNL     1      44.723  12.682  31.709  1.00  0.00     0.277 HD
ATOM     26  H61 UNL     1      45.784  12.184  30.480  1.00  0.00     0.277 HD
ENDBRANCH  22  23
BRANCH  22  27
HETATM   27  O2  UNL     1      47.620  13.486  30.928  1.00  0.00    -0.364 OA
ATOM     28  H2  UNL     1      47.877  12.632  30.599  1.00  0.00     0.212 HD
ENDBRANCH  22  27
ENDBRANCH  18  22
ENDBRANCH  12  14
ENDBRANCH  11  12
ENDBRANCH   5  11
BRANCH   4  29
HETATM   29  O1  UNL     1      46.070  20.851  33.168  1.00  0.00    -0.345 OA
ATOM     30  H1  UNL     1      46.678  20.259  32.740  1.00  0.00     0.219 HD
ENDBRANCH   4  29
BRANCH   7  31
HETATM   31  N9  UNL     1      43.166  16.744  36.367  1.00  0.00    -0.276 N 
ATOM     32  H9  UNL     1      42.995  16.937  37.354  1.00  0.00     0.189 HD
BRANCH  31  33
HETATM   33  C9  UNL     1      42.504  15.636  35.711  1.00  0.00     0.368 C 
HETATM   34  O3  UNL     1      42.801  15.229  34.568  1.00  0.00    -0.282 OA
ENDBRANCH  31  33
ENDBRANCH   7  31
BRANCH   1  35
HETATM   35  N1  UNL     1      41.733  21.452  34.871  1.00  0.00    -0.234 N 
ATOM     36  H12 UNL     1      40.970  21.429  34.195  1.00  0.00     0.174 HD
ATOM     37  H11 UNL     1      41.667  22.045  35.698  1.00  0.00     0.174 HD
ENDBRANCH   1  35
TORSDOF 10
ENDMDL
MODEL 2
REMARK VINA RESULT: -4.487422548      2.299      6.159
REMARK  10 active torsions:
REMARK  status: ('A' for Active; 'I' for Inactive)
REMARK    1  A    between atoms: N1_1  and  C1_4 
REMARK    2  A    between atoms: C2_7  and  O1_8 
REMARK    3  A    between atoms: C3_10  and  C4_11 
REMARK    4  A    between atoms: C4_11  and  N3_12 
REMARK    5  A    between atoms: N3_12  and  C5_14 
REMARK    6  A    between atoms: C6_19  and  C7_20 
REMARK    7  A    between atoms: C7_20  and  N6_21 
REMARK    8  A    between atoms: C7_20  and  O2_25 
REMARK    9  A    between atoms: N8_30  and  N9_32 
REMARK   10  A    between atoms: N9_32  and  C9_34 
ROOT
HETATM    1  C1  UNL     1      48.279  17.574  33.027  1.00  0.00     0.679 A 
HETATM    2  N2  UNL     1      48.273  18.915  33.015  1.00  0.00    -0.170 N 
ATOM      3  H2  UNL     1      49.157  19.417  33.092  1.00  0.00     0.186 HD
HETATM    4  C2  UNL     1      47.120  19.619  32.904  1.00  0.00     0.167 A 
HETATM    5  C3  UNL     1      45.939  18.942  32.801  1.00  0.00     0.057 A 
HETATM    6  C8  UNL     1      45.940  17.566  32.822  1.00  0.00     0.147 A 
HETATM    7  N8  UNL     1      44.815  16.993  32.848  1.00  0.00    -0.282 N 
ATOM      8  H8  UNL     1      44.029  17.643  32.842  1.00  0.00     0.188 HD
HETATM    9  N10 UNL     1      47.131  16.896  32.934  1.00  0.00    -0.175 N 
ATOM     10  H10 UNL     1      47.141  15.876  32.947  1.00  0.00     0.186 HD
ENDROOT
BRANCH   5  11
HETATM   11  C4  UNL     1      44.666  19.749  32.605  1.00  0.00     0.185 C 
BRANCH  11  12
HETATM   12  N3  UNL     1      44.316  20.215  33.903  1.00  0.00    -0.220 N 
ATOM     13  H3  UNL     1      44.924  20.949  34.268  1.00  0.00     0.178 HD
BRANCH  12  14
HETATM   14  C5  UNL     1      43.399  19.880  34.667  1.00  0.00     0.694 A 
HETATM   15  N4  UNL     1      43.395  18.757  35.482  1.00  0.00    -0.131 N 
HETATM   16  N5  UNL     1      42.297  18.791  36.191  1.00  0.00    -0.271 N 
ATOM     17  H4  UNL     1      44.116  18.036  35.520  1.00  0.00     0.205 HD
HETATM   18  C6  UNL     1      41.619  19.908  35.840  1.00  0.00     0.169 A 
ATOM     19  H5  UNL     1      42.006  18.102  36.884  1.00  0.00     0.189 HD
HETATM   20  N7  UNL     1      42.278  20.594  34.897  1.00  0.00    -0.174 N 
ATOM     21  H7  UNL     1      41.994  21.466  34.451  1.00  0.00     0.185 HD
BRANCH  18  22
HETATM   22  C7  UNL     1      40.326  20.389  36.438  1.00  0.00     0.386 C 
BRANCH  22  23
HETATM   23  N6  UNL     1      40.636  21.358  37.471  1.00  0.00    -0.046 N 
ATOM     24  H63 UNL     1      40.758  20.930  38.389  1.00  0.00     0.277 HD
ATOM     25  H62 UNL     1      41.573  21.750  37.375  1.00  0.00     0.277 HD
ATOM     26  H61 UNL     1      39.909  22.074  37.467  1.00  0.00     0.277 HD
ENDBRANCH  22  23
BRANCH  22  27
HETATM   27  O2  UNL     1      39.668  21.008  35.358  1.00  0.00    -0.364 OA
ATOM     28  H2  UNL     1      39.303  20.281  34.868  1.00  0.00     0.212 HD
ENDBRANCH  22  27
ENDBRANCH  18  22
ENDBRANCH  12  14
ENDBRANCH  11  12
ENDBRANCH   5  11
BRANCH   4  29
HETATM   29  O1  UNL     1      47.083  21.021  32.888  1.00  0.00    -0.345 OA
ATOM     30  H1  UNL     1      46.659  21.517  32.197  1.00  0.00     0.219 HD
ENDBRANCH   4  29
BRANCH   7  31
HETATM   31  N9  UNL     1      44.435  15.679  32.881  1.00  0.00    -0.276 N 
ATOM     32  H9  UNL     1      44.671  15.053  32.111  1.00  0.00     0.189 HD
BRANCH  31  33
HETATM   33  C9  UNL     1      43.695  15.189  34.024  1.00  0.00     0.368 C 
HETATM   34  O3  UNL     1      43.122  15.930  34.851  1.00  0.00    -0.282 OA
ENDBRANCH  31  33
ENDBRANCH   7  31
BRANCH   1  35
HETATM   35  N1  UNL     1      49.417  16.947  33.067  1.00  0.00    -0.234 N 
ATOM     36  H12 UNL     1      49.664  16.371  33.872  1.00  0.00     0.174 HD
ATOM     37  H11 UNL     1      50.041  16.998  32.263  1.00  0.00     0.174 HD
ENDBRANCH   1  35
TORSDOF 10
ENDMDL
MODEL 3
REMARK VINA RESULT: -4.431295086      4.649      6.798
REMARK  10 active torsions:
REMARK  status: ('A' for Active; 'I' for Inactive)
REMARK    1  A    between atoms: N1_1  and  C1_4 
REMARK    2  A    between atoms: C2_7  and  O1_8 
REMARK    3  A    between atoms: C3_10  and  C4_11 
REMARK    4  A    between atoms: C4_11  and  N3_12 
REMARK    5  A    between atoms: N3_12  and  C5_14 
REMARK    6  A    between atoms: C6_19  and  C7_20 
REMARK    7  A    between atoms: C7_20  and  N6_21 
REMARK    8  A    between atoms: C7_20  and  O2_25 
REMARK    9  A    between atoms: N8_30  and  N9_32 
REMARK   10  A    between atoms: N9_32  and  C9_34 
ROOT
HETATM    1  C1  UNL     1      39.150  13.602  32.145  1.00  0.00     0.679 A 
HETATM    2  N2  UNL     1      39.579  13.221  33.357  1.00  0.00    -0.170 N 
ATOM      3  H2  UNL     1      39.020  13.453  34.178  1.00  0.00     0.186 HD
HETATM    4  C2  UNL     1      40.737  12.537  33.517  1.00  0.00     0.167 A 
HETATM    5  C3  UNL     1      41.481  12.227  32.416  1.00  0.00     0.057 A 
HETATM    6  C8  UNL     1      41.050  12.625  31.170  1.00  0.00     0.147 A 
HETATM    7  N8  UNL     1      41.833  12.422  30.202  1.00  0.00    -0.282 N 
ATOM      8  H8  UNL     1      42.707  11.972  30.474  1.00  0.00     0.188 HD
HETATM    9  N10 UNL     1      39.870  13.314  31.056  1.00  0.00    -0.175 N 
ATOM     10  H10 UNL     1      39.541  13.608  30.137  1.00  0.00     0.186 HD
ENDROOT
BRANCH   5  11
HETATM   11  C4  UNL     1      42.739  11.398  32.611  1.00  0.00     0.185 C 
BRANCH  11  12
HETATM   12  N3  UNL     1      43.655  12.258  33.279  1.00  0.00    -0.220 N 
ATOM     13  H3  UNL     1      43.703  12.122  34.289  1.00  0.00     0.178 HD
BRANCH  12  14
HETATM   14  C5  UNL     1      44.403  13.145  32.843  1.00  0.00     0.694 A 
HETATM   15  N4  UNL     1      44.037  14.459  32.589  1.00  0.00    -0.131 N 
HETATM   16  N5  UNL     1      45.114  15.101  32.217  1.00  0.00    -0.271 N 
ATOM     17  H4  UNL     1      43.100  14.852  32.675  1.00  0.00     0.205 HD
HETATM   18  C6  UNL     1      46.141  14.220  32.235  1.00  0.00     0.169 A 
ATOM     19  H5  UNL     1      45.169  16.086  31.961  1.00  0.00     0.189 HD
HETATM   20  N7  UNL     1      45.725  13.005  32.614  1.00  0.00    -0.174 N 
ATOM     21  H7  UNL     1      46.286  12.159  32.710  1.00  0.00     0.185 HD
BRANCH  18  22
HETATM   22  C7  UNL     1      47.582  14.528  31.935  1.00  0.00     0.386 C 
BRANCH  22  23
HETATM   23  N6  UNL     1      48.375  14.160  33.093  1.00  0.00    -0.046 N 
ATOM     24  H63 UNL     1      48.206  13.201  33.397  1.00  0.00     0.277 HD
ATOM     25  H62 UNL     1      49.367  14.063  32.874  1.00  0.00     0.277 HD
ATOM     26  H61 UNL     1      48.201  14.843  33.830  1.00  0.00     0.277 HD
ENDBRANCH  22  23
BRANCH  22  27
HETATM   27  O2  UNL     1      47.882  13.692  30.842  1.00  0.00    -0.364 OA
ATOM     28  H2  UNL     1      47.062  13.641  30.365  1.00  0.00     0.212 HD
ENDBRANCH  22  27
ENDBRANCH  18  22
ENDBRANCH  12  14
ENDBRANCH  11  12
ENDBRANCH   5  11
BRANCH   4  29
HETATM   29  O1  UNL     1      41.211  12.124  34.772  1.00  0.00    -0.345 OA
ATOM     30  H1  UNL     1      42.134  11.998  34.959  1.00  0.00     0.219 HD
ENDBRANCH   4  29
BRANCH   7  31
HETATM   31  N9  UNL     1      41.750  12.684  28.861  1.00  0.00    -0.276 N 
ATOM     32  H9  UNL     1      42.360  13.379  28.432  1.00  0.00     0.189 HD
BRANCH  31  33
HETATM   33  C9  UNL     1      40.784  11.961  28.061  1.00  0.00     0.368 C 
HETATM   34  O3  UNL     1      39.574  12.259  27.995  1.00  0.00    -0.282 OA
ENDBRANCH  31  33
ENDBRANCH   7  31
BRANCH   1  35
HETATM   35  N1  UNL     1      37.999  14.196  32.039  1.00  0.00    -0.234 N 
ATOM     36  H12 UNL     1      37.827  15.083  32.514  1.00  0.00     0.174 HD
ATOM     37  H11 UNL     1      37.284  13.791  31.436  1.00  0.00     0.174 HD
ENDBRANCH   1  35
TORSDOF 10
ENDMDL
MODEL 4
REMARK VINA RESULT: -4.349458522      3.735      6.067
REMARK  10 active torsions:
REMARK  status: ('A' for Active; 'I' for Inactive)
REMARK    1  A    between atoms: N1_1  and  C1_4 
REMARK    2  A    between atoms: C2_7  and  O1_8 
REMARK    3  A    between atoms: C3_10  and  C4_11 
REMARK    4  A    between atoms: C4_11  and  N3_12 
REMARK    5  A    between atoms: N3_12  and  C5_14 
REMARK    6  A    between atoms: C6_19  and  C7_20 
REMARK    7  A    between atoms: C7_20  and  N6_21 
REMARK    8  A    between atoms: C7_20  and  O2_25 
REMARK    9  A    between atoms: N8_30  and  N9_32 
REMARK   10  A    between atoms: N9_32  and  C9_34 
ROOT
HETATM    1  C1  UNL     1      45.310  16.323  33.064  1.00  0.00     0.679 A 
HETATM    2  N2  UNL     1      44.381  16.486  34.017  1.00  0.00    -0.170 N 
ATOM      3  H2  UNL     1      44.293  17.393  34.476  1.00  0.00     0.186 HD
HETATM    4  C2  UNL     1      43.557  15.476  34.387  1.00  0.00     0.167 A 
HETATM    5  C3  UNL     1      43.678  14.264  33.770  1.00  0.00     0.057 A 
HETATM    6  C8  UNL     1      44.637  14.089  32.797  1.00  0.00     0.147 A 
HETATM    7  N8  UNL     1      44.788  12.919  32.348  1.00  0.00    -0.282 N 
ATOM      8  H8  UNL     1      44.158  12.237  32.770  1.00  0.00     0.188 HD
HETATM    9  N10 UNL     1      45.447  15.140  32.455  1.00  0.00    -0.175 N 
ATOM     10  H10 UNL     1      46.157  15.020  31.732  1.00  0.00     0.186 HD
ENDROOT
BRANCH   5  11
HETATM   11  C4  UNL     1      42.697  13.167  34.149  1.00  0.00     0.185 C 
BRANCH  11  12
HETATM   12  N3  UNL     1      41.448  13.579  33.608  1.00  0.00    -0.220 N 
ATOM     13  H3  UNL     1      40.927  14.232  34.194  1.00  0.00     0.178 HD
BRANCH  12  14
HETATM   14  C5  UNL     1      40.884  13.280  32.545  1.00  0.00     0.694 A 
HETATM   15  N4  UNL     1      39.619  13.696  32.156  1.00  0.00    -0.131 N 
HETATM   16  N5  UNL     1      39.411  13.242  30.948  1.00  0.00    -0.271 N 
ATOM     17  H4  UNL     1      38.970  14.254  32.712  1.00  0.00     0.205 HD
HETATM   18  C6  UNL     1      40.514  12.555  30.574  1.00  0.00     0.169 A 
ATOM     19  H5  UNL     1      38.569  13.381  30.389  1.00  0.00     0.189 HD
HETATM   20  N7  UNL     1      41.436  12.561  31.546  1.00  0.00    -0.174 N 
ATOM     21  H7  UNL     1      42.355  12.119  31.533  1.00  0.00     0.185 HD
BRANCH  18  22
HETATM   22  C7  UNL     1      40.748  11.904  29.239  1.00  0.00     0.386 C 
BRANCH  22  23
HETATM   23  N6  UNL     1      39.637  12.240  28.369  1.00  0.00    -0.046 N 
ATOM     24  H63 UNL     1      39.125  13.063  28.685  1.00  0.00     0.277 HD
ATOM     25  H62 UNL     1      39.942  12.604  27.466  1.00  0.00     0.277 HD
ATOM     26  H61 UNL     1      39.041  11.417  28.279  1.00  0.00     0.277 HD
ENDBRANCH  22  23
BRANCH  22  27
HETATM   27  O2  UNL     1      41.937  12.501  28.779  1.00  0.00    -0.364 OA
ATOM     28  H2  UNL     1      42.012  12.195  27.883  1.00  0.00     0.212 HD
ENDBRANCH  22  27
ENDBRANCH  18  22
ENDBRANCH  12  14
ENDBRANCH  11  12
ENDBRANCH   5  11
BRANCH   4  29
HETATM   29  O1  UNL     1      42.576  15.617  35.379  1.00  0.00    -0.345 OA
ATOM     30  H1  UNL     1      41.648  15.668  35.183  1.00  0.00     0.219 HD
ENDBRANCH   4  29
BRANCH   7  31
HETATM   31  N9  UNL     1      45.624  12.379  31.409  1.00  0.00    -0.276 N 
ATOM     32  H9  UNL     1      45.249  11.817  30.645  1.00  0.00     0.189 HD
BRANCH  31  33
HETATM   33  C9  UNL     1      47.049  12.616  31.515  1.00  0.00     0.368 C 
HETATM   34  O3  UNL     1      47.649  13.524  30.903  1.00  0.00    -0.282 OA
ENDBRANCH  31  33
ENDBRANCH   7  31
BRANCH   1  35
HETATM   35  N1  UNL     1      46.029  17.342  32.699  1.00  0.00    -0.234 N 
ATOM     36  H12 UNL     1      47.046  17.313  32.776  1.00  0.00     0.174 HD
ATOM     37  H11 UNL     1      45.569  18.154  32.290  1.00  0.00     0.174 HD
ENDBRANCH   1  35
TORSDOF 10
ENDMDL
MODEL 5
REMARK VINA RESULT: -4.344783688      2.885      4.885
REMARK  10 active torsions:
REMARK  status: ('A' for Active; 'I' for Inactive)
REMARK    1  A    between atoms: N1_1  and  C1_4 
REMARK    2  A    between atoms: C2_7  and  O1_8 
REMARK    3  A    between atoms: C3_10  and  C4_11 
REMARK    4  A    between atoms: C4_11  and  N3_12 
REMARK    5  A    between atoms: N3_12  and  C5_14 
REMARK    6  A    between atoms: C6_19  and  C7_20 
REMARK    7  A    between atoms: C7_20  and  N6_21 
REMARK    8  A    between atoms: C7_20  and  O2_25 
REMARK    9  A    between atoms: N8_30  and  N9_32 
REMARK   10  A    between atoms: N9_32  and  C9_34 
ROOT
HETATM    1  C1  UNL     1      44.975  18.653  33.176  1.00  0.00     0.679 A 
HETATM    2  N2  UNL     1      44.424  18.795  34.390  1.00  0.00    -0.170 N 
ATOM      3  H2  UNL     1      44.273  19.733  34.761  1.00  0.00     0.186 HD
HETATM    4  C2  UNL     1      44.063  17.723  35.136  1.00  0.00     0.167 A 
HETATM    5  C3  UNL     1      44.265  16.470  34.635  1.00  0.00     0.057 A 
HETATM    6  C8  UNL     1      44.840  16.319  33.394  1.00  0.00     0.147 A 
HETATM    7  N8  UNL     1      45.118  15.142  33.031  1.00  0.00    -0.282 N 
ATOM      8  H8  UNL     1      44.867  14.435  33.722  1.00  0.00     0.188 HD
HETATM    9  N10 UNL     1      45.188  17.432  32.674  1.00  0.00    -0.175 N 
ATOM     10  H10 UNL     1      45.610  17.329  31.751  1.00  0.00     0.186 HD
ENDROOT
BRANCH   5  11
HETATM   11  C4  UNL     1      43.787  15.284  35.458  1.00  0.00     0.185 C 
BRANCH  11  12
HETATM   12  N3  UNL     1      42.367  15.354  35.423  1.00  0.00    -0.220 N 
ATOM     13  H3  UNL     1      41.953  15.918  36.165  1.00  0.00     0.178 HD
BRANCH  12  14
HETATM   14  C5  UNL     1      41.547  14.846  34.645  1.00  0.00     0.694 A 
HETATM   15  N4  UNL     1      40.179  15.077  34.649  1.00  0.00    -0.131 N 
HETATM   16  N5  UNL     1      39.669  14.428  33.634  1.00  0.00    -0.271 N 
ATOM     17  H4  UNL     1      39.665  15.648  35.320  1.00  0.00     0.205 HD
HETATM   18  C6  UNL     1      40.685  13.800  32.999  1.00  0.00     0.169 A 
ATOM     19  H5  UNL     1      38.685  14.400  33.370  1.00  0.00     0.189 HD
HETATM   20  N7  UNL     1      41.853  14.040  33.608  1.00  0.00    -0.174 N 
ATOM     21  H7  UNL     1      42.774  13.690  33.343  1.00  0.00     0.185 HD
BRANCH  18  22
HETATM   22  C7  UNL     1      40.578  12.980  31.743  1.00  0.00     0.386 C 
BRANCH  22  23
HETATM   23  N6  UNL     1      39.410  13.425  31.007  1.00  0.00    -0.046 N 
ATOM     24  H63 UNL     1      38.591  13.544  31.604  1.00  0.00     0.277 HD
ATOM     25  H62 UNL     1      39.490  14.391  30.689  1.00  0.00     0.277 HD
ATOM     26  H61 UNL     1      39.246  12.771  30.242  1.00  0.00     0.277 HD
ENDBRANCH  22  23
BRANCH  22  27
HETATM   27  O2  UNL     1      41.757  13.292  31.039  1.00  0.00    -0.364 OA
ATOM     28  H2  UNL     1      42.143  12.443  30.856  1.00  0.00     0.212 HD
ENDBRANCH  22  27
ENDBRANCH  18  22
ENDBRANCH  12  14
ENDBRANCH  11  12
ENDBRANCH   5  11
BRANCH   4  29
HETATM   29  O1  UNL     1      43.483  17.841  36.408  1.00  0.00    -0.345 OA
ATOM     30  H1  UNL     1      43.489  17.137  37.046  1.00  0.00     0.219 HD
ENDBRANCH   4  29
BRANCH   7  31
HETATM   31  N9  UNL     1      45.686  14.621  31.901  1.00  0.00    -0.276 N 
ATOM     32  H9  UNL     1      45.124  14.467  31.064  1.00  0.00     0.189 HD
BRANCH  31  33
HETATM   33  C9  UNL     1      47.096  14.292  31.908  1.00  0.00     0.368 C 
HETATM   34  O3  UNL     1      47.680  13.718  30.966  1.00  0.00    -0.282 OA
ENDBRANCH  31  33
ENDBRANCH   7  31
BRANCH   1  35
HETATM   35  N1  UNL     1      45.241  19.713  32.474  1.00  0.00    -0.234 N 
ATOM     36  H12 UNL     1      44.614  20.517  32.489  1.00  0.00     0.174 HD
ATOM     37  H11 UNL     1      46.110  19.752  31.942  1.00  0.00     0.174 HD
ENDBRANCH   1  35
TORSDOF 10
ENDMDL
