MODEL 1
REMARK VINA RESULT: -9.464838547      0.000      0.000
REMARK  3 active torsions:
REMARK  status: ('A' for Active; 'I' for Inactive)
REMARK    1  A    between atoms: C2_3  and  C3_4 
REMARK       I    between atoms: C3_4  and  N2_6 
REMARK    2  A    between atoms: N2_6  and  C4_8 
REMARK    3  A    between atoms: C4_8  and  C5_9 
ROOT
HETATM    1  N1  UNL     1      -7.943 -16.811  10.065  1.00  0.00    -0.196 NA
HETATM    2  C1  UNL     1      -8.995 -16.665   9.549  1.00  0.00     0.080 C 
HETATM    3  C2  UNL     1     -10.310 -16.476   8.940  1.00  0.00     0.137 C 
HETATM    4  C12 UNL     1     -11.116 -15.544   9.805  1.00  0.00     0.019 C 
HETATM    5  C13 UNL     1     -12.585 -15.519   9.489  1.00  0.00     0.011 C 
HETATM    6  C14 UNL     1     -13.161 -16.887   9.650  1.00  0.00    -0.013 C 
HETATM    7  C15 UNL     1     -12.956 -17.465  11.019  1.00  0.00     0.009 C 
HETATM    8  C16 UNL     1     -11.458 -17.487  11.337  1.00  0.00    -0.013 C 
HETATM    9  C17 UNL     1     -10.979 -16.054  11.244  1.00  0.00     0.011 C 
HETATM   10  C18 UNL     1     -10.794 -18.390  10.359  1.00  0.00     0.011 C 
HETATM   11  C19 UNL     1     -10.977 -17.823   8.953  1.00  0.00     0.019 C 
HETATM   12  C20 UNL     1     -12.437 -17.806   8.666  1.00  0.00     0.011 C 
ENDROOT
BRANCH   3  13
HETATM   13  C3  UNL     1     -10.115 -15.936   7.554  1.00  0.00     0.242 C 
HETATM   14  O1  UNL     1      -9.666 -16.723   6.692  1.00  0.00    -0.272 OA
HETATM   15  N2  UNL     1     -10.416 -14.612   7.208  1.00  0.00    -0.340 N 
ATOM     16  H2  UNL     1     -10.754 -14.032   7.977  1.00  0.00     0.163 HD
BRANCH  15  17
HETATM   17  C4  UNL     1     -10.324 -13.944   5.936  1.00  0.00     0.121 C 
HETATM   18  C6  UNL     1      -8.917 -13.464   5.751  1.00  0.00     0.042 C 
HETATM   19  C7  UNL     1      -8.726 -12.447   4.694  1.00  0.00     0.009 C 
HETATM   20  C8  UNL     1      -9.067 -12.762   3.302  1.00  0.00     0.079 C 
HETATM   21  C9  UNL     1      -9.124 -14.180   2.914  1.00  0.00     0.243 C 
HETATM   22  F1  UNL     1      -9.739 -14.201   1.635  1.00  0.00    -0.206 F 
HETATM   23  F2  UNL     1      -7.797 -14.587   2.644  1.00  0.00    -0.206 F 
HETATM   24  C10 UNL     1      -9.737 -15.179   3.806  1.00  0.00     0.082 C 
HETATM   25  C11 UNL     1     -10.794 -14.750   4.753  1.00  0.00     0.048 C 
BRANCH  17  26
HETATM   26  C5  UNL     1     -11.310 -12.808   6.036  1.00  0.00     0.202 C 
HETATM   27  O2  UNL     1     -12.060 -12.476   5.060  1.00  0.00    -0.646 OA
HETATM   28  O3  UNL     1     -11.428 -12.079   7.196  1.00  0.00    -0.646 OA
ENDBRANCH  17  26
ENDBRANCH  15  17
ENDBRANCH   3  13
TORSDOF 3
ENDMDL
MODEL 2
REMARK VINA RESULT: -9.442068129      1.113      2.198
REMARK  3 active torsions:
REMARK  status: ('A' for Active; 'I' for Inactive)
REMARK    1  A    between atoms: C2_3  and  C3_4 
REMARK       I    between atoms: C3_4  and  N2_6 
REMARK    2  A    between atoms: N2_6  and  C4_8 
REMARK    3  A    between atoms: C4_8  and  C5_9 
ROOT
HETATM    1  N1  UNL     1     -13.276 -18.086   8.160  1.00  0.00    -0.196 NA
HETATM    2  C1  UNL     1     -12.295 -17.458   8.351  1.00  0.00     0.080 C 
HETATM    3  C2  UNL     1     -11.071 -16.702   8.612  1.00  0.00     0.137 C 
HETATM    4  C12 UNL     1     -10.040 -17.634   9.193  1.00  0.00     0.019 C 
HETATM    5  C13 UNL     1      -8.859 -16.943   9.815  1.00  0.00     0.011 C 
HETATM    6  C14 UNL     1      -9.320 -16.046  10.915  1.00  0.00    -0.013 C 
HETATM    7  C15 UNL     1     -10.098 -16.757  11.981  1.00  0.00     0.009 C 
HETATM    8  C16 UNL     1     -11.299 -17.461  11.343  1.00  0.00    -0.013 C 
HETATM    9  C17 UNL     1     -10.738 -18.416  10.311  1.00  0.00     0.011 C 
HETATM   10  C18 UNL     1     -12.183 -16.419  10.755  1.00  0.00     0.011 C 
HETATM   11  C19 UNL     1     -11.422 -15.681   9.657  1.00  0.00     0.019 C 
HETATM   12  C20 UNL     1     -10.258 -15.009  10.297  1.00  0.00     0.011 C 
ENDROOT
BRANCH   3  13
HETATM   13  C3  UNL     1     -10.614 -16.085   7.323  1.00  0.00     0.242 C 
HETATM   14  O1  UNL     1      -9.975 -16.816   6.535  1.00  0.00    -0.272 OA
HETATM   15  N2  UNL     1     -10.881 -14.752   6.987  1.00  0.00    -0.340 N 
ATOM     16  H2  UNL     1     -11.386 -14.220   7.696  1.00  0.00     0.163 HD
BRANCH  15  17
HETATM   17  C4  UNL     1     -10.553 -14.015   5.794  1.00  0.00     0.121 C 
HETATM   18  C6  UNL     1      -9.082 -13.724   5.802  1.00  0.00     0.042 C 
HETATM   19  C7  UNL     1      -8.637 -12.672   4.863  1.00  0.00     0.009 C 
HETATM   20  C8  UNL     1      -8.850 -12.838   3.421  1.00  0.00     0.079 C 
HETATM   21  C9  UNL     1      -9.045 -14.203   2.908  1.00  0.00     0.243 C 
HETATM   22  F1  UNL     1      -9.503 -14.048   1.574  1.00  0.00    -0.206 F 
HETATM   23  F2  UNL     1      -7.761 -14.771   2.749  1.00  0.00    -0.206 F 
HETATM   24  C10 UNL     1      -9.885 -15.166   3.641  1.00  0.00     0.082 C 
HETATM   25  C11 UNL     1     -10.981 -14.663   4.502  1.00  0.00     0.048 C 
BRANCH  17  26
HETATM   26  C5  UNL     1     -11.387 -12.763   5.884  1.00  0.00     0.202 C 
HETATM   27  O2  UNL     1     -12.072 -12.333   4.899  1.00  0.00    -0.646 OA
HETATM   28  O3  UNL     1     -11.430 -12.029   7.046  1.00  0.00    -0.646 OA
ENDBRANCH  17  26
ENDBRANCH  15  17
ENDBRANCH   3  13
TORSDOF 3
ENDMDL
MODEL 3
REMARK VINA RESULT: -9.190474430      0.824      1.075
REMARK  3 active torsions:
REMARK  status: ('A' for Active; 'I' for Inactive)
REMARK    1  A    between atoms: C2_3  and  C3_4 
REMARK       I    between atoms: C3_4  and  N2_6 
REMARK    2  A    between atoms: N2_6  and  C4_8 
REMARK    3  A    between atoms: C4_8  and  C5_9 
ROOT
HETATM    1  N1  UNL     1      -8.817 -18.116   9.176  1.00  0.00    -0.196 NA
HETATM    2  C1  UNL     1      -9.840 -17.550   9.017  1.00  0.00     0.080 C 
HETATM    3  C2  UNL     1     -11.109 -16.841   8.852  1.00  0.00     0.137 C 
HETATM    4  C12 UNL     1     -11.234 -15.811   9.943  1.00  0.00     0.019 C 
HETATM    5  C13 UNL     1     -12.615 -15.240  10.102  1.00  0.00     0.011 C 
HETATM    6  C14 UNL     1     -13.582 -16.335  10.409  1.00  0.00    -0.013 C 
HETATM    7  C15 UNL     1     -13.225 -17.122  11.635  1.00  0.00     0.009 C 
HETATM    8  C16 UNL     1     -11.816 -17.700  11.469  1.00  0.00    -0.013 C 
HETATM    9  C17 UNL     1     -10.891 -16.521  11.257  1.00  0.00     0.011 C 
HETATM   10  C18 UNL     1     -11.839 -18.640  10.316  1.00  0.00     0.011 C 
HETATM   11  C19 UNL     1     -12.191 -17.866   9.049  1.00  0.00     0.019 C 
HETATM   12  C20 UNL     1     -13.559 -17.310   9.232  1.00  0.00     0.011 C 
ENDROOT
BRANCH   3  13
HETATM   13  C3  UNL     1     -11.130 -16.225   7.485  1.00  0.00     0.242 C 
HETATM   14  O1  UNL     1     -11.786 -16.819   6.601  1.00  0.00    -0.272 OA
HETATM   15  N2  UNL     1     -10.458 -15.034   7.181  1.00  0.00    -0.340 N 
ATOM     16  H2  UNL     1      -9.928 -14.629   7.953  1.00  0.00     0.163 HD
BRANCH  15  17
HETATM   17  C4  UNL     1     -10.400 -14.293   5.949  1.00  0.00     0.121 C 
HETATM   18  C6  UNL     1      -9.084 -13.578   5.883  1.00  0.00     0.042 C 
HETATM   19  C7  UNL     1      -9.001 -12.488   4.886  1.00  0.00     0.009 C 
HETATM   20  C8  UNL     1      -9.197 -12.780   3.462  1.00  0.00     0.079 C 
HETATM   21  C9  UNL     1      -8.990 -14.165   3.011  1.00  0.00     0.243 C 
HETATM   22  F1  UNL     1      -9.511 -14.219   1.692  1.00  0.00    -0.206 F 
HETATM   23  F2  UNL     1      -7.599 -14.333   2.819  1.00  0.00    -0.206 F 
HETATM   24  C10 UNL     1      -9.481 -15.298   3.814  1.00  0.00     0.082 C 
HETATM   25  C11 UNL     1     -10.653 -15.101   4.701  1.00  0.00     0.048 C 
BRANCH  17  26
HETATM   26  C5  UNL     1     -11.567 -13.342   6.026  1.00  0.00     0.202 C 
HETATM   27  O2  UNL     1     -11.783 -12.616   7.051  1.00  0.00    -0.646 OA
HETATM   28  O3  UNL     1     -12.454 -13.232   4.980  1.00  0.00    -0.646 OA
ENDBRANCH  17  26
ENDBRANCH  15  17
ENDBRANCH   3  13
TORSDOF 3
ENDMDL
MODEL 4
REMARK VINA RESULT: -8.858188538      1.424      2.081
REMARK  3 active torsions:
REMARK  status: ('A' for Active; 'I' for Inactive)
REMARK    1  A    between atoms: C2_3  and  C3_4 
REMARK       I    between atoms: C3_4  and  N2_6 
REMARK    2  A    between atoms: N2_6  and  C4_8 
REMARK    3  A    between atoms: C4_8  and  C5_9 
ROOT
HETATM    1  N1  UNL     1     -11.227 -13.555  11.257  1.00  0.00    -0.196 NA
HETATM    2  C1  UNL     1     -10.805 -14.273  10.420  1.00  0.00     0.080 C 
HETATM    3  C2  UNL     1     -10.302 -15.186   9.395  1.00  0.00     0.137 C 
HETATM    4  C12 UNL     1     -11.345 -16.240   9.131  1.00  0.00     0.019 C 
HETATM    5  C13 UNL     1     -10.845 -17.426   8.355  1.00  0.00     0.011 C 
HETATM    6  C14 UNL     1      -9.726 -18.080   9.096  1.00  0.00    -0.013 C 
HETATM    7  C15 UNL     1     -10.099 -18.514  10.482  1.00  0.00     0.009 C 
HETATM    8  C16 UNL     1     -10.609 -17.303  11.268  1.00  0.00    -0.013 C 
HETATM    9  C17 UNL     1     -11.796 -16.761  10.500  1.00  0.00     0.011 C 
HETATM   10  C18 UNL     1      -9.493 -16.327  11.383  1.00  0.00     0.011 C 
HETATM   11  C19 UNL     1      -9.095 -15.858   9.987  1.00  0.00     0.019 C 
HETATM   12  C20 UNL     1      -8.607 -17.049   9.239  1.00  0.00     0.011 C 
ENDROOT
BRANCH   3  13
HETATM   13  C3  UNL     1      -9.982 -14.386   8.168  1.00  0.00     0.242 C 
HETATM   14  O1  UNL     1      -9.060 -13.545   8.258  1.00  0.00    -0.272 OA
HETATM   15  N2  UNL     1     -10.664 -14.553   6.956  1.00  0.00    -0.340 N 
ATOM     16  H2  UNL     1     -11.417 -15.241   6.976  1.00  0.00     0.163 HD
BRANCH  15  17
HETATM   17  C4  UNL     1     -10.468 -13.904   5.686  1.00  0.00     0.121 C 
HETATM   18  C6  UNL     1      -9.054 -13.410   5.616  1.00  0.00     0.042 C 
HETATM   19  C7  UNL     1      -8.782 -12.408   4.563  1.00  0.00     0.009 C 
HETATM   20  C8  UNL     1      -8.997 -12.749   3.152  1.00  0.00     0.079 C 
HETATM   21  C9  UNL     1      -9.003 -14.174   2.784  1.00  0.00     0.243 C 
HETATM   22  F1  UNL     1      -9.504 -14.223   1.457  1.00  0.00    -0.206 F 
HETATM   23  F2  UNL     1      -7.654 -14.569   2.639  1.00  0.00    -0.206 F 
HETATM   24  C10 UNL     1      -9.682 -15.165   3.636  1.00  0.00     0.082 C 
HETATM   25  C11 UNL     1     -10.823 -14.735   4.479  1.00  0.00     0.048 C 
BRANCH  17  26
HETATM   26  C5  UNL     1     -11.471 -12.779   5.679  1.00  0.00     0.202 C 
HETATM   27  O2  UNL     1     -12.304 -12.621   4.728  1.00  0.00    -0.646 OA
HETATM   28  O3  UNL     1     -11.514 -11.870   6.710  1.00  0.00    -0.646 OA
ENDBRANCH  17  26
ENDBRANCH  15  17
ENDBRANCH   3  13
TORSDOF 3
ENDMDL
MODEL 5
REMARK VINA RESULT: -8.746236469      1.781      2.924
REMARK  3 active torsions:
REMARK  status: ('A' for Active; 'I' for Inactive)
REMARK    1  A    between atoms: C2_3  and  C3_4 
REMARK       I    between atoms: C3_4  and  N2_6 
REMARK    2  A    between atoms: N2_6  and  C4_8 
REMARK    3  A    between atoms: C4_8  and  C5_9 
ROOT
HETATM    1  N1  UNL     1     -15.663 -15.872   8.683  1.00  0.00    -0.196 NA
HETATM    2  C1  UNL     1     -14.489 -15.867   8.565  1.00  0.00     0.080 C 
HETATM    3  C2  UNL     1     -13.034 -15.894   8.422  1.00  0.00     0.137 C 
HETATM    4  C12 UNL     1     -12.630 -17.218   7.828  1.00  0.00     0.019 C 
HETATM    5  C13 UNL     1     -11.162 -17.521   7.929  1.00  0.00     0.011 C 
HETATM    6  C14 UNL     1     -10.745 -17.529   9.363  1.00  0.00    -0.013 C 
HETATM    7  C15 UNL     1     -11.513 -18.504  10.204  1.00  0.00     0.009 C 
HETATM    8  C16 UNL     1     -13.009 -18.192  10.096  1.00  0.00    -0.013 C 
HETATM    9  C17 UNL     1     -13.364 -18.299   8.629  1.00  0.00     0.011 C 
HETATM   10  C18 UNL     1     -13.236 -16.833  10.655  1.00  0.00     0.011 C 
HETATM   11  C19 UNL     1     -12.473 -15.814   9.814  1.00  0.00     0.019 C 
HETATM   12  C20 UNL     1     -11.025 -16.137   9.929  1.00  0.00     0.011 C 
ENDROOT
BRANCH   3  13
HETATM   13  C3  UNL     1     -12.624 -14.738   7.560  1.00  0.00     0.242 C 
HETATM   14  O1  UNL     1     -13.434 -13.791   7.450  1.00  0.00    -0.272 OA
HETATM   15  N2  UNL     1     -11.391 -14.688   6.896  1.00  0.00    -0.340 N 
ATOM     16  H2  UNL     1     -10.801 -15.511   7.020  1.00  0.00     0.163 HD
BRANCH  15  17
HETATM   17  C4  UNL     1     -10.827 -13.655   6.067  1.00  0.00     0.121 C 
HETATM   18  C6  UNL     1      -9.408 -14.020   5.749  1.00  0.00     0.042 C 
HETATM   19  C7  UNL     1      -8.569 -12.919   5.230  1.00  0.00     0.009 C 
HETATM   20  C8  UNL     1      -8.937 -12.239   3.984  1.00  0.00     0.079 C 
HETATM   21  C9  UNL     1      -9.817 -12.955   3.047  1.00  0.00     0.243 C 
HETATM   22  F1  UNL     1     -10.231 -11.986   2.096  1.00  0.00    -0.206 F 
HETATM   23  F2  UNL     1      -8.996 -13.822   2.290  1.00  0.00    -0.206 F 
HETATM   24  C10 UNL     1     -10.969 -13.728   3.541  1.00  0.00     0.082 C 
HETATM   25  C11 UNL     1     -11.609 -13.336   4.819  1.00  0.00     0.048 C 
BRANCH  17  26
HETATM   26  C5  UNL     1     -10.924 -12.405   6.905  1.00  0.00     0.202 C 
HETATM   27  O2  UNL     1     -11.611 -11.397   6.538  1.00  0.00    -0.646 OA
HETATM   28  O3  UNL     1     -10.258 -12.310   8.104  1.00  0.00    -0.646 OA
ENDBRANCH  17  26
ENDBRANCH  15  17
ENDBRANCH   3  13
TORSDOF 3
ENDMDL
