MODEL 1
REMARK VINA RESULT: -4.517761399      0.000      0.000
REMARK  7 active torsions:
REMARK  status: ('A' for Active; 'I' for Inactive)
REMARK    1  A    between atoms: C3_4  and  C4_5 
REMARK    2  A    between atoms: C4_5  and  O2_6 
REMARK    3  A    between atoms: C5_8  and  C6_9 
REMARK    4  A    between atoms: C6_9  and  O3_10 
REMARK    5  A    between atoms: C7_13  and  O5_14 
REMARK    6  A    between atoms: C7_13  and  O6_16 
REMARK    7  A    between atoms: O6_16  and  C8_17 
ROOT
HETATM    1  C1  UNL     1     -12.661  24.377   8.747  1.00  0.00     0.048 C 
HETATM    2  C2  UNL     1     -11.885  25.123   7.675  1.00  0.00     0.211 C 
HETATM    3  O1  UNL     1     -11.924  24.568   6.450  1.00  0.00    -0.368 OA
HETATM    4  C3  UNL     1     -12.935  24.920   5.593  1.00  0.00     0.177 C 
HETATM    5  C5  UNL     1     -13.166  26.380   5.664  1.00  0.00     0.182 C 
HETATM    6  O4  UNL     1     -13.401  26.766   6.962  1.00  0.00    -0.321 OA
HETATM    7  C7  UNL     1     -12.272  26.608   7.730  1.00  0.00     0.308 C 
ENDROOT
BRANCH   7   8
HETATM    8  O5  UNL     1     -11.174  27.315   7.307  1.00  0.00    -0.341 OA
ATOM      9  H5  UNL     1     -11.501  28.120   6.923  1.00  0.00     0.215 HD
ENDBRANCH   7   8
BRANCH   7  10
HETATM   10  O6  UNL     1     -12.471  26.867   9.071  1.00  0.00    -0.321 OA
BRANCH  10  11
HETATM   11  C8  UNL     1     -12.617  28.157   9.435  1.00  0.00     0.056 C 
HETATM   12  C9  UNL     1     -13.074  28.149  10.907  1.00  0.00     0.045 C 
HETATM   13  C10 UNL     1     -11.415  29.024   9.364  1.00  0.00     0.045 C 
HETATM   14  C11 UNL     1     -13.746  28.875   8.694  1.00  0.00     0.045 C 
ENDBRANCH  10  11
ENDBRANCH   7  10
BRANCH   5  15
HETATM   15  C6  UNL     1     -14.272  26.916   4.803  1.00  0.00     0.199 C 
BRANCH  15  16
HETATM   16  O3  UNL     1     -14.918  28.013   5.339  1.00  0.00    -0.398 OA
ATOM     17  H3  UNL     1     -15.056  28.719   4.720  1.00  0.00     0.209 HD
ENDBRANCH  15  16
ENDBRANCH   5  15
BRANCH   4  18
HETATM   18  C4  UNL     1     -14.122  24.043   5.791  1.00  0.00     0.198 C 
BRANCH  18  19
HETATM   19  O2  UNL     1     -14.659  23.504   4.650  1.00  0.00    -0.398 OA
ATOM     20  H2  UNL     1     -15.490  23.872   4.372  1.00  0.00     0.209 HD
ENDBRANCH  18  19
ENDBRANCH   4  18
TORSDOF 7
ENDMDL
MODEL 2
REMARK VINA RESULT: -4.325493368      2.950      4.867
REMARK  7 active torsions:
REMARK  status: ('A' for Active; 'I' for Inactive)
REMARK    1  A    between atoms: C3_4  and  C4_5 
REMARK    2  A    between atoms: C4_5  and  O2_6 
REMARK    3  A    between atoms: C5_8  and  C6_9 
REMARK    4  A    between atoms: C6_9  and  O3_10 
REMARK    5  A    between atoms: C7_13  and  O5_14 
REMARK    6  A    between atoms: C7_13  and  O6_16 
REMARK    7  A    between atoms: O6_16  and  C8_17 
ROOT
HETATM    1  C1  UNL     1     -11.671  27.150   8.033  1.00  0.00     0.048 C 
HETATM    2  C2  UNL     1     -12.878  27.820   8.667  1.00  0.00     0.211 C 
HETATM    3  O1  UNL     1     -13.786  26.979   9.198  1.00  0.00    -0.368 OA
HETATM    4  C3  UNL     1     -13.645  26.589  10.505  1.00  0.00     0.177 C 
HETATM    5  C5  UNL     1     -13.255  27.750  11.335  1.00  0.00     0.182 C 
HETATM    6  O4  UNL     1     -12.126  28.347  10.827  1.00  0.00    -0.321 OA
HETATM    7  C7  UNL     1     -12.389  28.929   9.608  1.00  0.00     0.308 C 
ENDROOT
BRANCH   7   8
HETATM    8  O5  UNL     1     -13.366  29.893   9.621  1.00  0.00    -0.341 OA
ATOM      9  H5  UNL     1     -12.921  30.730   9.681  1.00  0.00     0.215 HD
ENDBRANCH   7   8
BRANCH   7  10
HETATM   10  O6  UNL     1     -11.270  29.447   8.987  1.00  0.00    -0.321 OA
BRANCH  10  11
HETATM   11  C8  UNL     1     -10.481  30.262   9.714  1.00  0.00     0.056 C 
HETATM   12  C9  UNL     1      -9.420  30.824   8.749  1.00  0.00     0.045 C 
HETATM   13  C10 UNL     1     -11.127  31.427  10.369  1.00  0.00     0.045 C 
HETATM   14  C11 UNL     1      -9.667  29.529  10.782  1.00  0.00     0.045 C 
ENDBRANCH  10  11
ENDBRANCH   7  10
BRANCH   5  15
HETATM   15  C6  UNL     1     -13.028  27.474  12.793  1.00  0.00     0.199 C 
BRANCH  15  16
HETATM   16  O3  UNL     1     -14.188  27.260  13.510  1.00  0.00    -0.398 OA
ATOM     17  H3  UNL     1     -14.104  26.605  14.193  1.00  0.00     0.209 HD
ENDBRANCH  15  16
ENDBRANCH   5  15
BRANCH   4  18
HETATM   18  C4  UNL     1     -12.785  25.377  10.603  1.00  0.00     0.198 C 
BRANCH  18  19
HETATM   19  O2  UNL     1     -13.224  24.279   9.909  1.00  0.00    -0.398 OA
ATOM     20  H2  UNL     1     -12.597  23.573   9.815  1.00  0.00     0.209 HD
ENDBRANCH  18  19
ENDBRANCH   4  18
TORSDOF 7
ENDMDL
MODEL 3
REMARK VINA RESULT: -4.257307272      2.103      5.457
REMARK  7 active torsions:
REMARK  status: ('A' for Active; 'I' for Inactive)
REMARK    1  A    between atoms: C3_4  and  C4_5 
REMARK    2  A    between atoms: C4_5  and  O2_6 
REMARK    3  A    between atoms: C5_8  and  C6_9 
REMARK    4  A    between atoms: C6_9  and  O3_10 
REMARK    5  A    between atoms: C7_13  and  O5_14 
REMARK    6  A    between atoms: C7_13  and  O6_16 
REMARK    7  A    between atoms: O6_16  and  C8_17 
ROOT
HETATM    1  C1  UNL     1     -14.080  26.853  11.057  1.00  0.00     0.048 C 
HETATM    2  C2  UNL     1     -13.990  27.911   9.970  1.00  0.00     0.211 C 
HETATM    3  O1  UNL     1     -13.831  29.172  10.412  1.00  0.00    -0.368 OA
HETATM    4  C3  UNL     1     -12.562  29.649  10.616  1.00  0.00     0.177 C 
HETATM    5  C5  UNL     1     -11.682  29.223   9.507  1.00  0.00     0.182 C 
HETATM    6  O4  UNL     1     -11.726  27.857   9.356  1.00  0.00    -0.321 OA
HETATM    7  C7  UNL     1     -12.967  27.454   8.921  1.00  0.00     0.308 C 
ENDROOT
BRANCH   7   8
HETATM    8  O5  UNL     1     -13.367  27.990   7.722  1.00  0.00    -0.341 OA
ATOM      9  H5  UNL     1     -14.233  28.355   7.864  1.00  0.00     0.215 HD
ENDBRANCH   7   8
BRANCH   7  10
HETATM   10  O6  UNL     1     -13.117  26.084   8.861  1.00  0.00    -0.321 OA
BRANCH  10  11
HETATM   11  C8  UNL     1     -12.337  25.415   7.988  1.00  0.00     0.056 C 
HETATM   12  C9  UNL     1     -12.158  23.994   8.556  1.00  0.00     0.045 C 
HETATM   13  C10 UNL     1     -12.845  25.262   6.602  1.00  0.00     0.045 C 
HETATM   14  C11 UNL     1     -10.912  25.965   7.898  1.00  0.00     0.045 C 
ENDBRANCH  10  11
ENDBRANCH   7  10
BRANCH   5  15
HETATM   15  C6  UNL     1     -10.243  29.641   9.605  1.00  0.00     0.199 C 
BRANCH  15  16
HETATM   16  O3  UNL     1      -9.696  30.053   8.406  1.00  0.00    -0.398 OA
ATOM     17  H3  UNL     1      -8.867  29.638   8.199  1.00  0.00     0.209 HD
ENDBRANCH  15  16
ENDBRANCH   5  15
BRANCH   4  18
HETATM   18  C4  UNL     1     -12.099  29.338  11.997  1.00  0.00     0.198 C 
BRANCH  18  19
HETATM   19  O2  UNL     1     -12.970  29.663  13.004  1.00  0.00    -0.398 OA
ATOM     20  H2  UNL     1     -12.872  30.534  13.369  1.00  0.00     0.209 HD
ENDBRANCH  18  19
ENDBRANCH   4  18
TORSDOF 7
ENDMDL
MODEL 4
REMARK VINA RESULT: -4.185589288      2.432      4.582
REMARK  7 active torsions:
REMARK  status: ('A' for Active; 'I' for Inactive)
REMARK    1  A    between atoms: C3_4  and  C4_5 
REMARK    2  A    between atoms: C4_5  and  O2_6 
REMARK    3  A    between atoms: C5_8  and  C6_9 
REMARK    4  A    between atoms: C6_9  and  O3_10 
REMARK    5  A    between atoms: C7_13  and  O5_14 
REMARK    6  A    between atoms: C7_13  and  O6_16 
REMARK    7  A    between atoms: O6_16  and  C8_17 
ROOT
HETATM    1  C1  UNL     1     -14.123  29.278   8.788  1.00  0.00     0.048 C 
HETATM    2  C2  UNL     1     -13.957  28.249   9.893  1.00  0.00     0.211 C 
HETATM    3  O1  UNL     1     -13.845  26.974   9.475  1.00  0.00    -0.368 OA
HETATM    4  C3  UNL     1     -12.600  26.478   9.185  1.00  0.00     0.177 C 
HETATM    5  C5  UNL     1     -11.631  26.924  10.210  1.00  0.00     0.182 C 
HETATM    6  O4  UNL     1     -11.651  28.294  10.326  1.00  0.00    -0.321 OA
HETATM    7  C7  UNL     1     -12.850  28.722  10.845  1.00  0.00     0.308 C 
ENDROOT
BRANCH   7   8
HETATM    8  O5  UNL     1     -13.160  28.223  12.086  1.00  0.00    -0.341 OA
ATOM      9  H5  UNL     1     -13.597  27.391  11.943  1.00  0.00     0.215 HD
ENDBRANCH   7   8
BRANCH   7  10
HETATM   10  O6  UNL     1     -12.983  30.095  10.879  1.00  0.00    -0.321 OA
BRANCH  10  11
HETATM   11  C8  UNL     1     -12.034  30.791  11.537  1.00  0.00     0.056 C 
HETATM   12  C9  UNL     1     -12.770  31.693  12.547  1.00  0.00     0.045 C 
HETATM   13  C10 UNL     1     -11.032  30.013  12.308  1.00  0.00     0.045 C 
HETATM   14  C11 UNL     1     -11.269  31.771  10.646  1.00  0.00     0.045 C 
ENDBRANCH  10  11
ENDBRANCH   7  10
BRANCH   5  15
HETATM   15  C6  UNL     1     -10.209  26.488  10.011  1.00  0.00     0.199 C 
BRANCH  15  16
HETATM   16  O3  UNL     1      -9.314  27.532   9.886  1.00  0.00    -0.398 OA
ATOM     17  H3  UNL     1      -8.530  27.432  10.413  1.00  0.00     0.209 HD
ENDBRANCH  15  16
ENDBRANCH   5  15
BRANCH   4  18
HETATM   18  C4  UNL     1     -12.243  26.747   7.764  1.00  0.00     0.198 C 
BRANCH  18  19
HETATM   19  O2  UNL     1     -13.210  26.441   6.841  1.00  0.00    -0.398 OA
ATOM     20  H2  UNL     1     -13.144  25.581   6.445  1.00  0.00     0.209 HD
ENDBRANCH  18  19
ENDBRANCH   4  18
TORSDOF 7
ENDMDL
MODEL 5
REMARK VINA RESULT: -4.051464126      2.908      5.330
REMARK  7 active torsions:
REMARK  status: ('A' for Active; 'I' for Inactive)
REMARK    1  A    between atoms: C3_4  and  C4_5 
REMARK    2  A    between atoms: C4_5  and  O2_6 
REMARK    3  A    between atoms: C5_8  and  C6_9 
REMARK    4  A    between atoms: C6_9  and  O3_10 
REMARK    5  A    between atoms: C7_13  and  O5_14 
REMARK    6  A    between atoms: C7_13  and  O6_16 
REMARK    7  A    between atoms: O6_16  and  C8_17 
ROOT
HETATM    1  C1  UNL     1      -9.596  24.917   8.470  1.00  0.00     0.048 C 
HETATM    2  C2  UNL     1     -10.907  24.300   8.928  1.00  0.00     0.211 C 
HETATM    3  O1  UNL     1     -11.955  25.145   8.963  1.00  0.00    -0.368 OA
HETATM    4  C3  UNL     1     -12.722  25.298   7.837  1.00  0.00     0.177 C 
HETATM    5  C5  UNL     1     -12.957  23.980   7.208  1.00  0.00     0.182 C 
HETATM    6  O4  UNL     1     -11.763  23.344   6.963  1.00  0.00    -0.321 OA
HETATM    7  C7  UNL     1     -11.142  23.003   8.142  1.00  0.00     0.308 C 
ENDROOT
BRANCH   7   8
HETATM    8  O5  UNL     1     -11.864  22.172   8.963  1.00  0.00    -0.341 OA
ATOM      9  H5  UNL     1     -11.969  21.353   8.495  1.00  0.00     0.215 HD
ENDBRANCH   7   8
BRANCH   7  10
HETATM   10  O6  UNL     1      -9.882  22.465   7.971  1.00  0.00    -0.321 OA
BRANCH  10  11
HETATM   11  C8  UNL     1      -9.693  21.194   8.377  1.00  0.00     0.056 C 
HETATM   12  C9  UNL     1      -8.241  20.828   8.015  1.00  0.00     0.045 C 
HETATM   13  C10 UNL     1      -9.859  20.911   9.825  1.00  0.00     0.045 C 
HETATM   14  C11 UNL     1     -10.541  20.177   7.611  1.00  0.00     0.045 C 
ENDBRANCH  10  11
ENDBRANCH   7  10
BRANCH   5  15
HETATM   15  C6  UNL     1     -13.758  23.986   5.938  1.00  0.00     0.199 C 
BRANCH  15  16
HETATM   16  O3  UNL     1     -14.924  23.250   6.007  1.00  0.00    -0.398 OA
ATOM     17  H3  UNL     1     -14.805  22.370   6.345  1.00  0.00     0.209 HD
ENDBRANCH  15  16
ENDBRANCH   5  15
BRANCH   4  18
HETATM   18  C4  UNL     1     -12.167  26.368   6.963  1.00  0.00     0.198 C 
BRANCH  18  19
HETATM   19  O2  UNL     1     -13.047  27.352   6.596  1.00  0.00    -0.398 OA
ATOM     20  H2  UNL     1     -13.564  27.175   5.819  1.00  0.00     0.209 HD
ENDBRANCH  18  19
ENDBRANCH   4  18
TORSDOF 7
ENDMDL
