MODEL 1
REMARK VINA RESULT: -8.247622104      0.000      0.000
REMARK  4 active torsions:
REMARK  status: ('A' for Active; 'I' for Inactive)
REMARK    1  A    between atoms: C2_2  and  C3_3 
REMARK    2  A    between atoms: C2_2  and  C10_11 
REMARK    3  A    between atoms: C3_3  and  C4_4 
REMARK    4  A    between atoms: C4_4  and  N1_5 
ROOT
HETATM    1  C10 UNL     1     -25.927  25.275  -4.098  1.00  0.00     0.098 C 
HETATM    2  C11 UNL     1     -27.207  25.776  -4.601  1.00  0.00     0.264 C 
HETATM    3  O1  UNL     1     -27.619  26.787  -3.907  1.00  0.00    -0.265 OA
HETATM    4  O2  UNL     1     -28.086  25.474  -5.597  1.00  0.00    -0.321 OA
HETATM    5  C12 UNL     1     -27.830  25.037  -6.886  1.00  0.00     0.179 C 
HETATM    6  C13 UNL     1     -26.312  24.960  -7.122  1.00  0.00     0.042 C 
HETATM    7  C14 UNL     1     -25.871  23.882  -6.177  1.00  0.00     0.097 C 
HETATM    8  C15 UNL     1     -25.166  22.870  -6.957  1.00  0.00     0.265 C 
HETATM    9  O3  UNL     1     -25.734  21.751  -7.156  1.00  0.00    -0.265 OA
HETATM   10  O4  UNL     1     -23.906  22.890  -7.567  1.00  0.00    -0.303 OA
HETATM   11  C16 UNL     1     -22.902  23.844  -7.528  1.00  0.00     0.123 C 
HETATM   12  C17 UNL     1     -21.578  23.288  -7.046  1.00  0.00     0.055 C 
HETATM   13  C18 UNL     1     -22.651  24.248  -8.991  1.00  0.00     0.055 C 
HETATM   14  C19 UNL     1     -23.329  25.003  -6.714  1.00  0.00     0.162 C 
HETATM   15  O5  UNL     1     -23.222  26.063  -7.360  1.00  0.00    -0.295 OA
HETATM   16  C20 UNL     1     -23.823  25.138  -5.374  1.00  0.00     0.092 C 
HETATM   17  C21 UNL     1     -25.101  24.428  -4.979  1.00  0.00    -0.012 C 
HETATM   18  C22 UNL     1     -24.591  23.134  -4.319  1.00  0.00     0.017 C 
ENDROOT
BRANCH   1  19
HETATM   19  C2  UNL     1     -26.219  24.798  -2.697  1.00  0.00    -0.003 C 
HETATM   20  C1  UNL     1     -27.191  23.717  -2.506  1.00  0.00     0.011 C 
BRANCH  19  21
HETATM   21  C3  UNL     1     -25.120  24.957  -1.693  1.00  0.00     0.035 C 
BRANCH  21  22
HETATM   22  C4  UNL     1     -25.600  24.668  -0.270  1.00  0.00     0.272 C 
BRANCH  22  23
HETATM   23  N1  UNL     1     -25.324  25.688   0.682  1.00  0.00     0.088 N 
HETATM   24  C5  UNL     1     -25.805  25.176   1.976  1.00  0.00     0.272 C 
HETATM   25  C6  UNL     1     -27.268  24.884   1.974  1.00  0.00     0.030 C 
HETATM   26  C7  UNL     1     -28.110  26.055   1.566  1.00  0.00     0.003 C 
HETATM   27  C8  UNL     1     -27.583  26.620   0.285  1.00  0.00     0.030 C 
HETATM   28  C9  UNL     1     -26.115  26.885   0.347  1.00  0.00     0.272 C 
ENDBRANCH  22  23
ENDBRANCH  21  22
ENDBRANCH  19  21
ENDBRANCH   1  19
TORSDOF 4
ENDMDL
MODEL 2
REMARK VINA RESULT: -8.169721669      3.312      5.450
REMARK  4 active torsions:
REMARK  status: ('A' for Active; 'I' for Inactive)
REMARK    1  A    between atoms: C2_2  and  C3_3 
REMARK    2  A    between atoms: C2_2  and  C10_11 
REMARK    3  A    between atoms: C3_3  and  C4_4 
REMARK    4  A    between atoms: C4_4  and  N1_5 
ROOT
HETATM    1  C10 UNL     1     -23.980  23.257  -7.763  1.00  0.00     0.098 C 
HETATM    2  C11 UNL     1     -24.841  22.087  -7.584  1.00  0.00     0.264 C 
HETATM    3  O1  UNL     1     -25.169  21.568  -8.722  1.00  0.00    -0.265 OA
HETATM    4  O2  UNL     1     -25.394  21.392  -6.550  1.00  0.00    -0.321 OA
HETATM    5  C12 UNL     1     -24.859  21.102  -5.306  1.00  0.00     0.179 C 
HETATM    6  C13 UNL     1     -23.426  21.656  -5.209  1.00  0.00     0.042 C 
HETATM    7  C14 UNL     1     -23.625  23.140  -5.287  1.00  0.00     0.097 C 
HETATM    8  C15 UNL     1     -23.004  23.733  -4.108  1.00  0.00     0.265 C 
HETATM    9  O3  UNL     1     -23.755  24.198  -3.194  1.00  0.00    -0.265 OA
HETATM   10  O4  UNL     1     -21.659  23.904  -3.763  1.00  0.00    -0.303 OA
HETATM   11  C16 UNL     1     -20.505  23.651  -4.486  1.00  0.00     0.123 C 
HETATM   12  C17 UNL     1     -19.612  24.867  -4.619  1.00  0.00     0.055 C 
HETATM   13  C18 UNL     1     -19.691  22.654  -3.643  1.00  0.00     0.055 C 
HETATM   14  C19 UNL     1     -20.845  23.085  -5.811  1.00  0.00     0.162 C 
HETATM   15  O5  UNL     1     -20.252  22.005  -5.997  1.00  0.00    -0.295 OA
HETATM   16  C20 UNL     1     -21.694  23.523  -6.881  1.00  0.00     0.092 C 
HETATM   17  C21 UNL     1     -23.172  23.726  -6.620  1.00  0.00    -0.012 C 
HETATM   18  C22 UNL     1     -23.274  25.237  -6.350  1.00  0.00     0.017 C 
ENDROOT
BRANCH   1  19
HETATM   19  C2  UNL     1     -24.830  24.256  -8.509  1.00  0.00    -0.003 C 
HETATM   20  C1  UNL     1     -24.444  24.635  -9.872  1.00  0.00     0.011 C 
BRANCH  19  21
HETATM   21  C3  UNL     1     -26.277  24.316  -8.132  1.00  0.00     0.035 C 
BRANCH  21  22
HETATM   22  C4  UNL     1     -26.495  25.085  -6.827  1.00  0.00     0.272 C 
BRANCH  22  23
HETATM   23  N1  UNL     1     -27.845  25.158  -6.386  1.00  0.00     0.088 N 
HETATM   24  C5  UNL     1     -27.880  26.216  -5.363  1.00  0.00     0.272 C 
HETATM   25  C6  UNL     1     -26.995  25.922  -4.198  1.00  0.00     0.030 C 
HETATM   26  C7  UNL     1     -27.280  24.602  -3.549  1.00  0.00     0.003 C 
HETATM   27  C8  UNL     1     -27.312  23.534  -4.596  1.00  0.00     0.030 C 
HETATM   28  C9  UNL     1     -28.210  23.888  -5.735  1.00  0.00     0.272 C 
ENDBRANCH  22  23
ENDBRANCH  21  22
ENDBRANCH  19  21
ENDBRANCH   1  19
TORSDOF 4
ENDMDL
MODEL 3
REMARK VINA RESULT: -8.029979914      3.785      8.379
REMARK  4 active torsions:
REMARK  status: ('A' for Active; 'I' for Inactive)
REMARK    1  A    between atoms: C2_2  and  C3_3 
REMARK    2  A    between atoms: C2_2  and  C10_11 
REMARK    3  A    between atoms: C3_3  and  C4_4 
REMARK    4  A    between atoms: C4_4  and  N1_5 
ROOT
HETATM    1  C10 UNL     1     -24.270  24.810  -8.742  1.00  0.00     0.098 C 
HETATM    2  C11 UNL     1     -22.901  25.324  -8.673  1.00  0.00     0.264 C 
HETATM    3  O1  UNL     1     -22.668  26.164  -9.628  1.00  0.00    -0.265 OA
HETATM    4  O2  UNL     1     -21.803  25.164  -7.882  1.00  0.00    -0.321 OA
HETATM    5  C12 UNL     1     -21.732  24.989  -6.511  1.00  0.00     0.179 C 
HETATM    6  C13 UNL     1     -23.144  25.041  -5.901  1.00  0.00     0.042 C 
HETATM    7  C14 UNL     1     -23.814  23.832  -6.483  1.00  0.00     0.097 C 
HETATM    8  C15 UNL     1     -24.309  23.023  -5.374  1.00  0.00     0.265 C 
HETATM    9  O3  UNL     1     -23.717  21.931  -5.106  1.00  0.00    -0.265 OA
HETATM   10  O4  UNL     1     -25.376  23.225  -4.491  1.00  0.00    -0.303 OA
HETATM   11  C16 UNL     1     -26.352  24.209  -4.468  1.00  0.00     0.123 C 
HETATM   12  C17 UNL     1     -27.758  23.646  -4.496  1.00  0.00     0.055 C 
HETATM   13  C18 UNL     1     -26.226  24.891  -3.094  1.00  0.00     0.055 C 
HETATM   14  C19 UNL     1     -26.134  25.172  -5.570  1.00  0.00     0.162 C 
HETATM   15  O5  UNL     1     -26.068  26.337  -5.135  1.00  0.00    -0.295 OA
HETATM   16  C20 UNL     1     -25.989  25.028  -6.990  1.00  0.00     0.092 C 
HETATM   17  C21 UNL     1     -24.855  24.187  -7.539  1.00  0.00    -0.012 C 
HETATM   18  C22 UNL     1     -25.523  22.824  -7.792  1.00  0.00     0.017 C 
ENDROOT
BRANCH   1  19
HETATM   19  C2  UNL     1     -24.341  24.065 -10.052  1.00  0.00    -0.003 C 
HETATM   20  C1  UNL     1     -25.181  24.603 -11.127  1.00  0.00     0.011 C 
BRANCH  19  21
HETATM   21  C3  UNL     1     -23.144  23.245 -10.421  1.00  0.00     0.035 C 
BRANCH  21  22
HETATM   22  C4  UNL     1     -23.500  21.768 -10.603  1.00  0.00     0.272 C 
BRANCH  22  23
HETATM   23  N1  UNL     1     -24.051  21.429 -11.870  1.00  0.00     0.088 N 
HETATM   24  C5  UNL     1     -25.444  21.032 -11.613  1.00  0.00     0.272 C 
HETATM   25  C6  UNL     1     -25.550  19.857 -10.698  1.00  0.00     0.030 C 
HETATM   26  C7  UNL     1     -24.777  18.663 -11.168  1.00  0.00     0.003 C 
HETATM   27  C8  UNL     1     -23.378  19.078 -11.495  1.00  0.00     0.030 C 
HETATM   28  C9  UNL     1     -23.338  20.258 -12.408  1.00  0.00     0.272 C 
ENDBRANCH  22  23
ENDBRANCH  21  22
ENDBRANCH  19  21
ENDBRANCH   1  19
TORSDOF 4
ENDMDL
MODEL 4
REMARK VINA RESULT: -7.983300287      1.864      2.472
REMARK  4 active torsions:
REMARK  status: ('A' for Active; 'I' for Inactive)
REMARK    1  A    between atoms: C2_2  and  C3_3 
REMARK    2  A    between atoms: C2_2  and  C10_11 
REMARK    3  A    between atoms: C3_3  and  C4_4 
REMARK    4  A    between atoms: C4_4  and  N1_5 
ROOT
HETATM    1  C10 UNL     1     -25.838  24.852  -4.083  1.00  0.00     0.098 C 
HETATM    2  C11 UNL     1     -26.198  25.951  -4.980  1.00  0.00     0.264 C 
HETATM    3  O1  UNL     1     -26.997  26.786  -4.401  1.00  0.00    -0.265 OA
HETATM    4  O2  UNL     1     -25.925  26.338  -6.258  1.00  0.00    -0.321 OA
HETATM    5  C12 UNL     1     -24.740  26.239  -6.967  1.00  0.00     0.179 C 
HETATM    6  C13 UNL     1     -23.644  25.631  -6.075  1.00  0.00     0.042 C 
HETATM    7  C14 UNL     1     -24.142  24.240  -5.819  1.00  0.00     0.097 C 
HETATM    8  C15 UNL     1     -23.099  23.310  -6.241  1.00  0.00     0.265 C 
HETATM    9  O3  UNL     1     -23.282  22.629  -7.298  1.00  0.00    -0.265 OA
HETATM   10  O4  UNL     1     -21.858  23.001  -5.674  1.00  0.00    -0.303 OA
HETATM   11  C16 UNL     1     -21.286  23.410  -4.480  1.00  0.00     0.123 C 
HETATM   12  C17 UNL     1     -20.884  22.252  -3.591  1.00  0.00     0.055 C 
HETATM   13  C18 UNL     1     -19.961  24.093  -4.863  1.00  0.00     0.055 C 
HETATM   14  C19 UNL     1     -22.190  24.345  -3.774  1.00  0.00     0.162 C 
HETATM   15  O5  UNL     1     -21.604  25.411  -3.505  1.00  0.00    -0.295 OA
HETATM   16  C20 UNL     1     -23.559  24.263  -3.354  1.00  0.00     0.092 C 
HETATM   17  C21 UNL     1     -24.642  24.046  -4.391  1.00  0.00    -0.012 C 
HETATM   18  C22 UNL     1     -24.871  22.525  -4.342  1.00  0.00     0.017 C 
ENDROOT
BRANCH   1  19
HETATM   19  C2  UNL     1     -27.138  24.141  -3.797  1.00  0.00    -0.003 C 
HETATM   20  C1  UNL     1     -27.809  23.429  -4.889  1.00  0.00     0.011 C 
BRANCH  19  21
HETATM   21  C3  UNL     1     -27.343  23.657  -2.395  1.00  0.00     0.035 C 
BRANCH  21  22
HETATM   22  C4  UNL     1     -27.164  24.781  -1.373  1.00  0.00     0.272 C 
BRANCH  22  23
HETATM   23  N1  UNL     1     -26.198  24.529  -0.359  1.00  0.00     0.088 N 
HETATM   24  C5  UNL     1     -26.933  24.554   0.916  1.00  0.00     0.272 C 
HETATM   25  C6  UNL     1     -27.592  25.868   1.176  1.00  0.00     0.030 C 
HETATM   26  C7  UNL     1     -26.647  27.029   1.131  1.00  0.00     0.003 C 
HETATM   27  C8  UNL     1     -25.850  26.968  -0.133  1.00  0.00     0.030 C 
HETATM   28  C9  UNL     1     -25.221  25.630  -0.340  1.00  0.00     0.272 C 
ENDBRANCH  22  23
ENDBRANCH  21  22
ENDBRANCH  19  21
ENDBRANCH   1  19
TORSDOF 4
ENDMDL
MODEL 5
REMARK VINA RESULT: -7.975127669      2.592      4.498
REMARK  4 active torsions:
REMARK  status: ('A' for Active; 'I' for Inactive)
REMARK    1  A    between atoms: C2_2  and  C3_3 
REMARK    2  A    between atoms: C2_2  and  C10_11 
REMARK    3  A    between atoms: C3_3  and  C4_4 
REMARK    4  A    between atoms: C4_4  and  N1_5 
ROOT
HETATM    1  C10 UNL     1     -22.512  23.505  -6.547  1.00  0.00     0.098 C 
HETATM    2  C11 UNL     1     -22.101  24.872  -6.221  1.00  0.00     0.264 C 
HETATM    3  O1  UNL     1     -20.918  24.893  -5.699  1.00  0.00    -0.265 OA
HETATM    4  O2  UNL     1     -22.620  26.129  -6.314  1.00  0.00    -0.321 OA
HETATM    5  C12 UNL     1     -23.408  26.678  -7.312  1.00  0.00     0.179 C 
HETATM    6  C13 UNL     1     -23.627  25.647  -8.434  1.00  0.00     0.042 C 
HETATM    7  C14 UNL     1     -24.425  24.571  -7.760  1.00  0.00     0.097 C 
HETATM    8  C15 UNL     1     -25.649  24.378  -8.530  1.00  0.00     0.265 C 
HETATM    9  O3  UNL     1     -26.748  24.786  -8.039  1.00  0.00    -0.265 OA
HETATM   10  O4  UNL     1     -25.866  23.793  -9.783  1.00  0.00    -0.303 OA
HETATM   11  C16 UNL     1     -24.993  23.127 -10.629  1.00  0.00     0.123 C 
HETATM   12  C17 UNL     1     -25.465  21.732 -10.984  1.00  0.00     0.055 C 
HETATM   13  C18 UNL     1     -25.022  23.904 -11.957  1.00  0.00     0.055 C 
HETATM   14  C19 UNL     1     -23.633  23.105 -10.046  1.00  0.00     0.162 C 
HETATM   15  O5  UNL     1     -22.800  23.571 -10.847  1.00  0.00    -0.295 OA
HETATM   16  C20 UNL     1     -23.108  22.666  -8.785  1.00  0.00     0.092 C 
HETATM   17  C21 UNL     1     -23.613  23.305  -7.508  1.00  0.00    -0.012 C 
HETATM   18  C22 UNL     1     -24.700  22.324  -7.034  1.00  0.00     0.017 C 
ENDROOT
BRANCH   1  19
HETATM   19  C2  UNL     1     -22.569  22.789  -5.220  1.00  0.00    -0.003 C 
HETATM   20  C1  UNL     1     -21.766  21.576  -5.036  1.00  0.00     0.011 C 
BRANCH  19  21
HETATM   21  C3  UNL     1     -22.885  23.626  -4.020  1.00  0.00     0.035 C 
BRANCH  21  22
HETATM   22  C4  UNL     1     -24.370  23.563  -3.656  1.00  0.00     0.272 C 
BRANCH  22  23
HETATM   23  N1  UNL     1     -25.007  24.825  -3.491  1.00  0.00     0.088 N 
HETATM   24  C5  UNL     1     -25.813  24.714  -2.265  1.00  0.00     0.272 C 
HETATM   25  C6  UNL     1     -26.850  23.644  -2.350  1.00  0.00     0.030 C 
HETATM   26  C7  UNL     1     -27.764  23.791  -3.528  1.00  0.00     0.003 C 
HETATM   27  C8  UNL     1     -26.947  23.971  -4.768  1.00  0.00     0.030 C 
HETATM   28  C9  UNL     1     -25.927  25.051  -4.619  1.00  0.00     0.272 C 
ENDBRANCH  22  23
ENDBRANCH  21  22
ENDBRANCH  19  21
ENDBRANCH   1  19
TORSDOF 4
ENDMDL
