MODEL 1
REMARK VINA RESULT: -5.779871505      0.000      0.000
REMARK  3 active torsions:
REMARK  status: ('A' for Active; 'I' for Inactive)
REMARK    1  A    between atoms: O1_2  and  C2_3 
REMARK    2  A    between atoms: C3_5  and  C4_6 
REMARK    3  A    between atoms: C9_11  and  N1_12 
ROOT
HETATM    1  C2  UNL     1     -13.259  -1.530   4.404  1.00  0.00     0.289 C 
HETATM    2  O2  UNL     1     -13.055  -1.537   3.024  1.00  0.00    -0.353 OA
HETATM    3  C3  UNL     1     -14.354  -1.671   2.591  1.00  0.00     0.134 C 
HETATM    4  C8  UNL     1     -15.045  -0.515   3.273  1.00  0.00     0.070 C 
HETATM    5  C9  UNL     1     -14.350  -0.534   4.643  1.00  0.00     0.240 C 
ENDROOT
BRANCH   3   6
HETATM    6  C4  UNL     1     -14.547  -1.707   1.124  1.00  0.00    -0.025 C 
HETATM    7  C5  UNL     1     -14.498  -3.054   0.500  1.00  0.00     0.017 C 
HETATM    8  C6  UNL     1     -13.499  -0.837   0.436  1.00  0.00     0.017 C 
HETATM    9  C7  UNL     1     -15.892  -1.084   0.806  1.00  0.00     0.017 C 
ENDBRANCH   3   6
BRANCH   1  10
HETATM   10  O1  UNL     1     -12.134  -1.354   5.145  1.00  0.00    -0.364 OA
HETATM   11  C1  UNL     1     -10.956  -1.706   4.545  1.00  0.00     0.204 C 
ENDBRANCH   1  10
BRANCH   5  12
HETATM   12  N1  UNL     1     -15.331  -1.057   5.603  1.00  0.00    -0.070 N 
ATOM     13  H13 UNL     1     -15.629  -2.003   5.362  1.00  0.00     0.274 HD
ATOM     14  H12 UNL     1     -14.905  -1.256   6.508  1.00  0.00     0.274 HD
ATOM     15  H11 UNL     1     -16.124  -0.422   5.691  1.00  0.00     0.274 HD
ENDBRANCH   5  12
TORSDOF 3
ENDMDL
MODEL 2
REMARK VINA RESULT: -5.777917455      3.258      5.139
REMARK  3 active torsions:
REMARK  status: ('A' for Active; 'I' for Inactive)
REMARK    1  A    between atoms: O1_2  and  C2_3 
REMARK    2  A    between atoms: C3_5  and  C4_6 
REMARK    3  A    between atoms: C9_11  and  N1_12 
ROOT
HETATM    1  C2  UNL     1     -17.465   0.668   0.748  1.00  0.00     0.289 C 
HETATM    2  O2  UNL     1     -16.077   0.593   0.874  1.00  0.00    -0.353 OA
HETATM    3  C3  UNL     1     -15.971  -0.514   1.685  1.00  0.00     0.134 C 
HETATM    4  C8  UNL     1     -16.742  -1.557   0.913  1.00  0.00     0.070 C 
HETATM    5  C9  UNL     1     -17.909  -0.712   0.377  1.00  0.00     0.240 C 
ENDROOT
BRANCH   3   6
HETATM    6  C4  UNL     1     -14.594  -0.925   2.041  1.00  0.00    -0.025 C 
HETATM    7  C5  UNL     1     -14.358  -1.208   3.479  1.00  0.00     0.017 C 
HETATM    8  C6  UNL     1     -13.599   0.147   1.607  1.00  0.00     0.017 C 
HETATM    9  C7  UNL     1     -14.250  -2.171   1.248  1.00  0.00     0.017 C 
ENDBRANCH   3   6
BRANCH   1  10
HETATM   10  O1  UNL     1     -17.909   1.663  -0.064  1.00  0.00    -0.364 OA
HETATM   11  C1  UNL     1     -17.944   1.378  -1.402  1.00  0.00     0.204 C 
ENDBRANCH   1  10
BRANCH   5  12
HETATM   12  N1  UNL     1     -19.097  -1.101   1.148  1.00  0.00    -0.070 N 
ATOM     13  H13 UNL     1     -19.749  -1.650   0.586  1.00  0.00     0.274 HD
ATOM     14  H12 UNL     1     -18.876  -1.801   1.855  1.00  0.00     0.274 HD
ATOM     15  H11 UNL     1     -19.547  -0.282   1.556  1.00  0.00     0.274 HD
ENDBRANCH   5  12
TORSDOF 3
ENDMDL
MODEL 3
REMARK VINA RESULT: -5.738519349      3.268      5.153
REMARK  3 active torsions:
REMARK  status: ('A' for Active; 'I' for Inactive)
REMARK    1  A    between atoms: O1_2  and  C2_3 
REMARK    2  A    between atoms: C3_5  and  C4_6 
REMARK    3  A    between atoms: C9_11  and  N1_12 
ROOT
HETATM    1  C2  UNL     1     -17.492   0.668   0.770  1.00  0.00     0.289 C 
HETATM    2  O2  UNL     1     -16.106   0.596   0.902  1.00  0.00    -0.353 OA
HETATM    3  C3  UNL     1     -16.000  -0.521   1.699  1.00  0.00     0.134 C 
HETATM    4  C8  UNL     1     -16.764  -1.557   0.912  1.00  0.00     0.070 C 
HETATM    5  C9  UNL     1     -17.930  -0.708   0.380  1.00  0.00     0.240 C 
ENDROOT
BRANCH   3   6
HETATM    6  C4  UNL     1     -14.623  -0.932   2.057  1.00  0.00    -0.025 C 
HETATM    7  C5  UNL     1     -14.151  -2.201   1.449  1.00  0.00     0.017 C 
HETATM    8  C6  UNL     1     -14.492  -1.063   3.571  1.00  0.00     0.017 C 
HETATM    9  C7  UNL     1     -13.674   0.177   1.643  1.00  0.00     0.017 C 
ENDBRANCH   3   6
BRANCH   1  10
HETATM   10  O1  UNL     1     -17.936   1.672  -0.032  1.00  0.00    -0.364 OA
HETATM   11  C1  UNL     1     -17.948   1.408  -1.375  1.00  0.00     0.204 C 
ENDBRANCH   1  10
BRANCH   5  12
HETATM   12  N1  UNL     1     -19.121  -1.111   1.141  1.00  0.00    -0.070 N 
ATOM     13  H13 UNL     1     -19.345  -2.096   0.998  1.00  0.00     0.274 HD
ATOM     14  H12 UNL     1     -18.937  -1.138   2.143  1.00  0.00     0.274 HD
ATOM     15  H11 UNL     1     -19.913  -0.507   0.918  1.00  0.00     0.274 HD
ENDBRANCH   5  12
TORSDOF 3
ENDMDL
MODEL 4
REMARK VINA RESULT: -5.719818734      3.237      5.176
REMARK  3 active torsions:
REMARK  status: ('A' for Active; 'I' for Inactive)
REMARK    1  A    between atoms: O1_2  and  C2_3 
REMARK    2  A    between atoms: C3_5  and  C4_6 
REMARK    3  A    between atoms: C9_11  and  N1_12 
ROOT
HETATM    1  C2  UNL     1     -17.417   0.528   0.741  1.00  0.00     0.289 C 
HETATM    2  O2  UNL     1     -16.042   0.614   0.959  1.00  0.00    -0.353 OA
HETATM    3  C3  UNL     1     -15.834  -0.566   1.636  1.00  0.00     0.134 C 
HETATM    4  C8  UNL     1     -16.412  -1.590   0.690  1.00  0.00     0.070 C 
HETATM    5  C9  UNL     1     -17.649  -0.837   0.175  1.00  0.00     0.240 C 
ENDROOT
BRANCH   3   6
HETATM    6  C4  UNL     1     -14.437  -0.842   2.041  1.00  0.00    -0.025 C 
HETATM    7  C5  UNL     1     -13.454   0.228   1.733  1.00  0.00     0.017 C 
HETATM    8  C6  UNL     1     -13.945  -2.129   1.386  1.00  0.00     0.017 C 
HETATM    9  C7  UNL     1     -14.417  -1.091   3.537  1.00  0.00     0.017 C 
ENDBRANCH   3   6
BRANCH   1  10
HETATM   10  O1  UNL     1     -17.944   1.555   0.024  1.00  0.00    -0.364 OA
HETATM   11  C1  UNL     1     -17.900   1.424  -1.337  1.00  0.00     0.204 C 
ENDBRANCH   1  10
BRANCH   5  12
HETATM   12  N1  UNL     1     -18.816  -1.470   0.803  1.00  0.00    -0.070 N 
ATOM     13  H13 UNL     1     -18.553  -2.293   1.347  1.00  0.00     0.274 HD
ATOM     14  H12 UNL     1     -19.192  -0.900   1.560  1.00  0.00     0.274 HD
ATOM     15  H11 UNL     1     -19.527  -1.690   0.106  1.00  0.00     0.274 HD
ENDBRANCH   5  12
TORSDOF 3
ENDMDL
MODEL 5
REMARK VINA RESULT: -5.716144415      0.070      1.225
REMARK  3 active torsions:
REMARK  status: ('A' for Active; 'I' for Inactive)
REMARK    1  A    between atoms: O1_2  and  C2_3 
REMARK    2  A    between atoms: C3_5  and  C4_6 
REMARK    3  A    between atoms: C9_11  and  N1_12 
ROOT
HETATM    1  C2  UNL     1     -13.267  -1.517   4.397  1.00  0.00     0.289 C 
HETATM    2  O2  UNL     1     -13.075  -1.490   3.015  1.00  0.00    -0.353 OA
HETATM    3  C3  UNL     1     -14.377  -1.620   2.591  1.00  0.00     0.134 C 
HETATM    4  C8  UNL     1     -15.067  -0.484   3.304  1.00  0.00     0.070 C 
HETATM    5  C9  UNL     1     -14.360  -0.531   4.668  1.00  0.00     0.240 C 
ENDROOT
BRANCH   3   6
HETATM    6  C4  UNL     1     -14.582  -1.623   1.124  1.00  0.00    -0.025 C 
HETATM    7  C5  UNL     1     -15.862  -1.039   0.651  1.00  0.00     0.017 C 
HETATM    8  C6  UNL     1     -14.492  -3.047   0.585  1.00  0.00     0.017 C 
HETATM    9  C7  UNL     1     -13.442  -0.854   0.485  1.00  0.00     0.017 C 
ENDBRANCH   3   6
BRANCH   1  10
HETATM   10  O1  UNL     1     -12.136  -1.352   5.132  1.00  0.00    -0.364 OA
HETATM   11  C1  UNL     1     -10.965  -1.715   4.525  1.00  0.00     0.204 C 
ENDBRANCH   1  10
BRANCH   5  12
HETATM   12  N1  UNL     1     -15.330  -1.080   5.624  1.00  0.00    -0.070 N 
ATOM     13  H13 UNL     1     -14.965  -1.076   6.577  1.00  0.00     0.274 HD
ATOM     14  H12 UNL     1     -16.123  -0.453   5.760  1.00  0.00     0.274 HD
ATOM     15  H11 UNL     1     -15.631  -2.012   5.339  1.00  0.00     0.274 HD
ENDBRANCH   5  12
TORSDOF 3
ENDMDL
