MODEL 1
REMARK VINA RESULT: -6.700687330      0.000      0.000
REMARK  5 active torsions:
REMARK  status: ('A' for Active; 'I' for Inactive)
REMARK    1  A    between atoms: C2_9  and  C3_10 
REMARK    2  A    between atoms: C3_10  and  N5_11 
REMARK    3  A    between atoms: C3_10  and  N6_15 
REMARK    4  A    between atoms: C4_17  and  C5_18 
REMARK    5  A    between atoms: N7_19  and  O1_21 
ROOT
HETATM    1  C3  UNL     1       9.554  43.165  19.770  1.00  0.00     0.337 C 
ENDROOT
BRANCH   1   2
HETATM    2  C2  UNL     1       8.366  42.299  19.578  1.00  0.00     0.119 A 
HETATM    3  C1  UNL     1       7.841  41.304  20.359  1.00  0.00     0.160 A 
HETATM    4  N1  UNL     1       8.369  40.884  21.598  1.00  0.00    -0.079 NA
HETATM    5  N2  UNL     1       6.761  40.851  19.700  1.00  0.00    -0.272 N 
HETATM    6  N3  UNL     1       6.610  41.523  18.563  1.00  0.00    -0.241 N 
ATOM      7  H2  UNL     1       6.147  40.104  20.025  1.00  0.00     0.189 HD
HETATM    8  N4  UNL     1       7.576  42.391  18.494  1.00  0.00    -0.283 N 
ATOM      9  H3  UNL     1       5.873  41.383  17.873  1.00  0.00     0.208 HD
ATOM     10  H4  UNL     1       7.715  43.048  17.726  1.00  0.00     0.188 HD
ENDBRANCH   1   2
BRANCH   1  11
HETATM   11  N5  UNL     1      10.032  43.464  18.423  1.00  0.00    -0.053 N 
ATOM     12  H53 UNL     1       9.291  43.727  17.772  1.00  0.00     0.277 HD
ATOM     13  H52 UNL     1      10.561  44.333  18.357  1.00  0.00     0.277 HD
ATOM     14  H51 UNL     1      10.558  42.639  18.136  1.00  0.00     0.277 HD
ENDBRANCH   1  11
BRANCH   1  15
HETATM   15  N6  UNL     1       9.329  44.334  20.542  1.00  0.00    -0.366 N 
HETATM   16  C4  UNL     1       9.485  44.420  21.793  1.00  0.00     0.104 C 
ATOM     17  H6  UNL     1       9.018  45.171  20.048  1.00  0.00     0.161 HD
BRANCH  16  18
HETATM   18  C5  UNL     1       9.923  43.321  22.633  1.00  0.00     0.130 C 
HETATM   19  N7  UNL     1       9.115  42.788  23.517  1.00  0.00    -0.279 N 
ATOM     20  H7  UNL     1       8.165  43.142  23.624  1.00  0.00     0.193 HD
BRANCH  19  21
HETATM   21  O1  UNL     1       9.554  41.755  24.293  1.00  0.00    -0.290 OA
ATOM     22  H1  UNL     1       8.984  41.011  24.449  1.00  0.00     0.244 HD
ENDBRANCH  19  21
ENDBRANCH  16  18
ENDBRANCH   1  15
TORSDOF 5
ENDMDL
MODEL 2
REMARK VINA RESULT: -6.458825179      2.523      3.461
REMARK  5 active torsions:
REMARK  status: ('A' for Active; 'I' for Inactive)
REMARK    1  A    between atoms: C2_9  and  C3_10 
REMARK    2  A    between atoms: C3_10  and  N5_11 
REMARK    3  A    between atoms: C3_10  and  N6_15 
REMARK    4  A    between atoms: C4_17  and  C5_18 
REMARK    5  A    between atoms: N7_19  and  O1_21 
ROOT
HETATM    1  C3  UNL     1       9.335  43.791  22.166  1.00  0.00     0.337 C 
ENDROOT
BRANCH   1   2
HETATM    2  C2  UNL     1       9.162  43.417  20.742  1.00  0.00     0.119 A 
HETATM    3  C1  UNL     1       8.327  42.511  20.144  1.00  0.00     0.160 A 
HETATM    4  N1  UNL     1       7.393  41.700  20.823  1.00  0.00    -0.079 NA
HETATM    5  N2  UNL     1       8.593  42.579  18.829  1.00  0.00    -0.272 N 
HETATM    6  N3  UNL     1       9.545  43.478  18.605  1.00  0.00    -0.241 N 
ATOM      7  H2  UNL     1       8.132  42.023  18.108  1.00  0.00     0.189 HD
HETATM    8  N4  UNL     1       9.884  43.979  19.757  1.00  0.00    -0.283 N 
ATOM      9  H3  UNL     1       9.938  43.730  17.698  1.00  0.00     0.208 HD
ATOM     10  H4  UNL     1      10.596  44.696  19.894  1.00  0.00     0.188 HD
ENDBRANCH   1   2
BRANCH   1  11
HETATM   11  N5  UNL     1       8.677  42.730  22.924  1.00  0.00    -0.053 N 
ATOM     12  H53 UNL     1       8.802  42.807  23.933  1.00  0.00     0.277 HD
ATOM     13  H52 UNL     1       7.659  42.796  22.926  1.00  0.00     0.277 HD
ATOM     14  H51 UNL     1       9.032  41.859  22.530  1.00  0.00     0.277 HD
ENDBRANCH   1  11
BRANCH   1  15
HETATM   15  N6  UNL     1      10.677  44.001  22.575  1.00  0.00    -0.366 N 
HETATM   16  C4  UNL     1      11.143  45.096  23.002  1.00  0.00     0.104 C 
ATOM     17  H6  UNL     1      11.315  43.207  22.521  1.00  0.00     0.161 HD
BRANCH  16  18
HETATM   18  C5  UNL     1      10.363  46.312  23.138  1.00  0.00     0.130 C 
HETATM   19  N7  UNL     1      10.391  47.235  22.208  1.00  0.00    -0.279 N 
ATOM     20  H7  UNL     1      10.965  47.108  21.374  1.00  0.00     0.193 HD
BRANCH  19  21
HETATM   21  O1  UNL     1       9.647  48.368  22.362  1.00  0.00    -0.290 OA
ATOM     22  H1  UNL     1      10.048  49.216  22.211  1.00  0.00     0.244 HD
ENDBRANCH  19  21
ENDBRANCH  16  18
ENDBRANCH   1  15
TORSDOF 5
ENDMDL
MODEL 3
REMARK VINA RESULT: -6.410839996      2.100      2.989
REMARK  5 active torsions:
REMARK  status: ('A' for Active; 'I' for Inactive)
REMARK    1  A    between atoms: C2_9  and  C3_10 
REMARK    2  A    between atoms: C3_10  and  N5_11 
REMARK    3  A    between atoms: C3_10  and  N6_15 
REMARK    4  A    between atoms: C4_17  and  C5_18 
REMARK    5  A    between atoms: N7_19  and  O1_21 
ROOT
HETATM    1  C3  UNL     1       8.126  42.795  21.594  1.00  0.00     0.337 C 
ENDROOT
BRANCH   1   2
HETATM    2  C2  UNL     1       7.859  42.175  20.274  1.00  0.00     0.119 A 
HETATM    3  C1  UNL     1       8.401  42.414  19.040  1.00  0.00     0.160 A 
HETATM    4  N1  UNL     1       9.404  43.369  18.768  1.00  0.00    -0.079 NA
HETATM    5  N2  UNL     1       7.787  41.566  18.198  1.00  0.00    -0.272 N 
HETATM    6  N3  UNL     1       6.902  40.830  18.863  1.00  0.00    -0.241 N 
ATOM      7  H2  UNL     1       7.972  41.497  17.197  1.00  0.00     0.189 HD
HETATM    8  N4  UNL     1       6.948  41.199  20.109  1.00  0.00    -0.283 N 
ATOM      9  H3  UNL     1       6.299  40.109  18.468  1.00  0.00     0.208 HD
ATOM     10  H4  UNL     1       6.376  40.805  20.855  1.00  0.00     0.188 HD
ENDBRANCH   1   2
BRANCH   1  11
HETATM   11  N5  UNL     1       7.171  42.176  22.509  1.00  0.00    -0.053 N 
ATOM     12  H53 UNL     1       6.398  42.788  22.774  1.00  0.00     0.277 HD
ATOM     13  H52 UNL     1       6.602  41.447  22.079  1.00  0.00     0.277 HD
ATOM     14  H51 UNL     1       7.728  41.851  23.299  1.00  0.00     0.277 HD
ENDBRANCH   1  11
BRANCH   1  15
HETATM   15  N6  UNL     1       9.465  42.690  22.050  1.00  0.00    -0.366 N 
HETATM   16  C4  UNL     1      10.222  43.667  22.313  1.00  0.00     0.104 C 
ATOM     17  H6  UNL     1       9.847  41.752  22.176  1.00  0.00     0.161 HD
BRANCH  16  18
HETATM   18  C5  UNL     1       9.826  45.057  22.185  1.00  0.00     0.130 C 
HETATM   19  N7  UNL     1      10.479  46.003  22.816  1.00  0.00    -0.279 N 
ATOM     20  H7  UNL     1      11.277  45.770  23.407  1.00  0.00     0.193 HD
BRANCH  19  21
HETATM   21  O1  UNL     1      10.084  47.301  22.677  1.00  0.00    -0.290 OA
ATOM     22  H1  UNL     1      10.525  47.861  22.049  1.00  0.00     0.244 HD
ENDBRANCH  19  21
ENDBRANCH  16  18
ENDBRANCH   1  15
TORSDOF 5
ENDMDL
MODEL 4
REMARK VINA RESULT: -6.206527518      2.104      4.067
REMARK  5 active torsions:
REMARK  status: ('A' for Active; 'I' for Inactive)
REMARK    1  A    between atoms: C2_9  and  C3_10 
REMARK    2  A    between atoms: C3_10  and  N5_11 
REMARK    3  A    between atoms: C3_10  and  N6_15 
REMARK    4  A    between atoms: C4_17  and  C5_18 
REMARK    5  A    between atoms: N7_19  and  O1_21 
ROOT
HETATM    1  C3  UNL     1       9.054  44.027  19.850  1.00  0.00     0.337 C 
ENDROOT
BRANCH   1   2
HETATM    2  C2  UNL     1       9.361  43.581  21.230  1.00  0.00     0.119 A 
HETATM    3  C1  UNL     1       8.658  42.789  22.099  1.00  0.00     0.160 A 
HETATM    4  N1  UNL     1       7.410  42.194  21.821  1.00  0.00    -0.079 NA
HETATM    5  N2  UNL     1       9.403  42.716  23.214  1.00  0.00    -0.272 N 
HETATM    6  N3  UNL     1      10.518  43.424  23.062  1.00  0.00    -0.241 N 
ATOM      7  H2  UNL     1       9.151  42.195  24.054  1.00  0.00     0.189 HD
HETATM    8  N4  UNL     1      10.489  43.942  21.869  1.00  0.00    -0.283 N 
ATOM      9  H3  UNL     1      11.259  43.540  23.752  1.00  0.00     0.208 HD
ATOM     10  H4  UNL     1      11.216  44.537  21.474  1.00  0.00     0.188 HD
ENDBRANCH   1   2
BRANCH   1  11
HETATM   11  N5  UNL     1       9.609  45.374  19.750  1.00  0.00    -0.053 N 
ATOM     12  H53 UNL     1       9.113  45.976  19.093  1.00  0.00     0.277 HD
ATOM     13  H52 UNL     1       9.451  45.947  20.579  1.00  0.00     0.277 HD
ATOM     14  H51 UNL     1      10.595  45.242  19.524  1.00  0.00     0.277 HD
ENDBRANCH   1  11
BRANCH   1  15
HETATM   15  N6  UNL     1       9.518  43.168  18.821  1.00  0.00    -0.366 N 
HETATM   16  C4  UNL     1       8.832  42.263  18.265  1.00  0.00     0.104 C 
ATOM     17  H6  UNL     1      10.480  43.290  18.504  1.00  0.00     0.161 HD
BRANCH  16  18
HETATM   18  C5  UNL     1       7.453  41.968  18.604  1.00  0.00     0.130 C 
HETATM   19  N7  UNL     1       7.134  40.849  19.209  1.00  0.00    -0.279 N 
ATOM     20  H7  UNL     1       7.857  40.171  19.449  1.00  0.00     0.193 HD
BRANCH  19  21
HETATM   21  O1  UNL     1       5.829  40.598  19.516  1.00  0.00    -0.290 OA
ATOM     22  H1  UNL     1       5.430  39.782  19.236  1.00  0.00     0.244 HD
ENDBRANCH  19  21
ENDBRANCH  16  18
ENDBRANCH   1  15
TORSDOF 5
ENDMDL
MODEL 5
REMARK VINA RESULT: -6.050798052      0.668      1.597
REMARK  5 active torsions:
REMARK  status: ('A' for Active; 'I' for Inactive)
REMARK    1  A    between atoms: C2_9  and  C3_10 
REMARK    2  A    between atoms: C3_10  and  N5_11 
REMARK    3  A    between atoms: C3_10  and  N6_15 
REMARK    4  A    between atoms: C4_17  and  C5_18 
REMARK    5  A    between atoms: N7_19  and  O1_21 
ROOT
HETATM    1  C3  UNL     1       9.522  43.175  19.809  1.00  0.00     0.337 C 
ENDROOT
BRANCH   1   2
HETATM    2  C2  UNL     1       8.390  42.225  19.922  1.00  0.00     0.119 A 
HETATM    3  C1  UNL     1       7.623  41.620  18.963  1.00  0.00     0.160 A 
HETATM    4  N1  UNL     1       7.781  41.794  17.572  1.00  0.00    -0.079 NA
HETATM    5  N2  UNL     1       6.737  40.859  19.628  1.00  0.00    -0.272 N 
HETATM    6  N3  UNL     1       6.931  40.977  20.937  1.00  0.00    -0.241 N 
ATOM      7  H2  UNL     1       6.021  40.277  19.192  1.00  0.00     0.189 HD
HETATM    8  N4  UNL     1       7.925  41.798  21.110  1.00  0.00    -0.283 N 
ATOM      9  H3  UNL     1       6.399  40.510  21.671  1.00  0.00     0.208 HD
ATOM     10  H4  UNL     1       8.298  42.078  22.016  1.00  0.00     0.188 HD
ENDBRANCH   1   2
BRANCH   1  11
HETATM   11  N5  UNL     1       9.665  43.433  18.379  1.00  0.00    -0.053 N 
ATOM     12  H53 UNL     1       9.154  42.776  17.789  1.00  0.00     0.277 HD
ATOM     13  H52 UNL     1       9.184  44.275  18.062  1.00  0.00     0.277 HD
ATOM     14  H51 UNL     1      10.670  43.445  18.207  1.00  0.00     0.277 HD
ENDBRANCH   1  11
BRANCH   1  15
HETATM   15  N6  UNL     1       9.389  44.366  20.568  1.00  0.00    -0.366 N 
HETATM   16  C4  UNL     1       9.603  44.464  21.810  1.00  0.00     0.104 C 
ATOM     17  H6  UNL     1       9.098  45.209  20.073  1.00  0.00     0.161 HD
BRANCH  16  18
HETATM   18  C5  UNL     1      10.022  43.358  22.651  1.00  0.00     0.130 C 
HETATM   19  N7  UNL     1       9.184  42.793  23.485  1.00  0.00    -0.279 N 
ATOM     20  H7  UNL     1       8.222  43.127  23.552  1.00  0.00     0.193 HD
BRANCH  19  21
HETATM   21  O1  UNL     1       9.606  41.755  24.263  1.00  0.00    -0.290 OA
ATOM     22  H1  UNL     1       9.582  41.838  25.209  1.00  0.00     0.244 HD
ENDBRANCH  19  21
ENDBRANCH  16  18
ENDBRANCH   1  15
TORSDOF 5
ENDMDL
