MODEL 1
REMARK VINA RESULT: -6.034990586      0.000      0.000
REMARK  3 active torsions:
REMARK  status: ('A' for Active; 'I' for Inactive)
REMARK    1  A    between atoms: N1_1  and  C1_4 
REMARK    2  A    between atoms: N2_10  and  N3_12 
REMARK    3  A    between atoms: N3_12  and  C5_14 
ROOT
HETATM    1  C1  UNL     1      23.562  43.462  37.896  1.00  0.00     0.111 A 
HETATM    2  S1  UNL     1      22.490  43.497  36.595  1.00  0.00    -0.069 SA
HETATM    3  C2  UNL     1      21.001  42.833  37.124  1.00  0.00     0.004 A 
HETATM    4  C3  UNL     1      21.042  42.444  38.444  1.00  0.00     0.044 A 
HETATM    5  S2  UNL     1      22.578  42.764  39.095  1.00  0.00    -0.063 SA
HETATM    6  C4  UNL     1      19.841  41.861  39.025  1.00  0.00     0.044 C 
HETATM    7  N2  UNL     1      19.623  41.891  40.299  1.00  0.00    -0.302 N 
ATOM      8  H2  UNL     1      18.761  41.463  40.636  1.00  0.00     0.186 HD
HETATM    9  C6  UNL     1      18.813  41.206  38.194  1.00  0.00     0.060 C 
HETATM   10  C7  UNL     1      18.934  41.481  36.732  1.00  0.00     0.011 C 
HETATM   11  C8  UNL     1      19.776  42.652  36.360  1.00  0.00     0.048 C 
ENDROOT
BRANCH   7  12
HETATM   12  N3  UNL     1      20.454  42.452  41.237  1.00  0.00    -0.284 N 
ATOM     13  H3  UNL     1      20.575  43.464  41.275  1.00  0.00     0.188 HD
BRANCH  12  14
HETATM   14  C5  UNL     1      21.140  41.622  42.148  1.00  0.00     0.164 C 
HETATM   15  S3  UNL     1      21.533  42.108  43.653  1.00  0.00    -0.050 SA
HETATM   16  S4  UNL     1      21.605  39.981  41.655  1.00  0.00    -0.019 SA
ENDBRANCH  12  14
ENDBRANCH   7  12
BRANCH   1  17
HETATM   17  N1  UNL     1      24.787  43.830  38.050  1.00  0.00    -0.388 N 
ATOM     18  H12 UNL     1      25.103  44.782  38.235  1.00  0.00     0.157 HD
ATOM     19  H11 UNL     1      25.679  43.335  38.034  1.00  0.00     0.157 HD
ENDBRANCH   1  17
TORSDOF 3
ENDMDL
MODEL 2
REMARK VINA RESULT: -5.997009711      2.004      3.913
REMARK  3 active torsions:
REMARK  status: ('A' for Active; 'I' for Inactive)
REMARK    1  A    between atoms: N1_1  and  C1_4 
REMARK    2  A    between atoms: N2_10  and  N3_12 
REMARK    3  A    between atoms: N3_12  and  C5_14 
ROOT
HETATM    1  C1  UNL     1      19.407  41.645  38.144  1.00  0.00     0.111 A 
HETATM    2  S1  UNL     1      20.429  41.564  36.805  1.00  0.00    -0.069 SA
HETATM    3  C2  UNL     1      21.949  42.210  37.265  1.00  0.00     0.004 A 
HETATM    4  C3  UNL     1      21.964  42.625  38.578  1.00  0.00     0.044 A 
HETATM    5  S2  UNL     1      20.448  42.347  39.291  1.00  0.00    -0.063 SA
HETATM    6  C4  UNL     1      23.197  43.196  39.102  1.00  0.00     0.044 C 
HETATM    7  N2  UNL     1      23.462  43.186  40.368  1.00  0.00    -0.302 N 
ATOM      8  H2  UNL     1      24.343  43.604  40.664  1.00  0.00     0.186 HD
HETATM    9  C6  UNL     1      24.204  43.815  38.220  1.00  0.00     0.060 C 
HETATM   10  C7  UNL     1      24.023  43.515  36.770  1.00  0.00     0.011 C 
HETATM   11  C8  UNL     1      23.147  42.353  36.452  1.00  0.00     0.048 C 
ENDROOT
BRANCH   7  12
HETATM   12  N3  UNL     1      22.656  42.659  41.347  1.00  0.00    -0.284 N 
ATOM     13  H3  UNL     1      22.534  41.650  41.421  1.00  0.00     0.188 HD
BRANCH  12  14
HETATM   14  C5  UNL     1      21.998  43.521  42.249  1.00  0.00     0.164 C 
HETATM   15  S3  UNL     1      21.587  43.063  43.758  1.00  0.00    -0.050 SA
HETATM   16  S4  UNL     1      21.592  45.173  41.740  1.00  0.00    -0.019 SA
ENDBRANCH  12  14
ENDBRANCH   7  12
BRANCH   1  17
HETATM   17  N1  UNL     1      18.182  41.304  38.351  1.00  0.00    -0.388 N 
ATOM     18  H12 UNL     1      17.670  40.588  37.837  1.00  0.00     0.157 HD
ATOM     19  H11 UNL     1      17.465  41.615  39.006  1.00  0.00     0.157 HD
ENDBRANCH   1  17
TORSDOF 3
ENDMDL
MODEL 3
REMARK VINA RESULT: -5.746993393      2.497      5.415
REMARK  3 active torsions:
REMARK  status: ('A' for Active; 'I' for Inactive)
REMARK    1  A    between atoms: N1_1  and  C1_4 
REMARK    2  A    between atoms: N2_10  and  N3_12 
REMARK    3  A    between atoms: N3_12  and  C5_14 
ROOT
HETATM    1  C1  UNL     1      21.436  40.245  42.350  1.00  0.00     0.111 A 
HETATM    2  S1  UNL     1      21.537  41.550  43.413  1.00  0.00    -0.069 SA
HETATM    3  C2  UNL     1      21.242  42.981  42.516  1.00  0.00     0.004 A 
HETATM    4  C3  UNL     1      21.002  42.724  41.186  1.00  0.00     0.044 A 
HETATM    5  S2  UNL     1      21.083  41.052  40.894  1.00  0.00    -0.063 SA
HETATM    6  C4  UNL     1      20.736  43.853  40.305  1.00  0.00     0.044 C 
HETATM    7  N2  UNL     1      20.073  43.711  39.204  1.00  0.00    -0.302 N 
ATOM      8  H2  UNL     1      19.925  44.545  38.637  1.00  0.00     0.186 HD
HETATM    9  C6  UNL     1      21.208  45.215  40.622  1.00  0.00     0.060 C 
HETATM   10  C7  UNL     1      21.667  45.397  42.030  1.00  0.00     0.011 C 
HETATM   11  C8  UNL     1      21.223  44.355  42.997  1.00  0.00     0.048 C 
ENDROOT
BRANCH   7  12
HETATM   12  N3  UNL     1      19.551  42.531  38.735  1.00  0.00    -0.284 N 
ATOM     13  H3  UNL     1      18.883  42.007  39.298  1.00  0.00     0.188 HD
BRANCH  12  14
HETATM   14  C5  UNL     1      19.945  42.048  37.470  1.00  0.00     0.164 C 
HETATM   15  S3  UNL     1      18.874  41.534  36.355  1.00  0.00    -0.050 SA
HETATM   16  S4  UNL     1      21.671  41.988  37.056  1.00  0.00    -0.019 SA
ENDBRANCH  12  14
ENDBRANCH   7  12
BRANCH   1  17
HETATM   17  N1  UNL     1      21.568  38.971  42.488  1.00  0.00    -0.388 N 
ATOM     18  H12 UNL     1      22.171  38.507  43.167  1.00  0.00     0.157 HD
ATOM     19  H11 UNL     1      21.159  38.164  42.017  1.00  0.00     0.157 HD
ENDBRANCH   1  17
TORSDOF 3
ENDMDL
MODEL 4
REMARK VINA RESULT: -5.744095336      2.869      5.294
REMARK  3 active torsions:
REMARK  status: ('A' for Active; 'I' for Inactive)
REMARK    1  A    between atoms: N1_1  and  C1_4 
REMARK    2  A    between atoms: N2_10  and  N3_12 
REMARK    3  A    between atoms: N3_12  and  C5_14 
ROOT
HETATM    1  C1  UNL     1      21.722  44.884  42.306  1.00  0.00     0.111 A 
HETATM    2  S1  UNL     1      21.635  43.619  43.417  1.00  0.00    -0.069 SA
HETATM    3  C2  UNL     1      21.899  42.154  42.565  1.00  0.00     0.004 A 
HETATM    4  C3  UNL     1      22.112  42.363  41.221  1.00  0.00     0.044 A 
HETATM    5  S2  UNL     1      22.035  44.024  40.873  1.00  0.00    -0.063 SA
HETATM    6  C4  UNL     1      22.350  41.201  40.376  1.00  0.00     0.044 C 
HETATM    7  N2  UNL     1      22.989  41.299  39.257  1.00  0.00    -0.302 N 
ATOM      8  H2  UNL     1      23.118  40.443  38.717  1.00  0.00     0.186 HD
HETATM    9  C6  UNL     1      21.875  39.855  40.752  1.00  0.00     0.060 C 
HETATM   10  C7  UNL     1      21.447  39.727  42.175  1.00  0.00     0.011 C 
HETATM   11  C8  UNL     1      21.920  40.799  43.095  1.00  0.00     0.048 C 
ENDROOT
BRANCH   7  12
HETATM   12  N3  UNL     1      23.508  42.457  38.734  1.00  0.00    -0.284 N 
ATOM     13  H3  UNL     1      24.182  43.004  39.270  1.00  0.00     0.188 HD
BRANCH  12  14
HETATM   14  C5  UNL     1      23.105  42.887  37.453  1.00  0.00     0.164 C 
HETATM   15  S3  UNL     1      21.579  42.714  36.909  1.00  0.00    -0.050 SA
HETATM   16  S4  UNL     1      24.292  43.650  36.374  1.00  0.00    -0.019 SA
ENDBRANCH  12  14
ENDBRANCH   7  12
BRANCH   1  17
HETATM   17  N1  UNL     1      21.602  46.163  42.402  1.00  0.00    -0.388 N 
ATOM     18  H12 UNL     1      21.558  46.816  41.619  1.00  0.00     0.157 HD
ATOM     19  H11 UNL     1      21.526  46.808  43.189  1.00  0.00     0.157 HD
ENDBRANCH   1  17
TORSDOF 3
ENDMDL
MODEL 5
REMARK VINA RESULT: -5.485192913      2.921      6.318
REMARK  3 active torsions:
REMARK  status: ('A' for Active; 'I' for Inactive)
REMARK    1  A    between atoms: N1_1  and  C1_4 
REMARK    2  A    between atoms: N2_10  and  N3_12 
REMARK    3  A    between atoms: N3_12  and  C5_14 
ROOT
HETATM    1  C1  UNL     1      19.690  41.874  36.862  1.00  0.00     0.111 A 
HETATM    2  S1  UNL     1      19.957  42.194  38.496  1.00  0.00    -0.069 SA
HETATM    3  C2  UNL     1      21.548  42.812  38.656  1.00  0.00     0.004 A 
HETATM    4  C3  UNL     1      22.201  42.894  37.447  1.00  0.00     0.044 A 
HETATM    5  S2  UNL     1      21.184  42.345  36.201  1.00  0.00    -0.063 SA
HETATM    6  C4  UNL     1      23.565  43.404  37.437  1.00  0.00     0.044 C 
HETATM    7  N2  UNL     1      24.080  43.937  36.378  1.00  0.00    -0.302 N 
ATOM      8  H2  UNL     1      25.041  44.272  36.443  1.00  0.00     0.186 HD
HETATM    9  C6  UNL     1      24.429  43.337  38.631  1.00  0.00     0.060 C 
HETATM   10  C7  UNL     1      23.706  43.029  39.900  1.00  0.00     0.011 C 
HETATM   11  C8  UNL     1      22.231  43.231  39.871  1.00  0.00     0.048 C 
ENDROOT
BRANCH   7  12
HETATM   12  N3  UNL     1      23.441  44.090  35.172  1.00  0.00    -0.284 N 
ATOM     13  H3  UNL     1      22.424  44.047  35.122  1.00  0.00     0.188 HD
BRANCH  12  14
HETATM   14  C5  UNL     1      24.199  44.307  34.003  1.00  0.00     0.164 C 
HETATM   15  S3  UNL     1      25.814  44.090  33.951  1.00  0.00    -0.050 SA
HETATM   16  S4  UNL     1      23.383  44.839  32.519  1.00  0.00    -0.019 SA
ENDBRANCH  12  14
ENDBRANCH   7  12
BRANCH   1  17
HETATM   17  N1  UNL     1      18.688  41.411  36.198  1.00  0.00    -0.388 N 
ATOM     18  H12 UNL     1      18.399  41.717  35.269  1.00  0.00     0.157 HD
ATOM     19  H11 UNL     1      17.987  40.694  36.387  1.00  0.00     0.157 HD
ENDBRANCH   1  17
TORSDOF 3
ENDMDL
