MODEL 1
REMARK VINA RESULT: -5.576455302      0.000      0.000
REMARK  2 active torsions:
REMARK  status: ('A' for Active; 'I' for Inactive)
REMARK    1  A    between atoms: N1_4  and  N2_6 
REMARK    2  A    between atoms: C4_7  and  N3_8 
ROOT
HETATM    1  N2  UNL     1      21.229  43.032  40.990  1.00  0.00    -0.075 N 
HETATM    2  C4  UNL     1      20.209  42.271  40.578  1.00  0.00     0.699 A 
HETATM    3  N4  UNL     1      20.146  41.928  39.280  1.00  0.00    -0.183 N 
ATOM      4  H4  UNL     1      19.376  41.348  38.948  1.00  0.00     0.185 HD
HETATM    5  C5  UNL     1      21.106  42.350  38.397  1.00  0.00     0.106 A 
HETATM    6  S1  UNL     1      21.360  42.128  36.724  1.00  0.00    -0.053 SA
HETATM    7  C6  UNL     1      22.799  43.024  36.534  1.00  0.00     0.079 A 
HETATM    8  C7  UNL     1      23.046  43.476  37.788  1.00  0.00    -0.007 A 
HETATM    9  C8  UNL     1      22.165  43.129  38.772  1.00  0.00     0.048 A 
HETATM   10  C9  UNL     1      22.178  43.457  40.150  1.00  0.00     0.154 A 
HETATM   11  S2  UNL     1      23.386  44.389  40.766  1.00  0.00    -0.057 SA
HETATM   12  C10 UNL     1      24.336  44.294  37.689  1.00  0.00     0.062 C 
HETATM   13  C11 UNL     1      24.502  44.565  36.226  1.00  0.00     0.125 C 
HETATM   14  N5  UNL     1      23.810  43.468  35.589  1.00  0.00    -0.384 N 
ATOM     15  H5  UNL     1      23.993  43.082  34.663  1.00  0.00     0.160 HD
ENDROOT
BRANCH   1  16
HETATM   16  N1  UNL     1      21.241  43.357  42.357  1.00  0.00    -0.287 N 
HETATM   17  C2  UNL     1      21.759  42.621  43.251  1.00  0.00    -0.003 C 
HETATM   18  C1  UNL     1      22.395  41.340  42.859  1.00  0.00     0.064 C 
HETATM   19  C3  UNL     1      21.742  43.014  44.678  1.00  0.00     0.064 C 
ATOM     20  H1  UNL     1      20.809  44.233  42.647  1.00  0.00     0.187 HD
ENDBRANCH   1  16
BRANCH   2  21
HETATM   21  N3  UNL     1      19.281  41.850  41.374  1.00  0.00    -0.233 N 
ATOM     22  H32 UNL     1      19.545  41.254  42.158  1.00  0.00     0.174 HD
ATOM     23  H31 UNL     1      18.297  42.088  41.252  1.00  0.00     0.174 HD
ENDBRANCH   2  21
TORSDOF 2
ENDMDL
MODEL 2
REMARK VINA RESULT: -5.565600396      2.226      3.405
REMARK  2 active torsions:
REMARK  status: ('A' for Active; 'I' for Inactive)
REMARK    1  A    between atoms: N1_4  and  N2_6 
REMARK    2  A    between atoms: C4_7  and  N3_8 
ROOT
HETATM    1  N2  UNL     1      22.516  42.197  40.996  1.00  0.00    -0.075 N 
HETATM    2  C4  UNL     1      23.531  42.966  40.588  1.00  0.00     0.699 A 
HETATM    3  N4  UNL     1      23.596  43.309  39.290  1.00  0.00    -0.183 N 
ATOM      4  H4  UNL     1      24.362  43.896  38.961  1.00  0.00     0.185 HD
HETATM    5  C5  UNL     1      22.643  42.879  38.404  1.00  0.00     0.106 A 
HETATM    6  S1  UNL     1      22.394  43.098  36.730  1.00  0.00    -0.053 SA
HETATM    7  C6  UNL     1      20.963  42.189  36.534  1.00  0.00     0.079 A 
HETATM    8  C7  UNL     1      20.715  41.736  37.788  1.00  0.00    -0.007 A 
HETATM    9  C8  UNL     1      21.589  42.091  38.775  1.00  0.00     0.048 A 
HETATM   10  C9  UNL     1      21.574  41.763  40.153  1.00  0.00     0.154 A 
HETATM   11  S2  UNL     1      20.371  40.821  40.765  1.00  0.00    -0.057 SA
HETATM   12  C10 UNL     1      19.432  40.906  37.684  1.00  0.00     0.062 C 
HETATM   13  C11 UNL     1      19.274  40.633  36.221  1.00  0.00     0.125 C 
HETATM   14  N5  UNL     1      19.960  41.736  35.586  1.00  0.00    -0.384 N 
ATOM     15  H5  UNL     1      19.777  42.120  34.658  1.00  0.00     0.160 HD
ENDROOT
BRANCH   1  16
HETATM   16  N1  UNL     1      22.501  41.873  42.364  1.00  0.00    -0.287 N 
HETATM   17  C2  UNL     1      21.972  42.604  43.255  1.00  0.00    -0.003 C 
HETATM   18  C1  UNL     1      21.325  43.878  42.859  1.00  0.00     0.064 C 
HETATM   19  C3  UNL     1      21.987  42.211  44.683  1.00  0.00     0.064 C 
ATOM     20  H1  UNL     1      22.941  41.000  42.656  1.00  0.00     0.187 HD
ENDBRANCH   1  16
BRANCH   2  21
HETATM   21  N3  UNL     1      24.452  43.396  41.387  1.00  0.00    -0.233 N 
ATOM     22  H32 UNL     1      24.982  42.715  41.931  1.00  0.00     0.174 HD
ATOM     23  H31 UNL     1      24.672  44.386  41.497  1.00  0.00     0.174 HD
ENDBRANCH   2  21
TORSDOF 2
ENDMDL
MODEL 3
REMARK VINA RESULT: -5.213351693      8.020      9.293
REMARK  2 active torsions:
REMARK  status: ('A' for Active; 'I' for Inactive)
REMARK    1  A    between atoms: N1_4  and  N2_6 
REMARK    2  A    between atoms: C4_7  and  N3_8 
ROOT
HETATM    1  N2  UNL     1      26.342  42.941  31.977  1.00  0.00    -0.075 N 
HETATM    2  C4  UNL     1      25.847  41.857  31.368  1.00  0.00     0.699 A 
HETATM    3  N4  UNL     1      24.786  42.004  30.556  1.00  0.00    -0.183 N 
ATOM      4  H4  UNL     1      24.396  41.190  30.083  1.00  0.00     0.185 HD
HETATM    5  C5  UNL     1      24.223  43.238  30.357  1.00  0.00     0.106 A 
HETATM    6  S1  UNL     1      22.908  43.807  29.429  1.00  0.00    -0.053 SA
HETATM    7  C6  UNL     1      22.981  45.466  29.820  1.00  0.00     0.079 A 
HETATM    8  C7  UNL     1      24.036  45.534  30.669  1.00  0.00    -0.007 A 
HETATM    9  C8  UNL     1      24.694  44.373  30.957  1.00  0.00     0.048 A 
HETATM   10  C9  UNL     1      25.811  44.155  31.800  1.00  0.00     0.154 A 
HETATM   11  S2  UNL     1      26.501  45.417  32.600  1.00  0.00    -0.057 SA
HETATM   12  C10 UNL     1      24.160  47.009  31.062  1.00  0.00     0.062 C 
HETATM   13  C11 UNL     1      22.847  47.616  30.676  1.00  0.00     0.125 C 
HETATM   14  N5  UNL     1      22.375  46.768  29.604  1.00  0.00    -0.384 N 
ATOM     15  H5  UNL     1      21.743  47.032  28.848  1.00  0.00     0.160 HD
ENDROOT
BRANCH   1  16
HETATM   16  N1  UNL     1      27.451  42.724  32.812  1.00  0.00    -0.287 N 
HETATM   17  C2  UNL     1      27.360  42.428  34.042  1.00  0.00    -0.003 C 
HETATM   18  C1  UNL     1      26.018  42.297  34.659  1.00  0.00     0.064 C 
HETATM   19  C3  UNL     1      28.565  42.211  34.874  1.00  0.00     0.064 C 
ATOM     20  H1  UNL     1      28.383  42.809  32.406  1.00  0.00     0.187 HD
ENDBRANCH   1  16
BRANCH   2  21
HETATM   21  N3  UNL     1      26.345  40.674  31.525  1.00  0.00    -0.233 N 
ATOM     22  H32 UNL     1      26.157  40.178  32.397  1.00  0.00     0.174 HD
ATOM     23  H31 UNL     1      26.917  40.216  30.816  1.00  0.00     0.174 HD
ENDBRANCH   2  21
TORSDOF 2
ENDMDL
MODEL 4
REMARK VINA RESULT: -5.200549656      1.136      1.342
REMARK  2 active torsions:
REMARK  status: ('A' for Active; 'I' for Inactive)
REMARK    1  A    between atoms: N1_4  and  N2_6 
REMARK    2  A    between atoms: C4_7  and  N3_8 
ROOT
HETATM    1  N2  UNL     1      21.845  42.702  41.031  1.00  0.00    -0.075 N 
HETATM    2  C4  UNL     1      20.663  42.088  40.910  1.00  0.00     0.699 A 
HETATM    3  N4  UNL     1      20.237  41.748  39.682  1.00  0.00    -0.183 N 
ATOM      4  H4  UNL     1      19.339  41.279  39.572  1.00  0.00     0.185 HD
HETATM    5  C5  UNL     1      20.998  42.025  38.576  1.00  0.00     0.106 A 
HETATM    6  S1  UNL     1      20.801  41.756  36.902  1.00  0.00    -0.053 SA
HETATM    7  C6  UNL     1      22.255  42.441  36.331  1.00  0.00     0.079 A 
HETATM    8  C7  UNL     1      22.862  42.863  37.468  1.00  0.00    -0.007 A 
HETATM    9  C8  UNL     1      22.212  42.650  38.650  1.00  0.00     0.048 A 
HETATM   10  C9  UNL     1      22.606  42.984  39.968  1.00  0.00     0.154 A 
HETATM   11  S2  UNL     1      24.043  43.742  40.234  1.00  0.00    -0.057 SA
HETATM   12  C10 UNL     1      24.186  43.492  37.025  1.00  0.00     0.062 C 
HETATM   13  C11 UNL     1      24.021  43.726  35.555  1.00  0.00     0.125 C 
HETATM   14  N5  UNL     1      23.053  42.732  35.152  1.00  0.00    -0.384 N 
ATOM     15  H5  UNL     1      22.950  42.317  34.225  1.00  0.00     0.160 HD
ENDROOT
BRANCH   1  16
HETATM   16  N1  UNL     1      22.237  43.032  42.340  1.00  0.00    -0.287 N 
HETATM   17  C2  UNL     1      22.030  44.165  42.872  1.00  0.00    -0.003 C 
HETATM   18  C1  UNL     1      21.337  45.218  42.092  1.00  0.00     0.064 C 
HETATM   19  C3  UNL     1      22.465  44.456  44.257  1.00  0.00     0.064 C 
ATOM     20  H1  UNL     1      22.714  42.321  42.892  1.00  0.00     0.187 HD
ENDBRANCH   1  16
BRANCH   2  21
HETATM   21  N3  UNL     1      19.911  41.807  41.924  1.00  0.00    -0.233 N 
ATOM     22  H32 UNL     1      19.826  42.495  42.674  1.00  0.00     0.174 HD
ATOM     23  H31 UNL     1      19.400  40.929  42.007  1.00  0.00     0.174 HD
ENDBRANCH   2  21
TORSDOF 2
ENDMDL
MODEL 5
REMARK VINA RESULT: -5.192680814      2.062      3.118
REMARK  2 active torsions:
REMARK  status: ('A' for Active; 'I' for Inactive)
REMARK    1  A    between atoms: N1_4  and  N2_6 
REMARK    2  A    between atoms: C4_7  and  N3_8 
ROOT
HETATM    1  N2  UNL     1      21.890  42.472  41.072  1.00  0.00    -0.075 N 
HETATM    2  C4  UNL     1      23.064  43.101  40.954  1.00  0.00     0.699 A 
HETATM    3  N4  UNL     1      23.487  43.450  39.726  1.00  0.00    -0.183 N 
ATOM      4  H4  UNL     1      24.379  43.931  39.618  1.00  0.00     0.185 HD
HETATM    5  C5  UNL     1      22.730  43.166  38.619  1.00  0.00     0.106 A 
HETATM    6  S1  UNL     1      22.926  43.441  36.946  1.00  0.00    -0.053 SA
HETATM    7  C6  UNL     1      21.481  42.739  36.372  1.00  0.00     0.079 A 
HETATM    8  C7  UNL     1      20.878  42.306  37.508  1.00  0.00    -0.007 A 
HETATM    9  C8  UNL     1      21.525  42.525  38.691  1.00  0.00     0.048 A 
HETATM   10  C9  UNL     1      21.133  42.183  40.008  1.00  0.00     0.154 A 
HETATM   11  S2  UNL     1      19.706  41.406  40.270  1.00  0.00    -0.057 SA
HETATM   12  C10 UNL     1      19.563  41.661  37.062  1.00  0.00     0.062 C 
HETATM   13  C11 UNL     1      19.732  41.433  35.592  1.00  0.00     0.125 C 
HETATM   14  N5  UNL     1      20.688  42.440  35.192  1.00  0.00    -0.384 N 
ATOM     15  H5  UNL     1      20.787  42.858  34.266  1.00  0.00     0.160 HD
ENDROOT
BRANCH   1  16
HETATM   16  N1  UNL     1      21.502  42.134  42.380  1.00  0.00    -0.287 N 
HETATM   17  C2  UNL     1      21.709  40.998  42.904  1.00  0.00    -0.003 C 
HETATM   18  C1  UNL     1      22.399  39.949  42.115  1.00  0.00     0.064 C 
HETATM   19  C3  UNL     1      21.277  40.698  44.288  1.00  0.00     0.064 C 
ATOM     20  H1  UNL     1      21.027  42.842  42.938  1.00  0.00     0.187 HD
ENDBRANCH   1  16
BRANCH   2  21
HETATM   21  N3  UNL     1      23.811  43.390  41.969  1.00  0.00    -0.233 N 
ATOM     22  H32 UNL     1      24.434  42.670  42.336  1.00  0.00     0.174 HD
ATOM     23  H31 UNL     1      23.805  44.306  42.418  1.00  0.00     0.174 HD
ENDBRANCH   2  21
TORSDOF 2
ENDMDL
