MODEL 1
REMARK VINA RESULT: -6.902758412      0.000      0.000
REMARK  3 active torsions:
REMARK  status: ('A' for Active; 'I' for Inactive)
REMARK    1  A    between atoms: C8_8  and  N1_9 
REMARK    2  A    between atoms: C9_10  and  N2_11 
REMARK    3  A    between atoms: C11_16  and  N3_17 
ROOT
HETATM    1  N1  UNL     1      21.646  43.340  41.500  1.00  0.00    -0.307 N 
HETATM    2  C9  UNL     1      21.666  44.401  42.286  1.00  0.00     0.147 A 
HETATM    3  S1  UNL     1      21.536  43.760  43.859  1.00  0.00    -0.047 SA
HETATM    4  C10 UNL     1      21.459  42.100  43.429  1.00  0.00     0.096 A 
HETATM    5  C11 UNL     1      21.344  40.903  44.159  1.00  0.00     0.121 A 
HETATM    6  N4  UNL     1      21.306  39.712  43.532  1.00  0.00    -0.338 N 
ATOM      7  H4  UNL     1      21.223  38.827  44.032  1.00  0.00     0.168 HD
HETATM    8  C12 UNL     1      21.389  39.784  42.183  1.00  0.00     0.183 A 
HETATM    9  N5  UNL     1      21.497  40.890  41.480  1.00  0.00    -0.337 N 
ATOM     10  H5  UNL     1      21.552  40.821  40.464  1.00  0.00     0.168 HD
HETATM   11  C13 UNL     1      21.540  42.144  42.067  1.00  0.00     0.132 A 
ENDROOT
BRANCH   1  12
HETATM   12  C8  UNL     1      21.741  43.498  40.030  1.00  0.00     0.097 C 
HETATM   13  C2  UNL     1      23.009  42.885  39.508  1.00  0.00     0.005 C 
HETATM   14  C1  UNL     1      24.178  43.359  40.376  1.00  0.00     0.012 C 
HETATM   15  C3  UNL     1      23.300  43.310  38.113  1.00  0.00     0.006 C 
HETATM   16  C4  UNL     1      22.101  43.803  37.346  1.00  0.00     0.000 C 
HETATM   17  C5  UNL     1      21.070  42.747  37.100  1.00  0.00     0.000 C 
HETATM   18  C6  UNL     1      20.710  41.951  38.322  1.00  0.00     0.002 C 
HETATM   19  C7  UNL     1      20.505  42.873  39.472  1.00  0.00     0.026 C 
ENDBRANCH   1  12
BRANCH   2  20
HETATM   20  N2  UNL     1      21.764  45.671  41.939  1.00  0.00    -0.379 N 
ATOM     21  H22 UNL     1      21.887  46.053  41.001  1.00  0.00     0.158 HD
ATOM     22  H21 UNL     1      21.734  46.493  42.543  1.00  0.00     0.158 HD
ENDBRANCH   2  20
BRANCH   5  23
HETATM   23  N3  UNL     1      21.276  41.002  45.434  1.00  0.00    -0.384 N 
ATOM     24  H32 UNL     1      21.858  41.656  45.957  1.00  0.00     0.157 HD
ATOM     25  H31 UNL     1      20.611  40.394  45.913  1.00  0.00     0.157 HD
ENDBRANCH   5  23
TORSDOF 3
ENDMDL
MODEL 2
REMARK VINA RESULT: -6.898934609      1.558      3.496
REMARK  3 active torsions:
REMARK  status: ('A' for Active; 'I' for Inactive)
REMARK    1  A    between atoms: C8_8  and  N1_9 
REMARK    2  A    between atoms: C9_10  and  N2_11 
REMARK    3  A    between atoms: C11_16  and  N3_17 
ROOT
HETATM    1  N1  UNL     1      21.983  41.760  41.532  1.00  0.00    -0.307 N 
HETATM    2  C9  UNL     1      21.930  40.712  42.333  1.00  0.00     0.147 A 
HETATM    3  S1  UNL     1      22.107  41.368  43.895  1.00  0.00    -0.047 SA
HETATM    4  C10 UNL     1      22.247  43.018  43.441  1.00  0.00     0.096 A 
HETATM    5  C11 UNL     1      22.421  44.219  44.153  1.00  0.00     0.121 A 
HETATM    6  N4  UNL     1      22.500  45.399  43.508  1.00  0.00    -0.338 N 
ATOM      7  H4  UNL     1      22.626  46.286  43.995  1.00  0.00     0.168 HD
HETATM    8  C12 UNL     1      22.397  45.312  42.162  1.00  0.00     0.183 A 
HETATM    9  N5  UNL     1      22.234  44.202  41.476  1.00  0.00    -0.337 N 
ATOM     10  H5  UNL     1      22.169  44.259  40.459  1.00  0.00     0.168 HD
HETATM   11  C13 UNL     1      22.147  42.959  42.081  1.00  0.00     0.132 A 
ENDROOT
BRANCH   1  12
HETATM   12  C8  UNL     1      21.863  41.587  40.065  1.00  0.00     0.097 C 
HETATM   13  C2  UNL     1      20.651  42.303  39.541  1.00  0.00     0.005 C 
HETATM   14  C1  UNL     1      19.451  41.951  40.425  1.00  0.00     0.012 C 
HETATM   15  C3  UNL     1      20.312  41.883  38.156  1.00  0.00     0.006 C 
HETATM   16  C4  UNL     1      21.456  41.270  37.389  1.00  0.00     0.000 C 
HETATM   17  C5  UNL     1      22.575  42.225  37.119  1.00  0.00     0.000 C 
HETATM   18  C6  UNL     1      23.015  43.006  38.324  1.00  0.00     0.002 C 
HETATM   19  C7  UNL     1      23.146  42.089  39.489  1.00  0.00     0.026 C 
ENDBRANCH   1  12
BRANCH   2  20
HETATM   20  N2  UNL     1      21.774  39.443  42.005  1.00  0.00    -0.379 N 
ATOM     21  H22 UNL     1      22.164  38.625  42.475  1.00  0.00     0.158 HD
ATOM     22  H21 UNL     1      21.241  39.055  41.227  1.00  0.00     0.158 HD
ENDBRANCH   2  20
BRANCH   5  23
HETATM   23  N3  UNL     1      22.501  44.134  45.427  1.00  0.00    -0.384 N 
ATOM     24  H32 UNL     1      21.690  43.922  46.008  1.00  0.00     0.157 HD
ATOM     25  H31 UNL     1      23.418  44.290  45.847  1.00  0.00     0.157 HD
ENDBRANCH   5  23
TORSDOF 3
ENDMDL
MODEL 3
REMARK VINA RESULT: -6.651926906      1.665      3.327
REMARK  3 active torsions:
REMARK  status: ('A' for Active; 'I' for Inactive)
REMARK    1  A    between atoms: C8_8  and  N1_9 
REMARK    2  A    between atoms: C9_10  and  N2_11 
REMARK    3  A    between atoms: C11_16  and  N3_17 
ROOT
HETATM    1  N1  UNL     1      21.819  41.858  41.922  1.00  0.00    -0.307 N 
HETATM    2  C9  UNL     1      21.470  40.652  42.334  1.00  0.00     0.147 A 
HETATM    3  S1  UNL     1      21.578  40.740  44.032  1.00  0.00    -0.047 SA
HETATM    4  C10 UNL     1      22.084  42.377  44.148  1.00  0.00     0.096 A 
HETATM    5  C11 UNL     1      22.395  43.231  45.222  1.00  0.00     0.121 A 
HETATM    6  N4  UNL     1      22.775  44.505  45.003  1.00  0.00    -0.338 N 
ATOM      7  H4  UNL     1      23.008  45.149  45.758  1.00  0.00     0.168 HD
HETATM    8  C12 UNL     1      22.822  44.861  43.698  1.00  0.00     0.183 A 
HETATM    9  N5  UNL     1      22.535  44.081  42.680  1.00  0.00    -0.337 N 
ATOM     10  H5  UNL     1      22.606  44.461  41.736  1.00  0.00     0.168 HD
HETATM   11  C13 UNL     1      22.140  42.763  42.840  1.00  0.00     0.132 A 
ENDROOT
BRANCH   1  12
HETATM   12  C8  UNL     1      21.848  42.174  40.475  1.00  0.00     0.097 C 
HETATM   13  C2  UNL     1      20.938  43.329  40.164  1.00  0.00     0.005 C 
HETATM   14  C1  UNL     1      19.584  43.084  40.838  1.00  0.00     0.012 C 
HETATM   15  C3  UNL     1      20.682  43.459  38.705  1.00  0.00     0.006 C 
HETATM   16  C4  UNL     1      21.719  42.806  37.827  1.00  0.00     0.000 C 
HETATM   17  C5  UNL     1      23.071  43.438  37.925  1.00  0.00     0.000 C 
HETATM   18  C6  UNL     1      23.539  43.662  39.335  1.00  0.00     0.002 C 
HETATM   19  C7  UNL     1      23.279  42.440  40.144  1.00  0.00     0.026 C 
ENDBRANCH   1  12
BRANCH   2  20
HETATM   20  N2  UNL     1      21.118  39.612  41.601  1.00  0.00    -0.379 N 
ATOM     21  H22 UNL     1      21.145  39.527  40.585  1.00  0.00     0.158 HD
ATOM     22  H21 UNL     1      20.757  38.712  41.919  1.00  0.00     0.158 HD
ENDBRANCH   2  20
BRANCH   5  23
HETATM   23  N3  UNL     1      22.303  42.744  46.402  1.00  0.00    -0.384 N 
ATOM     24  H32 UNL     1      21.406  42.479  46.808  1.00  0.00     0.157 HD
ATOM     25  H31 UNL     1      23.170  42.629  46.927  1.00  0.00     0.157 HD
ENDBRANCH   5  23
TORSDOF 3
ENDMDL
MODEL 4
REMARK VINA RESULT: -6.015672780      2.727      5.340
REMARK  3 active torsions:
REMARK  status: ('A' for Active; 'I' for Inactive)
REMARK    1  A    between atoms: C8_8  and  N1_9 
REMARK    2  A    between atoms: C9_10  and  N2_11 
REMARK    3  A    between atoms: C11_16  and  N3_17 
ROOT
HETATM    1  N1  UNL     1      22.349  42.586  39.720  1.00  0.00    -0.307 N 
HETATM    2  C9  UNL     1      23.246  43.460  39.301  1.00  0.00     0.147 A 
HETATM    3  S1  UNL     1      22.949  43.600  37.630  1.00  0.00    -0.047 SA
HETATM    4  C10 UNL     1      21.639  42.494  37.533  1.00  0.00     0.096 A 
HETATM    5  C11 UNL     1      20.819  42.037  36.485  1.00  0.00     0.121 A 
HETATM    6  N4  UNL     1      19.841  41.138  36.715  1.00  0.00    -0.338 N 
ATOM      7  H4  UNL     1      19.231  40.787  35.978  1.00  0.00     0.168 HD
HETATM    8  C12 UNL     1      19.736  40.740  38.004  1.00  0.00     0.183 A 
HETATM    9  N5  UNL     1      20.490  41.154  38.998  1.00  0.00    -0.337 N 
ATOM     10  H5  UNL     1      20.316  40.783  39.933  1.00  0.00     0.168 HD
HETATM   11  C13 UNL     1      21.510  42.075  38.825  1.00  0.00     0.132 A 
ENDROOT
BRANCH   1  12
HETATM   12  C8  UNL     1      22.293  42.198  41.149  1.00  0.00     0.097 C 
HETATM   13  C2  UNL     1      20.981  42.601  41.760  1.00  0.00     0.005 C 
HETATM   14  C1  UNL     1      20.687  44.055  41.379  1.00  0.00     0.012 C 
HETATM   15  C3  UNL     1      21.016  42.536  43.245  1.00  0.00     0.006 C 
HETATM   16  C4  UNL     1      22.087  41.638  43.808  1.00  0.00     0.000 C 
HETATM   17  C5  UNL     1      21.894  40.193  43.475  1.00  0.00     0.000 C 
HETATM   18  C6  UNL     1      21.601  39.934  42.025  1.00  0.00     0.002 C 
HETATM   19  C7  UNL     1      22.537  40.725  41.181  1.00  0.00     0.026 C 
ENDBRANCH   1  12
BRANCH   2  20
HETATM   20  N2  UNL     1      24.168  44.085  40.011  1.00  0.00    -0.379 N 
ATOM     21  H22 UNL     1      24.027  44.682  40.827  1.00  0.00     0.158 HD
ATOM     22  H21 UNL     1      25.178  44.084  39.871  1.00  0.00     0.158 HD
ENDBRANCH   2  20
BRANCH   5  23
HETATM   23  N3  UNL     1      21.046  42.509  35.318  1.00  0.00    -0.384 N 
ATOM     24  H32 UNL     1      21.420  43.448  35.178  1.00  0.00     0.157 HD
ATOM     25  H31 UNL     1      20.835  41.906  34.522  1.00  0.00     0.157 HD
ENDBRANCH   5  23
TORSDOF 3
ENDMDL
MODEL 5
REMARK VINA RESULT: -6.009131555      1.057      2.043
REMARK  3 active torsions:
REMARK  status: ('A' for Active; 'I' for Inactive)
REMARK    1  A    between atoms: C8_8  and  N1_9 
REMARK    2  A    between atoms: C9_10  and  N2_11 
REMARK    3  A    between atoms: C11_16  and  N3_17 
ROOT
HETATM    1  N1  UNL     1      22.007  43.216  41.995  1.00  0.00    -0.307 N 
HETATM    2  C9  UNL     1      22.394  44.415  42.390  1.00  0.00     0.147 A 
HETATM    3  S1  UNL     1      22.262  44.362  44.087  1.00  0.00    -0.047 SA
HETATM    4  C10 UNL     1      21.695  42.747  44.226  1.00  0.00     0.096 A 
HETATM    5  C11 UNL     1      21.339  41.924  45.310  1.00  0.00     0.121 A 
HETATM    6  N4  UNL     1      20.915  40.661  45.108  1.00  0.00    -0.338 N 
ATOM      7  H4  UNL     1      20.649  40.040  45.872  1.00  0.00     0.168 HD
HETATM    8  C12 UNL     1      20.872  40.284  43.809  1.00  0.00     0.183 A 
HETATM    9  N5  UNL     1      21.201  41.035  42.782  1.00  0.00    -0.337 N 
ATOM     10  H5  UNL     1      21.128  40.641  41.843  1.00  0.00     0.168 HD
HETATM   11  C13 UNL     1      21.641  42.340  42.924  1.00  0.00     0.132 A 
ENDROOT
BRANCH   1  12
HETATM   12  C8  UNL     1      21.985  42.875  40.553  1.00  0.00     0.097 C 
HETATM   13  C2  UNL     1      21.021  43.756  39.811  1.00  0.00     0.005 C 
HETATM   14  C1  UNL     1      19.697  43.793  40.580  1.00  0.00     0.012 C 
HETATM   15  C3  UNL     1      20.723  43.235  38.451  1.00  0.00     0.006 C 
HETATM   16  C4  UNL     1      21.763  42.293  37.900  1.00  0.00     0.000 C 
HETATM   17  C5  UNL     1      23.090  42.939  37.660  1.00  0.00     0.000 C 
HETATM   18  C6  UNL     1      23.584  43.764  38.814  1.00  0.00     0.002 C 
HETATM   19  C7  UNL     1      23.396  43.007  40.082  1.00  0.00     0.026 C 
ENDBRANCH   1  12
BRANCH   2  20
HETATM   20  N2  UNL     1      22.795  45.429  41.644  1.00  0.00    -0.379 N 
ATOM     21  H22 UNL     1      22.627  46.423  41.802  1.00  0.00     0.158 HD
ATOM     22  H21 UNL     1      23.339  45.399  40.782  1.00  0.00     0.158 HD
ENDBRANCH   2  20
BRANCH   5  23
HETATM   23  N3  UNL     1      21.434  42.430  46.482  1.00  0.00    -0.384 N 
ATOM     24  H32 UNL     1      21.106  43.373  46.693  1.00  0.00     0.157 HD
ATOM     25  H31 UNL     1      21.855  41.848  47.207  1.00  0.00     0.157 HD
ENDBRANCH   5  23
TORSDOF 3
ENDMDL
