MODEL 1
REMARK VINA RESULT: -8.101927025      0.000      0.000
REMARK  3 active torsions:
REMARK  status: ('A' for Active; 'I' for Inactive)
REMARK    1  A    between atoms: C2_2  and  C3_4 
REMARK    2  A    between atoms: C4_7  and  N2_8 
REMARK    3  A    between atoms: N4_16  and  C10_17 
ROOT
HETATM    1  C3  UNL     1      12.115  44.020  56.114  1.00  0.00     0.153 A 
HETATM    2  N1  UNL     1      11.591  43.655  54.942  1.00  0.00    -0.324 N 
ATOM      3  H1  UNL     1      11.788  44.218  54.115  1.00  0.00     0.169 HD
HETATM    4  C4  UNL     1      10.806  42.563  54.820  1.00  0.00     0.136 A 
HETATM    5  C9  UNL     1      10.537  41.797  55.947  1.00  0.00     0.120 A 
HETATM    6  N3  UNL     1       9.836  40.694  56.215  1.00  0.00    -0.293 N 
ATOM      7  H3  UNL     1       9.309  40.165  55.520  1.00  0.00     0.187 HD
HETATM    8  N4  UNL     1       9.911  40.370  57.504  1.00  0.00    -0.296 N 
HETATM    9  C16 UNL     1      10.687  41.288  58.106  1.00  0.00     0.142 A 
HETATM   10  C17 UNL     1      11.084  42.182  57.152  1.00  0.00     0.083 A 
HETATM   11  N5  UNL     1      11.851  43.270  57.211  1.00  0.00    -0.336 N 
ATOM     12  H5  UNL     1      12.251  43.547  58.108  1.00  0.00     0.168 HD
ENDROOT
BRANCH   8  13
HETATM   13  C10 UNL     1       9.271  39.232  58.139  1.00  0.00     0.107 C 
HETATM   14  C11 UNL     1       7.957  38.949  57.448  1.00  0.00     0.027 C 
HETATM   15  C12 UNL     1       7.219  37.803  58.088  1.00  0.00     0.002 C 
HETATM   16  C13 UNL     1       7.060  37.988  59.579  1.00  0.00     0.000 C 
HETATM   17  C14 UNL     1       8.392  38.245  60.204  1.00  0.00     0.002 C 
HETATM   18  C15 UNL     1       9.026  39.476  59.593  1.00  0.00     0.027 C 
ENDBRANCH   8  13
BRANCH   4  19
HETATM   19  N2  UNL     1      10.262  42.195  53.572  1.00  0.00    -0.365 N 
HETATM   20  C5  UNL     1      10.868  41.247  52.661  1.00  0.00     0.124 C 
HETATM   21  C6  UNL     1       9.959  41.220  51.439  1.00  0.00     0.021 C 
HETATM   22  C7  UNL     1       9.154  42.497  51.519  1.00  0.00     0.021 C 
HETATM   23  C8  UNL     1       9.030  42.701  53.016  1.00  0.00     0.124 C 
ENDBRANCH   4  19
BRANCH   1  24
HETATM   24  C2  UNL     1      12.962  45.186  56.287  1.00  0.00     0.189 C 
HETATM   25  C1  UNL     1      13.494  45.957  55.147  1.00  0.00     0.100 C 
HETATM   26  O1  UNL     1      13.249  45.546  57.451  1.00  0.00    -0.290 OA
ENDBRANCH   1  24
TORSDOF 3
ENDMDL
MODEL 2
REMARK VINA RESULT: -7.931843879      0.742      1.184
REMARK  3 active torsions:
REMARK  status: ('A' for Active; 'I' for Inactive)
REMARK    1  A    between atoms: C2_2  and  C3_4 
REMARK    2  A    between atoms: C4_7  and  N2_8 
REMARK    3  A    between atoms: N4_16  and  C10_17 
ROOT
HETATM    1  C3  UNL     1      12.360  44.299  55.869  1.00  0.00     0.153 A 
HETATM    2  N1  UNL     1      12.152  43.705  54.692  1.00  0.00    -0.324 N 
ATOM      3  H1  UNL     1      12.461  44.172  53.840  1.00  0.00     0.169 HD
HETATM    4  C4  UNL     1      11.543  42.503  54.597  1.00  0.00     0.136 A 
HETATM    5  C9  UNL     1      11.122  41.867  55.757  1.00  0.00     0.120 A 
HETATM    6  N3  UNL     1      10.509  40.720  56.057  1.00  0.00    -0.293 N 
ATOM      7  H3  UNL     1      10.212  40.030  55.367  1.00  0.00     0.187 HD
HETATM    8  N4  UNL     1      10.334  40.590  57.370  1.00  0.00    -0.296 N 
HETATM    9  C16 UNL     1      10.848  41.686  57.956  1.00  0.00     0.142 A 
HETATM   10  C17 UNL     1      11.342  42.489  56.967  1.00  0.00     0.083 A 
HETATM   11  N5  UNL     1      11.948  43.676  56.999  1.00  0.00    -0.336 N 
ATOM     12  H5  UNL     1      12.105  44.127  57.900  1.00  0.00     0.168 HD
ENDROOT
BRANCH   8  13
HETATM   13  C10 UNL     1       9.703  39.469  58.042  1.00  0.00     0.107 C 
HETATM   14  C11 UNL     1       8.331  39.241  57.453  1.00  0.00     0.027 C 
HETATM   15  C12 UNL     1       7.602  38.115  58.138  1.00  0.00     0.002 C 
HETATM   16  C13 UNL     1       7.565  38.287  59.638  1.00  0.00     0.000 C 
HETATM   17  C14 UNL     1       8.951  38.489  60.160  1.00  0.00     0.002 C 
HETATM   18  C15 UNL     1       9.580  39.704  59.513  1.00  0.00     0.027 C 
ENDBRANCH   8  13
BRANCH   4  19
HETATM   19  N2  UNL     1      11.333  41.892  53.343  1.00  0.00    -0.365 N 
HETATM   20  C5  UNL     1      10.066  41.869  52.645  1.00  0.00     0.124 C 
HETATM   21  C6  UNL     1      10.314  41.060  51.379  1.00  0.00     0.021 C 
HETATM   22  C7  UNL     1      11.571  40.269  51.658  1.00  0.00     0.021 C 
HETATM   23  C8  UNL     1      12.339  41.205  52.570  1.00  0.00     0.124 C 
ENDBRANCH   4  19
BRANCH   1  24
HETATM   24  C2  UNL     1      13.010  45.589  56.014  1.00  0.00     0.189 C 
HETATM   25  C1  UNL     1      13.554  46.337  54.865  1.00  0.00     0.100 C 
HETATM   26  O1  UNL     1      13.108  46.080  57.162  1.00  0.00    -0.290 OA
ENDBRANCH   1  24
TORSDOF 3
ENDMDL
MODEL 3
REMARK VINA RESULT: -7.914337388      1.181      1.826
REMARK  3 active torsions:
REMARK  status: ('A' for Active; 'I' for Inactive)
REMARK    1  A    between atoms: C2_2  and  C3_4 
REMARK    2  A    between atoms: C4_7  and  N2_8 
REMARK    3  A    between atoms: N4_16  and  C10_17 
ROOT
HETATM    1  C3  UNL     1      12.350  43.337  56.837  1.00  0.00     0.153 A 
HETATM    2  N1  UNL     1      11.790  42.874  55.718  1.00  0.00    -0.324 N 
ATOM      3  H1  UNL     1      12.123  43.219  54.818  1.00  0.00     0.169 HD
HETATM    4  C4  UNL     1      10.793  41.963  55.742  1.00  0.00     0.136 A 
HETATM    5  C9  UNL     1      10.338  41.494  56.967  1.00  0.00     0.120 A 
HETATM    6  N3  UNL     1       9.411  40.629  57.382  1.00  0.00    -0.293 N 
ATOM      7  H3  UNL     1       8.801  40.099  56.759  1.00  0.00     0.187 HD
HETATM    8  N4  UNL     1       9.382  40.544  58.709  1.00  0.00    -0.296 N 
HETATM    9  C16 UNL     1      10.320  41.380  59.187  1.00  0.00     0.142 A 
HETATM   10  C17 UNL     1      10.924  41.978  58.117  1.00  0.00     0.083 A 
HETATM   11  N5  UNL     1      11.904  42.877  58.030  1.00  0.00    -0.336 N 
ATOM     12  H5  UNL     1      12.330  43.229  58.888  1.00  0.00     0.168 HD
ENDROOT
BRANCH   8  13
HETATM   13  C10 UNL     1       8.497  39.702  59.495  1.00  0.00     0.107 C 
HETATM   14  C11 UNL     1       9.324  38.757  60.334  1.00  0.00     0.027 C 
HETATM   15  C12 UNL     1       8.464  37.822  61.144  1.00  0.00     0.002 C 
HETATM   16  C13 UNL     1       7.448  37.100  60.292  1.00  0.00     0.000 C 
HETATM   17  C14 UNL     1       6.652  38.089  59.503  1.00  0.00     0.002 C 
HETATM   18  C15 UNL     1       7.569  38.916  58.628  1.00  0.00     0.027 C 
ENDBRANCH   8  13
BRANCH   4  19
HETATM   19  N2  UNL     1      10.215  41.487  54.546  1.00  0.00    -0.365 N 
HETATM   20  C5  UNL     1       9.248  42.218  53.756  1.00  0.00     0.124 C 
HETATM   21  C6  UNL     1       8.877  41.291  52.606  1.00  0.00     0.021 C 
HETATM   22  C7  UNL     1       9.288  39.910  53.067  1.00  0.00     0.021 C 
HETATM   23  C8  UNL     1      10.496  40.211  53.933  1.00  0.00     0.124 C 
ENDBRANCH   4  19
BRANCH   1  24
HETATM   24  C2  UNL     1      13.422  44.315  56.854  1.00  0.00     0.189 C 
HETATM   25  C1  UNL     1      14.609  44.208  55.984  1.00  0.00     0.100 C 
HETATM   26  O1  UNL     1      13.330  45.286  57.640  1.00  0.00    -0.290 OA
ENDBRANCH   1  24
TORSDOF 3
ENDMDL
MODEL 4
REMARK VINA RESULT: -7.889054400      1.358      1.803
REMARK  3 active torsions:
REMARK  status: ('A' for Active; 'I' for Inactive)
REMARK    1  A    between atoms: C2_2  and  C3_4 
REMARK    2  A    between atoms: C4_7  and  N2_8 
REMARK    3  A    between atoms: N4_16  and  C10_17 
ROOT
HETATM    1  C3  UNL     1      12.480  43.259  57.218  1.00  0.00     0.153 A 
HETATM    2  N1  UNL     1      11.729  43.130  56.123  1.00  0.00    -0.324 N 
ATOM      3  H1  UNL     1      12.007  43.618  55.272  1.00  0.00     0.169 HD
HETATM    4  C4  UNL     1      10.611  42.372  56.109  1.00  0.00     0.136 A 
HETATM    5  C9  UNL     1      10.233  41.707  57.268  1.00  0.00     0.120 A 
HETATM    6  N3  UNL     1       9.235  40.899  57.631  1.00  0.00    -0.293 N 
ATOM      7  H3  UNL     1       8.482  40.602  57.011  1.00  0.00     0.187 HD
HETATM    8  N4  UNL     1       9.347  40.529  58.904  1.00  0.00    -0.296 N 
HETATM    9  C16 UNL     1      10.454  41.111  59.398  1.00  0.00     0.142 A 
HETATM   10  C17 UNL     1      11.016  41.847  58.393  1.00  0.00     0.083 A 
HETATM   11  N5  UNL     1      12.109  42.609  58.347  1.00  0.00    -0.336 N 
ATOM     12  H5  UNL     1      12.681  42.705  59.186  1.00  0.00     0.168 HD
ENDROOT
BRANCH   8  13
HETATM   13  C10 UNL     1       8.438  39.656  59.625  1.00  0.00     0.107 C 
HETATM   14  C11 UNL     1       9.238  38.656  60.428  1.00  0.00     0.027 C 
HETATM   15  C12 UNL     1       8.352  37.689  61.168  1.00  0.00     0.002 C 
HETATM   16  C13 UNL     1       7.345  37.026  60.258  1.00  0.00     0.000 C 
HETATM   17  C14 UNL     1       6.577  38.065  59.508  1.00  0.00     0.002 C 
HETATM   18  C15 UNL     1       7.520  38.927  58.698  1.00  0.00     0.027 C 
ENDBRANCH   8  13
BRANCH   4  19
HETATM   19  N2  UNL     1       9.832  42.249  54.939  1.00  0.00    -0.365 N 
HETATM   20  C5  UNL     1       9.458  40.989  54.332  1.00  0.00     0.124 C 
HETATM   21  C6  UNL     1       8.678  41.359  53.078  1.00  0.00     0.021 C 
HETATM   22  C7  UNL     1       9.058  42.793  52.786  1.00  0.00     0.021 C 
HETATM   23  C8  UNL     1       9.292  43.348  54.177  1.00  0.00     0.124 C 
ENDBRANCH   4  19
BRANCH   1  24
HETATM   24  C2  UNL     1      13.687  44.063  57.275  1.00  0.00     0.189 C 
HETATM   25  C1  UNL     1      14.475  44.399  56.073  1.00  0.00     0.100 C 
HETATM   26  O1  UNL     1      14.070  44.485  58.390  1.00  0.00    -0.290 OA
ENDBRANCH   1  24
TORSDOF 3
ENDMDL
MODEL 5
REMARK VINA RESULT: -7.871818605      1.346      1.947
REMARK  3 active torsions:
REMARK  status: ('A' for Active; 'I' for Inactive)
REMARK    1  A    between atoms: C2_2  and  C3_4 
REMARK    2  A    between atoms: C4_7  and  N2_8 
REMARK    3  A    between atoms: N4_16  and  C10_17 
ROOT
HETATM    1  C3  UNL     1      12.773  43.974  56.353  1.00  0.00     0.153 A 
HETATM    2  N1  UNL     1      11.868  43.655  55.426  1.00  0.00    -0.324 N 
ATOM      3  H1  UNL     1      11.950  44.061  54.494  1.00  0.00     0.169 HD
HETATM    4  C4  UNL     1      10.846  42.810  55.685  1.00  0.00     0.136 A 
HETATM    5  C9  UNL     1      10.734  42.258  56.954  1.00  0.00     0.120 A 
HETATM    6  N3  UNL     1       9.898  41.418  57.567  1.00  0.00    -0.293 N 
ATOM      7  H3  UNL     1       9.086  40.989  57.122  1.00  0.00     0.187 HD
HETATM    8  N4  UNL     1      10.256  41.211  58.832  1.00  0.00    -0.296 N 
HETATM    9  C16 UNL     1      11.364  41.937  59.062  1.00  0.00     0.142 A 
HETATM   10  C17 UNL     1      11.674  42.594  57.904  1.00  0.00     0.083 A 
HETATM   11  N5  UNL     1      12.661  43.433  57.590  1.00  0.00    -0.336 N 
ATOM     12  H5  UNL     1      13.351  43.675  58.301  1.00  0.00     0.168 HD
ENDROOT
BRANCH   8  13
HETATM   13  C10 UNL     1       9.572  40.357  59.786  1.00  0.00     0.107 C 
HETATM   14  C11 UNL     1      10.514  40.019  60.918  1.00  0.00     0.027 C 
HETATM   15  C12 UNL     1       9.879  39.096  61.924  1.00  0.00     0.002 C 
HETATM   16  C13 UNL     1       9.288  37.866  61.278  1.00  0.00     0.000 C 
HETATM   17  C14 UNL     1       8.354  38.267  60.183  1.00  0.00     0.002 C 
HETATM   18  C15 UNL     1       9.086  39.095  59.150  1.00  0.00     0.027 C 
ENDBRANCH   8  13
BRANCH   4  19
HETATM   19  N2  UNL     1       9.900  42.487  54.689  1.00  0.00    -0.365 N 
HETATM   20  C5  UNL     1       9.522  41.137  54.327  1.00  0.00     0.124 C 
HETATM   21  C6  UNL     1       8.528  41.288  53.183  1.00  0.00     0.021 C 
HETATM   22  C7  UNL     1       8.759  42.681  52.643  1.00  0.00     0.021 C 
HETATM   23  C8  UNL     1       9.172  43.440  53.888  1.00  0.00     0.124 C 
ENDBRANCH   4  19
BRANCH   1  24
HETATM   24  C2  UNL     1      13.884  44.876  56.115  1.00  0.00     0.189 C 
HETATM   25  C1  UNL     1      13.719  46.177  55.438  1.00  0.00     0.100 C 
HETATM   26  O1  UNL     1      15.024  44.532  56.501  1.00  0.00    -0.290 OA
ENDBRANCH   1  24
TORSDOF 3
ENDMDL
