MODEL 1
REMARK VINA RESULT: -7.284160546      0.000      0.000
REMARK  10 active torsions:
REMARK  status: ('A' for Active; 'I' for Inactive)
REMARK       I    between atoms: N1_1  and  C1_4 
REMARK       I    between atoms: C1_4  and  N2_5 
REMARK       I    between atoms: C1_4  and  N7_16 
REMARK    1  A    between atoms: N2_5  and  C2_7 
REMARK    2  A    between atoms: N7_16  and  C3_18 
REMARK    3  A    between atoms: C6_23  and  C7_24 
REMARK    4  A    between atoms: C7_24  and  N9_25 
REMARK    5  A    between atoms: C9_29  and  C10_30 
REMARK    6  A    between atoms: N12_34  and  C12_36 
REMARK    7  A    between atoms: C12_36  and  C13_37 
REMARK    8  A    between atoms: C13_37  and  O1_38 
REMARK    9  A    between atoms: C13_37  and  C14_40 
REMARK   10  A    between atoms: C14_40  and  O2_41 
ROOT
HETATM    1  C3  UNL     1      25.810  -3.634  11.695  1.00  0.00     0.065 A 
HETATM    2  C4  UNL     1      26.668  -2.569  11.442  1.00  0.00     0.117 A 
HETATM    3  N8  UNL     1      27.997  -2.746  11.455  1.00  0.00    -0.372 N 
ATOM      4  H8  UNL     1      28.624  -1.964  11.269  1.00  0.00     0.164 HD
HETATM    5  C5  UNL     1      28.491  -3.970  11.717  1.00  0.00     0.096 A 
HETATM    6  C6  UNL     1      27.678  -5.050  11.972  1.00  0.00    -0.021 A 
HETATM    7  C15 UNL     1      26.315  -4.883  11.962  1.00  0.00     0.041 A 
ENDROOT
BRANCH   6   8
HETATM    8  C7  UNL     1      28.264  -6.383  12.255  1.00  0.00     0.189 C 
BRANCH   8   9
HETATM    9  N9  UNL     1      28.382  -7.183  11.049  1.00  0.00    -0.282 N 
HETATM   10  C8  UNL     1      28.726  -6.842   9.810  1.00  0.00     0.202 A 
HETATM   11  N10 UNL     1      28.689  -7.949   9.037  1.00  0.00    -0.333 N 
HETATM   12  C9  UNL     1      28.321  -8.983   9.801  1.00  0.00     0.168 A 
ATOM     13  H10 UNL     1      28.905  -7.990   8.041  1.00  0.00     0.168 HD
HETATM   14  N14 UNL     1      28.139  -8.487  11.030  1.00  0.00    -0.279 N 
ATOM     15  H14 UNL     1      27.854  -9.035  11.841  1.00  0.00     0.189 HD
BRANCH  12  16
HETATM   16  C10 UNL     1      28.147 -10.371   9.403  1.00  0.00     0.175 A 
HETATM   17  N11 UNL     1      28.823 -11.052   8.463  1.00  0.00    -0.302 N 
HETATM   18  C11 UNL     1      28.358 -12.310   8.402  1.00  0.00     0.244 A 
ATOM     19  H11 UNL     1      29.573 -10.673   7.884  1.00  0.00     0.171 HD
HETATM   20  N12 UNL     1      28.719 -13.286   7.648  1.00  0.00    -0.352 N 
HETATM   21  O3  UNL     1      27.408 -12.392   9.298  1.00  0.00    -0.199 OA
ATOM     22  H12 UNL     1      28.259 -14.193   7.727  1.00  0.00     0.163 HD
HETATM   23  N13 UNL     1      27.266 -11.248   9.905  1.00  0.00    -0.238 N 
ATOM     24  H13 UNL     1      26.592 -11.051  10.645  1.00  0.00     0.197 HD
BRANCH  20  25
HETATM   25  C12 UNL     1      29.771 -13.091   6.699  1.00  0.00     0.157 C 
BRANCH  25  26
HETATM   26  C13 UNL     1      31.031 -13.849   7.058  1.00  0.00     0.159 C 
BRANCH  26  27
HETATM   27  O1  UNL     1      32.183 -13.116   6.798  1.00  0.00    -0.392 OA
ATOM     28  H1  UNL     1      32.760 -13.068   7.551  1.00  0.00     0.210 HD
ENDBRANCH  26  27
BRANCH  26  29
HETATM   29  C14 UNL     1      31.102 -15.147   6.243  1.00  0.00     0.197 C 
BRANCH  29  30
HETATM   30  O2  UNL     1      29.922 -15.862   6.407  1.00  0.00    -0.398 OA
ATOM     31  H2  UNL     1      29.993 -16.696   5.959  1.00  0.00     0.209 HD
ENDBRANCH  29  30
ENDBRANCH  26  29
ENDBRANCH  25  26
ENDBRANCH  20  25
ENDBRANCH  12  16
ENDBRANCH   8   9
ENDBRANCH   6   8
BRANCH   1  32
HETATM   32  N7  UNL     1      24.413  -3.372  11.664  1.00  0.00    -0.190 N 
HETATM   33  C1  UNL     1      23.568  -3.914  10.669  1.00  0.00     0.691 C 
HETATM   34  N1  UNL     1      23.445  -3.302   9.538  1.00  0.00    -0.234 N 
HETATM   35  N2  UNL     1      22.852  -5.135  10.912  1.00  0.00    -0.020 N 
ATOM     36  H12 UNL     1      22.836  -3.693   8.821  1.00  0.00     0.174 HD
ATOM     37  H11 UNL     1      23.954  -2.435   9.366  1.00  0.00     0.174 HD
ATOM     38  H2  UNL     1      22.467  -5.321  11.839  1.00  0.00     0.203 HD
ATOM     39  H7  UNL     1      24.007  -2.773  12.383  1.00  0.00     0.184 HD
BRANCH  35  40
HETATM   40  C2  UNL     1      22.691  -5.999   9.966  1.00  0.00     0.728 A 
HETATM   41  N3  UNL     1      21.710  -6.055   9.036  1.00  0.00    -0.115 N 
HETATM   42  N4  UNL     1      21.971  -7.117   8.285  1.00  0.00    -0.213 N 
ATOM     43  H3  UNL     1      20.926  -5.411   8.933  1.00  0.00     0.207 HD
HETATM   44  N5  UNL     1      23.062  -7.695   8.724  1.00  0.00    -0.213 N 
ATOM     45  H4  UNL     1      21.413  -7.433   7.491  1.00  0.00     0.210 HD
HETATM   46  N6  UNL     1      23.526  -7.030   9.756  1.00  0.00    -0.115 N 
ATOM     47  H5  UNL     1      23.485  -8.533   8.325  1.00  0.00     0.210 HD
ATOM     48  H6  UNL     1      24.362  -7.254  10.296  1.00  0.00     0.207 HD
ENDBRANCH  35  40
ENDBRANCH   1  32
TORSDOF 10
ENDMDL
MODEL 2
REMARK VINA RESULT: -7.267030717      3.562      9.779
REMARK  10 active torsions:
REMARK  status: ('A' for Active; 'I' for Inactive)
REMARK       I    between atoms: N1_1  and  C1_4 
REMARK       I    between atoms: C1_4  and  N2_5 
REMARK       I    between atoms: C1_4  and  N7_16 
REMARK    1  A    between atoms: N2_5  and  C2_7 
REMARK    2  A    between atoms: N7_16  and  C3_18 
REMARK    3  A    between atoms: C6_23  and  C7_24 
REMARK    4  A    between atoms: C7_24  and  N9_25 
REMARK    5  A    between atoms: C9_29  and  C10_30 
REMARK    6  A    between atoms: N12_34  and  C12_36 
REMARK    7  A    between atoms: C12_36  and  C13_37 
REMARK    8  A    between atoms: C13_37  and  O1_38 
REMARK    9  A    between atoms: C13_37  and  C14_40 
REMARK   10  A    between atoms: C14_40  and  O2_41 
ROOT
HETATM    1  C3  UNL     1      30.479 -11.296   9.296  1.00  0.00     0.065 A 
HETATM    2  C4  UNL     1      29.324 -11.757   8.671  1.00  0.00     0.117 A 
HETATM    3  N8  UNL     1      28.117 -11.507   9.198  1.00  0.00    -0.372 N 
ATOM      4  H8  UNL     1      27.272 -11.845   8.739  1.00  0.00     0.164 HD
HETATM    5  C5  UNL     1      28.037 -10.803  10.343  1.00  0.00     0.096 A 
HETATM    6  C6  UNL     1      29.154 -10.329  10.993  1.00  0.00    -0.021 A 
HETATM    7  C15 UNL     1      30.396 -10.578  10.463  1.00  0.00     0.041 A 
ENDROOT
BRANCH   6   8
HETATM    8  C7  UNL     1      29.021  -9.557  12.252  1.00  0.00     0.189 C 
BRANCH   8   9
HETATM    9  N9  UNL     1      29.035  -8.125  12.006  1.00  0.00    -0.282 N 
HETATM   10  C8  UNL     1      30.006  -7.228  12.153  1.00  0.00     0.202 A 
HETATM   11  N10 UNL     1      29.527  -6.019  11.791  1.00  0.00    -0.333 N 
HETATM   12  C9  UNL     1      28.251  -6.166  11.416  1.00  0.00     0.168 A 
ATOM     13  H10 UNL     1      30.048  -5.142  11.801  1.00  0.00     0.168 HD
HETATM   14  N14 UNL     1      27.975  -7.467  11.557  1.00  0.00    -0.279 N 
ATOM     15  H14 UNL     1      27.073  -7.895  11.348  1.00  0.00     0.189 HD
BRANCH  12  16
HETATM   16  C10 UNL     1      27.333  -5.140  10.948  1.00  0.00     0.175 A 
HETATM   17  N11 UNL     1      25.993  -5.129  11.035  1.00  0.00    -0.302 N 
HETATM   18  C11 UNL     1      25.518  -4.002  10.483  1.00  0.00     0.244 A 
ATOM     19  H11 UNL     1      25.423  -5.864  11.455  1.00  0.00     0.171 HD
HETATM   20  N12 UNL     1      24.307  -3.593  10.354  1.00  0.00    -0.352 N 
HETATM   21  O3  UNL     1      26.562  -3.332  10.065  1.00  0.00    -0.199 OA
ATOM     22  H12 UNL     1      24.111  -2.699   9.905  1.00  0.00     0.163 HD
HETATM   23  N13 UNL     1      27.653  -3.993  10.332  1.00  0.00    -0.238 N 
ATOM     24  H13 UNL     1      28.600  -3.687  10.108  1.00  0.00     0.197 HD
BRANCH  20  25
HETATM   25  C12 UNL     1      23.236  -4.402  10.847  1.00  0.00     0.157 C 
BRANCH  25  26
HETATM   26  C13 UNL     1      22.470  -5.096   9.742  1.00  0.00     0.159 C 
BRANCH  26  27
HETATM   27  O1  UNL     1      21.097  -4.900   9.843  1.00  0.00    -0.392 OA
ATOM     28  H1  UNL     1      20.839  -4.018   9.603  1.00  0.00     0.210 HD
ENDBRANCH  26  27
BRANCH  26  29
HETATM   29  C14 UNL     1      22.738  -6.606   9.798  1.00  0.00     0.197 C 
BRANCH  29  30
HETATM   30  O2  UNL     1      24.097  -6.841   9.637  1.00  0.00    -0.398 OA
ATOM     31  H2  UNL     1      24.324  -7.672  10.038  1.00  0.00     0.209 HD
ENDBRANCH  29  30
ENDBRANCH  26  29
ENDBRANCH  25  26
ENDBRANCH  20  25
ENDBRANCH  12  16
ENDBRANCH   8   9
ENDBRANCH   6   8
BRANCH   1  32
HETATM   32  N7  UNL     1      31.723 -11.599   8.678  1.00  0.00    -0.190 N 
HETATM   33  C1  UNL     1      32.038 -12.898   8.218  1.00  0.00     0.691 C 
HETATM   34  N1  UNL     1      32.532 -13.761   9.043  1.00  0.00    -0.234 N 
HETATM   35  N2  UNL     1      31.810 -13.256   6.846  1.00  0.00    -0.020 N 
ATOM     36  H12 UNL     1      32.759 -14.697   8.711  1.00  0.00     0.174 HD
ATOM     37  H11 UNL     1      32.694 -13.506  10.017  1.00  0.00     0.174 HD
ATOM     38  H2  UNL     1      31.981 -12.571   6.109  1.00  0.00     0.203 HD
ATOM     39  H7  UNL     1      32.411 -10.855   8.564  1.00  0.00     0.184 HD
BRANCH  35  40
HETATM   40  C2  UNL     1      31.392 -14.439   6.539  1.00  0.00     0.728 A 
HETATM   41  N3  UNL     1      32.084 -15.456   5.975  1.00  0.00    -0.115 N 
HETATM   42  N4  UNL     1      31.231 -16.464   5.855  1.00  0.00    -0.213 N 
ATOM     43  H3  UNL     1      33.066 -15.449   5.698  1.00  0.00     0.207 HD
HETATM   44  N5  UNL     1      30.064 -16.094   6.321  1.00  0.00    -0.213 N 
ATOM     45  H4  UNL     1      31.448 -17.380   5.463  1.00  0.00     0.210 HD
HETATM   46  N6  UNL     1      30.133 -14.856   6.749  1.00  0.00    -0.115 N 
ATOM     47  H5  UNL     1      29.229 -16.680   6.348  1.00  0.00     0.210 HD
ATOM     48  H6  UNL     1      29.374 -14.312   7.161  1.00  0.00     0.207 HD
ENDBRANCH  35  40
ENDBRANCH   1  32
TORSDOF 10
ENDMDL
MODEL 3
REMARK VINA RESULT: -7.210702491      1.757      2.755
REMARK  10 active torsions:
REMARK  status: ('A' for Active; 'I' for Inactive)
REMARK       I    between atoms: N1_1  and  C1_4 
REMARK       I    between atoms: C1_4  and  N2_5 
REMARK       I    between atoms: C1_4  and  N7_16 
REMARK    1  A    between atoms: N2_5  and  C2_7 
REMARK    2  A    between atoms: N7_16  and  C3_18 
REMARK    3  A    between atoms: C6_23  and  C7_24 
REMARK    4  A    between atoms: C7_24  and  N9_25 
REMARK    5  A    between atoms: C9_29  and  C10_30 
REMARK    6  A    between atoms: N12_34  and  C12_36 
REMARK    7  A    between atoms: C12_36  and  C13_37 
REMARK    8  A    between atoms: C13_37  and  O1_38 
REMARK    9  A    between atoms: C13_37  and  C14_40 
REMARK   10  A    between atoms: C14_40  and  O2_41 
ROOT
HETATM    1  C3  UNL     1      25.191  -2.635  12.218  1.00  0.00     0.065 A 
HETATM    2  C4  UNL     1      26.119  -1.730  11.713  1.00  0.00     0.117 A 
HETATM    3  N8  UNL     1      27.390  -1.745  12.142  1.00  0.00    -0.372 N 
ATOM      4  H8  UNL     1      28.068  -1.081  11.770  1.00  0.00     0.164 HD
HETATM    5  C5  UNL     1      27.756  -2.649  13.069  1.00  0.00     0.096 A 
HETATM    6  C6  UNL     1      26.871  -3.562  13.594  1.00  0.00    -0.021 A 
HETATM    7  C15 UNL     1      25.567  -3.557  13.164  1.00  0.00     0.041 A 
ENDROOT
BRANCH   6   8
HETATM    8  C7  UNL     1      27.317  -4.542  14.614  1.00  0.00     0.189 C 
BRANCH   8   9
HETATM    9  N9  UNL     1      27.621  -5.832  14.020  1.00  0.00    -0.282 N 
HETATM   10  C8  UNL     1      27.977  -6.985  14.580  1.00  0.00     0.202 A 
HETATM   11  N10 UNL     1      28.149  -7.899  13.601  1.00  0.00    -0.333 N 
HETATM   12  C9  UNL     1      27.897  -7.311  12.427  1.00  0.00     0.168 A 
ATOM     13  H10 UNL     1      28.424  -8.873  13.735  1.00  0.00     0.168 HD
HETATM   14  N14 UNL     1      27.576  -6.044  12.712  1.00  0.00    -0.279 N 
ATOM     15  H14 UNL     1      27.329  -5.338  12.018  1.00  0.00     0.189 HD
BRANCH  12  16
HETATM   16  C10 UNL     1      27.954  -7.904  11.100  1.00  0.00     0.175 A 
HETATM   17  N11 UNL     1      28.568  -9.039  10.727  1.00  0.00    -0.302 N 
HETATM   18  C11 UNL     1      28.383  -9.236   9.413  1.00  0.00     0.244 A 
ATOM     19  H11 UNL     1      29.094  -9.656  11.347  1.00  0.00     0.171 HD
HETATM   20  N12 UNL     1      28.796 -10.189   8.656  1.00  0.00    -0.352 N 
HETATM   21  O3  UNL     1      27.661  -8.229   8.990  1.00  0.00    -0.199 OA
ATOM     22  H12 UNL     1      28.566 -10.193   7.663  1.00  0.00     0.163 HD
HETATM   23  N13 UNL     1      27.395  -7.424   9.979  1.00  0.00    -0.238 N 
ATOM     24  H13 UNL     1      26.848  -6.566   9.912  1.00  0.00     0.197 HD
BRANCH  20  25
HETATM   25  C12 UNL     1      29.580 -11.244   9.218  1.00  0.00     0.157 C 
BRANCH  25  26
HETATM   26  C13 UNL     1      29.593 -12.487   8.355  1.00  0.00     0.159 C 
BRANCH  26  27
HETATM   27  O1  UNL     1      30.624 -12.474   7.423  1.00  0.00    -0.392 OA
ATOM     28  H1  UNL     1      30.309 -12.345   6.536  1.00  0.00     0.210 HD
ENDBRANCH  26  27
BRANCH  26  29
HETATM   29  C14 UNL     1      28.267 -12.599   7.591  1.00  0.00     0.197 C 
BRANCH  29  30
HETATM   30  O2  UNL     1      28.395 -11.990   6.350  1.00  0.00    -0.398 OA
ATOM     31  H2  UNL     1      27.541 -11.704   6.048  1.00  0.00     0.209 HD
ENDBRANCH  29  30
ENDBRANCH  26  29
ENDBRANCH  25  26
ENDBRANCH  20  25
ENDBRANCH  12  16
ENDBRANCH   8   9
ENDBRANCH   6   8
BRANCH   1  32
HETATM   32  N7  UNL     1      23.864  -2.561  11.717  1.00  0.00    -0.190 N 
HETATM   33  C1  UNL     1      23.410  -3.386  10.664  1.00  0.00     0.691 C 
HETATM   34  N1  UNL     1      23.615  -3.023   9.441  1.00  0.00    -0.234 N 
HETATM   35  N2  UNL     1      22.727  -4.616  10.948  1.00  0.00    -0.020 N 
ATOM     36  H12 UNL     1      23.288  -3.619   8.680  1.00  0.00     0.174 HD
ATOM     37  H11 UNL     1      24.100  -2.149   9.239  1.00  0.00     0.174 HD
ATOM     38  H2  UNL     1      22.081  -4.667  11.736  1.00  0.00     0.203 HD
ATOM     39  H7  UNL     1      23.217  -1.890  12.132  1.00  0.00     0.184 HD
BRANCH  35  40
HETATM   40  C2  UNL     1      22.925  -5.660  10.213  1.00  0.00     0.728 A 
HETATM   41  N3  UNL     1      24.002  -6.479  10.186  1.00  0.00    -0.115 N 
HETATM   42  N4  UNL     1      23.742  -7.405   9.273  1.00  0.00    -0.213 N 
ATOM     43  H3  UNL     1      24.845  -6.400  10.755  1.00  0.00     0.207 HD
HETATM   44  N5  UNL     1      22.561  -7.176   8.756  1.00  0.00    -0.213 N 
ATOM     45  H4  UNL     1      24.361  -8.173   9.016  1.00  0.00     0.210 HD
HETATM   46  N6  UNL     1      22.035  -6.111   9.313  1.00  0.00    -0.115 N 
ATOM     47  H5  UNL     1      22.117  -7.739   8.030  1.00  0.00     0.210 HD
ATOM     48  H6  UNL     1      21.124  -5.702   9.104  1.00  0.00     0.207 HD
ENDBRANCH  35  40
ENDBRANCH   1  32
TORSDOF 10
ENDMDL
MODEL 4
REMARK VINA RESULT: -7.206694493      8.525     10.262
REMARK  10 active torsions:
REMARK  status: ('A' for Active; 'I' for Inactive)
REMARK       I    between atoms: N1_1  and  C1_4 
REMARK       I    between atoms: C1_4  and  N2_5 
REMARK       I    between atoms: C1_4  and  N7_16 
REMARK    1  A    between atoms: N2_5  and  C2_7 
REMARK    2  A    between atoms: N7_16  and  C3_18 
REMARK    3  A    between atoms: C6_23  and  C7_24 
REMARK    4  A    between atoms: C7_24  and  N9_25 
REMARK    5  A    between atoms: C9_29  and  C10_30 
REMARK    6  A    between atoms: N12_34  and  C12_36 
REMARK    7  A    between atoms: C12_36  and  C13_37 
REMARK    8  A    between atoms: C13_37  and  O1_38 
REMARK    9  A    between atoms: C13_37  and  C14_40 
REMARK   10  A    between atoms: C14_40  and  O2_41 
ROOT
HETATM    1  C3  UNL     1      30.984   0.318   7.786  1.00  0.00     0.065 A 
HETATM    2  C4  UNL     1      30.995   1.352   8.717  1.00  0.00     0.117 A 
HETATM    3  N8  UNL     1      30.987   2.631   8.314  1.00  0.00    -0.372 N 
ATOM      4  H8  UNL     1      30.995   3.388   8.997  1.00  0.00     0.164 HD
HETATM    5  C5  UNL     1      30.969   2.902   6.996  1.00  0.00     0.096 A 
HETATM    6  C6  UNL     1      30.958   1.909   6.043  1.00  0.00    -0.021 A 
HETATM    7  C15 UNL     1      30.966   0.595   6.441  1.00  0.00     0.041 A 
ENDROOT
BRANCH   6   8
HETATM    8  C7  UNL     1      30.938   2.252   4.600  1.00  0.00     0.189 C 
BRANCH   8   9
HETATM    9  N9  UNL     1      31.853   1.419   3.839  1.00  0.00    -0.282 N 
HETATM   10  C8  UNL     1      33.182   1.406   3.793  1.00  0.00     0.202 A 
HETATM   11  N10 UNL     1      33.569   0.442   2.930  1.00  0.00    -0.333 N 
HETATM   12  C9  UNL     1      32.474  -0.147   2.437  1.00  0.00     0.168 A 
ATOM     13  H10 UNL     1      34.533   0.203   2.694  1.00  0.00     0.168 HD
HETATM   14  N14 UNL     1      31.435   0.471   3.011  1.00  0.00    -0.279 N 
ATOM     15  H14 UNL     1      30.456   0.244   2.836  1.00  0.00     0.189 HD
BRANCH  12  16
HETATM   16  C10 UNL     1      32.400  -1.235   1.476  1.00  0.00     0.175 A 
HETATM   17  N11 UNL     1      32.776  -2.514   1.644  1.00  0.00    -0.302 N 
HETATM   18  C11 UNL     1      32.543  -3.200   0.515  1.00  0.00     0.244 A 
ATOM     19  H11 UNL     1      33.176  -2.903   2.498  1.00  0.00     0.171 HD
HETATM   20  N12 UNL     1      32.752  -4.439   0.245  1.00  0.00    -0.352 N 
HETATM   21  O3  UNL     1      32.029  -2.346  -0.333  1.00  0.00    -0.199 OA
ATOM     22  H12 UNL     1      32.517  -4.812  -0.674  1.00  0.00     0.163 HD
HETATM   23  N13 UNL     1      31.936  -1.169   0.219  1.00  0.00    -0.238 N 
ATOM     24  H13 UNL     1      31.568  -0.332  -0.232  1.00  0.00     0.197 HD
BRANCH  20  25
HETATM   25  C12 UNL     1      33.319  -5.290   1.245  1.00  0.00     0.157 C 
BRANCH  25  26
HETATM   26  C13 UNL     1      32.353  -6.353   1.723  1.00  0.00     0.159 C 
BRANCH  26  27
HETATM   27  O1  UNL     1      31.338  -6.599   0.805  1.00  0.00    -0.392 OA
ATOM     28  H1  UNL     1      30.538  -6.132   1.016  1.00  0.00     0.210 HD
ENDBRANCH  26  27
BRANCH  26  29
HETATM   29  C14 UNL     1      31.703  -5.905   3.038  1.00  0.00     0.197 C 
BRANCH  29  30
HETATM   30  O2  UNL     1      30.905  -4.792   2.804  1.00  0.00    -0.398 OA
ATOM     31  H2  UNL     1      29.996  -5.062   2.744  1.00  0.00     0.209 HD
ENDBRANCH  29  30
ENDBRANCH  26  29
ENDBRANCH  25  26
ENDBRANCH  20  25
ENDBRANCH  12  16
ENDBRANCH   8   9
ENDBRANCH   6   8
BRANCH   1  32
HETATM   32  N7  UNL     1      30.993  -1.013   8.286  1.00  0.00    -0.190 N 
HETATM   33  C1  UNL     1      30.150  -2.018   7.762  1.00  0.00     0.691 C 
HETATM   34  N1  UNL     1      28.944  -2.133   8.211  1.00  0.00    -0.234 N 
HETATM   35  N2  UNL     1      30.627  -2.905   6.739  1.00  0.00    -0.020 N 
ATOM     36  H12 UNL     1      28.335  -2.859   7.833  1.00  0.00     0.174 HD
ATOM     37  H11 UNL     1      28.605  -1.504   8.938  1.00  0.00     0.174 HD
ATOM     38  H2  UNL     1      31.593  -3.235   6.764  1.00  0.00     0.203 HD
ATOM     39  H7  UNL     1      31.628  -1.250   9.048  1.00  0.00     0.184 HD
BRANCH  35  40
HETATM   40  C2  UNL     1      29.844  -3.289   5.786  1.00  0.00     0.728 A 
HETATM   41  N3  UNL     1      29.374  -2.568   4.742  1.00  0.00    -0.115 N 
HETATM   42  N4  UNL     1      28.609  -3.392   4.037  1.00  0.00    -0.213 N 
ATOM     43  H3  UNL     1      29.569  -1.588   4.536  1.00  0.00     0.207 HD
HETATM   44  N5  UNL     1      28.601  -4.568   4.614  1.00  0.00    -0.213 N 
ATOM     45  H4  UNL     1      28.107  -3.149   3.183  1.00  0.00     0.210 HD
HETATM   46  N6  UNL     1      29.351  -4.535   5.690  1.00  0.00    -0.115 N 
ATOM     47  H5  UNL     1      28.091  -5.385   4.278  1.00  0.00     0.210 HD
ATOM     48  H6  UNL     1      29.527  -5.308   6.332  1.00  0.00     0.207 HD
ENDBRANCH  35  40
ENDBRANCH   1  32
TORSDOF 10
ENDMDL
MODEL 5
REMARK VINA RESULT: -7.097484550      5.212      6.081
REMARK  10 active torsions:
REMARK  status: ('A' for Active; 'I' for Inactive)
REMARK       I    between atoms: N1_1  and  C1_4 
REMARK       I    between atoms: C1_4  and  N2_5 
REMARK       I    between atoms: C1_4  and  N7_16 
REMARK    1  A    between atoms: N2_5  and  C2_7 
REMARK    2  A    between atoms: N7_16  and  C3_18 
REMARK    3  A    between atoms: C6_23  and  C7_24 
REMARK    4  A    between atoms: C7_24  and  N9_25 
REMARK    5  A    between atoms: C9_29  and  C10_30 
REMARK    6  A    between atoms: N12_34  and  C12_36 
REMARK    7  A    between atoms: C12_36  and  C13_37 
REMARK    8  A    between atoms: C13_37  and  O1_38 
REMARK    9  A    between atoms: C13_37  and  C14_40 
REMARK   10  A    between atoms: C14_40  and  O2_41 
ROOT
HETATM    1  C3  UNL     1      26.604  -3.691  11.026  1.00  0.00     0.065 A 
HETATM    2  C4  UNL     1      26.927  -5.004  11.356  1.00  0.00     0.117 A 
HETATM    3  N8  UNL     1      28.092  -5.539  10.964  1.00  0.00    -0.372 N 
ATOM      4  H8  UNL     1      28.327  -6.501  11.207  1.00  0.00     0.164 HD
HETATM    5  C5  UNL     1      28.947  -4.788  10.246  1.00  0.00     0.096 A 
HETATM    6  C6  UNL     1      28.668  -3.486   9.898  1.00  0.00    -0.021 A 
HETATM    7  C15 UNL     1      27.478  -2.926  10.293  1.00  0.00     0.041 A 
ENDROOT
BRANCH   6   8
HETATM    8  C7  UNL     1      29.639  -2.693   9.106  1.00  0.00     0.189 C 
BRANCH   8   9
HETATM    9  N9  UNL     1      29.361  -2.773   7.682  1.00  0.00    -0.282 N 
HETATM   10  C8  UNL     1      28.792  -1.897   6.858  1.00  0.00     0.202 A 
HETATM   11  N10 UNL     1      28.759  -2.437   5.620  1.00  0.00    -0.333 N 
HETATM   12  C9  UNL     1      29.311  -3.653   5.677  1.00  0.00     0.168 A 
ATOM     13  H10 UNL     1      28.378  -1.992   4.785  1.00  0.00     0.168 HD
HETATM   14  N14 UNL     1      29.672  -3.835   6.952  1.00  0.00    -0.279 N 
ATOM     15  H14 UNL     1      30.124  -4.675   7.314  1.00  0.00     0.189 HD
BRANCH  12  16
HETATM   16  C10 UNL     1      29.493  -4.603   4.591  1.00  0.00     0.175 A 
HETATM   17  N11 UNL     1      30.642  -4.980   4.007  1.00  0.00    -0.302 N 
HETATM   18  C11 UNL     1      30.381  -5.877   3.043  1.00  0.00     0.244 A 
ATOM     19  H11 UNL     1      31.571  -4.638   4.256  1.00  0.00     0.171 HD
HETATM   20  N12 UNL     1      31.183  -6.489   2.246  1.00  0.00    -0.352 N 
HETATM   21  O3  UNL     1      29.083  -6.045   3.042  1.00  0.00    -0.199 OA
ATOM     22  H12 UNL     1      30.820  -7.150   1.560  1.00  0.00     0.163 HD
HETATM   23  N13 UNL     1      28.535  -5.295   3.956  1.00  0.00    -0.238 N 
ATOM     24  H13 UNL     1      27.537  -5.242   4.158  1.00  0.00     0.197 HD
BRANCH  20  25
HETATM   25  C12 UNL     1      32.587  -6.234   2.330  1.00  0.00     0.157 C 
BRANCH  25  26
HETATM   26  C13 UNL     1      33.265  -6.242   0.977  1.00  0.00     0.159 C 
BRANCH  26  27
HETATM   27  O1  UNL     1      32.740  -5.286   0.115  1.00  0.00    -0.392 OA
ATOM     28  H1  UNL     1      31.837  -5.072   0.318  1.00  0.00     0.210 HD
ENDBRANCH  26  27
BRANCH  26  29
HETATM   29  C14 UNL     1      33.089  -7.618   0.320  1.00  0.00     0.197 C 
BRANCH  29  30
HETATM   30  O2  UNL     1      31.865  -7.665  -0.335  1.00  0.00    -0.398 OA
ATOM     31  H2  UNL     1      31.977  -7.389  -1.236  1.00  0.00     0.209 HD
ENDBRANCH  29  30
ENDBRANCH  26  29
ENDBRANCH  25  26
ENDBRANCH  20  25
ENDBRANCH  12  16
ENDBRANCH   8   9
ENDBRANCH   6   8
BRANCH   1  32
HETATM   32  N7  UNL     1      25.352  -3.191  11.476  1.00  0.00    -0.190 N 
HETATM   33  C1  UNL     1      24.149  -3.438  10.777  1.00  0.00     0.691 C 
HETATM   34  N1  UNL     1      23.813  -2.664   9.799  1.00  0.00    -0.234 N 
HETATM   35  N2  UNL     1      23.306  -4.540  11.150  1.00  0.00    -0.020 N 
ATOM     36  H12 UNL     1      22.945  -2.842   9.295  1.00  0.00     0.174 HD
ATOM     37  H11 UNL     1      24.411  -1.882   9.535  1.00  0.00     0.174 HD
ATOM     38  H2  UNL     1      23.196  -4.783  12.135  1.00  0.00     0.203 HD
ATOM     39  H7  UNL     1      25.321  -2.637  12.331  1.00  0.00     0.184 HD
BRANCH  35  40
HETATM   40  C2  UNL     1      22.686  -5.225  10.247  1.00  0.00     0.728 A 
HETATM   41  N3  UNL     1      21.526  -4.930   9.617  1.00  0.00    -0.115 N 
HETATM   42  N4  UNL     1      21.294  -5.932   8.779  1.00  0.00    -0.213 N 
ATOM     43  H3  UNL     1      20.945  -4.104   9.757  1.00  0.00     0.207 HD
HETATM   44  N5  UNL     1      22.262  -6.808   8.881  1.00  0.00    -0.213 N 
ATOM     45  H4  UNL     1      20.492  -6.008   8.154  1.00  0.00     0.210 HD
HETATM   46  N6  UNL     1      23.132  -6.401   9.775  1.00  0.00    -0.115 N 
ATOM     47  H5  UNL     1      22.330  -7.675   8.348  1.00  0.00     0.210 HD
ATOM     48  H6  UNL     1      23.984  -6.884  10.058  1.00  0.00     0.207 HD
ENDBRANCH  35  40
ENDBRANCH   1  32
TORSDOF 10
ENDMDL
