MODEL 1
REMARK VINA RESULT: -7.695499377      0.000      0.000
REMARK  20 active torsions:
REMARK  status: ('A' for Active; 'I' for Inactive)
REMARK    1  A    between atoms: C2_2  and  C3_3 
REMARK    2  A    between atoms: C3_3  and  C4_4 
REMARK    3  A    between atoms: C3_3  and  C6_6 
REMARK    4  A    between atoms: C7_7  and  C8_8 
REMARK    5  A    between atoms: C7_7  and  C11_11 
REMARK    6  A    between atoms: C11_11  and  O1_12 
REMARK    7  A    between atoms: C11_11  and  C33_48 
REMARK    8  A    between atoms: O1_12  and  C12_13 
REMARK    9  A    between atoms: C16_19  and  O2_20 
REMARK   10  A    between atoms: O2_20  and  C17_21 
REMARK   11  A    between atoms: C20_25  and  C21_26 
REMARK   12  A    between atoms: C21_26  and  C22_27 
REMARK   13  A    between atoms: C22_27  and  C23_28 
REMARK   14  A    between atoms: C23_28  and  C24_29 
REMARK   15  A    between atoms: C24_29  and  C25_30 
REMARK   16  A    between atoms: C25_30  and  C26_32 
REMARK   17  A    between atoms: C28_34  and  O5_35 
REMARK   18  A    between atoms: C28_34  and  N1_37 
REMARK   19  A    between atoms: N1_37  and  C29_39 
REMARK   20  A    between atoms: C29_39  and  O6_40 
ROOT
HETATM    1  C8  UNL     1      21.625  39.920  14.298  1.00  0.00    -0.069 C 
HETATM    2  C9  UNL     1      21.884  39.740  13.141  1.00  0.00    -0.106 C 
HETATM    3  C10 UNL     1      22.159  39.506  11.714  1.00  0.00     0.112 C 
ENDROOT
BRANCH   1   4
HETATM    4  C7  UNL     1      21.250  40.155  15.729  1.00  0.00     0.031 C 
HETATM    5  C6  UNL     1      22.317  40.634  16.566  1.00  0.00     0.001 C 
BRANCH   5   6
HETATM    6  C3  UNL     1      23.636  40.036  16.807  1.00  0.00     0.030 C 
BRANCH   6   7
HETATM    7  C2  UNL     1      24.800  40.919  16.435  1.00  0.00    -0.028 C 
HETATM    8  C1  UNL     1      24.972  41.206  15.157  1.00  0.00     0.007 C 
ENDBRANCH   6   7
BRANCH   6   9
HETATM    9  C4  UNL     1      23.746  39.993  18.374  1.00  0.00     0.008 C 
HETATM   10  C5  UNL     1      22.738  40.914  18.972  1.00  0.00     0.006 C 
ENDBRANCH   6   9
ENDBRANCH   5   6
BRANCH   4  11
HETATM   11  C11 UNL     1      20.250  39.130  16.122  1.00  0.00     0.263 C 
BRANCH  11  12
HETATM   12  O1  UNL     1      20.852  38.483  17.252  1.00  0.00    -0.364 OA
BRANCH  12  13
HETATM   13  C12 UNL     1      20.089  37.366  17.650  1.00  0.00     0.138 C 
HETATM   14  C13 UNL     1      20.297  37.139  19.092  1.00  0.00     0.112 C 
HETATM   15  C14 UNL     1      21.554  36.278  19.194  1.00  0.00     0.253 C 
HETATM   16  F1  UNL     1      22.506  37.023  19.908  1.00  0.00    -0.206 F 
HETATM   17  F2  UNL     1      21.271  35.126  19.841  1.00  0.00    -0.206 F 
HETATM   18  C15 UNL     1      22.081  36.161  17.810  1.00  0.00     0.103 C 
HETATM   19  C16 UNL     1      22.516  34.787  17.415  1.00  0.00     0.166 C 
HETATM   20  C32 UNL     1      20.760  36.163  17.009  1.00  0.00     0.068 C 
HETATM   21  C19 UNL     1      21.236  34.048  17.645  1.00  0.00     0.021 C 
HETATM   22  C20 UNL     1      20.168  34.860  17.421  1.00  0.00    -0.011 C 
BRANCH  19  23
HETATM   23  O2  UNL     1      22.790  34.743  16.020  1.00  0.00    -0.312 OA
BRANCH  23  24
HETATM   24  C17 UNL     1      23.672  33.886  15.453  1.00  0.00     0.255 C 
HETATM   25  C18 UNL     1      23.022  32.789  14.599  1.00  0.00     0.126 C 
HETATM   26  O3  UNL     1      24.872  33.910  15.564  1.00  0.00    -0.266 OA
ENDBRANCH  23  24
ENDBRANCH  19  23
BRANCH  22  27
HETATM   27  C21 UNL     1      18.871  34.388  17.578  1.00  0.00    -0.146 C 
BRANCH  27  28
HETATM   28  C22 UNL     1      17.708  33.962  17.718  1.00  0.00     0.124 C 
BRANCH  28  29
HETATM   29  C23 UNL     1      16.521  34.378  16.852  1.00  0.00     0.143 C 
HETATM   30  C30 UNL     1      16.049  35.742  17.029  1.00  0.00     0.068 C 
HETATM   31  C31 UNL     1      14.964  35.219  17.927  1.00  0.00     0.236 C 
HETATM   32  N2  UNL     1      15.340  33.875  17.588  1.00  0.00    -0.065 N 
ATOM     33  H22 UNL     1      14.672  33.265  17.117  1.00  0.00     0.278 HD
ATOM     34  H21 UNL     1      15.460  33.182  18.326  1.00  0.00     0.278 HD
BRANCH  29  35
HETATM   35  C24 UNL     1      16.568  33.747  15.503  1.00  0.00     0.123 C 
BRANCH  35  36
HETATM   36  C25 UNL     1      17.168  32.444  15.339  1.00  0.00     0.165 C 
HETATM   37  O4  UNL     1      16.567  31.438  15.873  1.00  0.00    -0.292 OA
BRANCH  36  38
HETATM   38  C26 UNL     1      18.379  32.078  14.633  1.00  0.00     0.051 C 
HETATM   39  C27 UNL     1      19.050  33.140  14.066  1.00  0.00     0.032 C 
HETATM   40  C28 UNL     1      18.969  30.834  14.471  1.00  0.00     0.154 C 
BRANCH  40  41
HETATM   41  O5  UNL     1      20.129  30.702  13.818  1.00  0.00    -0.345 OA
ATOM     42  H5  UNL     1      20.148  30.497  12.891  1.00  0.00     0.219 HD
ENDBRANCH  40  41
BRANCH  40  43
HETATM   43  N1  UNL     1      18.567  29.524  14.902  1.00  0.00    -0.327 N 
ATOM     44  H1  UNL     1      17.609  29.392  15.225  1.00  0.00     0.169 HD
BRANCH  43  45
HETATM   45  C29 UNL     1      19.425  28.427  14.900  1.00  0.00     0.225 C 
BRANCH  45  46
HETATM   46  O6  UNL     1      20.298  28.373  15.899  1.00  0.00    -0.356 OA
ATOM     47  H6  UNL     1      20.574  27.503  16.160  1.00  0.00     0.218 HD
ENDBRANCH  45  46
ENDBRANCH  43  45
ENDBRANCH  40  43
ENDBRANCH  36  38
ENDBRANCH  35  36
ENDBRANCH  29  35
ENDBRANCH  28  29
ENDBRANCH  27  28
ENDBRANCH  22  27
ENDBRANCH  12  13
ENDBRANCH  11  12
BRANCH  11  48
HETATM   48  C33 UNL     1      18.996  39.705  16.589  1.00  0.00     0.208 C 
HETATM   49  O7  UNL     1      17.843  39.581  16.149  1.00  0.00    -0.646 OA
HETATM   50  O8  UNL     1      19.091  40.562  17.768  1.00  0.00    -0.646 OA
ENDBRANCH  11  48
ENDBRANCH   4  11
ENDBRANCH   1   4
TORSDOF 20
ENDMDL
MODEL 2
REMARK VINA RESULT: -7.495400463      1.236      1.610
REMARK  20 active torsions:
REMARK  status: ('A' for Active; 'I' for Inactive)
REMARK    1  A    between atoms: C2_2  and  C3_3 
REMARK    2  A    between atoms: C3_3  and  C4_4 
REMARK    3  A    between atoms: C3_3  and  C6_6 
REMARK    4  A    between atoms: C7_7  and  C8_8 
REMARK    5  A    between atoms: C7_7  and  C11_11 
REMARK    6  A    between atoms: C11_11  and  O1_12 
REMARK    7  A    between atoms: C11_11  and  C33_48 
REMARK    8  A    between atoms: O1_12  and  C12_13 
REMARK    9  A    between atoms: C16_19  and  O2_20 
REMARK   10  A    between atoms: O2_20  and  C17_21 
REMARK   11  A    between atoms: C20_25  and  C21_26 
REMARK   12  A    between atoms: C21_26  and  C22_27 
REMARK   13  A    between atoms: C22_27  and  C23_28 
REMARK   14  A    between atoms: C23_28  and  C24_29 
REMARK   15  A    between atoms: C24_29  and  C25_30 
REMARK   16  A    between atoms: C25_30  and  C26_32 
REMARK   17  A    between atoms: C28_34  and  O5_35 
REMARK   18  A    between atoms: C28_34  and  N1_37 
REMARK   19  A    between atoms: N1_37  and  C29_39 
REMARK   20  A    between atoms: C29_39  and  O6_40 
ROOT
HETATM    1  C8  UNL     1      21.456  39.807  14.647  1.00  0.00    -0.069 C 
HETATM    2  C9  UNL     1      21.737  39.678  13.488  1.00  0.00    -0.106 C 
HETATM    3  C10 UNL     1      22.042  39.502  12.059  1.00  0.00     0.112 C 
ENDROOT
BRANCH   1   4
HETATM    4  C7  UNL     1      21.053  39.976  16.079  1.00  0.00     0.031 C 
HETATM    5  C6  UNL     1      22.100  40.429  16.956  1.00  0.00     0.001 C 
BRANCH   5   6
HETATM    6  C3  UNL     1      23.420  39.833  17.195  1.00  0.00     0.030 C 
BRANCH   6   7
HETATM    7  C2  UNL     1      24.580  40.759  16.930  1.00  0.00    -0.028 C 
HETATM    8  C1  UNL     1      24.799  41.131  15.682  1.00  0.00     0.007 C 
ENDBRANCH   6   7
BRANCH   6   9
HETATM    9  C4  UNL     1      23.480  39.672  18.757  1.00  0.00     0.008 C 
HETATM   10  C5  UNL     1      22.433  40.526  19.389  1.00  0.00     0.006 C 
ENDBRANCH   6   9
ENDBRANCH   5   6
BRANCH   4  11
HETATM   11  C11 UNL     1      20.056  38.925  16.409  1.00  0.00     0.263 C 
BRANCH  11  12
HETATM   12  O1  UNL     1      20.669  38.202  17.485  1.00  0.00    -0.364 OA
BRANCH  12  13
HETATM   13  C12 UNL     1      20.028  36.960  17.678  1.00  0.00     0.138 C 
HETATM   14  C13 UNL     1      20.108  36.601  19.106  1.00  0.00     0.112 C 
HETATM   15  C14 UNL     1      21.453  35.899  19.277  1.00  0.00     0.253 C 
HETATM   16  F1  UNL     1      22.210  36.673  20.171  1.00  0.00    -0.206 F 
HETATM   17  F2  UNL     1      21.262  34.656  19.772  1.00  0.00    -0.206 F 
HETATM   18  C15 UNL     1      22.137  36.004  17.963  1.00  0.00     0.103 C 
HETATM   19  C16 UNL     1      22.797  34.747  17.494  1.00  0.00     0.166 C 
HETATM   20  C32 UNL     1      20.923  35.930  17.011  1.00  0.00     0.068 C 
HETATM   21  C19 UNL     1      21.613  33.833  17.494  1.00  0.00     0.021 C 
HETATM   22  C20 UNL     1      20.474  34.526  17.220  1.00  0.00    -0.011 C 
BRANCH  19  23
HETATM   23  O2  UNL     1      23.224  34.894  16.145  1.00  0.00    -0.312 OA
BRANCH  23  24
HETATM   24  C17 UNL     1      23.916  33.947  15.468  1.00  0.00     0.255 C 
HETATM   25  C18 UNL     1      23.045  33.037  14.593  1.00  0.00     0.126 C 
HETATM   26  O3  UNL     1      25.108  33.767  15.499  1.00  0.00    -0.266 OA
ENDBRANCH  23  24
ENDBRANCH  19  23
BRANCH  22  27
HETATM   27  C21 UNL     1      19.244  33.880  17.172  1.00  0.00    -0.146 C 
BRANCH  27  28
HETATM   28  C22 UNL     1      18.141  33.302  17.125  1.00  0.00     0.124 C 
BRANCH  28  29
HETATM   29  C23 UNL     1      17.436  32.882  15.837  1.00  0.00     0.143 C 
HETATM   30  C30 UNL     1      16.220  33.608  15.509  1.00  0.00     0.068 C 
HETATM   31  C31 UNL     1      15.422  32.475  16.089  1.00  0.00     0.236 C 
HETATM   32  N2  UNL     1      16.627  31.708  16.233  1.00  0.00    -0.065 N 
ATOM     33  H22 UNL     1      16.731  30.828  15.728  1.00  0.00     0.278 HD
ATOM     34  H21 UNL     1      16.822  31.231  17.113  1.00  0.00     0.278 HD
BRANCH  29  35
HETATM   35  C24 UNL     1      18.404  32.481  14.778  1.00  0.00     0.123 C 
BRANCH  35  36
HETATM   36  C25 UNL     1      18.684  31.083  14.552  1.00  0.00     0.165 C 
HETATM   37  O4  UNL     1      17.828  30.405  13.869  1.00  0.00    -0.292 OA
BRANCH  36  38
HETATM   38  C26 UNL     1      19.823  30.298  14.982  1.00  0.00     0.051 C 
HETATM   39  C27 UNL     1      20.035  30.300  16.344  1.00  0.00     0.032 C 
HETATM   40  C28 UNL     1      20.704  29.530  14.234  1.00  0.00     0.154 C 
BRANCH  40  41
HETATM   41  O5  UNL     1      21.678  28.829  14.825  1.00  0.00    -0.345 OA
ATOM     42  H5  UNL     1      21.746  27.889  14.704  1.00  0.00     0.219 HD
ENDBRANCH  40  41
BRANCH  40  43
HETATM   43  N1  UNL     1      20.802  29.298  12.820  1.00  0.00    -0.327 N 
ATOM     44  H1  UNL     1      21.155  30.049  12.228  1.00  0.00     0.169 HD
BRANCH  43  45
HETATM   45  C29 UNL     1      20.440  28.094  12.221  1.00  0.00     0.225 C 
BRANCH  45  46
HETATM   46  O6  UNL     1      21.073  27.014  12.662  1.00  0.00    -0.356 OA
ATOM     47  H6  UNL     1      20.539  26.384  13.131  1.00  0.00     0.218 HD
ENDBRANCH  45  46
ENDBRANCH  43  45
ENDBRANCH  40  43
ENDBRANCH  36  38
ENDBRANCH  35  36
ENDBRANCH  29  35
ENDBRANCH  28  29
ENDBRANCH  27  28
ENDBRANCH  22  27
ENDBRANCH  12  13
ENDBRANCH  11  12
BRANCH  11  48
HETATM   48  C33 UNL     1      18.807  39.465  16.928  1.00  0.00     0.208 C 
HETATM   49  O7  UNL     1      17.680  39.518  16.412  1.00  0.00    -0.646 OA
HETATM   50  O8  UNL     1      18.871  40.035  18.271  1.00  0.00    -0.646 OA
ENDBRANCH  11  48
ENDBRANCH   4  11
ENDBRANCH   1   4
TORSDOF 20
ENDMDL
MODEL 3
REMARK VINA RESULT: -7.447123685      4.966     11.598
REMARK  20 active torsions:
REMARK  status: ('A' for Active; 'I' for Inactive)
REMARK    1  A    between atoms: C2_2  and  C3_3 
REMARK    2  A    between atoms: C3_3  and  C4_4 
REMARK    3  A    between atoms: C3_3  and  C6_6 
REMARK    4  A    between atoms: C7_7  and  C8_8 
REMARK    5  A    between atoms: C7_7  and  C11_11 
REMARK    6  A    between atoms: C11_11  and  O1_12 
REMARK    7  A    between atoms: C11_11  and  C33_48 
REMARK    8  A    between atoms: O1_12  and  C12_13 
REMARK    9  A    between atoms: C16_19  and  O2_20 
REMARK   10  A    between atoms: O2_20  and  C17_21 
REMARK   11  A    between atoms: C20_25  and  C21_26 
REMARK   12  A    between atoms: C21_26  and  C22_27 
REMARK   13  A    between atoms: C22_27  and  C23_28 
REMARK   14  A    between atoms: C23_28  and  C24_29 
REMARK   15  A    between atoms: C24_29  and  C25_30 
REMARK   16  A    between atoms: C25_30  and  C26_32 
REMARK   17  A    between atoms: C28_34  and  O5_35 
REMARK   18  A    between atoms: C28_34  and  N1_37 
REMARK   19  A    between atoms: N1_37  and  C29_39 
REMARK   20  A    between atoms: C29_39  and  O6_40 
ROOT
HETATM    1  C8  UNL     1      21.753  25.001   9.402  1.00  0.00    -0.069 C 
HETATM    2  C9  UNL     1      22.044  24.959   8.239  1.00  0.00    -0.106 C 
HETATM    3  C10 UNL     1      22.402  24.952   6.811  1.00  0.00     0.112 C 
ENDROOT
BRANCH   1   4
HETATM    4  C7  UNL     1      21.414  25.101  10.857  1.00  0.00     0.031 C 
HETATM    5  C6  UNL     1      20.221  24.401  11.253  1.00  0.00     0.001 C 
BRANCH   5   6
HETATM    6  C3  UNL     1      18.857  24.537  10.726  1.00  0.00     0.030 C 
BRANCH   6   7
HETATM    7  C2  UNL     1      18.453  23.458   9.754  1.00  0.00    -0.028 C 
HETATM    8  C1  UNL     1      18.401  23.771   8.472  1.00  0.00     0.007 C 
ENDBRANCH   6   7
BRANCH   6   9
HETATM    9  C4  UNL     1      17.945  24.219  11.965  1.00  0.00     0.008 C 
HETATM   10  C5  UNL     1      17.204  22.947  11.728  1.00  0.00     0.006 C 
ENDBRANCH   6   9
ENDBRANCH   5   6
BRANCH   4  11
HETATM   11  C11 UNL     1      21.812  26.450  11.335  1.00  0.00     0.263 C 
BRANCH  11  12
HETATM   12  O1  UNL     1      21.162  26.564  12.608  1.00  0.00    -0.364 OA
BRANCH  12  13
HETATM   13  C12 UNL     1      21.093  27.914  13.012  1.00  0.00     0.138 C 
HETATM   14  C13 UNL     1      20.414  27.985  14.319  1.00  0.00     0.112 C 
HETATM   15  C14 UNL     1      18.921  28.035  14.003  1.00  0.00     0.253 C 
HETATM   16  F1  UNL     1      18.341  26.891  14.574  1.00  0.00    -0.206 F 
HETATM   17  F2  UNL     1      18.377  29.155  14.530  1.00  0.00    -0.206 F 
HETATM   18  C15 UNL     1      18.809  27.860  12.532  1.00  0.00     0.103 C 
HETATM   19  C16 UNL     1      17.852  28.788  11.857  1.00  0.00     0.166 C 
HETATM   20  C32 UNL     1      20.100  28.572  12.069  1.00  0.00     0.068 C 
HETATM   21  C19 UNL     1      18.445  30.097  12.272  1.00  0.00     0.021 C 
HETATM   22  C20 UNL     1      19.792  29.987  12.420  1.00  0.00    -0.011 C 
BRANCH  19  23
HETATM   23  O2  UNL     1      17.987  28.687  10.445  1.00  0.00    -0.312 OA
BRANCH  23  24
HETATM   24  C17 UNL     1      17.684  27.571   9.739  1.00  0.00     0.255 C 
HETATM   25  C18 UNL     1      18.687  27.241   8.626  1.00  0.00     0.126 C 
HETATM   26  O3  UNL     1      16.730  26.853   9.903  1.00  0.00    -0.266 OA
ENDBRANCH  23  24
ENDBRANCH  19  23
BRANCH  22  27
HETATM   27  C21 UNL     1      20.557  31.081  12.807  1.00  0.00    -0.146 C 
BRANCH  27  28
HETATM   28  C22 UNL     1      21.243  32.063  13.151  1.00  0.00     0.124 C 
BRANCH  28  29
HETATM   29  C23 UNL     1      21.567  32.432  14.596  1.00  0.00     0.143 C 
HETATM   30  C30 UNL     1      22.340  33.648  14.787  1.00  0.00     0.068 C 
HETATM   31  C31 UNL     1      23.576  32.806  14.927  1.00  0.00     0.236 C 
HETATM   32  N2  UNL     1      22.763  31.622  14.918  1.00  0.00    -0.065 N 
ATOM     33  H22 UNL     1      22.754  31.007  15.732  1.00  0.00     0.278 HD
ATOM     34  H21 UNL     1      23.019  30.836  14.322  1.00  0.00     0.278 HD
BRANCH  29  35
HETATM   35  C24 UNL     1      20.459  32.068  15.525  1.00  0.00     0.123 C 
BRANCH  35  36
HETATM   36  C25 UNL     1      19.588  33.097  16.042  1.00  0.00     0.165 C 
HETATM   37  O4  UNL     1      20.035  33.831  17.002  1.00  0.00    -0.292 OA
BRANCH  36  38
HETATM   38  C26 UNL     1      18.247  33.452  15.627  1.00  0.00     0.051 C 
HETATM   39  C27 UNL     1      17.921  33.051  14.349  1.00  0.00     0.032 C 
HETATM   40  C28 UNL     1      17.244  34.101  16.331  1.00  0.00     0.154 C 
BRANCH  40  41
HETATM   41  O5  UNL     1      16.037  34.297  15.787  1.00  0.00    -0.345 OA
ATOM     42  H5  UNL     1      15.360  34.772  16.256  1.00  0.00     0.219 HD
ENDBRANCH  40  41
BRANCH  40  43
HETATM   43  N1  UNL     1      17.215  34.661  17.653  1.00  0.00    -0.327 N 
ATOM     44  H1  UNL     1      18.099  34.794  18.143  1.00  0.00     0.169 HD
BRANCH  43  45
HETATM   45  C29 UNL     1      16.037  35.030  18.297  1.00  0.00     0.225 C 
BRANCH  45  46
HETATM   46  O6  UNL     1      15.240  34.034  18.663  1.00  0.00    -0.356 OA
ATOM     47  H6  UNL     1      14.434  33.945  18.170  1.00  0.00     0.218 HD
ENDBRANCH  45  46
ENDBRANCH  43  45
ENDBRANCH  40  43
ENDBRANCH  36  38
ENDBRANCH  35  36
ENDBRANCH  29  35
ENDBRANCH  28  29
ENDBRANCH  27  28
ENDBRANCH  22  27
ENDBRANCH  12  13
ENDBRANCH  11  12
BRANCH  11  48
HETATM   48  C33 UNL     1      23.241  26.568  11.584  1.00  0.00     0.208 C 
HETATM   49  O7  UNL     1      24.064  25.718  11.959  1.00  0.00    -0.646 OA
HETATM   50  O8  UNL     1      23.819  27.890  11.357  1.00  0.00    -0.646 OA
ENDBRANCH  11  48
ENDBRANCH   4  11
ENDBRANCH   1   4
TORSDOF 20
ENDMDL
MODEL 4
REMARK VINA RESULT: -7.441980324      2.952      5.943
REMARK  20 active torsions:
REMARK  status: ('A' for Active; 'I' for Inactive)
REMARK    1  A    between atoms: C2_2  and  C3_3 
REMARK    2  A    between atoms: C3_3  and  C4_4 
REMARK    3  A    between atoms: C3_3  and  C6_6 
REMARK    4  A    between atoms: C7_7  and  C8_8 
REMARK    5  A    between atoms: C7_7  and  C11_11 
REMARK    6  A    between atoms: C11_11  and  O1_12 
REMARK    7  A    between atoms: C11_11  and  C33_48 
REMARK    8  A    between atoms: O1_12  and  C12_13 
REMARK    9  A    between atoms: C16_19  and  O2_20 
REMARK   10  A    between atoms: O2_20  and  C17_21 
REMARK   11  A    between atoms: C20_25  and  C21_26 
REMARK   12  A    between atoms: C21_26  and  C22_27 
REMARK   13  A    between atoms: C22_27  and  C23_28 
REMARK   14  A    between atoms: C23_28  and  C24_29 
REMARK   15  A    between atoms: C24_29  and  C25_30 
REMARK   16  A    between atoms: C25_30  and  C26_32 
REMARK   17  A    between atoms: C28_34  and  O5_35 
REMARK   18  A    between atoms: C28_34  and  N1_37 
REMARK   19  A    between atoms: N1_37  and  C29_39 
REMARK   20  A    between atoms: C29_39  and  O6_40 
ROOT
HETATM    1  C8  UNL     1      18.881  36.969  17.713  1.00  0.00    -0.069 C 
HETATM    2  C9  UNL     1      17.779  37.330  17.406  1.00  0.00    -0.106 C 
HETATM    3  C10 UNL     1      16.440  37.815  17.034  1.00  0.00     0.112 C 
ENDROOT
BRANCH   1   4
HETATM    4  C7  UNL     1      20.276  36.565  18.074  1.00  0.00     0.031 C 
HETATM    5  C6  UNL     1      21.236  37.637  18.085  1.00  0.00     0.001 C 
BRANCH   5   6
HETATM    6  C3  UNL     1      21.578  38.576  17.009  1.00  0.00     0.030 C 
BRANCH   6   7
HETATM    7  C2  UNL     1      20.763  39.844  17.003  1.00  0.00    -0.028 C 
HETATM    8  C1  UNL     1      19.924  40.033  16.001  1.00  0.00     0.007 C 
ENDBRANCH   6   7
BRANCH   6   9
HETATM    9  C4  UNL     1      23.002  39.104  17.412  1.00  0.00     0.008 C 
HETATM   10  C5  UNL     1      23.425  40.174  16.464  1.00  0.00     0.006 C 
ENDBRANCH   6   9
ENDBRANCH   5   6
BRANCH   4  11
HETATM   11  C11 UNL     1      20.522  35.204  17.534  1.00  0.00     0.263 C 
BRANCH  11  12
HETATM   12  O1  UNL     1      19.498  35.043  16.542  1.00  0.00    -0.364 OA
BRANCH  12  13
HETATM   13  C12 UNL     1      19.406  33.695  16.138  1.00  0.00     0.138 C 
HETATM   14  C13 UNL     1      19.149  33.652  14.686  1.00  0.00     0.112 C 
HETATM   15  C14 UNL     1      17.635  33.769  14.533  1.00  0.00     0.253 C 
HETATM   16  F1  UNL     1      17.384  34.947  13.813  1.00  0.00    -0.206 F 
HETATM   17  F2  UNL     1      17.156  32.695  13.867  1.00  0.00    -0.206 F 
HETATM   18  C15 UNL     1      17.105  34.004  15.901  1.00  0.00     0.103 C 
HETATM   19  C16 UNL     1      15.892  33.205  16.254  1.00  0.00     0.166 C 
HETATM   20  C32 UNL     1      18.108  33.177  16.734  1.00  0.00     0.068 C 
HETATM   21  C19 UNL     1      16.434  31.828  16.038  1.00  0.00     0.021 C 
HETATM   22  C20 UNL     1      17.768  31.791  16.307  1.00  0.00    -0.011 C 
BRANCH  19  23
HETATM   23  O2  UNL     1      15.604  33.339  17.640  1.00  0.00    -0.312 OA
BRANCH  23  24
HETATM   24  C17 UNL     1      15.300  34.517  18.234  1.00  0.00     0.255 C 
HETATM   25  C18 UNL     1      14.058  35.209  17.659  1.00  0.00     0.126 C 
HETATM   26  O3  UNL     1      15.902  35.045  19.136  1.00  0.00    -0.266 OA
ENDBRANCH  23  24
ENDBRANCH  19  23
BRANCH  22  27
HETATM   27  C21 UNL     1      18.488  30.611  16.171  1.00  0.00    -0.146 C 
BRANCH  27  28
HETATM   28  C22 UNL     1      19.135  29.552  16.046  1.00  0.00     0.124 C 
BRANCH  28  29
HETATM   29  C23 UNL     1      19.511  28.919  14.708  1.00  0.00     0.143 C 
HETATM   30  C30 UNL     1      18.796  29.415  13.543  1.00  0.00     0.068 C 
HETATM   31  C31 UNL     1      17.885  28.224  13.632  1.00  0.00     0.236 C 
HETATM   32  N2  UNL     1      18.719  27.670  14.662  1.00  0.00    -0.065 N 
ATOM     33  H22 UNL     1      19.189  26.778  14.509  1.00  0.00     0.278 HD
ATOM     34  H21 UNL     1      18.296  27.306  15.515  1.00  0.00     0.278 HD
BRANCH  29  35
HETATM   35  C24 UNL     1      20.962  28.587  14.638  1.00  0.00     0.123 C 
BRANCH  35  36
HETATM   36  C25 UNL     1      21.809  29.262  13.684  1.00  0.00     0.165 C 
HETATM   37  O4  UNL     1      22.568  28.535  12.939  1.00  0.00    -0.292 OA
BRANCH  36  38
HETATM   38  C26 UNL     1      21.934  30.680  13.417  1.00  0.00     0.051 C 
HETATM   39  C27 UNL     1      21.584  31.052  12.136  1.00  0.00     0.032 C 
HETATM   40  C28 UNL     1      22.323  31.710  14.260  1.00  0.00     0.154 C 
BRANCH  40  41
HETATM   41  O5  UNL     1      22.329  32.980  13.838  1.00  0.00    -0.345 OA
ATOM     42  H5  UNL     1      21.623  33.574  14.065  1.00  0.00     0.219 HD
ENDBRANCH  40  41
BRANCH  40  43
HETATM   43  N1  UNL     1      22.758  31.710  15.628  1.00  0.00    -0.327 N 
ATOM     44  H1  UNL     1      23.750  31.844  15.822  1.00  0.00     0.169 HD
BRANCH  43  45
HETATM   45  C29 UNL     1      21.890  31.534  16.702  1.00  0.00     0.225 C 
BRANCH  45  46
HETATM   46  O6  UNL     1      22.395  31.786  17.904  1.00  0.00    -0.356 OA
ATOM     47  H6  UNL     1      21.873  32.350  18.462  1.00  0.00     0.218 HD
ENDBRANCH  45  46
ENDBRANCH  43  45
ENDBRANCH  40  43
ENDBRANCH  36  38
ENDBRANCH  35  36
ENDBRANCH  29  35
ENDBRANCH  28  29
ENDBRANCH  27  28
ENDBRANCH  22  27
ENDBRANCH  12  13
ENDBRANCH  11  12
BRANCH  11  48
HETATM   48  C33 UNL     1      21.796  35.087  16.839  1.00  0.00     0.208 C 
HETATM   49  O7  UNL     1      22.889  34.652  17.234  1.00  0.00    -0.646 OA
HETATM   50  O8  UNL     1      21.808  35.544  15.452  1.00  0.00    -0.646 OA
ENDBRANCH  11  48
ENDBRANCH   4  11
ENDBRANCH   1   4
TORSDOF 20
ENDMDL
MODEL 5
REMARK VINA RESULT: -7.418382541      4.907     11.601
REMARK  20 active torsions:
REMARK  status: ('A' for Active; 'I' for Inactive)
REMARK    1  A    between atoms: C2_2  and  C3_3 
REMARK    2  A    between atoms: C3_3  and  C4_4 
REMARK    3  A    between atoms: C3_3  and  C6_6 
REMARK    4  A    between atoms: C7_7  and  C8_8 
REMARK    5  A    between atoms: C7_7  and  C11_11 
REMARK    6  A    between atoms: C11_11  and  O1_12 
REMARK    7  A    between atoms: C11_11  and  C33_48 
REMARK    8  A    between atoms: O1_12  and  C12_13 
REMARK    9  A    between atoms: C16_19  and  O2_20 
REMARK   10  A    between atoms: O2_20  and  C17_21 
REMARK   11  A    between atoms: C20_25  and  C21_26 
REMARK   12  A    between atoms: C21_26  and  C22_27 
REMARK   13  A    between atoms: C22_27  and  C23_28 
REMARK   14  A    between atoms: C23_28  and  C24_29 
REMARK   15  A    between atoms: C24_29  and  C25_30 
REMARK   16  A    between atoms: C25_30  and  C26_32 
REMARK   17  A    between atoms: C28_34  and  O5_35 
REMARK   18  A    between atoms: C28_34  and  N1_37 
REMARK   19  A    between atoms: N1_37  and  C29_39 
REMARK   20  A    between atoms: C29_39  and  O6_40 
ROOT
HETATM    1  C8  UNL     1      21.603  25.052   9.492  1.00  0.00    -0.069 C 
HETATM    2  C9  UNL     1      21.927  24.985   8.339  1.00  0.00    -0.106 C 
HETATM    3  C10 UNL     1      22.328  24.947   6.924  1.00  0.00     0.112 C 
ENDROOT
BRANCH   1   4
HETATM    4  C7  UNL     1      21.228  25.182  10.936  1.00  0.00     0.031 C 
HETATM    5  C6  UNL     1      20.059  24.441  11.329  1.00  0.00     0.001 C 
BRANCH   5   6
HETATM    6  C3  UNL     1      18.703  24.500  10.770  1.00  0.00     0.030 C 
BRANCH   6   7
HETATM    7  C2  UNL     1      18.388  23.409   9.778  1.00  0.00    -0.028 C 
HETATM    8  C1  UNL     1      18.297  23.742   8.503  1.00  0.00     0.007 C 
ENDBRANCH   6   7
BRANCH   6   9
HETATM    9  C4  UNL     1      17.782  24.114  11.983  1.00  0.00     0.008 C 
HETATM   10  C5  UNL     1      17.041  22.858  11.670  1.00  0.00     0.006 C 
ENDBRANCH   6   9
ENDBRANCH   5   6
BRANCH   4  11
HETATM   11  C11 UNL     1      21.555  26.561  11.379  1.00  0.00     0.263 C 
BRANCH  11  12
HETATM   12  O1  UNL     1      20.983  26.640  12.693  1.00  0.00    -0.364 OA
BRANCH  12  13
HETATM   13  C12 UNL     1      20.866  27.984  13.103  1.00  0.00     0.138 C 
HETATM   14  C13 UNL     1      20.153  28.026  14.394  1.00  0.00     0.112 C 
HETATM   15  C14 UNL     1      18.668  28.036  14.041  1.00  0.00     0.253 C 
HETATM   16  F1  UNL     1      18.107  26.872  14.590  1.00  0.00    -0.206 F 
HETATM   17  F2  UNL     1      18.080  29.136  14.562  1.00  0.00    -0.206 F 
HETATM   18  C15 UNL     1      18.598  27.869  12.567  1.00  0.00     0.103 C 
HETATM   19  C16 UNL     1      17.631  28.774  11.875  1.00  0.00     0.166 C 
HETATM   20  C32 UNL     1      19.878  28.621  12.141  1.00  0.00     0.068 C 
HETATM   21  C19 UNL     1      18.175  30.097  12.313  1.00  0.00     0.021 C 
HETATM   22  C20 UNL     1      19.522  30.023  12.493  1.00  0.00    -0.011 C 
BRANCH  19  23
HETATM   23  O2  UNL     1      17.803  28.688  10.466  1.00  0.00    -0.312 OA
BRANCH  23  24
HETATM   24  C17 UNL     1      17.620  27.550   9.754  1.00  0.00     0.255 C 
HETATM   25  C18 UNL     1      18.711  27.278   8.712  1.00  0.00     0.126 C 
HETATM   26  O3  UNL     1      16.706  26.771   9.866  1.00  0.00    -0.266 OA
ENDBRANCH  23  24
ENDBRANCH  19  23
BRANCH  22  27
HETATM   27  C21 UNL     1      20.245  31.136  12.906  1.00  0.00    -0.146 C 
BRANCH  27  28
HETATM   28  C22 UNL     1      20.893  32.136  13.274  1.00  0.00     0.124 C 
BRANCH  28  29
HETATM   29  C23 UNL     1      21.660  32.236  14.590  1.00  0.00     0.143 C 
HETATM   30  C30 UNL     1      22.339  33.498  14.839  1.00  0.00     0.068 C 
HETATM   31  C31 UNL     1      23.618  32.869  14.364  1.00  0.00     0.236 C 
HETATM   32  N2  UNL     1      22.962  31.594  14.302  1.00  0.00    -0.065 N 
ATOM     33  H22 UNL     1      23.288  30.826  14.890  1.00  0.00     0.278 HD
ATOM     34  H21 UNL     1      23.066  31.009  13.473  1.00  0.00     0.278 HD
BRANCH  29  35
HETATM   35  C24 UNL     1      20.977  31.498  15.690  1.00  0.00     0.123 C 
BRANCH  35  36
HETATM   36  C25 UNL     1      19.701  31.960  16.181  1.00  0.00     0.165 C 
HETATM   37  O4  UNL     1      18.932  31.098  16.752  1.00  0.00    -0.292 OA
BRANCH  36  38
HETATM   38  C26 UNL     1      19.134  33.292  16.140  1.00  0.00     0.051 C 
HETATM   39  C27 UNL     1      18.132  33.456  15.207  1.00  0.00     0.032 C 
HETATM   40  C28 UNL     1      19.428  34.406  16.912  1.00  0.00     0.154 C 
BRANCH  40  41
HETATM   41  O5  UNL     1      18.753  35.550  16.756  1.00  0.00    -0.345 OA
ATOM     42  H5  UNL     1      18.616  36.142  17.487  1.00  0.00     0.219 HD
ENDBRANCH  40  41
BRANCH  40  43
HETATM   43  N1  UNL     1      20.394  34.615  17.954  1.00  0.00    -0.327 N 
ATOM     44  H1  UNL     1      21.345  34.277  17.809  1.00  0.00     0.169 HD
BRANCH  43  45
HETATM   45  C29 UNL     1      20.093  35.259  19.151  1.00  0.00     0.225 C 
BRANCH  45  46
HETATM   46  O6  UNL     1      18.985  34.858  19.762  1.00  0.00    -0.356 OA
ATOM     47  H6  UNL     1      18.199  35.351  19.560  1.00  0.00     0.218 HD
ENDBRANCH  45  46
ENDBRANCH  43  45
ENDBRANCH  40  43
ENDBRANCH  36  38
ENDBRANCH  35  36
ENDBRANCH  29  35
ENDBRANCH  28  29
ENDBRANCH  27  28
ENDBRANCH  22  27
ENDBRANCH  12  13
ENDBRANCH  11  12
BRANCH  11  48
HETATM   48  C33 UNL     1      22.986  26.787  11.534  1.00  0.00     0.208 C 
HETATM   49  O7  UNL     1      23.647  27.833  11.447  1.00  0.00    -0.646 OA
HETATM   50  O8  UNL     1      23.785  25.606  11.847  1.00  0.00    -0.646 OA
ENDBRANCH  11  48
ENDBRANCH   4  11
ENDBRANCH   1   4
TORSDOF 20
ENDMDL
