MODEL 1
REMARK VINA RESULT: -8.816057005      0.000      0.000
REMARK  17 active torsions:
REMARK  status: ('A' for Active; 'I' for Inactive)
REMARK    1  A    between atoms: C1_2  and  C2_4 
REMARK    2  A    between atoms: C2_4  and  N1_5 
REMARK    3  A    between atoms: N1_5  and  C3_7 
REMARK    4  A    between atoms: C3_7  and  C4_8 
REMARK    5  A    between atoms: C3_7  and  C28_42 
REMARK       I    between atoms: C4_8  and  N2_10 
REMARK    6  A    between atoms: C7_13  and  C8_14 
REMARK    7  A    between atoms: C8_14  and  C9_16 
REMARK    8  A    between atoms: C9_16  and  N3_17 
REMARK    9  A    between atoms: N3_17  and  C10_20 
REMARK   10  A    between atoms: C10_20  and  C11_22 
REMARK   11  A    between atoms: C11_22  and  O5_23 
REMARK   12  A    between atoms: O5_23  and  C12_24 
REMARK   13  A    between atoms: C15_27  and  C16_28 
REMARK   14  A    between atoms: C16_28  and  N4_29 
REMARK   15  A    between atoms: N4_29  and  C17_30 
REMARK   16  A    between atoms: N4_29  and  C23_36 
REMARK   17  A    between atoms: C17_30  and  C18_31 
ROOT
HETATM    1  N3  UNL     1      18.631  31.632  16.135  1.00  0.00    -0.035 N 
ATOM      2  H31 UNL     1      18.956  32.577  15.928  1.00  0.00     0.281 HD
ATOM      3  H32 UNL     1      18.370  31.769  17.112  1.00  0.00     0.281 HD
ENDROOT
BRANCH   1   4
HETATM    4  C9  UNL     1      19.699  30.655  15.996  1.00  0.00     0.316 C 
BRANCH   4   5
HETATM    5  C8  UNL     1      21.020  31.325  15.971  1.00  0.00     0.175 C 
HETATM    6  O4  UNL     1      21.520  31.699  17.016  1.00  0.00    -0.294 OA
BRANCH   5   7
HETATM    7  C7  UNL     1      21.683  31.509  14.657  1.00  0.00     0.160 C 
HETATM    8  N2  UNL     1      21.434  30.522  13.652  1.00  0.00    -0.335 N 
HETATM    9  C4  UNL     1      21.371  29.099  13.534  1.00  0.00     0.267 C 
HETATM   10  C5  UNL     1      21.257  31.623  12.695  1.00  0.00     0.129 C 
HETATM   11  O3  UNL     1      21.585  28.444  14.561  1.00  0.00    -0.266 OA
HETATM   12  C6  UNL     1      20.827  32.485  13.837  1.00  0.00     0.053 C 
BRANCH   9  13
HETATM   13  C3  UNL     1      21.068  28.464  12.250  1.00  0.00     0.082 C 
BRANCH  13  14
HETATM   14  N1  UNL     1      22.031  27.971  11.422  1.00  0.00    -0.359 N 
ATOM     15  H1  UNL     1      21.790  28.059  10.435  1.00  0.00     0.165 HD
BRANCH  14  16
HETATM   16  C2  UNL     1      23.248  27.384  11.621  1.00  0.00     0.173 C 
BRANCH  16  17
HETATM   17  C1  UNL     1      23.367  25.906  11.599  1.00  0.00     0.214 C 
HETATM   18  O1  UNL     1      22.359  25.201  11.430  1.00  0.00    -0.643 OA
HETATM   19  O2  UNL     1      24.600  25.329  11.764  1.00  0.00    -0.643 OA
ENDBRANCH  16  17
ENDBRANCH  14  16
ENDBRANCH  13  14
BRANCH  13  20
HETATM   20  C28 UNL     1      19.806  27.636  12.497  1.00  0.00     0.041 C 
HETATM   21  C29 UNL     1      19.319  26.811  11.392  1.00  0.00     0.011 C 
HETATM   22  C30 UNL     1      17.783  26.902  11.347  1.00  0.00     0.001 C 
HETATM   23  C31 UNL     1      17.448  28.289  10.852  1.00  0.00     0.000 C 
HETATM   24  C32 UNL     1      17.939  29.249  11.931  1.00  0.00     0.001 C 
HETATM   25  C33 UNL     1      18.714  28.546  13.013  1.00  0.00     0.011 C 
ENDBRANCH  13  20
ENDBRANCH   9  13
ENDBRANCH   5   7
ENDBRANCH   4   5
ENDBRANCH   1   4
BRANCH   1  26
HETATM   26  C10 UNL     1      17.483  31.268  15.318  1.00  0.00     0.392 C 
HETATM   27  F1  UNL     1      17.535  32.151  14.224  1.00  0.00    -0.217 F 
BRANCH  26  28
HETATM   28  C11 UNL     1      16.254  31.640  16.092  1.00  0.00     0.242 C 
BRANCH  28  29
HETATM   29  O5  UNL     1      15.686  32.856  15.843  1.00  0.00    -0.344 OA
BRANCH  29  30
HETATM   30  C12 UNL     1      15.820  34.063  16.458  1.00  0.00     0.107 A 
HETATM   31  C13 UNL     1      15.459  34.378  17.742  1.00  0.00     0.040 A 
HETATM   32  C14 UNL     1      15.624  35.635  18.304  1.00  0.00     0.012 A 
HETATM   33  C15 UNL     1      16.177  36.634  17.551  1.00  0.00    -0.027 A 
HETATM   34  C26 UNL     1      16.549  36.346  16.260  1.00  0.00     0.054 A 
HETATM   35  C27 UNL     1      16.386  35.109  15.706  1.00  0.00     0.150 A 
HETATM   36  F2  UNL     1      16.775  34.890  14.419  1.00  0.00    -0.203 F 
BRANCH  33  37
HETATM   37  C16 UNL     1      16.383  37.985  18.084  1.00  0.00     0.311 C 
BRANCH  37  38
HETATM   38  N4  UNL     1      17.768  38.442  17.758  1.00  0.00     0.097 N 
BRANCH  38  39
HETATM   39  C17 UNL     1      18.616  37.981  18.789  1.00  0.00     0.278 C 
BRANCH  39  40
HETATM   40  C18 UNL     1      19.675  36.996  18.514  1.00  0.00     0.014 C 
HETATM   41  C19 UNL     1      19.276  35.562  18.807  1.00  0.00     0.006 C 
HETATM   42  C20 UNL     1      19.815  34.785  17.621  1.00  0.00     0.000 C 
HETATM   43  C21 UNL     1      20.942  35.583  17.058  1.00  0.00     0.000 C 
HETATM   44  C22 UNL     1      20.453  37.033  17.268  1.00  0.00     0.006 C 
ENDBRANCH  39  40
ENDBRANCH  38  39
BRANCH  38  45
HETATM   45  C23 UNL     1      17.710  39.864  17.632  1.00  0.00     0.223 A 
HETATM   46  C24 UNL     1      16.796  40.471  16.603  1.00  0.00     0.038 A 
HETATM   47  C25 UNL     1      18.238  40.464  16.346  1.00  0.00     0.038 A 
ENDBRANCH  38  45
ENDBRANCH  37  38
ENDBRANCH  33  37
ENDBRANCH  29  30
ENDBRANCH  28  29
ENDBRANCH  26  28
ENDBRANCH   1  26
TORSDOF 17
ENDMDL
MODEL 2
REMARK VINA RESULT: -8.744580276      1.379      1.833
REMARK  17 active torsions:
REMARK  status: ('A' for Active; 'I' for Inactive)
REMARK    1  A    between atoms: C1_2  and  C2_4 
REMARK    2  A    between atoms: C2_4  and  N1_5 
REMARK    3  A    between atoms: N1_5  and  C3_7 
REMARK    4  A    between atoms: C3_7  and  C4_8 
REMARK    5  A    between atoms: C3_7  and  C28_42 
REMARK       I    between atoms: C4_8  and  N2_10 
REMARK    6  A    between atoms: C7_13  and  C8_14 
REMARK    7  A    between atoms: C8_14  and  C9_16 
REMARK    8  A    between atoms: C9_16  and  N3_17 
REMARK    9  A    between atoms: N3_17  and  C10_20 
REMARK   10  A    between atoms: C10_20  and  C11_22 
REMARK   11  A    between atoms: C11_22  and  O5_23 
REMARK   12  A    between atoms: O5_23  and  C12_24 
REMARK   13  A    between atoms: C15_27  and  C16_28 
REMARK   14  A    between atoms: C16_28  and  N4_29 
REMARK   15  A    between atoms: N4_29  and  C17_30 
REMARK   16  A    between atoms: N4_29  and  C23_36 
REMARK   17  A    between atoms: C17_30  and  C18_31 
ROOT
HETATM    1  N3  UNL     1      18.313  31.026  14.531  1.00  0.00    -0.035 N 
ATOM      2  H31 UNL     1      18.311  30.199  15.128  1.00  0.00     0.281 HD
ATOM      3  H32 UNL     1      18.402  30.563  13.626  1.00  0.00     0.281 HD
ENDROOT
BRANCH   1   4
HETATM    4  C9  UNL     1      19.451  31.887  14.809  1.00  0.00     0.316 C 
BRANCH   4   5
HETATM    5  C8  UNL     1      20.578  31.100  15.362  1.00  0.00     0.175 C 
HETATM    6  O4  UNL     1      20.606  30.851  16.553  1.00  0.00    -0.294 OA
BRANCH   5   7
HETATM    7  C7  UNL     1      21.635  30.644  14.426  1.00  0.00     0.160 C 
HETATM    8  N2  UNL     1      21.247  29.742  13.386  1.00  0.00    -0.335 N 
HETATM    9  C4  UNL     1      20.455  28.563  13.226  1.00  0.00     0.267 C 
HETATM   10  C5  UNL     1      22.048  30.554  12.460  1.00  0.00     0.129 C 
HETATM   11  O3  UNL     1      19.904  28.118  14.239  1.00  0.00    -0.266 OA
HETATM   12  C6  UNL     1      21.805  31.728  13.351  1.00  0.00     0.053 C 
BRANCH   9  13
HETATM   13  C3  UNL     1      20.315  27.924  11.915  1.00  0.00     0.082 C 
BRANCH  13  14
HETATM   14  N1  UNL     1      21.359  27.346  11.258  1.00  0.00    -0.359 N 
ATOM     15  H1  UNL     1      21.144  27.129  10.285  1.00  0.00     0.165 HD
BRANCH  14  16
HETATM   16  C2  UNL     1      22.629  26.992  11.614  1.00  0.00     0.173 C 
BRANCH  16  17
HETATM   17  C1  UNL     1      23.075  25.587  11.455  1.00  0.00     0.214 C 
HETATM   18  O1  UNL     1      22.250  24.696  11.194  1.00  0.00    -0.643 OA
HETATM   19  O2  UNL     1      24.405  25.284  11.599  1.00  0.00    -0.643 OA
ENDBRANCH  16  17
ENDBRANCH  14  16
ENDBRANCH  13  14
BRANCH  13  20
HETATM   20  C28 UNL     1      18.972  27.194  11.964  1.00  0.00     0.041 C 
HETATM   21  C29 UNL     1      18.970  25.771  11.625  1.00  0.00     0.011 C 
HETATM   22  C30 UNL     1      17.725  25.468  10.772  1.00  0.00     0.001 C 
HETATM   23  C31 UNL     1      17.968  26.093   9.419  1.00  0.00     0.000 C 
HETATM   24  C32 UNL     1      18.012  27.600   9.656  1.00  0.00     0.001 C 
HETATM   25  C33 UNL     1      17.971  27.951  11.120  1.00  0.00     0.011 C 
ENDBRANCH  13  20
ENDBRANCH   9  13
ENDBRANCH   5   7
ENDBRANCH   4   5
ENDBRANCH   1   4
BRANCH   1  26
HETATM   26  C10 UNL     1      17.064  31.766  14.634  1.00  0.00     0.392 C 
HETATM   27  F1  UNL     1      17.377  33.052  14.157  1.00  0.00    -0.217 F 
BRANCH  26  28
HETATM   28  C11 UNL     1      16.766  31.928  16.094  1.00  0.00     0.242 C 
BRANCH  28  29
HETATM   29  O5  UNL     1      16.378  33.160  16.535  1.00  0.00    -0.344 OA
BRANCH  29  30
HETATM   30  C12 UNL     1      17.088  34.210  17.032  1.00  0.00     0.107 A 
HETATM   31  C13 UNL     1      17.964  34.189  18.086  1.00  0.00     0.040 A 
HETATM   32  C14 UNL     1      18.653  35.303  18.540  1.00  0.00     0.012 A 
HETATM   33  C15 UNL     1      18.463  36.504  17.914  1.00  0.00    -0.027 A 
HETATM   34  C26 UNL     1      17.592  36.555  16.854  1.00  0.00     0.054 A 
HETATM   35  C27 UNL     1      16.912  35.459  16.406  1.00  0.00     0.150 A 
HETATM   36  F2  UNL     1      16.061  35.578  15.350  1.00  0.00    -0.203 F 
BRANCH  33  37
HETATM   37  C16 UNL     1      19.163  37.720  18.341  1.00  0.00     0.311 C 
BRANCH  37  38
HETATM   38  N4  UNL     1      20.262  38.026  17.376  1.00  0.00     0.097 N 
BRANCH  38  39
HETATM   39  C17 UNL     1      21.473  37.610  17.973  1.00  0.00     0.278 C 
BRANCH  39  40
HETATM   40  C18 UNL     1      22.183  36.414  17.491  1.00  0.00     0.014 C 
HETATM   41  C19 UNL     1      22.446  35.376  18.565  1.00  0.00     0.006 C 
HETATM   42  C20 UNL     1      22.111  34.060  17.890  1.00  0.00     0.000 C 
HETATM   43  C21 UNL     1      22.268  34.275  16.423  1.00  0.00     0.000 C 
HETATM   44  C22 UNL     1      21.784  35.732  16.252  1.00  0.00     0.006 C 
ENDBRANCH  39  40
ENDBRANCH  38  39
BRANCH  38  45
HETATM   45  C23 UNL     1      20.188  39.427  17.102  1.00  0.00     0.223 A 
HETATM   46  C24 UNL     1      19.006  39.962  16.343  1.00  0.00     0.038 A 
HETATM   47  C25 UNL     1      20.293  39.851  15.652  1.00  0.00     0.038 A 
ENDBRANCH  38  45
ENDBRANCH  37  38
ENDBRANCH  33  37
ENDBRANCH  29  30
ENDBRANCH  28  29
ENDBRANCH  26  28
ENDBRANCH   1  26
TORSDOF 17
ENDMDL
MODEL 3
REMARK VINA RESULT: -8.695842625      2.870      9.271
REMARK  17 active torsions:
REMARK  status: ('A' for Active; 'I' for Inactive)
REMARK    1  A    between atoms: C1_2  and  C2_4 
REMARK    2  A    between atoms: C2_4  and  N1_5 
REMARK    3  A    between atoms: N1_5  and  C3_7 
REMARK    4  A    between atoms: C3_7  and  C4_8 
REMARK    5  A    between atoms: C3_7  and  C28_42 
REMARK       I    between atoms: C4_8  and  N2_10 
REMARK    6  A    between atoms: C7_13  and  C8_14 
REMARK    7  A    between atoms: C8_14  and  C9_16 
REMARK    8  A    between atoms: C9_16  and  N3_17 
REMARK    9  A    between atoms: N3_17  and  C10_20 
REMARK   10  A    between atoms: C10_20  and  C11_22 
REMARK   11  A    between atoms: C11_22  and  O5_23 
REMARK   12  A    between atoms: O5_23  and  C12_24 
REMARK   13  A    between atoms: C15_27  and  C16_28 
REMARK   14  A    between atoms: C16_28  and  N4_29 
REMARK   15  A    between atoms: N4_29  and  C17_30 
REMARK   16  A    between atoms: N4_29  and  C23_36 
REMARK   17  A    between atoms: C17_30  and  C18_31 
ROOT
HETATM    1  N3  UNL     1      16.046  34.229  17.218  1.00  0.00    -0.035 N 
ATOM      2  H31 UNL     1      15.499  33.921  18.022  1.00  0.00     0.281 HD
ATOM      3  H32 UNL     1      16.972  33.954  17.546  1.00  0.00     0.281 HD
ENDROOT
BRANCH   1   4
HETATM    4  C9  UNL     1      15.950  35.667  17.023  1.00  0.00     0.316 C 
BRANCH   4   5
HETATM    5  C8  UNL     1      16.116  36.380  18.310  1.00  0.00     0.175 C 
HETATM    6  O4  UNL     1      15.305  36.204  19.201  1.00  0.00    -0.294 OA
BRANCH   5   7
HETATM    7  C7  UNL     1      17.280  37.288  18.459  1.00  0.00     0.160 C 
HETATM    8  N2  UNL     1      18.563  36.779  18.080  1.00  0.00    -0.335 N 
HETATM    9  C4  UNL     1      19.339  35.591  18.246  1.00  0.00     0.267 C 
HETATM   10  C5  UNL     1      18.806  38.057  17.398  1.00  0.00     0.129 C 
HETATM   11  O3  UNL     1      18.828  34.677  18.903  1.00  0.00    -0.266 OA
HETATM   12  C6  UNL     1      17.329  38.189  17.216  1.00  0.00     0.053 C 
BRANCH   9  13
HETATM   13  C3  UNL     1      20.677  35.480  17.661  1.00  0.00     0.082 C 
BRANCH  13  14
HETATM   14  N1  UNL     1      21.765  36.120  18.173  1.00  0.00    -0.359 N 
ATOM     15  H1  UNL     1      22.492  36.287  17.476  1.00  0.00     0.165 HD
BRANCH  14  16
HETATM   16  C2  UNL     1      22.098  36.589  19.412  1.00  0.00     0.173 C 
BRANCH  16  17
HETATM   17  C1  UNL     1      22.456  35.636  20.489  1.00  0.00     0.214 C 
HETATM   18  O1  UNL     1      21.587  34.896  20.982  1.00  0.00    -0.643 OA
HETATM   19  O2  UNL     1      23.752  35.579  20.933  1.00  0.00    -0.643 OA
ENDBRANCH  16  17
ENDBRANCH  14  16
ENDBRANCH  13  14
BRANCH  13  20
HETATM   20  C28 UNL     1      20.810  34.017  17.233  1.00  0.00     0.041 C 
HETATM   21  C29 UNL     1      22.049  33.326  17.586  1.00  0.00     0.011 C 
HETATM   22  C30 UNL     1      22.480  32.446  16.398  1.00  0.00     0.001 C 
HETATM   23  C31 UNL     1      22.962  33.385  15.319  1.00  0.00     0.000 C 
HETATM   24  C32 UNL     1      21.739  34.187  14.884  1.00  0.00     0.001 C 
HETATM   25  C33 UNL     1      20.538  33.913  15.749  1.00  0.00     0.011 C 
ENDBRANCH  13  20
ENDBRANCH   9  13
ENDBRANCH   5   7
ENDBRANCH   4   5
ENDBRANCH   1   4
BRANCH   1  26
HETATM   26  C10 UNL     1      15.671  33.515  16.007  1.00  0.00     0.392 C 
HETATM   27  F1  UNL     1      15.456  32.190  16.432  1.00  0.00    -0.217 F 
BRANCH  26  28
HETATM   28  C11 UNL     1      16.883  33.474  15.125  1.00  0.00     0.242 C 
BRANCH  28  29
HETATM   29  O5  UNL     1      17.173  32.301  14.491  1.00  0.00    -0.344 OA
BRANCH  29  30
HETATM   30  C12 UNL     1      18.356  31.680  14.229  1.00  0.00     0.107 A 
HETATM   31  C13 UNL     1      19.113  31.794  13.092  1.00  0.00     0.040 A 
HETATM   32  C14 UNL     1      20.313  31.126  12.893  1.00  0.00     0.012 A 
HETATM   33  C15 UNL     1      20.785  30.300  13.875  1.00  0.00    -0.027 A 
HETATM   34  C26 UNL     1      20.047  30.167  15.026  1.00  0.00     0.054 A 
HETATM   35  C27 UNL     1      18.866  30.823  15.223  1.00  0.00     0.150 A 
HETATM   36  F2  UNL     1      18.182  30.647  16.387  1.00  0.00    -0.203 F 
BRANCH  33  37
HETATM   37  C16 UNL     1      22.048  29.567  13.731  1.00  0.00     0.311 C 
BRANCH  37  38
HETATM   38  N4  UNL     1      21.886  28.499  12.699  1.00  0.00     0.097 N 
BRANCH  38  39
HETATM   39  C17 UNL     1      20.868  27.630  13.149  1.00  0.00     0.278 C 
BRANCH  39  40
HETATM   40  C18 UNL     1      19.637  27.435  12.365  1.00  0.00     0.014 C 
HETATM   41  C19 UNL     1      18.360  27.652  13.154  1.00  0.00     0.006 C 
HETATM   42  C20 UNL     1      17.483  28.455  12.213  1.00  0.00     0.000 C 
HETATM   43  C21 UNL     1      17.954  28.165  10.829  1.00  0.00     0.000 C 
HETATM   44  C22 UNL     1      19.480  28.022  11.026  1.00  0.00     0.006 C 
ENDBRANCH  39  40
ENDBRANCH  38  39
BRANCH  38  45
HETATM   45  C23 UNL     1      23.166  27.881  12.546  1.00  0.00     0.223 A 
HETATM   46  C24 UNL     1      23.905  28.040  11.247  1.00  0.00     0.038 A 
HETATM   47  C25 UNL     1      23.272  26.753  11.542  1.00  0.00     0.038 A 
ENDBRANCH  38  45
ENDBRANCH  37  38
ENDBRANCH  33  37
ENDBRANCH  29  30
ENDBRANCH  28  29
ENDBRANCH  26  28
ENDBRANCH   1  26
TORSDOF 17
ENDMDL
MODEL 4
REMARK VINA RESULT: -8.560748090      3.724     11.220
REMARK  17 active torsions:
REMARK  status: ('A' for Active; 'I' for Inactive)
REMARK    1  A    between atoms: C1_2  and  C2_4 
REMARK    2  A    between atoms: C2_4  and  N1_5 
REMARK    3  A    between atoms: N1_5  and  C3_7 
REMARK    4  A    between atoms: C3_7  and  C4_8 
REMARK    5  A    between atoms: C3_7  and  C28_42 
REMARK       I    between atoms: C4_8  and  N2_10 
REMARK    6  A    between atoms: C7_13  and  C8_14 
REMARK    7  A    between atoms: C8_14  and  C9_16 
REMARK    8  A    between atoms: C9_16  and  N3_17 
REMARK    9  A    between atoms: N3_17  and  C10_20 
REMARK   10  A    between atoms: C10_20  and  C11_22 
REMARK   11  A    between atoms: C11_22  and  O5_23 
REMARK   12  A    between atoms: O5_23  and  C12_24 
REMARK   13  A    between atoms: C15_27  and  C16_28 
REMARK   14  A    between atoms: C16_28  and  N4_29 
REMARK   15  A    between atoms: N4_29  and  C17_30 
REMARK   16  A    between atoms: N4_29  and  C23_36 
REMARK   17  A    between atoms: C17_30  and  C18_31 
ROOT
HETATM    1  N3  UNL     1      23.488  27.896  12.389  1.00  0.00    -0.035 N 
ATOM      2  H31 UNL     1      23.077  26.987  12.599  1.00  0.00     0.281 HD
ATOM      3  H32 UNL     1      23.653  28.215  13.345  1.00  0.00     0.281 HD
ENDROOT
BRANCH   1   4
HETATM    4  C9  UNL     1      22.552  28.761  11.690  1.00  0.00     0.316 C 
BRANCH   4   5
HETATM    5  C8  UNL     1      21.364  29.035  12.532  1.00  0.00     0.175 C 
HETATM    6  O4  UNL     1      20.255  28.991  12.033  1.00  0.00    -0.294 OA
BRANCH   5   7
HETATM    7  C7  UNL     1      21.584  29.354  13.964  1.00  0.00     0.160 C 
HETATM    8  N2  UNL     1      20.930  30.514  14.487  1.00  0.00    -0.335 N 
HETATM    9  C4  UNL     1      20.693  31.874  14.116  1.00  0.00     0.267 C 
HETATM   10  C5  UNL     1      20.563  29.709  15.660  1.00  0.00     0.129 C 
HETATM   11  O3  UNL     1      21.161  32.247  13.034  1.00  0.00    -0.266 OA
HETATM   12  C6  UNL     1      20.610  28.498  14.786  1.00  0.00     0.053 C 
BRANCH   9  13
HETATM   13  C3  UNL     1      19.933  32.769  14.990  1.00  0.00     0.082 C 
BRANCH  13  14
HETATM   14  N1  UNL     1      20.494  33.832  15.630  1.00  0.00    -0.359 N 
ATOM     15  H1  UNL     1      19.805  34.512  15.952  1.00  0.00     0.165 HD
BRANCH  14  16
HETATM   16  C2  UNL     1      21.776  34.190  15.937  1.00  0.00     0.173 C 
BRANCH  16  17
HETATM   17  C1  UNL     1      22.438  33.613  17.131  1.00  0.00     0.214 C 
HETATM   18  O1  UNL     1      23.035  34.351  17.932  1.00  0.00    -0.643 OA
HETATM   19  O2  UNL     1      22.382  32.259  17.342  1.00  0.00    -0.643 OA
ENDBRANCH  16  17
ENDBRANCH  14  16
ENDBRANCH  13  14
BRANCH  13  20
HETATM   20  C28 UNL     1      18.577  32.947  14.303  1.00  0.00     0.041 C 
HETATM   21  C29 UNL     1      17.742  34.061  14.750  1.00  0.00     0.011 C 
HETATM   22  C30 UNL     1      16.279  33.586  14.817  1.00  0.00     0.001 C 
HETATM   23  C31 UNL     1      16.183  32.652  15.999  1.00  0.00     0.000 C 
HETATM   24  C32 UNL     1      17.048  31.444  15.650  1.00  0.00     0.001 C 
HETATM   25  C33 UNL     1      17.817  31.642  14.371  1.00  0.00     0.011 C 
ENDBRANCH  13  20
ENDBRANCH   9  13
ENDBRANCH   5   7
ENDBRANCH   4   5
ENDBRANCH   1   4
BRANCH   1  26
HETATM   26  C10 UNL     1      24.731  27.765  11.644  1.00  0.00     0.392 C 
HETATM   27  F1  UNL     1      24.374  28.042  10.312  1.00  0.00    -0.217 F 
BRANCH  26  28
HETATM   28  C11 UNL     1      25.114  26.316  11.676  1.00  0.00     0.242 C 
BRANCH  28  29
HETATM   29  O5  UNL     1      24.113  25.390  11.696  1.00  0.00    -0.344 OA
BRANCH  29  30
HETATM   30  C12 UNL     1      23.286  24.928  10.718  1.00  0.00     0.107 A 
HETATM   31  C13 UNL     1      23.654  24.349   9.531  1.00  0.00     0.040 A 
HETATM   32  C14 UNL     1      22.753  23.901   8.577  1.00  0.00     0.012 A 
HETATM   33  C15 UNL     1      21.413  24.035   8.814  1.00  0.00    -0.027 A 
HETATM   34  C26 UNL     1      21.014  24.611   9.995  1.00  0.00     0.054 A 
HETATM   35  C27 UNL     1      21.900  25.053  10.934  1.00  0.00     0.150 A 
HETATM   36  F2  UNL     1      21.439  25.616  12.085  1.00  0.00    -0.203 F 
BRANCH  33  37
HETATM   37  C16 UNL     1      20.406  23.580   7.849  1.00  0.00     0.311 C 
BRANCH  37  38
HETATM   38  N4  UNL     1      19.484  24.710   7.522  1.00  0.00     0.097 N 
BRANCH  38  39
HETATM   39  C17 UNL     1      18.249  24.441   8.153  1.00  0.00     0.278 C 
BRANCH  39  40
HETATM   40  C18 UNL     1      17.624  25.432   9.044  1.00  0.00     0.014 C 
HETATM   41  C19 UNL     1      17.626  25.036  10.508  1.00  0.00     0.006 C 
HETATM   42  C20 UNL     1      18.017  26.311  11.229  1.00  0.00     0.000 C 
HETATM   43  C21 UNL     1      17.643  27.445  10.337  1.00  0.00     0.000 C 
HETATM   44  C22 UNL     1      17.930  26.865   8.933  1.00  0.00     0.006 C 
ENDBRANCH  39  40
ENDBRANCH  38  39
BRANCH  38  45
HETATM   45  C23 UNL     1      19.416  24.783   6.096  1.00  0.00     0.223 A 
HETATM   46  C24 UNL     1      20.642  25.186   5.325  1.00  0.00     0.038 A 
HETATM   47  C25 UNL     1      19.553  26.154   5.469  1.00  0.00     0.038 A 
ENDBRANCH  38  45
ENDBRANCH  37  38
ENDBRANCH  33  37
ENDBRANCH  29  30
ENDBRANCH  28  29
ENDBRANCH  26  28
ENDBRANCH   1  26
TORSDOF 17
ENDMDL
MODEL 5
REMARK VINA RESULT: -8.556223348      1.533      1.946
REMARK  17 active torsions:
REMARK  status: ('A' for Active; 'I' for Inactive)
REMARK    1  A    between atoms: C1_2  and  C2_4 
REMARK    2  A    between atoms: C2_4  and  N1_5 
REMARK    3  A    between atoms: N1_5  and  C3_7 
REMARK    4  A    between atoms: C3_7  and  C4_8 
REMARK    5  A    between atoms: C3_7  and  C28_42 
REMARK       I    between atoms: C4_8  and  N2_10 
REMARK    6  A    between atoms: C7_13  and  C8_14 
REMARK    7  A    between atoms: C8_14  and  C9_16 
REMARK    8  A    between atoms: C9_16  and  N3_17 
REMARK    9  A    between atoms: N3_17  and  C10_20 
REMARK   10  A    between atoms: C10_20  and  C11_22 
REMARK   11  A    between atoms: C11_22  and  O5_23 
REMARK   12  A    between atoms: O5_23  and  C12_24 
REMARK   13  A    between atoms: C15_27  and  C16_28 
REMARK   14  A    between atoms: C16_28  and  N4_29 
REMARK   15  A    between atoms: N4_29  and  C17_30 
REMARK   16  A    between atoms: N4_29  and  C23_36 
REMARK   17  A    between atoms: C17_30  and  C18_31 
ROOT
HETATM    1  N3  UNL     1      17.972  31.713  14.594  1.00  0.00    -0.035 N 
ATOM      2  H31 UNL     1      18.315  30.759  14.476  1.00  0.00     0.281 HD
ATOM      3  H32 UNL     1      17.160  31.662  13.979  1.00  0.00     0.281 HD
ENDROOT
BRANCH   1   4
HETATM    4  C9  UNL     1      18.939  32.692  14.126  1.00  0.00     0.316 C 
BRANCH   4   5
HETATM    5  C8  UNL     1      19.874  32.081  13.153  1.00  0.00     0.175 C 
HETATM    6  O4  UNL     1      19.912  32.505  12.013  1.00  0.00    -0.294 OA
BRANCH   5   7
HETATM    7  C7  UNL     1      20.734  30.966  13.620  1.00  0.00     0.160 C 
HETATM    8  N2  UNL     1      20.661  29.733  12.897  1.00  0.00    -0.335 N 
HETATM    9  C4  UNL     1      19.666  28.869  12.342  1.00  0.00     0.267 C 
HETATM   10  C5  UNL     1      22.129  29.682  12.947  1.00  0.00     0.129 C 
HETATM   11  O3  UNL     1      18.487  29.211  12.487  1.00  0.00    -0.266 OA
HETATM   12  C6  UNL     1      22.132  31.174  13.020  1.00  0.00     0.053 C 
BRANCH   9  13
HETATM   13  C3  UNL     1      20.045  27.640  11.642  1.00  0.00     0.082 C 
BRANCH  13  14
HETATM   14  N1  UNL     1      20.989  26.780  12.114  1.00  0.00    -0.359 N 
ATOM     15  H1  UNL     1      20.656  26.211  12.892  1.00  0.00     0.165 HD
BRANCH  14  16
HETATM   16  C2  UNL     1      22.285  26.509  11.775  1.00  0.00     0.173 C 
BRANCH  16  17
HETATM   17  C1  UNL     1      22.665  25.141  11.347  1.00  0.00     0.214 C 
HETATM   18  O1  UNL     1      21.793  24.269  11.195  1.00  0.00    -0.643 OA
HETATM   19  O2  UNL     1      23.986  24.851  11.122  1.00  0.00    -0.643 OA
ENDBRANCH  16  17
ENDBRANCH  14  16
ENDBRANCH  13  14
BRANCH  13  20
HETATM   20  C28 UNL     1      18.737  27.075  11.085  1.00  0.00     0.041 C 
HETATM   21  C29 UNL     1      18.369  25.718  11.488  1.00  0.00     0.011 C 
HETATM   22  C30 UNL     1      17.792  24.979  10.267  1.00  0.00     0.001 C 
HETATM   23  C31 UNL     1      18.952  24.708   9.340  1.00  0.00     0.000 C 
HETATM   24  C32 UNL     1      19.440  26.074   8.868  1.00  0.00     0.001 C 
HETATM   25  C33 UNL     1      18.747  27.206   9.579  1.00  0.00     0.011 C 
ENDBRANCH  13  20
ENDBRANCH   9  13
ENDBRANCH   5   7
ENDBRANCH   4   5
ENDBRANCH   1   4
BRANCH   1  26
HETATM   26  C10 UNL     1      17.587  31.979  15.971  1.00  0.00     0.392 C 
HETATM   27  F1  UNL     1      18.005  30.838  16.681  1.00  0.00    -0.217 F 
BRANCH  26  28
HETATM   28  C11 UNL     1      16.089  31.970  16.021  1.00  0.00     0.242 C 
BRANCH  28  29
HETATM   29  O5  UNL     1      15.444  33.172  16.065  1.00  0.00    -0.344 OA
BRANCH  29  30
HETATM   30  C12 UNL     1      15.756  34.347  16.678  1.00  0.00     0.107 A 
HETATM   31  C13 UNL     1      15.564  34.664  17.998  1.00  0.00     0.040 A 
HETATM   32  C14 UNL     1      15.906  35.888  18.556  1.00  0.00     0.012 A 
HETATM   33  C15 UNL     1      16.468  36.847  17.760  1.00  0.00    -0.027 A 
HETATM   34  C26 UNL     1      16.672  36.557  16.433  1.00  0.00     0.054 A 
HETATM   35  C27 UNL     1      16.336  35.354  15.884  1.00  0.00     0.150 A 
HETATM   36  F2  UNL     1      16.564  35.129  14.560  1.00  0.00    -0.203 F 
BRANCH  33  37
HETATM   37  C16 UNL     1      16.856  38.161  18.286  1.00  0.00     0.311 C 
BRANCH  37  38
HETATM   38  N4  UNL     1      18.209  38.524  17.766  1.00  0.00     0.097 N 
BRANCH  38  39
HETATM   39  C17 UNL     1      19.158  38.073  18.709  1.00  0.00     0.278 C 
BRANCH  39  40
HETATM   40  C18 UNL     1      20.140  37.034  18.358  1.00  0.00     0.014 C 
HETATM   41  C19 UNL     1      19.654  35.618  18.601  1.00  0.00     0.006 C 
HETATM   42  C20 UNL     1      20.104  34.862  17.366  1.00  0.00     0.000 C 
HETATM   43  C21 UNL     1      21.265  35.608  16.802  1.00  0.00     0.000 C 
HETATM   44  C22 UNL     1      20.882  37.076  17.090  1.00  0.00     0.006 C 
ENDBRANCH  39  40
ENDBRANCH  38  39
BRANCH  38  45
HETATM   45  C23 UNL     1      18.202  39.940  17.563  1.00  0.00     0.223 A 
HETATM   46  C24 UNL     1      17.201  40.538  16.615  1.00  0.00     0.038 A 
HETATM   47  C25 UNL     1      18.599  40.441  16.190  1.00  0.00     0.038 A 
ENDBRANCH  38  45
ENDBRANCH  37  38
ENDBRANCH  33  37
ENDBRANCH  29  30
ENDBRANCH  28  29
ENDBRANCH  26  28
ENDBRANCH   1  26
TORSDOF 17
ENDMDL
