MODEL 1
REMARK VINA RESULT: -8.570365562      0.000      0.000
REMARK  17 active torsions:
REMARK  status: ('A' for Active; 'I' for Inactive)
REMARK    1  A    between atoms: C2_2  and  C3_4 
REMARK    2  A    between atoms: C3_4  and  C4_5 
REMARK    3  A    between atoms: C4_5  and  N1_6 
REMARK    4  A    between atoms: C4_5  and  C20_32 
REMARK    5  A    between atoms: N1_6  and  C5_9 
REMARK    6  A    between atoms: C5_9  and  O2_10 
REMARK    7  A    between atoms: C5_9  and  C6_12 
REMARK    8  A    between atoms: C6_12  and  C7_14 
REMARK    9  A    between atoms: C7_14  and  C8_15 
REMARK   10  A    between atoms: C7_14  and  N2_19 
REMARK   11  A    between atoms: C8_15  and  C9_16 
REMARK   12  A    between atoms: N2_19  and  C12_21 
REMARK   13  A    between atoms: C12_21  and  C13_22 
REMARK   14  A    between atoms: C12_21  and  C17_26 
REMARK   15  A    between atoms: C17_26  and  C18_28 
REMARK   16  A    between atoms: C18_28  and  S1_29 
REMARK       I    between atoms: N3_35  and  C23_36 
REMARK   17  A    between atoms: C23_36  and  C24_38 
ROOT
HETATM    1  C5  UNL     1      -5.547  -1.956 -16.074  1.00  0.00     0.396 C 
ENDROOT
BRANCH   1   2
HETATM    2  N1  UNL     1      -4.940  -2.179 -14.795  1.00  0.00    -0.036 N 
ATOM      3  H12 UNL     1      -4.604  -3.138 -14.703  1.00  0.00     0.281 HD
ATOM      4  H11 UNL     1      -5.633  -2.183 -14.047  1.00  0.00     0.281 HD
BRANCH   2   5
HETATM    5  C4  UNL     1      -3.871  -1.205 -14.533  1.00  0.00     0.200 C 
BRANCH   5   6
HETATM    6  C3  UNL     1      -2.549  -1.863 -14.431  1.00  0.00     0.111 C 
BRANCH   6   7
HETATM    7  C2  UNL     1      -2.536  -3.319 -14.306  1.00  0.00     0.125 C 
HETATM    8  C1  UNL     1      -1.795  -4.236 -15.202  1.00  0.00     0.091 C 
HETATM    9  O1  UNL     1      -3.183  -3.850 -13.398  1.00  0.00    -0.298 OA
ENDBRANCH   6   7
ENDBRANCH   5   6
BRANCH   5  10
HETATM   10  C20 UNL     1      -4.310  -0.393 -13.369  1.00  0.00     0.020 C 
HETATM   11  C21 UNL     1      -5.271  -1.213 -12.482  1.00  0.00     0.027 C 
HETATM   12  C22 UNL     1      -5.905  -0.201 -11.535  1.00  0.00     0.126 C 
HETATM   13  N3  UNL     1      -5.110   1.001 -11.413  1.00  0.00    -0.351 N 
HETATM   14  C23 UNL     1      -5.630   2.318 -11.395  1.00  0.00     0.227 C 
HETATM   15  C28 UNL     1      -3.663   0.774 -11.291  1.00  0.00     0.126 C 
HETATM   16  O6  UNL     1      -4.787   3.272 -11.281  1.00  0.00    -0.273 OA
HETATM   17  C29 UNL     1      -3.147  -0.012 -12.455  1.00  0.00     0.027 C 
BRANCH  14  18
HETATM   18  C24 UNL     1      -7.040   2.696 -11.494  1.00  0.00     0.030 C 
HETATM   19  C25 UNL     1      -7.656   2.099 -12.725  1.00  0.00     0.025 C 
HETATM   20  C26 UNL     1      -7.787   2.296 -10.234  1.00  0.00     0.025 C 
HETATM   21  C27 UNL     1      -7.205   4.217 -11.612  1.00  0.00     0.025 C 
ENDBRANCH  14  18
ENDBRANCH   5  10
ENDBRANCH   2   5
ENDBRANCH   1   2
BRANCH   1  22
HETATM   22  O2  UNL     1      -5.439  -0.683 -16.572  1.00  0.00    -0.364 OA
ATOM     23  H2  UNL     1      -4.573  -0.426 -16.865  1.00  0.00     0.212 HD
ENDBRANCH   1  22
BRANCH   1  24
HETATM   24  C6  UNL     1      -6.976  -2.417 -16.076  1.00  0.00     0.227 C 
HETATM   25  O3  UNL     1      -7.792  -1.531 -15.755  1.00  0.00    -0.286 OA
BRANCH  24  26
HETATM   26  C7  UNL     1      -7.447  -3.747 -16.410  1.00  0.00     0.057 C 
BRANCH  26  27
HETATM   27  C8  UNL     1      -8.950  -3.819 -16.450  1.00  0.00     0.064 C 
BRANCH  27  28
HETATM   28  C9  UNL     1      -9.659  -4.935 -15.826  1.00  0.00    -0.017 C 
HETATM   29  C10 UNL     1      -8.946  -5.905 -14.974  1.00  0.00     0.010 C 
HETATM   30  C11 UNL     1     -10.292  -5.733 -16.994  1.00  0.00     0.010 C 
ENDBRANCH  27  28
ENDBRANCH  26  27
BRANCH  26  31
HETATM   31  N2  UNL     1      -6.874  -4.483 -17.445  1.00  0.00    -0.375 N 
ATOM     32  H2  UNL     1      -7.097  -4.227 -18.406  1.00  0.00     0.160 HD
BRANCH  31  33
HETATM   33  C12 UNL     1      -5.956  -5.617 -17.213  1.00  0.00     0.175 C 
BRANCH  33  34
HETATM   34  C13 UNL     1      -4.550  -5.279 -17.360  1.00  0.00     0.008 C 
HETATM   35  C14 UNL     1      -3.506  -6.105 -17.927  1.00  0.00    -0.089 C 
HETATM   36  C15 UNL     1      -3.344  -6.657 -19.249  1.00  0.00     0.042 C 
HETATM   37  C16 UNL     1      -3.158  -7.280 -16.939  1.00  0.00     0.042 C 
ENDBRANCH  33  34
BRANCH  33  38
HETATM   38  C17 UNL     1      -6.513  -6.598 -18.154  1.00  0.00     0.164 C 
HETATM   39  O4  UNL     1      -7.080  -6.053 -19.172  1.00  0.00    -0.294 OA
BRANCH  38  40
HETATM   40  C18 UNL     1      -6.538  -8.026 -18.157  1.00  0.00     0.189 C 
BRANCH  40  41
HETATM   41  S1  UNL     1      -8.124  -8.647 -17.482  1.00  0.00     0.018 S 
HETATM   42  C19 UNL     1      -7.762 -10.362 -17.079  1.00  0.00     0.127 C 
HETATM   43  O5  UNL     1      -9.142  -8.699 -18.844  1.00  0.00    -0.258 OA
ENDBRANCH  40  41
ENDBRANCH  38  40
ENDBRANCH  33  38
ENDBRANCH  31  33
ENDBRANCH  26  31
ENDBRANCH  24  26
ENDBRANCH   1  24
TORSDOF 17
ENDMDL
MODEL 2
REMARK VINA RESULT: -8.349317402      1.415      1.696
REMARK  17 active torsions:
REMARK  status: ('A' for Active; 'I' for Inactive)
REMARK    1  A    between atoms: C2_2  and  C3_4 
REMARK    2  A    between atoms: C3_4  and  C4_5 
REMARK    3  A    between atoms: C4_5  and  N1_6 
REMARK    4  A    between atoms: C4_5  and  C20_32 
REMARK    5  A    between atoms: N1_6  and  C5_9 
REMARK    6  A    between atoms: C5_9  and  O2_10 
REMARK    7  A    between atoms: C5_9  and  C6_12 
REMARK    8  A    between atoms: C6_12  and  C7_14 
REMARK    9  A    between atoms: C7_14  and  C8_15 
REMARK   10  A    between atoms: C7_14  and  N2_19 
REMARK   11  A    between atoms: C8_15  and  C9_16 
REMARK   12  A    between atoms: N2_19  and  C12_21 
REMARK   13  A    between atoms: C12_21  and  C13_22 
REMARK   14  A    between atoms: C12_21  and  C17_26 
REMARK   15  A    between atoms: C17_26  and  C18_28 
REMARK   16  A    between atoms: C18_28  and  S1_29 
REMARK       I    between atoms: N3_35  and  C23_36 
REMARK   17  A    between atoms: C23_36  and  C24_38 
ROOT
HETATM    1  C5  UNL     1      -5.335  -1.101 -15.690  1.00  0.00     0.396 C 
ENDROOT
BRANCH   1   2
HETATM    2  N1  UNL     1      -5.208  -0.940 -14.271  1.00  0.00    -0.036 N 
ATOM      3  H12 UNL     1      -5.427  -1.805 -13.776  1.00  0.00     0.281 HD
ATOM      4  H11 UNL     1      -5.949  -0.351 -13.893  1.00  0.00     0.281 HD
BRANCH   2   5
HETATM    5  C4  UNL     1      -3.877  -0.432 -13.907  1.00  0.00     0.200 C 
BRANCH   5   6
HETATM    6  C3  UNL     1      -2.956  -1.533 -13.544  1.00  0.00     0.111 C 
BRANCH   6   7
HETATM    7  C2  UNL     1      -3.506  -2.886 -13.531  1.00  0.00     0.125 C 
HETATM    8  C1  UNL     1      -3.067  -3.984 -14.424  1.00  0.00     0.091 C 
HETATM    9  O1  UNL     1      -4.404  -3.164 -12.729  1.00  0.00    -0.298 OA
ENDBRANCH   6   7
ENDBRANCH   5   6
BRANCH   5  10
HETATM   10  C20 UNL     1      -4.091   0.631 -12.891  1.00  0.00     0.020 C 
HETATM   11  C21 UNL     1      -4.847   0.058 -11.674  1.00  0.00     0.027 C 
HETATM   12  C22 UNL     1      -5.297   1.274 -10.873  1.00  0.00     0.126 C 
HETATM   13  N3  UNL     1      -4.510   2.448 -11.180  1.00  0.00    -0.351 N 
HETATM   14  C23 UNL     1      -5.034   3.751 -11.355  1.00  0.00     0.227 C 
HETATM   15  C28 UNL     1      -3.064   2.209 -11.294  1.00  0.00     0.126 C 
HETATM   16  O6  UNL     1      -4.198   4.680 -11.624  1.00  0.00    -0.273 OA
HETATM   17  C29 UNL     1      -2.776   1.169 -12.330  1.00  0.00     0.027 C 
BRANCH  14  18
HETATM   18  C24 UNL     1      -6.442   4.142 -11.261  1.00  0.00     0.030 C 
HETATM   19  C25 UNL     1      -6.631   5.540 -11.768  1.00  0.00     0.025 C 
HETATM   20  C26 UNL     1      -7.319   3.146 -12.000  1.00  0.00     0.025 C 
HETATM   21  C27 UNL     1      -6.931   4.129  -9.807  1.00  0.00     0.025 C 
ENDBRANCH  14  18
ENDBRANCH   5  10
ENDBRANCH   2   5
ENDBRANCH   1   2
BRANCH   1  22
HETATM   22  O2  UNL     1      -5.463   0.058 -16.412  1.00  0.00    -0.364 OA
ATOM     23  H2  UNL     1      -5.092   0.042 -17.286  1.00  0.00     0.212 HD
ENDBRANCH   1  22
BRANCH   1  24
HETATM   24  C6  UNL     1      -6.433  -2.069 -16.023  1.00  0.00     0.227 C 
HETATM   25  O3  UNL     1      -7.485  -1.523 -16.411  1.00  0.00    -0.286 OA
BRANCH  24  26
HETATM   26  C7  UNL     1      -6.359  -3.514 -15.932  1.00  0.00     0.057 C 
BRANCH  26  27
HETATM   27  C8  UNL     1      -7.362  -4.069 -14.958  1.00  0.00     0.064 C 
BRANCH  27  28
HETATM   28  C9  UNL     1      -8.581  -4.722 -15.433  1.00  0.00    -0.017 C 
HETATM   29  C10 UNL     1      -9.848  -3.974 -15.541  1.00  0.00     0.010 C 
HETATM   30  C11 UNL     1      -8.830  -5.902 -14.460  1.00  0.00     0.010 C 
ENDBRANCH  27  28
ENDBRANCH  26  27
BRANCH  26  31
HETATM   31  N2  UNL     1      -6.259  -4.310 -17.071  1.00  0.00    -0.375 N 
ATOM     32  H2  UNL     1      -6.835  -4.076 -17.880  1.00  0.00     0.160 HD
BRANCH  31  33
HETATM   33  C12 UNL     1      -5.358  -5.476 -17.162  1.00  0.00     0.175 C 
BRANCH  33  34
HETATM   34  C13 UNL     1      -4.111  -5.207 -17.860  1.00  0.00     0.008 C 
HETATM   35  C14 UNL     1      -3.096  -6.166 -18.239  1.00  0.00    -0.089 C 
HETATM   36  C15 UNL     1      -3.150  -7.311 -19.113  1.00  0.00     0.042 C 
HETATM   37  C16 UNL     1      -2.317  -6.653 -16.960  1.00  0.00     0.042 C 
ENDBRANCH  33  34
BRANCH  33  38
HETATM   38  C17 UNL     1      -6.266  -6.460 -17.764  1.00  0.00     0.164 C 
HETATM   39  O4  UNL     1      -6.121  -7.643 -17.278  1.00  0.00    -0.294 OA
BRANCH  38  40
HETATM   40  C18 UNL     1      -7.276  -6.354 -18.769  1.00  0.00     0.189 C 
BRANCH  40  41
HETATM   41  S1  UNL     1      -8.908  -6.852 -18.101  1.00  0.00     0.018 S 
HETATM   42  C19 UNL     1      -9.196  -8.457 -18.860  1.00  0.00     0.127 C 
HETATM   43  O5  UNL     1      -9.991  -5.783 -18.860  1.00  0.00    -0.258 OA
ENDBRANCH  40  41
ENDBRANCH  38  40
ENDBRANCH  33  38
ENDBRANCH  31  33
ENDBRANCH  26  31
ENDBRANCH  24  26
ENDBRANCH   1  24
TORSDOF 17
ENDMDL
MODEL 3
REMARK VINA RESULT: -8.336988874      3.387      9.569
REMARK  17 active torsions:
REMARK  status: ('A' for Active; 'I' for Inactive)
REMARK    1  A    between atoms: C2_2  and  C3_4 
REMARK    2  A    between atoms: C3_4  and  C4_5 
REMARK    3  A    between atoms: C4_5  and  N1_6 
REMARK    4  A    between atoms: C4_5  and  C20_32 
REMARK    5  A    between atoms: N1_6  and  C5_9 
REMARK    6  A    between atoms: C5_9  and  O2_10 
REMARK    7  A    between atoms: C5_9  and  C6_12 
REMARK    8  A    between atoms: C6_12  and  C7_14 
REMARK    9  A    between atoms: C7_14  and  C8_15 
REMARK   10  A    between atoms: C7_14  and  N2_19 
REMARK   11  A    between atoms: C8_15  and  C9_16 
REMARK   12  A    between atoms: N2_19  and  C12_21 
REMARK   13  A    between atoms: C12_21  and  C13_22 
REMARK   14  A    between atoms: C12_21  and  C17_26 
REMARK   15  A    between atoms: C17_26  and  C18_28 
REMARK   16  A    between atoms: C18_28  and  S1_29 
REMARK       I    between atoms: N3_35  and  C23_36 
REMARK   17  A    between atoms: C23_36  and  C24_38 
ROOT
HETATM    1  C5  UNL     1      -5.490  -0.338 -14.439  1.00  0.00     0.396 C 
ENDROOT
BRANCH   1   2
HETATM    2  N1  UNL     1      -6.174  -1.031 -15.490  1.00  0.00    -0.036 N 
ATOM      3  H12 UNL     1      -6.092  -0.537 -16.379  1.00  0.00     0.281 HD
ATOM      4  H11 UNL     1      -7.186  -0.979 -15.375  1.00  0.00     0.281 HD
BRANCH   2   5
HETATM    5  C4  UNL     1      -5.715  -2.422 -15.602  1.00  0.00     0.200 C 
BRANCH   5   6
HETATM    6  C3  UNL     1      -4.614  -2.554 -16.582  1.00  0.00     0.111 C 
BRANCH   6   7
HETATM    7  C2  UNL     1      -3.391  -3.212 -16.127  1.00  0.00     0.125 C 
HETATM    8  C1  UNL     1      -2.800  -4.419 -16.751  1.00  0.00     0.091 C 
HETATM    9  O1  UNL     1      -2.786  -2.751 -15.154  1.00  0.00    -0.298 OA
ENDBRANCH   6   7
ENDBRANCH   5   6
BRANCH   5  10
HETATM   10  C20 UNL     1      -6.925  -3.253 -15.833  1.00  0.00     0.020 C 
HETATM   11  C21 UNL     1      -7.110  -4.256 -14.674  1.00  0.00     0.027 C 
HETATM   12  C22 UNL     1      -8.153  -5.252 -15.169  1.00  0.00     0.126 C 
HETATM   13  N3  UNL     1      -8.953  -4.711 -16.245  1.00  0.00    -0.351 N 
HETATM   14  C23 UNL     1      -9.333  -5.422 -17.409  1.00  0.00     0.227 C 
HETATM   15  C28 UNL     1      -9.384  -3.318 -16.054  1.00  0.00     0.126 C 
HETATM   16  O6  UNL     1     -10.044  -4.794 -18.265  1.00  0.00    -0.273 OA
HETATM   17  C29 UNL     1      -8.206  -2.420 -15.850  1.00  0.00     0.027 C 
BRANCH  14  18
HETATM   18  C24 UNL     1      -8.991  -6.809 -17.729  1.00  0.00     0.030 C 
HETATM   19  C25 UNL     1      -7.650  -6.875 -18.397  1.00  0.00     0.025 C 
HETATM   20  C26 UNL     1      -9.047  -7.672 -16.481  1.00  0.00     0.025 C 
HETATM   21  C27 UNL     1     -10.001  -7.423 -18.707  1.00  0.00     0.025 C 
ENDBRANCH  14  18
ENDBRANCH   5  10
ENDBRANCH   2   5
ENDBRANCH   1   2
BRANCH   1  22
HETATM   22  O2  UNL     1      -4.788  -1.126 -13.563  1.00  0.00    -0.364 OA
ATOM     23  H2  UNL     1      -4.851  -0.882 -12.647  1.00  0.00     0.212 HD
ENDBRANCH   1  22
BRANCH   1  24
HETATM   24  C6  UNL     1      -6.422   0.584 -13.709  1.00  0.00     0.227 C 
HETATM   25  O3  UNL     1      -7.567   0.637 -14.201  1.00  0.00    -0.286 OA
BRANCH  24  26
HETATM   26  C7  UNL     1      -6.103   1.372 -12.534  1.00  0.00     0.057 C 
BRANCH  26  27
HETATM   27  C8  UNL     1      -7.306   1.583 -11.654  1.00  0.00     0.064 C 
BRANCH  27  28
HETATM   28  C9  UNL     1      -7.703   0.568 -10.679  1.00  0.00    -0.017 C 
HETATM   29  C10 UNL     1      -9.003  -0.120 -10.788  1.00  0.00     0.010 C 
HETATM   30  C11 UNL     1      -7.678   1.279  -9.302  1.00  0.00     0.010 C 
ENDBRANCH  27  28
ENDBRANCH  26  27
BRANCH  26  31
HETATM   31  N2  UNL     1      -4.957   1.124 -11.782  1.00  0.00    -0.375 N 
ATOM     32  H2  UNL     1      -4.989   0.392 -11.073  1.00  0.00     0.160 HD
BRANCH  31  33
HETATM   33  C12 UNL     1      -3.698   1.874 -11.963  1.00  0.00     0.175 C 
BRANCH  33  34
HETATM   34  C13 UNL     1      -2.502   1.102 -11.665  1.00  0.00     0.008 C 
HETATM   35  C14 UNL     1      -1.327   1.549 -10.950  1.00  0.00    -0.089 C 
HETATM   36  C15 UNL     1      -1.162   2.024  -9.598  1.00  0.00     0.042 C 
HETATM   37  C16 UNL     1      -0.504   2.547 -11.846  1.00  0.00     0.042 C 
ENDBRANCH  33  34
BRANCH  33  38
HETATM   38  C17 UNL     1      -3.969   3.046 -11.121  1.00  0.00     0.164 C 
HETATM   39  O4  UNL     1      -3.592   4.151 -11.660  1.00  0.00    -0.294 OA
BRANCH  38  40
HETATM   40  C18 UNL     1      -4.572   3.191  -9.834  1.00  0.00     0.189 C 
BRANCH  40  41
HETATM   41  S1  UNL     1      -4.077   4.778  -9.063  1.00  0.00     0.018 S 
HETATM   42  C19 UNL     1      -3.325   4.269  -7.511  1.00  0.00     0.127 C 
HETATM   43  O5  UNL     1      -5.560   5.496  -8.643  1.00  0.00    -0.258 OA
ENDBRANCH  40  41
ENDBRANCH  38  40
ENDBRANCH  33  38
ENDBRANCH  31  33
ENDBRANCH  26  31
ENDBRANCH  24  26
ENDBRANCH   1  24
TORSDOF 17
ENDMDL
MODEL 4
REMARK VINA RESULT: -8.301615935      3.164      9.050
REMARK  17 active torsions:
REMARK  status: ('A' for Active; 'I' for Inactive)
REMARK    1  A    between atoms: C2_2  and  C3_4 
REMARK    2  A    between atoms: C3_4  and  C4_5 
REMARK    3  A    between atoms: C4_5  and  N1_6 
REMARK    4  A    between atoms: C4_5  and  C20_32 
REMARK    5  A    between atoms: N1_6  and  C5_9 
REMARK    6  A    between atoms: C5_9  and  O2_10 
REMARK    7  A    between atoms: C5_9  and  C6_12 
REMARK    8  A    between atoms: C6_12  and  C7_14 
REMARK    9  A    between atoms: C7_14  and  C8_15 
REMARK   10  A    between atoms: C7_14  and  N2_19 
REMARK   11  A    between atoms: C8_15  and  C9_16 
REMARK   12  A    between atoms: N2_19  and  C12_21 
REMARK   13  A    between atoms: C12_21  and  C13_22 
REMARK   14  A    between atoms: C12_21  and  C17_26 
REMARK   15  A    between atoms: C17_26  and  C18_28 
REMARK   16  A    between atoms: C18_28  and  S1_29 
REMARK       I    between atoms: N3_35  and  C23_36 
REMARK   17  A    between atoms: C23_36  and  C24_38 
ROOT
HETATM    1  C5  UNL     1      -3.535  -1.128 -13.480  1.00  0.00     0.396 C 
ENDROOT
BRANCH   1   2
HETATM    2  N1  UNL     1      -3.725  -2.028 -14.579  1.00  0.00    -0.036 N 
ATOM      3  H12 UNL     1      -2.860  -2.167 -15.102  1.00  0.00     0.281 HD
ATOM      4  H11 UNL     1      -4.287  -1.604 -15.317  1.00  0.00     0.281 HD
BRANCH   2   5
HETATM    5  C4  UNL     1      -4.298  -3.306 -14.132  1.00  0.00     0.200 C 
BRANCH   5   6
HETATM    6  C3  UNL     1      -3.312  -4.405 -14.226  1.00  0.00     0.111 C 
BRANCH   6   7
HETATM    7  C2  UNL     1      -2.142  -4.183 -15.072  1.00  0.00     0.125 C 
HETATM    8  C1  UNL     1      -2.061  -4.538 -16.509  1.00  0.00     0.091 C 
HETATM    9  O1  UNL     1      -1.134  -3.665 -14.582  1.00  0.00    -0.298 OA
ENDBRANCH   6   7
ENDBRANCH   5   6
BRANCH   5  10
HETATM   10  C20 UNL     1      -5.575  -3.481 -14.871  1.00  0.00     0.020 C 
HETATM   11  C21 UNL     1      -6.768  -3.125 -13.960  1.00  0.00     0.027 C 
HETATM   12  C22 UNL     1      -8.000  -3.651 -14.689  1.00  0.00     0.126 C 
HETATM   13  N3  UNL     1      -7.758  -3.832 -16.103  1.00  0.00    -0.351 N 
HETATM   14  C23 UNL     1      -8.198  -4.941 -16.864  1.00  0.00     0.227 C 
HETATM   15  C28 UNL     1      -7.005  -2.745 -16.744  1.00  0.00     0.126 C 
HETATM   16  O6  UNL     1      -7.898  -4.946 -18.107  1.00  0.00    -0.273 OA
HETATM   17  C29 UNL     1      -5.687  -2.538 -16.067  1.00  0.00     0.027 C 
BRANCH  14  18
HETATM   18  C24 UNL     1      -8.962  -6.087 -16.369  1.00  0.00     0.030 C 
HETATM   19  C25 UNL     1      -8.900  -6.148 -14.872  1.00  0.00     0.025 C 
HETATM   20  C26 UNL     1     -10.393  -6.030 -16.876  1.00  0.00     0.025 C 
HETATM   21  C27 UNL     1      -8.389  -7.411 -16.890  1.00  0.00     0.025 C 
ENDBRANCH  14  18
ENDBRANCH   5  10
ENDBRANCH   2   5
ENDBRANCH   1   2
BRANCH   1  22
HETATM   22  O2  UNL     1      -3.591  -1.691 -12.231  1.00  0.00    -0.364 OA
ATOM     23  H2  UNL     1      -4.072  -1.198 -11.577  1.00  0.00     0.212 HD
ENDBRANCH   1  22
BRANCH   1  24
HETATM   24  C6  UNL     1      -4.462   0.048 -13.584  1.00  0.00     0.227 C 
HETATM   25  O3  UNL     1      -4.551   0.519 -14.736  1.00  0.00    -0.286 OA
BRANCH  24  26
HETATM   26  C7  UNL     1      -5.221   0.641 -12.500  1.00  0.00     0.057 C 
BRANCH  26  27
HETATM   27  C8  UNL     1      -6.387  -0.219 -12.093  1.00  0.00     0.064 C 
BRANCH  27  28
HETATM   28  C9  UNL     1      -7.723   0.033 -12.631  1.00  0.00    -0.017 C 
HETATM   29  C10 UNL     1      -8.038   1.303 -13.313  1.00  0.00     0.010 C 
HETATM   30  C11 UNL     1      -8.689  -0.088 -11.425  1.00  0.00     0.010 C 
ENDBRANCH  27  28
ENDBRANCH  26  27
BRANCH  26  31
HETATM   31  N2  UNL     1      -4.589   1.201 -11.392  1.00  0.00    -0.375 N 
ATOM     32  H2  UNL     1      -5.019   1.084 -10.475  1.00  0.00     0.160 HD
BRANCH  31  33
HETATM   33  C12 UNL     1      -3.324   1.958 -11.485  1.00  0.00     0.175 C 
BRANCH  33  34
HETATM   34  C13 UNL     1      -2.189   1.290 -10.868  1.00  0.00     0.008 C 
HETATM   35  C14 UNL     1      -0.988   1.907 -10.348  1.00  0.00    -0.089 C 
HETATM   36  C15 UNL     1      -0.795   2.864  -9.287  1.00  0.00     0.042 C 
HETATM   37  C16 UNL     1      -0.090   2.414 -11.537  1.00  0.00     0.042 C 
ENDBRANCH  33  34
BRANCH  33  38
HETATM   38  C17 UNL     1      -3.745   3.240 -10.906  1.00  0.00     0.164 C 
HETATM   39  O4  UNL     1      -3.407   4.252 -11.626  1.00  0.00    -0.294 OA
BRANCH  38  40
HETATM   40  C18 UNL     1      -4.459   3.574  -9.715  1.00  0.00     0.189 C 
BRANCH  40  41
HETATM   41  S1  UNL     1      -6.103   4.273 -10.120  1.00  0.00     0.018 S 
HETATM   42  C19 UNL     1      -6.637   5.010  -8.569  1.00  0.00     0.127 C 
HETATM   43  O5  UNL     1      -7.078   2.896 -10.335  1.00  0.00    -0.258 OA
ENDBRANCH  40  41
ENDBRANCH  38  40
ENDBRANCH  33  38
ENDBRANCH  31  33
ENDBRANCH  26  31
ENDBRANCH  24  26
ENDBRANCH   1  24
TORSDOF 17
ENDMDL
MODEL 5
REMARK VINA RESULT: -8.249662328      3.414     10.237
REMARK  17 active torsions:
REMARK  status: ('A' for Active; 'I' for Inactive)
REMARK    1  A    between atoms: C2_2  and  C3_4 
REMARK    2  A    between atoms: C3_4  and  C4_5 
REMARK    3  A    between atoms: C4_5  and  N1_6 
REMARK    4  A    between atoms: C4_5  and  C20_32 
REMARK    5  A    between atoms: N1_6  and  C5_9 
REMARK    6  A    between atoms: C5_9  and  O2_10 
REMARK    7  A    between atoms: C5_9  and  C6_12 
REMARK    8  A    between atoms: C6_12  and  C7_14 
REMARK    9  A    between atoms: C7_14  and  C8_15 
REMARK   10  A    between atoms: C7_14  and  N2_19 
REMARK   11  A    between atoms: C8_15  and  C9_16 
REMARK   12  A    between atoms: N2_19  and  C12_21 
REMARK   13  A    between atoms: C12_21  and  C13_22 
REMARK   14  A    between atoms: C12_21  and  C17_26 
REMARK   15  A    between atoms: C17_26  and  C18_28 
REMARK   16  A    between atoms: C18_28  and  S1_29 
REMARK       I    between atoms: N3_35  and  C23_36 
REMARK   17  A    between atoms: C23_36  and  C24_38 
ROOT
HETATM    1  C5  UNL     1      -5.960  -0.668 -13.759  1.00  0.00     0.396 C 
ENDROOT
BRANCH   1   2
HETATM    2  N1  UNL     1      -6.264  -1.107 -15.089  1.00  0.00    -0.036 N 
ATOM      3  H12 UNL     1      -5.897  -0.462 -15.789  1.00  0.00     0.281 HD
ATOM      4  H11 UNL     1      -7.258  -1.015 -15.295  1.00  0.00     0.281 HD
BRANCH   2   5
HETATM    5  C4  UNL     1      -5.791  -2.480 -15.321  1.00  0.00     0.200 C 
BRANCH   5   6
HETATM    6  C3  UNL     1      -4.677  -2.514 -16.295  1.00  0.00     0.111 C 
BRANCH   6   7
HETATM    7  C2  UNL     1      -3.399  -3.046 -15.828  1.00  0.00     0.125 C 
HETATM    8  C1  UNL     1      -2.799  -2.761 -14.504  1.00  0.00     0.091 C 
HETATM    9  O1  UNL     1      -2.749  -3.787 -16.571  1.00  0.00    -0.298 OA
ENDBRANCH   6   7
ENDBRANCH   5   6
BRANCH   5  10
HETATM   10  C20 UNL     1      -6.991  -3.294 -15.641  1.00  0.00     0.020 C 
HETATM   11  C21 UNL     1      -7.256  -4.315 -14.514  1.00  0.00     0.027 C 
HETATM   12  C22 UNL     1      -8.274  -5.293 -15.091  1.00  0.00     0.126 C 
HETATM   13  N3  UNL     1      -9.001  -4.726 -16.205  1.00  0.00    -0.351 N 
HETATM   14  C23 UNL     1      -9.313  -5.415 -17.403  1.00  0.00     0.227 C 
HETATM   15  C28 UNL     1      -9.431  -3.333 -16.017  1.00  0.00     0.126 C 
HETATM   16  O6  UNL     1      -9.963  -4.765 -18.291  1.00  0.00    -0.273 OA
HETATM   17  C29 UNL     1      -8.261  -2.449 -15.724  1.00  0.00     0.027 C 
BRANCH  14  18
HETATM   18  C24 UNL     1      -8.963  -6.798 -17.726  1.00  0.00     0.030 C 
HETATM   19  C25 UNL     1      -7.611  -6.858 -18.371  1.00  0.00     0.025 C 
HETATM   20  C26 UNL     1      -9.038  -7.669 -16.483  1.00  0.00     0.025 C 
HETATM   21  C27 UNL     1      -9.956  -7.409 -18.723  1.00  0.00     0.025 C 
ENDBRANCH  14  18
ENDBRANCH   5  10
ENDBRANCH   2   5
ENDBRANCH   1   2
BRANCH   1  22
HETATM   22  O2  UNL     1      -7.027  -0.238 -13.014  1.00  0.00    -0.364 OA
ATOM     23  H2  UNL     1      -7.713  -0.878 -12.866  1.00  0.00     0.212 HD
ENDBRANCH   1  22
BRANCH   1  24
HETATM   24  C6  UNL     1      -4.861   0.355 -13.771  1.00  0.00     0.227 C 
HETATM   25  O3  UNL     1      -4.442   0.631 -14.912  1.00  0.00    -0.286 OA
BRANCH  24  26
HETATM   26  C7  UNL     1      -4.288   1.010 -12.611  1.00  0.00     0.057 C 
BRANCH  26  27
HETATM   27  C8  UNL     1      -2.820   0.712 -12.464  1.00  0.00     0.064 C 
BRANCH  27  28
HETATM   28  C9  UNL     1      -1.964   1.565 -11.642  1.00  0.00    -0.017 C 
HETATM   29  C10 UNL     1      -0.546   1.778 -11.990  1.00  0.00     0.010 C 
HETATM   30  C11 UNL     1      -1.996   0.945 -10.221  1.00  0.00     0.010 C 
ENDBRANCH  27  28
ENDBRANCH  26  27
BRANCH  26  31
HETATM   31  N2  UNL     1      -4.569   2.342 -12.316  1.00  0.00    -0.375 N 
ATOM     32  H2  UNL     1      -4.277   3.060 -12.978  1.00  0.00     0.160 HD
BRANCH  31  33
HETATM   33  C12 UNL     1      -5.272   2.763 -11.087  1.00  0.00     0.175 C 
BRANCH  33  34
HETATM   34  C13 UNL     1      -6.722   2.751 -11.202  1.00  0.00     0.008 C 
HETATM   35  C14 UNL     1      -7.681   2.500 -10.149  1.00  0.00    -0.089 C 
HETATM   36  C15 UNL     1      -7.946   3.202  -8.917  1.00  0.00     0.042 C 
HETATM   37  C16 UNL     1      -7.664   0.974  -9.763  1.00  0.00     0.042 C 
ENDBRANCH  33  34
BRANCH  33  38
HETATM   38  C17 UNL     1      -4.627   4.060 -10.849  1.00  0.00     0.164 C 
HETATM   39  O4  UNL     1      -3.955   4.481 -11.862  1.00  0.00    -0.294 OA
BRANCH  38  40
HETATM   40  C18 UNL     1      -4.612   4.939  -9.723  1.00  0.00     0.189 C 
BRANCH  40  41
HETATM   41  S1  UNL     1      -3.389   4.375  -8.480  1.00  0.00     0.018 S 
HETATM   42  C19 UNL     1      -3.349   5.725  -7.293  1.00  0.00     0.127 C 
HETATM   43  O5  UNL     1      -1.909   4.453  -9.315  1.00  0.00    -0.258 OA
ENDBRANCH  40  41
ENDBRANCH  38  40
ENDBRANCH  33  38
ENDBRANCH  31  33
ENDBRANCH  26  31
ENDBRANCH  24  26
ENDBRANCH   1  24
TORSDOF 17
ENDMDL
