MODEL 1
REMARK VINA RESULT: -7.706129940      0.000      0.000
REMARK  4 active torsions:
REMARK  status: ('A' for Active; 'I' for Inactive)
REMARK    1  A    between atoms: N1_6  and  S1_7 
REMARK    2  A    between atoms: S1_7  and  N2_10 
REMARK    3  A    between atoms: C8_13  and  N3_14 
REMARK       I    between atoms: N3_14  and  C9_16 
REMARK       I    between atoms: C9_16  and  N4_18 
REMARK    4  A    between atoms: N4_18  and  C10_20 
ROOT
HETATM    1  N2  UNL     1      25.320  11.290  20.208  1.00  0.00    -0.222 NA
HETATM    2  C6  UNL     1      24.869  11.159  18.848  1.00  0.00     0.108 C 
HETATM    3  C7  UNL     1      23.652  10.230  18.913  1.00  0.00     0.041 C 
HETATM    4  C8  UNL     1      22.545  11.025  19.552  1.00  0.00     0.088 C 
HETATM    5  C15 UNL     1      22.987  11.981  20.590  1.00  0.00     0.041 C 
HETATM    6  C16 UNL     1      24.364  11.788  21.113  1.00  0.00     0.108 C 
ENDROOT
BRANCH   4   7
HETATM    7  N3  UNL     1      21.528  10.101  19.987  1.00  0.00    -0.338 N 
HETATM    8  C9  UNL     1      20.142  10.320  19.846  1.00  0.00     0.316 C 
HETATM    9  O2  UNL     1      19.750  11.375  19.313  1.00  0.00    -0.247 OA
HETATM   10  N4  UNL     1      19.191   9.378  20.291  1.00  0.00    -0.339 N 
ATOM     11  H4  UNL     1      19.522   8.517  20.726  1.00  0.00     0.164 HD
ATOM     12  H3  UNL     1      21.831   9.232  20.425  1.00  0.00     0.164 HD
BRANCH  10  13
HETATM   13  C10 UNL     1      17.782   9.580  20.159  1.00  0.00     0.086 C 
HETATM   14  C11 UNL     1      17.141   8.247  19.788  1.00  0.00     0.025 C 
HETATM   15  C12 UNL     1      15.683   8.487  20.108  1.00  0.00     0.002 C 
HETATM   16  C13 UNL     1      15.719   9.278  21.381  1.00  0.00     0.002 C 
HETATM   17  C14 UNL     1      17.087   9.956  21.433  1.00  0.00     0.025 C 
ENDBRANCH  10  13
ENDBRANCH   4   7
BRANCH   1  18
HETATM   18  S1  UNL     1      26.884  11.980  20.341  1.00  0.00     0.141 S 
HETATM   19  O1  UNL     1      27.013  13.008  19.249  1.00  0.00    -0.227 OA
HETATM   20  S2  UNL     1      27.010  12.738  21.889  1.00  0.00     0.041 SA
BRANCH  18  21
HETATM   21  N1  UNL     1      28.005  10.709  20.190  1.00  0.00    -0.218 NA
HETATM   22  C2  UNL     1      29.310  10.963  20.649  1.00  0.00     0.069 C 
HETATM   23  C1  UNL     1      29.764  12.374  20.663  1.00  0.00     0.027 C 
HETATM   24  C3  UNL     1      29.422  10.294  22.015  1.00  0.00     0.021 C 
HETATM   25  C4  UNL     1      28.617   9.015  21.748  1.00  0.00     0.017 C 
HETATM   26  C5  UNL     1      27.472   9.564  20.934  1.00  0.00     0.106 C 
ENDBRANCH  18  21
ENDBRANCH   1  18
TORSDOF 4
ENDMDL
MODEL 2
REMARK VINA RESULT: -7.657908751      1.186      1.823
REMARK  4 active torsions:
REMARK  status: ('A' for Active; 'I' for Inactive)
REMARK    1  A    between atoms: N1_6  and  S1_7 
REMARK    2  A    between atoms: S1_7  and  N2_10 
REMARK    3  A    between atoms: C8_13  and  N3_14 
REMARK       I    between atoms: N3_14  and  C9_16 
REMARK       I    between atoms: C9_16  and  N4_18 
REMARK    4  A    between atoms: N4_18  and  C10_20 
ROOT
HETATM    1  N2  UNL     1      24.740  11.648  19.612  1.00  0.00    -0.222 NA
HETATM    2  C6  UNL     1      24.310  10.762  18.562  1.00  0.00     0.108 C 
HETATM    3  C7  UNL     1      23.144   9.966  19.157  1.00  0.00     0.041 C 
HETATM    4  C8  UNL     1      21.990  10.925  19.273  1.00  0.00     0.088 C 
HETATM    5  C15 UNL     1      22.370  12.317  19.598  1.00  0.00     0.041 C 
HETATM    6  C16 UNL     1      23.750  12.515  20.110  1.00  0.00     0.108 C 
ENDROOT
BRANCH   4   7
HETATM    7  N3  UNL     1      21.020  10.347  20.169  1.00  0.00    -0.338 N 
HETATM    8  C9  UNL     1      19.633  10.307  19.920  1.00  0.00     0.316 C 
HETATM    9  O2  UNL     1      19.196  10.798  18.862  1.00  0.00    -0.247 OA
HETATM   10  N4  UNL     1      18.729   9.728  20.835  1.00  0.00    -0.339 N 
ATOM     11  H4  UNL     1      19.096   9.328  21.699  1.00  0.00     0.164 HD
ATOM     12  H3  UNL     1      21.360   9.940  21.040  1.00  0.00     0.164 HD
BRANCH  10  13
HETATM   13  C10 UNL     1      17.319   9.677  20.603  1.00  0.00     0.086 C 
HETATM   14  C11 UNL     1      16.987   8.329  19.973  1.00  0.00     0.025 C 
HETATM   15  C12 UNL     1      15.493   8.229  20.187  1.00  0.00     0.002 C 
HETATM   16  C13 UNL     1      15.289   8.785  21.564  1.00  0.00     0.002 C 
HETATM   17  C14 UNL     1      16.486   9.692  21.848  1.00  0.00     0.025 C 
ENDBRANCH  10  13
ENDBRANCH   4   7
BRANCH   1  18
HETATM   18  S1  UNL     1      26.264  12.373  19.307  1.00  0.00     0.141 S 
HETATM   19  O1  UNL     1      26.933  11.567  18.226  1.00  0.00    -0.227 OA
HETATM   20  S2  UNL     1      25.993  13.990  18.761  1.00  0.00     0.041 SA
BRANCH  18  21
HETATM   21  N1  UNL     1      27.126  12.359  20.773  1.00  0.00    -0.218 NA
HETATM   22  C2  UNL     1      27.883  11.205  21.047  1.00  0.00     0.069 C 
HETATM   23  C1  UNL     1      27.445   9.937  20.415  1.00  0.00     0.027 C 
HETATM   24  C3  UNL     1      29.332  11.556  20.723  1.00  0.00     0.021 C 
HETATM   25  C4  UNL     1      29.372  13.003  21.234  1.00  0.00     0.017 C 
HETATM   26  C5  UNL     1      28.033  13.509  20.759  1.00  0.00     0.106 C 
ENDBRANCH  18  21
ENDBRANCH   1  18
TORSDOF 4
ENDMDL
MODEL 3
REMARK VINA RESULT: -7.345588365      1.423      2.392
REMARK  4 active torsions:
REMARK  status: ('A' for Active; 'I' for Inactive)
REMARK    1  A    between atoms: N1_6  and  S1_7 
REMARK    2  A    between atoms: S1_7  and  N2_10 
REMARK    3  A    between atoms: C8_13  and  N3_14 
REMARK       I    between atoms: N3_14  and  C9_16 
REMARK       I    between atoms: C9_16  and  N4_18 
REMARK    4  A    between atoms: N4_18  and  C10_20 
ROOT
HETATM    1  N2  UNL     1      24.665  12.174  19.187  1.00  0.00    -0.222 NA
HETATM    2  C6  UNL     1      24.198  12.445  20.520  1.00  0.00     0.108 C 
HETATM    3  C7  UNL     1      22.671  12.332  20.446  1.00  0.00     0.041 C 
HETATM    4  C8  UNL     1      22.361  10.869  20.280  1.00  0.00     0.088 C 
HETATM    5  C15 UNL     1      23.346  10.114  19.476  1.00  0.00     0.041 C 
HETATM    6  C16 UNL     1      24.284  10.925  18.659  1.00  0.00     0.108 C 
ENDROOT
BRANCH   4   7
HETATM    7  N3  UNL     1      21.001  10.753  19.818  1.00  0.00    -0.338 N 
HETATM    8  C9  UNL     1      20.001  10.004  20.472  1.00  0.00     0.316 C 
HETATM    9  O2  UNL     1      20.292   9.396  21.520  1.00  0.00    -0.247 OA
HETATM   10  N4  UNL     1      18.683   9.926  19.974  1.00  0.00    -0.339 N 
ATOM     11  H4  UNL     1      18.455  10.428  19.116  1.00  0.00     0.164 HD
ATOM     12  H3  UNL     1      20.745  11.245  18.963  1.00  0.00     0.164 HD
BRANCH  10  13
HETATM   13  C10 UNL     1      17.654   9.173  20.621  1.00  0.00     0.086 C 
HETATM   14  C11 UNL     1      16.638  10.151  21.199  1.00  0.00     0.025 C 
HETATM   15  C12 UNL     1      15.438   9.266  21.445  1.00  0.00     0.002 C 
HETATM   16  C13 UNL     1      15.410   8.358  20.252  1.00  0.00     0.002 C 
HETATM   17  C14 UNL     1      16.833   8.326  19.698  1.00  0.00     0.025 C 
ENDBRANCH  10  13
ENDBRANCH   4   7
BRANCH   1  18
HETATM   18  S1  UNL     1      26.305  12.604  18.941  1.00  0.00     0.141 S 
HETATM   19  O1  UNL     1      26.911  11.558  18.043  1.00  0.00    -0.227 OA
HETATM   20  S2  UNL     1      26.349  14.149  18.166  1.00  0.00     0.041 SA
BRANCH  18  21
HETATM   21  N1  UNL     1      27.040  12.668  20.474  1.00  0.00    -0.218 NA
HETATM   22  C2  UNL     1      27.735  11.517  20.886  1.00  0.00     0.069 C 
HETATM   23  C1  UNL     1      27.313  10.220  20.303  1.00  0.00     0.027 C 
HETATM   24  C3  UNL     1      29.217  11.808  20.666  1.00  0.00     0.021 C 
HETATM   25  C4  UNL     1      29.259  13.284  21.083  1.00  0.00     0.017 C 
HETATM   26  C5  UNL     1      27.981  13.791  20.462  1.00  0.00     0.106 C 
ENDBRANCH  18  21
ENDBRANCH   1  18
TORSDOF 4
ENDMDL
MODEL 4
REMARK VINA RESULT: -7.335103970      2.759      3.947
REMARK  4 active torsions:
REMARK  status: ('A' for Active; 'I' for Inactive)
REMARK    1  A    between atoms: N1_6  and  S1_7 
REMARK    2  A    between atoms: S1_7  and  N2_10 
REMARK    3  A    between atoms: C8_13  and  N3_14 
REMARK       I    between atoms: N3_14  and  C9_16 
REMARK       I    between atoms: C9_16  and  N4_18 
REMARK    4  A    between atoms: N4_18  and  C10_20 
ROOT
HETATM    1  N2  UNL     1      22.349  12.290  20.328  1.00  0.00    -0.222 NA
HETATM    2  C6  UNL     1      21.389  12.092  19.274  1.00  0.00     0.108 C 
HETATM    3  C7  UNL     1      20.341  11.138  19.855  1.00  0.00     0.041 C 
HETATM    4  C8  UNL     1      19.559  11.931  20.868  1.00  0.00     0.088 C 
HETATM    5  C15 UNL     1      20.349  12.939  21.609  1.00  0.00     0.041 C 
HETATM    6  C16 UNL     1      21.825  12.801  21.530  1.00  0.00     0.108 C 
ENDROOT
BRANCH   4   7
HETATM    7  N3  UNL     1      18.844  11.000  21.705  1.00  0.00    -0.338 N 
HETATM    8  C9  UNL     1      17.672  11.315  22.422  1.00  0.00     0.316 C 
HETATM    9  O2  UNL     1      17.207  12.468  22.340  1.00  0.00    -0.247 OA
HETATM   10  N4  UNL     1      17.013  10.363  23.227  1.00  0.00    -0.339 N 
ATOM     11  H4  UNL     1      17.401   9.421  23.288  1.00  0.00     0.164 HD
ATOM     12  H3  UNL     1      19.211  10.052  21.783  1.00  0.00     0.164 HD
BRANCH  10  13
HETATM   13  C10 UNL     1      15.824  10.661  23.963  1.00  0.00     0.086 C 
HETATM   14  C11 UNL     1      14.631  10.124  23.179  1.00  0.00     0.025 C 
HETATM   15  C12 UNL     1      13.538  10.102  24.224  1.00  0.00     0.002 C 
HETATM   16  C13 UNL     1      14.236   9.629  25.464  1.00  0.00     0.002 C 
HETATM   17  C14 UNL     1      15.717   9.956  25.281  1.00  0.00     0.025 C 
ENDBRANCH  10  13
ENDBRANCH   4   7
BRANCH   1  18
HETATM   18  S1  UNL     1      23.804  13.022  19.793  1.00  0.00     0.141 S 
HETATM   19  O1  UNL     1      23.628  13.351  18.334  1.00  0.00    -0.227 OA
HETATM   20  S2  UNL     1      24.047  14.470  20.704  1.00  0.00     0.041 SA
BRANCH  18  21
HETATM   21  N1  UNL     1      25.057  11.905  20.073  1.00  0.00    -0.218 NA
HETATM   22  C2  UNL     1      25.378  11.041  19.011  1.00  0.00     0.069 C 
HETATM   23  C1  UNL     1      24.311  10.748  18.023  1.00  0.00     0.027 C 
HETATM   24  C3  UNL     1      26.640  11.606  18.365  1.00  0.00     0.021 C 
HETATM   25  C4  UNL     1      27.389  12.077  19.619  1.00  0.00     0.017 C 
HETATM   26  C5  UNL     1      26.257  12.672  20.419  1.00  0.00     0.106 C 
ENDBRANCH  18  21
ENDBRANCH   1  18
TORSDOF 4
ENDMDL
MODEL 5
REMARK VINA RESULT: -7.320528378      3.152      9.436
REMARK  4 active torsions:
REMARK  status: ('A' for Active; 'I' for Inactive)
REMARK    1  A    between atoms: N1_6  and  S1_7 
REMARK    2  A    between atoms: S1_7  and  N2_10 
REMARK    3  A    between atoms: C8_13  and  N3_14 
REMARK       I    between atoms: N3_14  and  C9_16 
REMARK       I    between atoms: C9_16  and  N4_18 
REMARK    4  A    between atoms: N4_18  and  C10_20 
ROOT
HETATM    1  N2  UNL     1      19.977  10.951  20.746  1.00  0.00    -0.222 NA
HETATM    2  C6  UNL     1      20.475  11.813  19.707  1.00  0.00     0.108 C 
HETATM    3  C7  UNL     1      21.877  12.230  20.166  1.00  0.00     0.041 C 
HETATM    4  C8  UNL     1      22.749  11.012  20.028  1.00  0.00     0.088 C 
HETATM    5  C15 UNL     1      22.070   9.728  20.309  1.00  0.00     0.041 C 
HETATM    6  C16 UNL     1      20.768   9.818  21.017  1.00  0.00     0.108 C 
ENDROOT
BRANCH   4   7
HETATM    7  N3  UNL     1      23.947  11.233  20.798  1.00  0.00    -0.338 N 
HETATM    8  C9  UNL     1      25.247  10.917  20.355  1.00  0.00     0.316 C 
HETATM    9  O2  UNL     1      25.392  10.411  19.225  1.00  0.00    -0.247 OA
HETATM   10  N4  UNL     1      26.385  11.156  21.153  1.00  0.00    -0.339 N 
ATOM     11  H4  UNL     1      26.256  11.570  22.076  1.00  0.00     0.164 HD
ATOM     12  H3  UNL     1      23.847  11.647  21.725  1.00  0.00     0.164 HD
BRANCH  10  13
HETATM   13  C10 UNL     1      27.712  10.842  20.723  1.00  0.00     0.086 C 
HETATM   14  C11 UNL     1      28.562  12.103  20.839  1.00  0.00     0.025 C 
HETATM   15  C12 UNL     1      29.969  11.551  20.790  1.00  0.00     0.002 C 
HETATM   16  C13 UNL     1      29.893  10.298  21.608  1.00  0.00     0.002 C 
HETATM   17  C14 UNL     1      28.430   9.859  21.595  1.00  0.00     0.025 C 
ENDBRANCH  10  13
ENDBRANCH   4   7
BRANCH   1  18
HETATM   18  S1  UNL     1      18.291  10.658  20.635  1.00  0.00     0.141 S 
HETATM   19  O1  UNL     1      17.704  11.752  19.784  1.00  0.00    -0.227 OA
HETATM   20  S2  UNL     1      18.058   9.123  19.875  1.00  0.00     0.041 SA
BRANCH  18  21
HETATM   21  N1  UNL     1      17.680  10.653  22.222  1.00  0.00    -0.218 NA
HETATM   22  C2  UNL     1      17.461  11.910  22.816  1.00  0.00     0.069 C 
HETATM   23  C1  UNL     1      18.273  13.048  22.321  1.00  0.00     0.027 C 
HETATM   24  C3  UNL     1      15.961  12.172  22.723  1.00  0.00     0.021 C 
HETATM   25  C4  UNL     1      15.430  10.757  22.995  1.00  0.00     0.017 C 
HETATM   26  C5  UNL     1      16.407   9.929  22.199  1.00  0.00     0.106 C 
ENDBRANCH  18  21
ENDBRANCH   1  18
TORSDOF 4
ENDMDL
