MODEL 1
REMARK VINA RESULT: -6.322352810      0.000      0.000
REMARK  2 active torsions:
REMARK  status: ('A' for Active; 'I' for Inactive)
REMARK    1  A    between atoms: C5_8  and  C6_9 
REMARK    2  A    between atoms: C6_9  and  C7_10 
ROOT
HETATM    1  C7  UNL     1      26.801 -15.046  39.435  1.00  0.00     0.042 A 
HETATM    2  N2  UNL     1      25.920 -14.759  38.467  1.00  0.00    -0.302 N 
ATOM      3  H2  UNL     1      26.087 -14.819  37.463  1.00  0.00     0.186 HD
HETATM    4  N3  UNL     1      24.802 -14.385  39.047  1.00  0.00    -0.284 N 
ATOM      5  H3  UNL     1      23.961 -14.109  38.541  1.00  0.00     0.188 HD
HETATM    6  C8  UNL     1      24.900 -14.412  40.386  1.00  0.00     0.134 A 
HETATM    7  N4  UNL     1      24.276 -14.201  41.573  1.00  0.00    -0.334 N 
ATOM      8  H4  UNL     1      23.313 -13.881  41.683  1.00  0.00     0.168 HD
HETATM    9  C9  UNL     1      25.120 -14.479  42.579  1.00  0.00     0.099 A 
HETATM   10 BR1  UNL     1      24.773 -14.360  44.445  1.00  0.00    -0.030 Br
HETATM   11  C10 UNL     1      26.341 -14.886  42.028  1.00  0.00     0.061 A 
HETATM   12 BR2  UNL     1      27.883 -15.407  42.991  1.00  0.00    -0.047 Br
HETATM   13  C11 UNL     1      26.196 -14.840  40.657  1.00  0.00     0.053 A 
ENDROOT
BRANCH   1  14
HETATM   14  C6  UNL     1      28.188 -15.489  39.203  1.00  0.00     0.073 C 
BRANCH  14  15
HETATM   15  C5  UNL     1      28.417 -15.952  37.758  1.00  0.00     0.083 C 
HETATM   16  C1  UNL     1      29.124 -14.820  37.098  1.00  0.00     0.222 C 
HETATM   17  O1  UNL     1      28.547 -13.688  36.945  1.00  0.00    -0.273 OA
HETATM   18  N1  UNL     1      30.455 -14.950  36.615  1.00  0.00    -0.361 N 
HETATM   19  C2  UNL     1      30.884 -16.229  36.036  1.00  0.00     0.122 C 
ATOM     20  H1  UNL     1      31.103 -14.164  36.670  1.00  0.00     0.162 HD
HETATM   21  C3  UNL     1      30.134 -17.390  36.592  1.00  0.00     0.020 C 
HETATM   22  C4  UNL     1      29.346 -17.127  37.827  1.00  0.00     0.016 C 
ENDBRANCH  14  15
ENDBRANCH   1  14
TORSDOF 2
ENDMDL
MODEL 2
REMARK VINA RESULT: -6.014065310      5.562      7.085
REMARK  2 active torsions:
REMARK  status: ('A' for Active; 'I' for Inactive)
REMARK    1  A    between atoms: C5_8  and  C6_9 
REMARK    2  A    between atoms: C6_9  and  C7_10 
ROOT
HETATM    1  C7  UNL     1      28.207 -12.739  35.321  1.00  0.00     0.042 A 
HETATM    2  N2  UNL     1      27.444 -12.206  36.285  1.00  0.00    -0.302 N 
ATOM      3  H2  UNL     1      27.299 -12.588  37.220  1.00  0.00     0.186 HD
HETATM    4  N3  UNL     1      26.917 -11.102  35.807  1.00  0.00    -0.284 N 
ATOM      5  H3  UNL     1      26.290 -10.494  36.335  1.00  0.00     0.188 HD
HETATM    6  C8  UNL     1      27.302 -10.870  34.542  1.00  0.00     0.134 A 
HETATM    7  N4  UNL     1      27.220 -10.048  33.465  1.00  0.00    -0.334 N 
ATOM      8  H4  UNL     1      26.671  -9.190  33.420  1.00  0.00     0.168 HD
HETATM    9  C9  UNL     1      27.974 -10.541  32.467  1.00  0.00     0.099 A 
HETATM   10 BR1  UNL     1      28.226  -9.798  30.735  1.00  0.00    -0.030 Br
HETATM   11  C10 UNL     1      28.568 -11.727  32.912  1.00  0.00     0.061 A 
HETATM   12 BR2  UNL     1      29.739 -12.830  31.917  1.00  0.00    -0.047 Br
HETATM   13  C11 UNL     1      28.144 -11.927  34.209  1.00  0.00     0.053 A 
ENDROOT
BRANCH   1  14
HETATM   14  C6  UNL     1      28.963 -13.998  35.450  1.00  0.00     0.073 C 
BRANCH  14  15
HETATM   15  C5  UNL     1      28.270 -15.001  36.382  1.00  0.00     0.083 C 
HETATM   16  C1  UNL     1      27.863 -16.130  35.500  1.00  0.00     0.222 C 
HETATM   17  O1  UNL     1      26.997 -15.958  34.574  1.00  0.00    -0.273 OA
HETATM   18  N1  UNL     1      28.415 -17.431  35.650  1.00  0.00    -0.361 N 
HETATM   19  C2  UNL     1      28.734 -17.923  36.997  1.00  0.00     0.122 C 
ATOM     20  H1  UNL     1      28.588 -18.017  34.833  1.00  0.00     0.162 HD
HETATM   21  C3  UNL     1      29.051 -16.821  37.949  1.00  0.00     0.020 C 
HETATM   22  C4  UNL     1      29.316 -15.489  37.340  1.00  0.00     0.016 C 
ENDBRANCH  14  15
ENDBRANCH   1  14
TORSDOF 2
ENDMDL
MODEL 3
REMARK VINA RESULT: -5.927425528      5.759      6.342
REMARK  2 active torsions:
REMARK  status: ('A' for Active; 'I' for Inactive)
REMARK    1  A    between atoms: C5_8  and  C6_9 
REMARK    2  A    between atoms: C6_9  and  C7_10 
ROOT
HETATM    1  C7  UNL     1      30.210 -14.547  36.167  1.00  0.00     0.042 A 
HETATM    2  N2  UNL     1      30.301 -13.229  36.388  1.00  0.00    -0.302 N 
ATOM      3  H2  UNL     1      30.996 -12.762  36.971  1.00  0.00     0.186 HD
HETATM    4  N3  UNL     1      29.333 -12.648  35.719  1.00  0.00    -0.284 N 
ATOM      5  H3  UNL     1      29.168 -11.641  35.711  1.00  0.00     0.188 HD
HETATM    6  C8  UNL     1      28.584 -13.537  35.046  1.00  0.00     0.134 A 
HETATM    7  N4  UNL     1      27.528 -13.734  34.217  1.00  0.00    -0.334 N 
ATOM      8  H4  UNL     1      26.927 -12.998  33.845  1.00  0.00     0.168 HD
HETATM    9  C9  UNL     1      27.397 -15.046  33.961  1.00  0.00     0.099 A 
HETATM   10 BR1  UNL     1      26.089 -15.883  32.863  1.00  0.00    -0.030 Br
HETATM   11  C10 UNL     1      28.405 -15.730  34.650  1.00  0.00     0.061 A 
HETATM   12 BR2  UNL     1      28.695 -17.599  34.637  1.00  0.00    -0.047 Br
HETATM   13  C11 UNL     1      29.143 -14.781  35.327  1.00  0.00     0.053 A 
ENDROOT
BRANCH   1  14
HETATM   14  C6  UNL     1      31.107 -15.561  36.753  1.00  0.00     0.073 C 
BRANCH  14  15
HETATM   15  C5  UNL     1      32.302 -15.878  35.843  1.00  0.00     0.083 C 
HETATM   16  C1  UNL     1      33.504 -15.536  36.653  1.00  0.00     0.222 C 
HETATM   17  O1  UNL     1      33.732 -14.329  37.011  1.00  0.00    -0.273 OA
HETATM   18  N1  UNL     1      34.438 -16.529  37.057  1.00  0.00    -0.361 N 
HETATM   19  C2  UNL     1      34.731 -17.647  36.151  1.00  0.00     0.122 C 
ATOM     20  H1  UNL     1      34.900 -16.465  37.964  1.00  0.00     0.162 HD
HETATM   21  C3  UNL     1      33.591 -17.965  35.246  1.00  0.00     0.020 C 
HETATM   22  C4  UNL     1      32.281 -17.358  35.609  1.00  0.00     0.016 C 
ENDBRANCH  14  15
ENDBRANCH   1  14
TORSDOF 2
ENDMDL
MODEL 4
REMARK VINA RESULT: -5.908017841      4.806      8.097
REMARK  2 active torsions:
REMARK  status: ('A' for Active; 'I' for Inactive)
REMARK    1  A    between atoms: C5_8  and  C6_9 
REMARK    2  A    between atoms: C6_9  and  C7_10 
ROOT
HETATM    1  C7  UNL     1      31.793 -15.307  36.333  1.00  0.00     0.042 A 
HETATM    2  N2  UNL     1      32.498 -15.305  37.472  1.00  0.00    -0.302 N 
ATOM      3  H2  UNL     1      32.179 -15.645  38.379  1.00  0.00     0.186 HD
HETATM    4  N3  UNL     1      33.675 -14.785  37.208  1.00  0.00    -0.284 N 
ATOM      5  H3  UNL     1      34.413 -14.663  37.900  1.00  0.00     0.188 HD
HETATM    6  C8  UNL     1      33.788 -14.433  35.916  1.00  0.00     0.134 A 
HETATM    7  N4  UNL     1      34.579 -13.898  34.953  1.00  0.00    -0.334 N 
ATOM      8  H4  UNL     1      35.532 -13.561  35.093  1.00  0.00     0.168 HD
HETATM    9  C9  UNL     1      33.915 -13.880  33.785  1.00  0.00     0.099 A 
HETATM   10 BR1  UNL     1      34.543 -13.241  32.108  1.00  0.00    -0.030 Br
HETATM   11  C10 UNL     1      32.643 -14.424  33.997  1.00  0.00     0.061 A 
HETATM   12 BR2  UNL     1      31.294 -14.651  32.690  1.00  0.00    -0.047 Br
HETATM   13  C11 UNL     1      32.570 -14.767  35.331  1.00  0.00     0.053 A 
ENDROOT
BRANCH   1  14
HETATM   14  C6  UNL     1      30.407 -15.796  36.205  1.00  0.00     0.073 C 
BRANCH  14  15
HETATM   15  C5  UNL     1      29.419 -14.970  37.040  1.00  0.00     0.083 C 
HETATM   16  C1  UNL     1      28.192 -14.873  36.200  1.00  0.00     0.222 C 
HETATM   17  O1  UNL     1      28.211 -14.248  35.084  1.00  0.00    -0.273 OA
HETATM   18  N1  UNL     1      26.964 -15.463  36.603  1.00  0.00    -0.361 N 
HETATM   19  C2  UNL     1      26.609 -15.479  38.028  1.00  0.00     0.122 C 
ATOM     20  H1  UNL     1      26.336 -15.871  35.910  1.00  0.00     0.162 HD
HETATM   21  C3  UNL     1      27.805 -15.474  38.916  1.00  0.00     0.020 C 
HETATM   22  C4  UNL     1      29.106 -15.784  38.260  1.00  0.00     0.016 C 
ENDBRANCH  14  15
ENDBRANCH   1  14
TORSDOF 2
ENDMDL
MODEL 5
REMARK VINA RESULT: -5.693123161      4.558      6.773
REMARK  2 active torsions:
REMARK  status: ('A' for Active; 'I' for Inactive)
REMARK    1  A    between atoms: C5_8  and  C6_9 
REMARK    2  A    between atoms: C6_9  and  C7_10 
ROOT
HETATM    1  C7  UNL     1      27.895 -14.086  35.362  1.00  0.00     0.042 A 
HETATM    2  N2  UNL     1      27.490 -12.881  34.938  1.00  0.00    -0.302 N 
ATOM      3  H2  UNL     1      27.513 -12.014  35.475  1.00  0.00     0.186 HD
HETATM    4  N3  UNL     1      27.057 -13.020  33.706  1.00  0.00    -0.284 N 
ATOM      5  H3  UNL     1      26.689 -12.255  33.141  1.00  0.00     0.188 HD
HETATM    6  C8  UNL     1      27.158 -14.290  33.279  1.00  0.00     0.134 A 
HETATM    7  N4  UNL     1      26.959 -15.163  32.260  1.00  0.00    -0.334 N 
ATOM      8  H4  UNL     1      26.568 -14.923  31.348  1.00  0.00     0.168 HD
HETATM    9  C9  UNL     1      27.354 -16.390  32.636  1.00  0.00     0.099 A 
HETATM   10 BR1  UNL     1      27.301 -17.987  31.605  1.00  0.00    -0.030 Br
HETATM   11  C10 UNL     1      27.829 -16.314  33.950  1.00  0.00     0.061 A 
HETATM   12 BR2  UNL     1      28.521 -17.747  34.972  1.00  0.00    -0.047 Br
HETATM   13  C11 UNL     1      27.704 -14.998  34.346  1.00  0.00     0.053 A 
ENDROOT
BRANCH   1  14
HETATM   14  C6  UNL     1      28.437 -14.365  36.705  1.00  0.00     0.073 C 
BRANCH  14  15
HETATM   15  C5  UNL     1      27.479 -15.213  37.554  1.00  0.00     0.083 C 
HETATM   16  C1  UNL     1      28.328 -15.784  38.637  1.00  0.00     0.222 C 
HETATM   17  O1  UNL     1      29.270 -16.606  38.365  1.00  0.00    -0.273 OA
HETATM   18  N1  UNL     1      28.126 -15.443  40.002  1.00  0.00    -0.361 N 
HETATM   19  C2  UNL     1      26.759 -15.214  40.488  1.00  0.00     0.122 C 
ATOM     20  H1  UNL     1      28.920 -15.358  40.636  1.00  0.00     0.162 HD
HETATM   21  C3  UNL     1      25.842 -14.737  39.416  1.00  0.00     0.020 C 
HETATM   22  C4  UNL     1      26.492 -14.263  38.164  1.00  0.00     0.016 C 
ENDBRANCH  14  15
ENDBRANCH   1  14
TORSDOF 2
ENDMDL
