MODEL 1
REMARK VINA RESULT: -4.654882158      0.000      0.000
REMARK  5 active torsions:
REMARK  status: ('A' for Active; 'I' for Inactive)
REMARK    1  A    between atoms: C2_2  and  N1_3 
REMARK    2  A    between atoms: N1_3  and  C3_5 
REMARK    3  A    between atoms: C3_5  and  N2_7 
REMARK    4  A    between atoms: C5_9  and  N3_10 
REMARK    5  A    between atoms: C7_16  and  C8_17 
ROOT
HETATM    1  N2  UNL     1      27.865 -15.447  38.164  1.00  0.00    -0.350 N 
HETATM    2  C4  UNL     1      29.130 -16.156  38.187  1.00  0.00     0.159 C 
HETATM    3  C5  UNL     1      29.613 -16.253  36.765  1.00  0.00     0.217 C 
HETATM    4  C6  UNL     1      28.324 -16.112  35.985  1.00  0.00     0.113 C 
HETATM    5 BR1  UNL     1      28.608 -15.678  34.140  1.00  0.00    -0.087 Br
HETATM    6  C7  UNL     1      27.603 -15.071  36.763  1.00  0.00     0.113 C 
ENDROOT
BRANCH   1   7
HETATM    7  C3  UNL     1      27.095 -15.146  39.305  1.00  0.00     0.170 C 
HETATM    8  S1  UNL     1      25.486 -14.793  39.179  1.00  0.00    -0.041 SA
BRANCH   7   9
HETATM    9  N1  UNL     1      27.660 -15.144  40.608  1.00  0.00    -0.367 N 
ATOM     10  H1  UNL     1      28.667 -15.262  40.721  1.00  0.00     0.161 HD
BRANCH   9  11
HETATM   11  C2  UNL     1      26.822 -14.973  41.780  1.00  0.00     0.117 C 
HETATM   12  C1  UNL     1      27.594 -14.383  42.947  1.00  0.00     0.026 C 
ENDBRANCH   9  11
ENDBRANCH   7   9
ENDBRANCH   1   7
BRANCH   6  13
HETATM   13  C8  UNL     1      28.252 -13.708  36.621  1.00  0.00     0.111 C 
HETATM   14 BR2  UNL     1      27.414 -12.541  35.384  1.00  0.00    -0.094 Br
ENDBRANCH   6  13
BRANCH   3  15
HETATM   15  N3  UNL     1      30.232 -17.547  36.535  1.00  0.00    -0.072 N 
ATOM     16  H33 UNL     1      31.195 -17.574  36.870  1.00  0.00     0.274 HD
ATOM     17  H32 UNL     1      29.842 -18.269  37.140  1.00  0.00     0.274 HD
ATOM     18  H31 UNL     1      30.164 -17.798  35.549  1.00  0.00     0.274 HD
ENDBRANCH   3  15
TORSDOF 5
ENDMDL
MODEL 2
REMARK VINA RESULT: -4.587751464      1.977      2.879
REMARK  5 active torsions:
REMARK  status: ('A' for Active; 'I' for Inactive)
REMARK    1  A    between atoms: C2_2  and  N1_3 
REMARK    2  A    between atoms: N1_3  and  C3_5 
REMARK    3  A    between atoms: C3_5  and  N2_7 
REMARK    4  A    between atoms: C5_9  and  N3_10 
REMARK    5  A    between atoms: C7_16  and  C8_17 
ROOT
HETATM    1  N2  UNL     1      28.034 -14.646  37.685  1.00  0.00    -0.350 N 
HETATM    2  C4  UNL     1      27.745 -13.518  36.820  1.00  0.00     0.159 C 
HETATM    3  C5  UNL     1      28.866 -13.422  35.821  1.00  0.00     0.217 C 
HETATM    4  C6  UNL     1      29.992 -14.130  36.543  1.00  0.00     0.113 C 
HETATM    5 BR1  UNL     1      31.422 -14.648  35.378  1.00  0.00    -0.087 Br
HETATM    6  C7  UNL     1      29.280 -15.261  37.193  1.00  0.00     0.113 C 
ENDROOT
BRANCH   1   7
HETATM    7  C3  UNL     1      27.214 -15.072  38.747  1.00  0.00     0.170 C 
HETATM    8  S1  UNL     1      25.666 -15.582  38.478  1.00  0.00    -0.041 SA
BRANCH   7   9
HETATM    9  N1  UNL     1      27.680 -15.092  40.089  1.00  0.00    -0.367 N 
ATOM     10  H1  UNL     1      28.679 -15.183  40.274  1.00  0.00     0.161 HD
BRANCH   9  11
HETATM   11  C2  UNL     1      26.752 -14.986  41.199  1.00  0.00     0.117 C 
HETATM   12  C1  UNL     1      27.464 -14.669  42.503  1.00  0.00     0.026 C 
ENDBRANCH   9  11
ENDBRANCH   7   9
ENDBRANCH   1   7
BRANCH   6  13
HETATM   13  C8  UNL     1      28.810 -16.288  36.183  1.00  0.00     0.111 C 
HETATM   14 BR2  UNL     1      28.278 -17.955  36.915  1.00  0.00    -0.094 Br
ENDBRANCH   6  13
BRANCH   3  15
HETATM   15  N3  UNL     1      29.192 -12.029  35.568  1.00  0.00    -0.072 N 
ATOM     16  H33 UNL     1      28.939 -11.429  36.354  1.00  0.00     0.274 HD
ATOM     17  H32 UNL     1      30.199 -11.866  35.573  1.00  0.00     0.274 HD
ATOM     18  H31 UNL     1      28.760 -11.720  34.698  1.00  0.00     0.274 HD
ENDBRANCH   3  15
TORSDOF 5
ENDMDL
MODEL 3
REMARK VINA RESULT: -4.420607597      3.467      4.939
REMARK  5 active torsions:
REMARK  status: ('A' for Active; 'I' for Inactive)
REMARK    1  A    between atoms: C2_2  and  N1_3 
REMARK    2  A    between atoms: N1_3  and  C3_5 
REMARK    3  A    between atoms: C3_5  and  N2_7 
REMARK    4  A    between atoms: C5_9  and  N3_10 
REMARK    5  A    between atoms: C7_16  and  C8_17 
ROOT
HETATM    1  N2  UNL     1      30.323 -15.098  36.230  1.00  0.00    -0.350 N 
HETATM    2  C4  UNL     1      30.147 -16.536  36.175  1.00  0.00     0.159 C 
HETATM    3  C5  UNL     1      28.788 -16.841  36.745  1.00  0.00     0.217 C 
HETATM    4  C6  UNL     1      28.529 -15.627  37.610  1.00  0.00     0.113 C 
HETATM    5 BR1  UNL     1      26.685 -15.426  38.089  1.00  0.00    -0.087 Br
HETATM    6  C7  UNL     1      29.077 -14.528  36.773  1.00  0.00     0.113 C 
ENDROOT
BRANCH   1   7
HETATM    7  C3  UNL     1      31.469 -14.414  35.779  1.00  0.00     0.170 C 
HETATM    8  S1  UNL     1      31.546 -13.795  34.250  1.00  0.00    -0.041 SA
BRANCH   7   9
HETATM    9  N1  UNL     1      32.598 -14.215  36.617  1.00  0.00    -0.367 N 
ATOM     10  H1  UNL     1      32.516 -13.618  37.440  1.00  0.00     0.161 HD
BRANCH   9  11
HETATM   11  C2  UNL     1      33.867 -14.852  36.317  1.00  0.00     0.117 C 
HETATM   12  C1  UNL     1      33.913 -16.285  36.819  1.00  0.00     0.026 C 
ENDBRANCH   9  11
ENDBRANCH   7   9
ENDBRANCH   1   7
BRANCH   6  13
HETATM   13  C8  UNL     1      28.224 -14.273  35.546  1.00  0.00     0.111 C 
HETATM   14 BR2  UNL     1      27.694 -12.470  35.292  1.00  0.00    -0.094 Br
ENDBRANCH   6  13
BRANCH   3  15
HETATM   15  N3  UNL     1      28.840 -18.056  37.539  1.00  0.00    -0.072 N 
ATOM     16  H33 UNL     1      29.735 -18.161  38.018  1.00  0.00     0.274 HD
ATOM     17  H32 UNL     1      28.237 -18.002  38.360  1.00  0.00     0.274 HD
ATOM     18  H31 UNL     1      28.621 -18.865  36.958  1.00  0.00     0.274 HD
ENDBRANCH   3  15
TORSDOF 5
ENDMDL
MODEL 4
REMARK VINA RESULT: -4.355004405      3.747      5.252
REMARK  5 active torsions:
REMARK  status: ('A' for Active; 'I' for Inactive)
REMARK    1  A    between atoms: C2_2  and  N1_3 
REMARK    2  A    between atoms: N1_3  and  C3_5 
REMARK    3  A    between atoms: C3_5  and  N2_7 
REMARK    4  A    between atoms: C5_9  and  N3_10 
REMARK    5  A    between atoms: C7_16  and  C8_17 
ROOT
HETATM    1  N2  UNL     1      29.118 -13.095  35.469  1.00  0.00    -0.350 N 
HETATM    2  C4  UNL     1      30.078 -13.984  36.096  1.00  0.00     0.159 C 
HETATM    3  C5  UNL     1      29.296 -15.021  36.856  1.00  0.00     0.217 C 
HETATM    4  C6  UNL     1      27.978 -14.313  37.088  1.00  0.00     0.113 C 
HETATM    5 BR1  UNL     1      26.562 -15.507  37.578  1.00  0.00    -0.087 Br
HETATM    6  C7  UNL     1      27.775 -13.607  35.796  1.00  0.00     0.113 C 
ENDROOT
BRANCH   1   7
HETATM    7  C3  UNL     1      29.457 -11.994  34.659  1.00  0.00     0.170 C 
HETATM    8  S1  UNL     1      30.391 -12.184  33.310  1.00  0.00    -0.041 SA
BRANCH   7   9
HETATM    9  N1  UNL     1      29.006 -10.681  34.956  1.00  0.00    -0.367 N 
ATOM     10  H1  UNL     1      29.504 -10.121  35.648  1.00  0.00     0.161 HD
BRANCH   9  11
HETATM   11  C2  UNL     1      27.845 -10.125  34.286  1.00  0.00     0.117 C 
HETATM   12  C1  UNL     1      26.668  -9.966  35.233  1.00  0.00     0.026 C 
ENDBRANCH   9  11
ENDBRANCH   7   9
ENDBRANCH   1   7
BRANCH   6  13
HETATM   13  C8  UNL     1      27.464 -14.569  34.668  1.00  0.00     0.111 C 
HETATM   14 BR2  UNL     1      26.586 -13.803  33.172  1.00  0.00    -0.094 Br
ENDBRANCH   6  13
BRANCH   3  15
HETATM   15  N3  UNL     1      29.960 -15.326  38.111  1.00  0.00    -0.072 N 
ATOM     16  H33 UNL     1      29.574 -16.161  38.554  1.00  0.00     0.274 HD
ATOM     17  H32 UNL     1      30.913 -15.660  37.967  1.00  0.00     0.274 HD
ATOM     18  H31 UNL     1      29.929 -14.517  38.731  1.00  0.00     0.274 HD
ENDBRANCH   3  15
TORSDOF 5
ENDMDL
MODEL 5
REMARK VINA RESULT: -4.329217701      2.529      3.687
REMARK  5 active torsions:
REMARK  status: ('A' for Active; 'I' for Inactive)
REMARK    1  A    between atoms: C2_2  and  N1_3 
REMARK    2  A    between atoms: N1_3  and  C3_5 
REMARK    3  A    between atoms: C3_5  and  N2_7 
REMARK    4  A    between atoms: C5_9  and  N3_10 
REMARK    5  A    between atoms: C7_16  and  C8_17 
ROOT
HETATM    1  N2  UNL     1      28.320 -14.066  36.495  1.00  0.00    -0.350 N 
HETATM    2  C4  UNL     1      27.909 -12.755  36.030  1.00  0.00     0.159 C 
HETATM    3  C5  UNL     1      28.785 -12.403  34.858  1.00  0.00     0.217 C 
HETATM    4  C6  UNL     1      30.002 -13.268  35.103  1.00  0.00     0.113 C 
HETATM    5 BR1  UNL     1      31.107 -13.465  33.550  1.00  0.00    -0.087 Br
HETATM    6  C7  UNL     1      29.390 -14.530  35.594  1.00  0.00     0.113 C 
ENDROOT
BRANCH   1   7
HETATM    7  C3  UNL     1      27.733 -14.753  37.575  1.00  0.00     0.170 C 
HETATM    8  S1  UNL     1      28.505 -16.020  38.301  1.00  0.00    -0.041 SA
BRANCH   7   9
HETATM    9  N1  UNL     1      26.464 -14.382  38.095  1.00  0.00    -0.367 N 
ATOM     10  H1  UNL     1      26.062 -13.478  37.848  1.00  0.00     0.161 HD
BRANCH   9  11
HETATM   11  C2  UNL     1      25.732 -15.276  38.973  1.00  0.00     0.117 C 
HETATM   12  C1  UNL     1      25.678 -14.750  40.397  1.00  0.00     0.026 C 
ENDBRANCH   9  11
ENDBRANCH   7   9
ENDBRANCH   1   7
BRANCH   6  13
HETATM   13  C8  UNL     1      28.651 -15.266  34.493  1.00  0.00     0.111 C 
HETATM   14 BR2  UNL     1      28.752 -17.157  34.578  1.00  0.00    -0.094 Br
ENDBRANCH   6  13
BRANCH   3  15
HETATM   15  N3  UNL     1      29.124 -10.990  34.895  1.00  0.00    -0.072 N 
ATOM     16  H33 UNL     1      28.296 -10.397  34.831  1.00  0.00     0.274 HD
ATOM     17  H32 UNL     1      29.446 -10.699  35.818  1.00  0.00     0.274 HD
ATOM     18  H31 UNL     1      29.805 -10.774  34.167  1.00  0.00     0.274 HD
ENDBRANCH   3  15
TORSDOF 5
ENDMDL
