MODEL 1
REMARK VINA RESULT: -5.792909555      0.000      0.000
REMARK  2 active torsions:
REMARK  status: ('A' for Active; 'I' for Inactive)
REMARK    1  A    between atoms: N1_2  and  C3_4 
REMARK       I    between atoms: N1_2  and  C8_13 
REMARK    2  A    between atoms: C3_4  and  C4_5 
REMARK       I    between atoms: C8_13  and  N3_15 
ROOT
HETATM    1  C1  UNL     1      31.071 -15.835  34.736  1.00  0.00     0.285 C 
HETATM    2  N1  UNL     1      30.157 -14.730  34.569  1.00  0.00     0.010 N 
HETATM    3  C2  UNL     1      30.828 -13.679  33.842  1.00  0.00     0.285 C 
HETATM    4  C8  UNL     1      29.788 -14.173  35.850  1.00  0.00     0.421 C 
HETATM    5  O1  UNL     1      29.467 -12.970  35.872  1.00  0.00    -0.239 OA
HETATM    6  N3  UNL     1      29.801 -14.991  37.004  1.00  0.00    -0.272 N 
ATOM      7  H3  UNL     1      30.659 -15.450  37.309  1.00  0.00     0.173 HD
HETATM    8  C9  UNL     1      28.703 -15.144  37.660  1.00  0.00     0.213 C 
HETATM    9  N4  UNL     1      28.522 -15.924  38.838  1.00  0.00    -0.256 N 
ATOM     10  H4  UNL     1      29.100 -16.700  39.161  1.00  0.00     0.187 HD
HETATM   11  N5  UNL     1      27.381 -15.398  39.461  1.00  0.00    -0.006 NA
HETATM   12  N6  UNL     1      26.575 -14.912  38.431  1.00  0.00    -0.006 NA
HETATM   13  N7  UNL     1      27.417 -14.580  37.380  1.00  0.00    -0.256 N 
ATOM     14  H7  UNL     1      27.166 -14.032  36.556  1.00  0.00     0.187 HD
ENDROOT
BRANCH   2  15
HETATM   15  C3  UNL     1      28.915 -15.124  33.965  1.00  0.00     0.290 C 
BRANCH  15  16
HETATM   16  C4  UNL     1      28.688 -16.568  33.850  1.00  0.00     0.004 A 
HETATM   17  C5  UNL     1      28.251 -17.445  34.801  1.00  0.00     0.099 A 
HETATM   18  N2  UNL     1      28.208 -18.659  34.201  1.00  0.00    -0.358 N 
HETATM   19  C6  UNL     1      28.596 -18.593  32.922  1.00  0.00     0.097 A 
ATOM     20  H2  UNL     1      27.916 -19.517  34.667  1.00  0.00     0.166 HD
HETATM   21 BR1  UNL     1      28.700 -20.058  31.672  1.00  0.00    -0.030 Br
HETATM   22  C7  UNL     1      28.906 -17.274  32.676  1.00  0.00     0.054 A 
HETATM   23 BR2  UNL     1      29.520 -16.622  30.992  1.00  0.00    -0.047 Br
ENDBRANCH  15  16
ENDBRANCH   2  15
TORSDOF 2
ENDMDL
MODEL 2
REMARK VINA RESULT: -5.782619585      3.128      4.453
REMARK  2 active torsions:
REMARK  status: ('A' for Active; 'I' for Inactive)
REMARK    1  A    between atoms: N1_2  and  C3_4 
REMARK       I    between atoms: N1_2  and  C8_13 
REMARK    2  A    between atoms: C3_4  and  C4_5 
REMARK       I    between atoms: C8_13  and  N3_15 
ROOT
HETATM    1  C1  UNL     1      28.527 -15.428  34.432  1.00  0.00     0.285 C 
HETATM    2  N1  UNL     1      29.442 -16.032  35.371  1.00  0.00     0.010 N 
HETATM    3  C2  UNL     1      30.151 -17.099  34.707  1.00  0.00     0.285 C 
HETATM    4  C8  UNL     1      28.723 -16.637  36.469  1.00  0.00     0.421 C 
HETATM    5  O1  UNL     1      29.271 -17.598  37.041  1.00  0.00    -0.239 OA
HETATM    6  N3  UNL     1      27.458 -16.130  36.847  1.00  0.00    -0.272 N 
ATOM      7  H3  UNL     1      26.683 -16.112  36.184  1.00  0.00     0.173 HD
HETATM    8  C9  UNL     1      27.307 -15.691  38.048  1.00  0.00     0.213 C 
HETATM    9  N4  UNL     1      26.116 -15.147  38.608  1.00  0.00    -0.256 N 
ATOM     10  H4  UNL     1      25.328 -14.738  38.106  1.00  0.00     0.187 HD
HETATM   11  N5  UNL     1      26.255 -15.294  39.996  1.00  0.00    -0.006 NA
HETATM   12  N6  UNL     1      27.625 -15.216  40.251  1.00  0.00    -0.006 NA
HETATM   13  N7  UNL     1      28.276 -15.640  39.102  1.00  0.00    -0.256 N 
ATOM     14  H7  UNL     1      29.266 -15.875  39.022  1.00  0.00     0.187 HD
ENDROOT
BRANCH   2  15
HETATM   15  C3  UNL     1      30.318 -15.074  35.985  1.00  0.00     0.290 C 
BRANCH  15  16
HETATM   16  C4  UNL     1      31.411 -14.573  35.144  1.00  0.00     0.004 A 
HETATM   17  C5  UNL     1      31.341 -13.803  34.019  1.00  0.00     0.099 A 
HETATM   18  N2  UNL     1      32.620 -13.613  33.615  1.00  0.00    -0.358 N 
HETATM   19  C6  UNL     1      33.492 -14.224  34.426  1.00  0.00     0.097 A 
ATOM     20  H2  UNL     1      32.886 -13.070  32.794  1.00  0.00     0.166 HD
HETATM   21 BR1  UNL     1      35.413 -14.237  34.254  1.00  0.00    -0.030 Br
HETATM   22  C7  UNL     1      32.746 -14.841  35.405  1.00  0.00     0.054 A 
HETATM   23 BR2  UNL     1      33.498 -15.863  36.829  1.00  0.00    -0.047 Br
ENDBRANCH  15  16
ENDBRANCH   2  15
TORSDOF 2
ENDMDL
MODEL 3
REMARK VINA RESULT: -5.649906946      2.593      4.239
REMARK  2 active torsions:
REMARK  status: ('A' for Active; 'I' for Inactive)
REMARK    1  A    between atoms: N1_2  and  C3_4 
REMARK       I    between atoms: N1_2  and  C8_13 
REMARK    2  A    between atoms: C3_4  and  C4_5 
REMARK       I    between atoms: C8_13  and  N3_15 
ROOT
HETATM    1  C1  UNL     1      28.276 -15.842  34.317  1.00  0.00     0.285 C 
HETATM    2  N1  UNL     1      29.230 -16.403  35.244  1.00  0.00     0.010 N 
HETATM    3  C2  UNL     1      29.880 -17.527  34.615  1.00  0.00     0.285 C 
HETATM    4  C8  UNL     1      28.562 -16.918  36.417  1.00  0.00     0.421 C 
HETATM    5  O1  UNL     1      29.122 -17.851  37.022  1.00  0.00    -0.239 OA
HETATM    6  N3  UNL     1      27.330 -16.358  36.829  1.00  0.00    -0.272 N 
ATOM      7  H3  UNL     1      26.520 -16.366  36.209  1.00  0.00     0.173 HD
HETATM    8  C9  UNL     1      27.255 -15.837  38.004  1.00  0.00     0.213 C 
HETATM    9  N4  UNL     1      26.107 -15.231  38.590  1.00  0.00    -0.256 N 
ATOM     10  H4  UNL     1      25.301 -14.837  38.105  1.00  0.00     0.187 HD
HETATM   11  N5  UNL     1      26.321 -15.289  39.974  1.00  0.00    -0.006 NA
HETATM   12  N6  UNL     1      27.704 -15.226  40.149  1.00  0.00    -0.006 NA
HETATM   13  N7  UNL     1      28.282 -15.740  38.998  1.00  0.00    -0.256 N 
ATOM     14  H7  UNL     1      29.261 -16.002  38.880  1.00  0.00     0.187 HD
ENDROOT
BRANCH   2  15
HETATM   15  C3  UNL     1      30.158 -15.427  35.744  1.00  0.00     0.290 C 
BRANCH  15  16
HETATM   16  C4  UNL     1      29.927 -14.044  35.314  1.00  0.00     0.004 A 
HETATM   17  C5  UNL     1      29.091 -13.108  35.852  1.00  0.00     0.099 A 
HETATM   18  N2  UNL     1      29.240 -11.993  35.097  1.00  0.00    -0.358 N 
HETATM   19  C6  UNL     1      30.125 -12.178  34.110  1.00  0.00     0.097 A 
ATOM     20  H2  UNL     1      28.739 -11.121  35.260  1.00  0.00     0.166 HD
HETATM   21 BR1  UNL     1      30.662 -10.883  32.785  1.00  0.00    -0.030 Br
HETATM   22  C7  UNL     1      30.574 -13.475  34.228  1.00  0.00     0.054 A 
HETATM   23 BR2  UNL     1      31.861 -14.264  33.062  1.00  0.00    -0.047 Br
ENDBRANCH  15  16
ENDBRANCH   2  15
TORSDOF 2
ENDMDL
MODEL 4
REMARK VINA RESULT: -5.629517544      2.807      4.232
REMARK  2 active torsions:
REMARK  status: ('A' for Active; 'I' for Inactive)
REMARK    1  A    between atoms: N1_2  and  C3_4 
REMARK       I    between atoms: N1_2  and  C8_13 
REMARK    2  A    between atoms: C3_4  and  C4_5 
REMARK       I    between atoms: C8_13  and  N3_15 
ROOT
HETATM    1  C1  UNL     1      28.567 -15.302  34.467  1.00  0.00     0.285 C 
HETATM    2  N1  UNL     1      29.487 -15.886  35.413  1.00  0.00     0.010 N 
HETATM    3  C2  UNL     1      30.266 -16.897  34.739  1.00  0.00     0.285 C 
HETATM    4  C8  UNL     1      28.773 -16.558  36.474  1.00  0.00     0.421 C 
HETATM    5  O1  UNL     1      29.353 -17.506  37.034  1.00  0.00    -0.239 OA
HETATM    6  N3  UNL     1      27.475 -16.125  36.833  1.00  0.00    -0.272 N 
ATOM      7  H3  UNL     1      26.717 -16.126  36.150  1.00  0.00     0.173 HD
HETATM    8  C9  UNL     1      27.272 -15.729  38.041  1.00  0.00     0.213 C 
HETATM    9  N4  UNL     1      26.041 -15.261  38.584  1.00  0.00    -0.256 N 
ATOM     10  H4  UNL     1      25.246 -14.877  38.073  1.00  0.00     0.187 HD
HETATM   11  N5  UNL     1      26.153 -15.441  39.970  1.00  0.00    -0.006 NA
HETATM   12  N6  UNL     1      27.510 -15.303  40.264  1.00  0.00    -0.006 NA
HETATM   13  N7  UNL     1      28.210 -15.661  39.121  1.00  0.00    -0.256 N 
ATOM     14  H7  UNL     1      29.212 -15.844  39.061  1.00  0.00     0.187 HD
ENDROOT
BRANCH   2  15
HETATM   15  C3  UNL     1      30.299 -14.904  36.077  1.00  0.00     0.290 C 
BRANCH  15  16
HETATM   16  C4  UNL     1      31.745 -15.015  35.858  1.00  0.00     0.004 A 
HETATM   17  C5  UNL     1      32.679 -15.662  36.614  1.00  0.00     0.099 A 
HETATM   18  N2  UNL     1      33.867 -15.468  35.992  1.00  0.00    -0.358 N 
HETATM   19  C6  UNL     1      33.730 -14.731  34.883  1.00  0.00     0.097 A 
ATOM     20  H2  UNL     1      34.756 -15.838  36.326  1.00  0.00     0.166 HD
HETATM   21 BR1  UNL     1      35.134 -14.197  33.673  1.00  0.00    -0.030 Br
HETATM   22  C7  UNL     1      32.390 -14.431  34.778  1.00  0.00     0.054 A 
HETATM   23 BR2  UNL     1      31.641 -13.393  33.365  1.00  0.00    -0.047 Br
ENDBRANCH  15  16
ENDBRANCH   2  15
TORSDOF 2
ENDMDL
MODEL 5
REMARK VINA RESULT: -5.337479748      1.594      1.863
REMARK  2 active torsions:
REMARK  status: ('A' for Active; 'I' for Inactive)
REMARK    1  A    between atoms: N1_2  and  C3_4 
REMARK       I    between atoms: N1_2  and  C8_13 
REMARK    2  A    between atoms: C3_4  and  C4_5 
REMARK       I    between atoms: C8_13  and  N3_15 
ROOT
HETATM    1  C1  UNL     1      30.755 -16.587  35.941  1.00  0.00     0.285 C 
HETATM    2  N1  UNL     1      29.871 -15.570  35.423  1.00  0.00     0.010 N 
HETATM    3  C2  UNL     1      30.617 -14.721  34.525  1.00  0.00     0.285 C 
HETATM    4  C8  UNL     1      29.390 -14.719  36.487  1.00  0.00     0.421 C 
HETATM    5  O1  UNL     1      29.081 -13.553  36.183  1.00  0.00    -0.239 OA
HETATM    6  N3  UNL     1      29.288 -15.228  37.804  1.00  0.00    -0.272 N 
ATOM      7  H3  UNL     1      30.110 -15.586  38.290  1.00  0.00     0.173 HD
HETATM    8  C9  UNL     1      28.133 -15.229  38.373  1.00  0.00     0.213 C 
HETATM    9  N4  UNL     1      27.836 -15.697  39.685  1.00  0.00    -0.256 N 
ATOM     10  H4  UNL     1      28.373 -16.362  40.241  1.00  0.00     0.187 HD
HETATM   11  N5  UNL     1      26.647 -15.049  40.051  1.00  0.00    -0.006 NA
HETATM   12  N6  UNL     1      25.945 -14.842  38.863  1.00  0.00    -0.006 NA
HETATM   13  N7  UNL     1      26.884 -14.768  37.845  1.00  0.00    -0.256 N 
ATOM     14  H7  UNL     1      26.715 -14.444  36.892  1.00  0.00     0.187 HD
ENDROOT
BRANCH   2  15
HETATM   15  C3  UNL     1      28.687 -16.117  34.822  1.00  0.00     0.290 C 
BRANCH  15  16
HETATM   16  C4  UNL     1      28.840 -16.632  33.458  1.00  0.00     0.004 A 
HETATM   17  C5  UNL     1      29.414 -17.799  33.042  1.00  0.00     0.099 A 
HETATM   18  N2  UNL     1      29.306 -17.810  31.692  1.00  0.00    -0.358 N 
HETATM   19  C6  UNL     1      28.694 -16.711  31.235  1.00  0.00     0.097 A 
ATOM     20  H2  UNL     1      29.648 -18.564  31.096  1.00  0.00     0.166 HD
HETATM   21 BR1  UNL     1      28.317 -16.283  29.392  1.00  0.00    -0.030 Br
HETATM   22  C7  UNL     1      28.389 -15.947  32.339  1.00  0.00     0.054 A 
HETATM   23 BR2  UNL     1      27.503 -14.261  32.254  1.00  0.00    -0.047 Br
ENDBRANCH  15  16
ENDBRANCH   2  15
TORSDOF 2
ENDMDL
