MODEL 1
REMARK VINA RESULT: -4.961915516      0.000      0.000
REMARK  2 active torsions:
REMARK  status: ('A' for Active; 'I' for Inactive)
REMARK    1  A    between atoms: N1_1  and  C1_5 
REMARK    2  A    between atoms: C1_5  and  C2_6 
ROOT
HETATM    1  C2  UNL     1       4.020 -13.445 -21.517  1.00  0.00     0.085 C 
HETATM    2  C3  UNL     1       5.393 -13.945 -21.802  1.00  0.00     0.040 C 
HETATM    3  C4  UNL     1       5.453 -15.415 -21.431  1.00  0.00     0.006 C 
HETATM    4  C5  UNL     1       5.028 -15.514 -19.983  1.00  0.00     0.032 C 
HETATM    5  C6  UNL     1       3.740 -14.772 -19.819  1.00  0.00     0.122 C 
HETATM    6  C7  UNL     1       2.756 -15.345 -20.847  1.00  0.00     0.035 C 
HETATM    7  C8  UNL     1       2.919 -14.355 -21.974  1.00  0.00     0.042 C 
HETATM    8  O1  UNL     1       3.842 -13.418 -20.137  1.00  0.00    -0.373 OA
ENDROOT
BRANCH   1   9
HETATM    9  C1  UNL     1       3.830 -12.096 -22.153  1.00  0.00     0.267 C 
BRANCH   9  10
HETATM   10  N1  UNL     1       3.191 -12.323 -23.437  1.00  0.00    -0.076 N 
ATOM     11  H13 UNL     1       2.193 -12.521 -23.360  1.00  0.00     0.274 HD
ATOM     12  H12 UNL     1       3.112 -11.478 -24.001  1.00  0.00     0.274 HD
ATOM     13  H11 UNL     1       3.713 -13.067 -23.900  1.00  0.00     0.274 HD
ENDBRANCH   9  10
ENDBRANCH   1   9
TORSDOF 2
ENDMDL
MODEL 2
REMARK VINA RESULT: -4.717049659      1.871      3.331
REMARK  2 active torsions:
REMARK  status: ('A' for Active; 'I' for Inactive)
REMARK    1  A    between atoms: N1_1  and  C1_5 
REMARK    2  A    between atoms: C1_5  and  C2_6 
ROOT
HETATM    1  C2  UNL     1       4.024 -14.452 -20.868  1.00  0.00     0.085 C 
HETATM    2  C3  UNL     1       2.737 -15.117 -21.213  1.00  0.00     0.040 C 
HETATM    3  C4  UNL     1       2.112 -14.373 -22.378  1.00  0.00     0.006 C 
HETATM    4  C5  UNL     1       1.988 -12.927 -21.953  1.00  0.00     0.032 C 
HETATM    5  C6  UNL     1       3.312 -12.476 -21.425  1.00  0.00     0.122 C 
HETATM    6  C7  UNL     1       4.353 -12.767 -22.513  1.00  0.00     0.035 C 
HETATM    7  C8  UNL     1       4.879 -14.103 -22.049  1.00  0.00     0.042 C 
HETATM    8  O1  UNL     1       3.739 -13.207 -20.316  1.00  0.00    -0.373 OA
ENDROOT
BRANCH   1   9
HETATM    9  C1  UNL     1       4.814 -15.331 -19.939  1.00  0.00     0.267 C 
BRANCH   9  10
HETATM   10  N1  UNL     1       5.919 -15.871 -20.710  1.00  0.00    -0.076 N 
ATOM     11  H13 UNL     1       5.628 -16.280 -21.598  1.00  0.00     0.274 HD
ATOM     12  H12 UNL     1       6.531 -15.151 -21.094  1.00  0.00     0.274 HD
ATOM     13  H11 UNL     1       6.408 -16.530 -20.105  1.00  0.00     0.274 HD
ENDBRANCH   9  10
ENDBRANCH   1   9
TORSDOF 2
ENDMDL
MODEL 3
REMARK VINA RESULT: -4.286300534      2.168      3.151
REMARK  2 active torsions:
REMARK  status: ('A' for Active; 'I' for Inactive)
REMARK    1  A    between atoms: N1_1  and  C1_5 
REMARK    2  A    between atoms: C1_5  and  C2_6 
ROOT
HETATM    1  C2  UNL     1       5.373 -14.776 -21.254  1.00  0.00     0.085 C 
HETATM    2  C3  UNL     1       5.060 -13.547 -22.034  1.00  0.00     0.040 C 
HETATM    3  C4  UNL     1       3.819 -12.906 -21.442  1.00  0.00     0.006 C 
HETATM    4  C5  UNL     1       2.737 -13.962 -21.457  1.00  0.00     0.032 C 
HETATM    5  C6  UNL     1       3.284 -15.206 -20.835  1.00  0.00     0.122 C 
HETATM    6  C7  UNL     1       3.822 -14.819 -19.451  1.00  0.00     0.035 C 
HETATM    7  C8  UNL     1       5.282 -14.607 -19.766  1.00  0.00     0.042 C 
HETATM    8  O1  UNL     1       4.387 -15.722 -21.515  1.00  0.00    -0.373 OA
ENDROOT
BRANCH   1   9
HETATM    9  C1  UNL     1       6.751 -15.261 -21.604  1.00  0.00     0.267 C 
BRANCH   9  10
HETATM   10  N1  UNL     1       7.620 -14.891 -20.502  1.00  0.00    -0.076 N 
ATOM     11  H13 UNL     1       7.144 -14.351 -19.779  1.00  0.00     0.274 HD
ATOM     12  H12 UNL     1       7.887 -15.682 -19.918  1.00  0.00     0.274 HD
ATOM     13  H11 UNL     1       8.419 -14.404 -20.907  1.00  0.00     0.274 HD
ENDBRANCH   9  10
ENDBRANCH   1   9
TORSDOF 2
ENDMDL
MODEL 4
REMARK VINA RESULT: -4.191848981      1.993      3.420
REMARK  2 active torsions:
REMARK  status: ('A' for Active; 'I' for Inactive)
REMARK    1  A    between atoms: N1_1  and  C1_5 
REMARK    2  A    between atoms: C1_5  and  C2_6 
ROOT
HETATM    1  C2  UNL     1       3.913 -14.428 -20.828  1.00  0.00     0.085 C 
HETATM    2  C3  UNL     1       2.632 -15.058 -21.252  1.00  0.00     0.040 C 
HETATM    3  C4  UNL     1       2.165 -14.380 -22.526  1.00  0.00     0.006 C 
HETATM    4  C5  UNL     1       2.077 -12.901 -22.223  1.00  0.00     0.032 C 
HETATM    5  C6  UNL     1       3.366 -12.472 -21.598  1.00  0.00     0.122 C 
HETATM    6  C7  UNL     1       4.492 -12.894 -22.551  1.00  0.00     0.035 C 
HETATM    7  C8  UNL     1       4.897 -14.212 -21.939  1.00  0.00     0.042 C 
HETATM    8  O1  UNL     1       3.643 -13.131 -20.401  1.00  0.00    -0.373 OA
ENDROOT
BRANCH   1   9
HETATM    9  C1  UNL     1       4.560 -15.266 -19.761  1.00  0.00     0.267 C 
BRANCH   9  10
HETATM   10  N1  UNL     1       3.807 -15.049 -18.540  1.00  0.00    -0.076 N 
ATOM     11  H13 UNL     1       3.183 -14.243 -18.590  1.00  0.00     0.274 HD
ATOM     12  H12 UNL     1       3.090 -15.756 -18.379  1.00  0.00     0.274 HD
ATOM     13  H11 UNL     1       4.485 -14.985 -17.781  1.00  0.00     0.274 HD
ENDBRANCH   9  10
ENDBRANCH   1   9
TORSDOF 2
ENDMDL
MODEL 5
REMARK VINA RESULT: -3.682211623      1.138      2.172
REMARK  2 active torsions:
REMARK  status: ('A' for Active; 'I' for Inactive)
REMARK    1  A    between atoms: N1_1  and  C1_5 
REMARK    2  A    between atoms: C1_5  and  C2_6 
ROOT
HETATM    1  C2  UNL     1       3.443 -13.826 -21.459  1.00  0.00     0.085 C 
HETATM    2  C3  UNL     1       2.984 -14.255 -20.110  1.00  0.00     0.040 C 
HETATM    3  C4  UNL     1       4.186 -14.760 -19.334  1.00  0.00     0.006 C 
HETATM    4  C5  UNL     1       4.812 -15.854 -20.170  1.00  0.00     0.032 C 
HETATM    5  C6  UNL     1       5.005 -15.332 -21.558  1.00  0.00     0.122 C 
HETATM    6  C7  UNL     1       5.812 -14.033 -21.443  1.00  0.00     0.035 C 
HETATM    7  C8  UNL     1       4.702 -13.011 -21.458  1.00  0.00     0.042 C 
HETATM    8  O1  UNL     1       3.813 -14.960 -22.176  1.00  0.00    -0.373 OA
ENDROOT
BRANCH   1   9
HETATM    9  C1  UNL     1       2.356 -13.040 -22.138  1.00  0.00     0.267 C 
BRANCH   9  10
HETATM   10  N1  UNL     1       2.972 -12.352 -23.258  1.00  0.00    -0.076 N 
ATOM     11  H13 UNL     1       2.973 -11.337 -23.155  1.00  0.00     0.274 HD
ATOM     12  H12 UNL     1       3.983 -12.478 -23.301  1.00  0.00     0.274 HD
ATOM     13  H11 UNL     1       2.492 -12.670 -24.100  1.00  0.00     0.274 HD
ENDBRANCH   9  10
ENDBRANCH   1   9
TORSDOF 2
ENDMDL
