MODEL 1
REMARK VINA RESULT: -6.447919122      0.000      0.000
REMARK  3 active torsions:
REMARK  status: ('A' for Active; 'I' for Inactive)
REMARK    1  A    between atoms: C5_12  and  N4_13 
REMARK    2  A    between atoms: N4_13  and  O3_14 
REMARK    3  A    between atoms: N4_13  and  N5_16 
ROOT
HETATM    1  N1  UNL     1      57.585  -2.520  17.645  1.00  0.00    -0.190 NA
HETATM    2  C1  UNL     1      57.914  -3.480  18.239  1.00  0.00     0.120 C 
HETATM    3  C2  UNL     1      58.300  -4.646  18.982  1.00  0.00     0.149 A 
HETATM    4  N2  UNL     1      58.137  -4.714  20.333  1.00  0.00    -0.298 N 
ATOM      5  H2  UNL     1      57.732  -3.916  20.822  1.00  0.00     0.171 HD
HETATM    6  C3  UNL     1      58.494  -5.801  21.043  1.00  0.00     0.328 A 
HETATM    7  O1  UNL     1      58.315  -5.791  22.274  1.00  0.00    -0.247 OA
HETATM    8  N3  UNL     1      59.038  -6.884  20.422  1.00  0.00    -0.274 N 
ATOM      9  H3  UNL     1      59.306  -7.704  20.966  1.00  0.00     0.173 HD
HETATM   10  C4  UNL     1      59.221  -6.870  19.097  1.00  0.00     0.278 A 
HETATM   11  O2  UNL     1      59.718  -7.840  18.467  1.00  0.00    -0.266 OA
HETATM   12  C5  UNL     1      58.853  -5.750  18.360  1.00  0.00     0.166 A 
ENDROOT
BRANCH  12  13
HETATM   13  N4  UNL     1      59.041  -5.728  16.970  1.00  0.00    -0.048 NA
BRANCH  13  14
HETATM   14  O3  UNL     1      58.327  -6.622  16.289  1.00  0.00    -0.288 OA
ATOM     15  H3  UNL     1      58.313  -7.495  16.665  1.00  0.00     0.239 HD
ENDBRANCH  13  14
BRANCH  13  16
HETATM   16  N5  UNL     1      60.375  -5.850  16.616  1.00  0.00    -0.240 N 
HETATM   17  N6  UNL     1      60.764  -6.860  16.006  1.00  0.00    -0.333 N 
ATOM     18  H62 UNL     1      60.090  -7.589  15.773  1.00  0.00     0.178 HD
ATOM     19  H61 UNL     1      61.746  -6.949  15.746  1.00  0.00     0.178 HD
ATOM     20  H5  UNL     1      61.037  -5.112  16.857  1.00  0.00     0.204 HD
ENDBRANCH  13  16
ENDBRANCH  12  13
TORSDOF 3
ENDMDL
MODEL 2
REMARK VINA RESULT: -6.042580022      1.968      3.882
REMARK  3 active torsions:
REMARK  status: ('A' for Active; 'I' for Inactive)
REMARK    1  A    between atoms: C5_12  and  N4_13 
REMARK    2  A    between atoms: N4_13  and  O3_14 
REMARK    3  A    between atoms: N4_13  and  N5_16 
ROOT
HETATM    1  N1  UNL     1      58.502  -5.804  21.470  1.00  0.00    -0.190 NA
HETATM    2  C1  UNL     1      58.858  -6.040  20.375  1.00  0.00     0.120 C 
HETATM    3  C2  UNL     1      59.298  -6.351  19.045  1.00  0.00     0.149 A 
HETATM    4  N2  UNL     1      60.240  -7.309  18.813  1.00  0.00    -0.298 N 
ATOM      5  H2  UNL     1      60.637  -7.812  19.607  1.00  0.00     0.171 HD
HETATM    6  C3  UNL     1      60.662  -7.612  17.572  1.00  0.00     0.328 A 
HETATM    7  O1  UNL     1      61.525  -8.498  17.438  1.00  0.00    -0.247 OA
HETATM    8  N3  UNL     1      60.154  -6.958  16.490  1.00  0.00    -0.274 N 
ATOM      9  H3  UNL     1      60.479  -7.193  15.553  1.00  0.00     0.173 HD
HETATM   10  C4  UNL     1      59.228  -6.009  16.660  1.00  0.00     0.278 A 
HETATM   11  O2  UNL     1      58.720  -5.371  15.700  1.00  0.00    -0.266 OA
HETATM   12  C5  UNL     1      58.788  -5.694  17.941  1.00  0.00     0.166 A 
ENDROOT
BRANCH  12  13
HETATM   13  N4  UNL     1      57.816  -4.699  18.128  1.00  0.00    -0.048 NA
BRANCH  13  14
HETATM   14  O3  UNL     1      56.687  -4.878  17.446  1.00  0.00    -0.288 OA
ATOM     15  H3  UNL     1      56.787  -4.905  16.501  1.00  0.00     0.239 HD
ENDBRANCH  13  14
BRANCH  13  16
HETATM   16  N5  UNL     1      58.305  -3.429  17.868  1.00  0.00    -0.240 N 
HETATM   17  N6  UNL     1      58.065  -2.500  18.658  1.00  0.00    -0.333 N 
ATOM     18  H62 UNL     1      57.508  -2.688  19.491  1.00  0.00     0.178 HD
ATOM     19  H61 UNL     1      58.426  -1.565  18.467  1.00  0.00     0.178 HD
ATOM     20  H5  UNL     1      58.860  -3.257  17.031  1.00  0.00     0.204 HD
ENDBRANCH  13  16
ENDBRANCH  12  13
TORSDOF 3
ENDMDL
MODEL 3
REMARK VINA RESULT: -5.856472989      2.048      3.513
REMARK  3 active torsions:
REMARK  status: ('A' for Active; 'I' for Inactive)
REMARK    1  A    between atoms: C5_12  and  N4_13 
REMARK    2  A    between atoms: N4_13  and  O3_14 
REMARK    3  A    between atoms: N4_13  and  N5_16 
ROOT
HETATM    1  N1  UNL     1      58.787  -6.110  22.181  1.00  0.00    -0.190 NA
HETATM    2  C1  UNL     1      58.594  -5.542  21.170  1.00  0.00     0.120 C 
HETATM    3  C2  UNL     1      58.359  -4.827  19.948  1.00  0.00     0.149 A 
HETATM    4  N2  UNL     1      57.762  -3.603  19.944  1.00  0.00    -0.298 N 
ATOM      5  H2  UNL     1      57.477  -3.190  20.832  1.00  0.00     0.171 HD
HETATM    6  C3  UNL     1      57.535  -2.921  18.806  1.00  0.00     0.328 A 
HETATM    7  O1  UNL     1      56.985  -1.808  18.881  1.00  0.00    -0.247 OA
HETATM    8  N3  UNL     1      57.901  -3.443  17.602  1.00  0.00    -0.274 N 
ATOM      9  H3  UNL     1      57.726  -2.921  16.745  1.00  0.00     0.173 HD
HETATM   10  C4  UNL     1      58.491  -4.642  17.549  1.00  0.00     0.278 A 
HETATM   11  O2  UNL     1      58.852  -5.177  16.467  1.00  0.00    -0.266 OA
HETATM   12  C5  UNL     1      58.727  -5.349  18.722  1.00  0.00     0.166 A 
ENDROOT
BRANCH  12  13
HETATM   13  N4  UNL     1      59.346  -6.608  18.674  1.00  0.00    -0.048 NA
BRANCH  13  14
HETATM   14  O3  UNL     1      60.495  -6.647  18.002  1.00  0.00    -0.288 OA
ATOM     15  H3  UNL     1      60.411  -6.805  17.069  1.00  0.00     0.239 HD
ENDBRANCH  13  14
BRANCH  13  16
HETATM   16  N5  UNL     1      58.502  -7.592  18.185  1.00  0.00    -0.240 N 
HETATM   17  N6  UNL     1      58.314  -8.630  18.841  1.00  0.00    -0.333 N 
ATOM     18  H62 UNL     1      58.789  -8.743  19.738  1.00  0.00     0.178 HD
ATOM     19  H61 UNL     1      57.693  -9.354  18.481  1.00  0.00     0.178 HD
ATOM     20  H5  UNL     1      58.036  -7.464  17.287  1.00  0.00     0.204 HD
ENDBRANCH  13  16
ENDBRANCH  12  13
TORSDOF 3
ENDMDL
MODEL 4
REMARK VINA RESULT: -5.610381048      1.688      3.219
REMARK  3 active torsions:
REMARK  status: ('A' for Active; 'I' for Inactive)
REMARK    1  A    between atoms: C5_12  and  N4_13 
REMARK    2  A    between atoms: N4_13  and  O3_14 
REMARK    3  A    between atoms: N4_13  and  N5_16 
ROOT
HETATM    1  N1  UNL     1      59.355  -7.190  21.438  1.00  0.00    -0.190 NA
HETATM    2  C1  UNL     1      59.050  -6.427  20.597  1.00  0.00     0.120 C 
HETATM    3  C2  UNL     1      58.682  -5.478  19.585  1.00  0.00     0.149 A 
HETATM    4  N2  UNL     1      58.174  -4.256  19.908  1.00  0.00    -0.298 N 
ATOM      5  H2  UNL     1      58.056  -4.016  20.893  1.00  0.00     0.171 HD
HETATM    6  C3  UNL     1      57.825  -3.355  18.971  1.00  0.00     0.328 A 
HETATM    7  O1  UNL     1      57.368  -2.259  19.342  1.00  0.00    -0.247 OA
HETATM    8  N3  UNL     1      57.969  -3.643  17.648  1.00  0.00    -0.274 N 
ATOM      9  H3  UNL     1      57.702  -2.956  16.944  1.00  0.00     0.173 HD
HETATM   10  C4  UNL     1      58.462  -4.829  17.275  1.00  0.00     0.278 A 
HETATM   11  O2  UNL     1      58.620  -5.153  16.068  1.00  0.00    -0.266 OA
HETATM   12  C5  UNL     1      58.825  -5.762  18.240  1.00  0.00     0.166 A 
ENDROOT
BRANCH  12  13
HETATM   13  N4  UNL     1      59.343  -7.008  17.856  1.00  0.00    -0.048 NA
BRANCH  13  14
HETATM   14  O3  UNL     1      58.862  -8.051  18.530  1.00  0.00    -0.288 OA
ATOM     15  H3  UNL     1      57.914  -8.102  18.569  1.00  0.00     0.239 HD
ENDBRANCH  13  14
BRANCH  13  16
HETATM   16  N5  UNL     1      60.727  -7.040  17.901  1.00  0.00    -0.240 N 
HETATM   17  N6  UNL     1      61.388  -6.671  16.915  1.00  0.00    -0.333 N 
ATOM     18  H62 UNL     1      60.896  -6.348  16.081  1.00  0.00     0.178 HD
ATOM     19  H61 UNL     1      62.406  -6.694  16.949  1.00  0.00     0.178 HD
ATOM     20  H5  UNL     1      61.204  -7.365  18.742  1.00  0.00     0.204 HD
ENDBRANCH  13  16
ENDBRANCH  12  13
TORSDOF 3
ENDMDL
MODEL 5
REMARK VINA RESULT: -5.604915602      2.047      2.574
REMARK  3 active torsions:
REMARK  status: ('A' for Active; 'I' for Inactive)
REMARK    1  A    between atoms: C5_12  and  N4_13 
REMARK    2  A    between atoms: N4_13  and  O3_14 
REMARK    3  A    between atoms: N4_13  and  N5_16 
ROOT
HETATM    1  N1  UNL     1      56.351  -5.720  15.138  1.00  0.00    -0.190 NA
HETATM    2  C1  UNL     1      56.862  -5.418  16.152  1.00  0.00     0.120 C 
HETATM    3  C2  UNL     1      57.468  -5.033  17.396  1.00  0.00     0.149 A 
HETATM    4  N2  UNL     1      57.211  -3.823  17.967  1.00  0.00    -0.298 N 
ATOM      5  H2  UNL     1      56.574  -3.181  17.496  1.00  0.00     0.171 HD
HETATM    6  C3  UNL     1      57.771  -3.449  19.133  1.00  0.00     0.328 A 
HETATM    7  O1  UNL     1      57.489  -2.329  19.594  1.00  0.00    -0.247 OA
HETATM    8  N3  UNL     1      58.627  -4.283  19.787  1.00  0.00    -0.274 N 
ATOM      9  H3  UNL     1      59.047  -3.992  20.669  1.00  0.00     0.173 HD
HETATM   10  C4  UNL     1      58.914  -5.482  19.270  1.00  0.00     0.278 A 
HETATM   11  O2  UNL     1      59.697  -6.296  19.828  1.00  0.00    -0.266 OA
HETATM   12  C5  UNL     1      58.337  -5.872  18.067  1.00  0.00     0.166 A 
ENDROOT
BRANCH  12  13
HETATM   13  N4  UNL     1      58.633  -7.130  17.518  1.00  0.00    -0.048 NA
BRANCH  13  14
HETATM   14  O3  UNL     1      58.279  -8.171  18.269  1.00  0.00    -0.288 OA
ATOM     15  H3  UNL     1      57.385  -8.150  18.590  1.00  0.00     0.239 HD
ENDBRANCH  13  14
BRANCH  13  16
HETATM   16  N5  UNL     1      59.970  -7.253  17.175  1.00  0.00    -0.240 N 
HETATM   17  N6  UNL     1      60.356  -6.890  16.051  1.00  0.00    -0.333 N 
ATOM     18  H62 UNL     1      59.678  -6.505  15.393  1.00  0.00     0.178 HD
ATOM     19  H61 UNL     1      61.340  -6.981  15.798  1.00  0.00     0.178 HD
ATOM     20  H5  UNL     1      60.635  -7.641  17.843  1.00  0.00     0.204 HD
ENDBRANCH  13  16
ENDBRANCH  12  13
TORSDOF 3
ENDMDL
