MODEL 1
REMARK VINA RESULT: -5.856882368      0.000      0.000
REMARK  4 active torsions:
REMARK  status: ('A' for Active; 'I' for Inactive)
REMARK    1  A    between atoms: N1_1  and  C1_4 
REMARK    2  A    between atoms: C2_7  and  N3_8 
REMARK    3  A    between atoms: N3_8  and  N4_10 
REMARK    4  A    between atoms: C3_17  and  C4_18 
ROOT
HETATM    1  C1  UNL     1      58.738  -5.597  19.532  1.00  0.00     0.148 A 
HETATM    2  N2  UNL     1      58.272  -4.363  19.782  1.00  0.00    -0.172 N 
ATOM      3  H2  UNL     1      58.032  -4.115  20.742  1.00  0.00     0.186 HD
HETATM    4  C2  UNL     1      58.110  -3.445  18.818  1.00  0.00     0.712 A 
HETATM    5  N5  UNL     1      58.416  -3.738  17.549  1.00  0.00    -0.130 N 
ATOM      6  H5  UNL     1      58.298  -3.047  16.807  1.00  0.00     0.205 HD
HETATM    7  N6  UNL     1      58.878  -4.954  17.283  1.00  0.00    -0.278 N 
ATOM      8  H6  UNL     1      59.115  -5.186  16.318  1.00  0.00     0.188 HD
HETATM    9  C3  UNL     1      59.047  -5.885  18.224  1.00  0.00     0.158 A 
ENDROOT
BRANCH   4  10
HETATM   10  N3  UNL     1      57.660  -2.265  19.090  1.00  0.00    -0.137 N 
ATOM     11  H3  UNL     1      57.875  -1.486  18.468  1.00  0.00     0.205 HD
BRANCH  10  12
HETATM   12  N4  UNL     1      56.888  -2.051  20.218  1.00  0.00    -0.331 N 
ATOM     13  H42 UNL     1      56.932  -2.728  20.980  1.00  0.00     0.177 HD
ATOM     14  H41 UNL     1      56.286  -1.231  20.286  1.00  0.00     0.177 HD
ENDBRANCH  10  12
ENDBRANCH   4  10
BRANCH   1  15
HETATM   15  N1  UNL     1      58.889  -6.480  20.485  1.00  0.00    -0.383 N 
ATOM     16  H12 UNL     1      58.581  -6.297  21.439  1.00  0.00     0.157 HD
ATOM     17  H11 UNL     1      59.321  -7.387  20.311  1.00  0.00     0.157 HD
ENDBRANCH   1  15
BRANCH   9  18
HETATM   18  C4  UNL     1      59.552  -7.187  17.878  1.00  0.00     0.286 C 
HETATM   19  N7  UNL     1      60.824  -7.326  17.270  1.00  0.00    -0.056 NA
HETATM   20  O1  UNL     1      58.861  -8.200  18.116  1.00  0.00    -0.269 OA
ENDBRANCH   9  18
TORSDOF 4
ENDMDL
MODEL 2
REMARK VINA RESULT: -5.835094059      0.696      1.894
REMARK  4 active torsions:
REMARK  status: ('A' for Active; 'I' for Inactive)
REMARK    1  A    between atoms: N1_1  and  C1_4 
REMARK    2  A    between atoms: C2_7  and  N3_8 
REMARK    3  A    between atoms: N3_8  and  N4_10 
REMARK    4  A    between atoms: C3_17  and  C4_18 
ROOT
HETATM    1  C1  UNL     1      58.980  -5.138  17.261  1.00  0.00     0.148 A 
HETATM    2  N2  UNL     1      58.530  -3.902  17.531  1.00  0.00    -0.172 N 
ATOM      3  H2  UNL     1      58.506  -3.213  16.779  1.00  0.00     0.186 HD
HETATM    4  C2  UNL     1      58.111  -3.539  18.753  1.00  0.00     0.712 A 
HETATM    5  N5  UNL     1      58.129  -4.417  19.761  1.00  0.00    -0.130 N 
ATOM      6  H5  UNL     1      57.812  -4.153  20.694  1.00  0.00     0.205 HD
HETATM    7  N6  UNL     1      58.571  -5.645  19.512  1.00  0.00    -0.278 N 
ATOM      8  H6  UNL     1      58.589  -6.322  20.274  1.00  0.00     0.188 HD
HETATM    9  C3  UNL     1      58.994  -6.030  18.305  1.00  0.00     0.158 A 
ENDROOT
BRANCH   4  10
HETATM   10  N3  UNL     1      57.683  -2.342  18.982  1.00  0.00    -0.137 N 
ATOM     11  H3  UNL     1      57.898  -1.593  18.323  1.00  0.00     0.205 HD
BRANCH  10  12
HETATM   12  N4  UNL     1      56.936  -2.067  20.113  1.00  0.00    -0.331 N 
ATOM     13  H42 UNL     1      57.399  -1.642  20.917  1.00  0.00     0.177 HD
ATOM     14  H41 UNL     1      55.940  -2.286  20.142  1.00  0.00     0.177 HD
ENDBRANCH  10  12
ENDBRANCH   4  10
BRANCH   1  15
HETATM   15  N1  UNL     1      59.385  -5.474  16.064  1.00  0.00    -0.383 N 
ATOM     16  H12 UNL     1      59.327  -4.829  15.276  1.00  0.00     0.157 HD
ATOM     17  H11 UNL     1      59.776  -6.396  15.870  1.00  0.00     0.157 HD
ENDBRANCH   1  15
BRANCH   9  18
HETATM   18  C4  UNL     1      59.462  -7.373  18.094  1.00  0.00     0.286 C 
HETATM   19  N7  UNL     1      60.795  -7.613  17.678  1.00  0.00    -0.056 NA
HETATM   20  O1  UNL     1      58.685  -8.334  18.278  1.00  0.00    -0.269 OA
ENDBRANCH   9  18
TORSDOF 4
ENDMDL
MODEL 3
REMARK VINA RESULT: -5.814248285      1.927      4.279
REMARK  4 active torsions:
REMARK  status: ('A' for Active; 'I' for Inactive)
REMARK    1  A    between atoms: N1_1  and  C1_4 
REMARK    2  A    between atoms: C2_7  and  N3_8 
REMARK    3  A    between atoms: N3_8  and  N4_10 
REMARK    4  A    between atoms: C3_17  and  C4_18 
ROOT
HETATM    1  C1  UNL     1      58.563  -5.298  19.537  1.00  0.00     0.148 A 
HETATM    2  N2  UNL     1      59.209  -6.225  18.811  1.00  0.00    -0.172 N 
ATOM      3  H2  UNL     1      59.481  -7.099  19.261  1.00  0.00     0.186 HD
HETATM    4  C2  UNL     1      59.509  -6.045  17.516  1.00  0.00     0.712 A 
HETATM    5  N5  UNL     1      59.166  -4.911  16.895  1.00  0.00    -0.130 N 
ATOM      6  H5  UNL     1      59.389  -4.764  15.910  1.00  0.00     0.205 HD
HETATM    7  N6  UNL     1      58.527  -3.983  17.598  1.00  0.00    -0.278 N 
ATOM      8  H6  UNL     1      58.261  -3.115  17.133  1.00  0.00     0.188 HD
HETATM    9  C3  UNL     1      58.218  -4.138  18.887  1.00  0.00     0.158 A 
ENDROOT
BRANCH   4  10
HETATM   10  N3  UNL     1      60.131  -6.956  16.844  1.00  0.00    -0.137 N 
ATOM     11  H3  UNL     1      59.607  -7.730  16.436  1.00  0.00     0.205 HD
BRANCH  10  12
HETATM   12  N4  UNL     1      61.503  -6.890  16.673  1.00  0.00    -0.331 N 
ATOM     13  H42 UNL     1      62.055  -7.739  16.800  1.00  0.00     0.177 HD
ATOM     14  H41 UNL     1      61.952  -6.009  16.425  1.00  0.00     0.177 HD
ENDBRANCH  10  12
ENDBRANCH   4  10
BRANCH   1  15
HETATM   15  N1  UNL     1      58.279  -5.490  20.799  1.00  0.00    -0.383 N 
ATOM     16  H12 UNL     1      57.651  -6.235  21.101  1.00  0.00     0.157 HD
ATOM     17  H11 UNL     1      58.675  -4.902  21.533  1.00  0.00     0.157 HD
ENDBRANCH   1  15
BRANCH   9  18
HETATM   18  C4  UNL     1      57.524  -3.098  19.599  1.00  0.00     0.286 C 
HETATM   19  N7  UNL     1      57.024  -1.966  18.910  1.00  0.00    -0.056 NA
HETATM   20  O1  UNL     1      57.363  -3.197  20.834  1.00  0.00    -0.269 OA
ENDBRANCH   9  18
TORSDOF 4
ENDMDL
MODEL 4
REMARK VINA RESULT: -5.801486015      1.458      2.323
REMARK  4 active torsions:
REMARK  status: ('A' for Active; 'I' for Inactive)
REMARK    1  A    between atoms: N1_1  and  C1_4 
REMARK    2  A    between atoms: C2_7  and  N3_8 
REMARK    3  A    between atoms: N3_8  and  N4_10 
REMARK    4  A    between atoms: C3_17  and  C4_18 
ROOT
HETATM    1  C1  UNL     1      58.876  -5.887  17.057  1.00  0.00     0.148 A 
HETATM    2  N2  UNL     1      58.129  -4.871  17.518  1.00  0.00    -0.172 N 
ATOM      3  H2  UNL     1      57.495  -4.397  16.874  1.00  0.00     0.186 HD
HETATM    4  C2  UNL     1      58.184  -4.456  18.792  1.00  0.00     0.712 A 
HETATM    5  N5  UNL     1      59.003  -5.056  19.663  1.00  0.00    -0.130 N 
ATOM      6  H5  UNL     1      59.053  -4.750  20.635  1.00  0.00     0.205 HD
HETATM    7  N6  UNL     1      59.750  -6.063  19.224  1.00  0.00    -0.278 N 
ATOM      8  H6  UNL     1      60.377  -6.528  19.881  1.00  0.00     0.188 HD
HETATM    9  C3  UNL     1      59.713  -6.494  17.961  1.00  0.00     0.158 A 
ENDROOT
BRANCH   4  10
HETATM   10  N3  UNL     1      57.452  -3.475  19.206  1.00  0.00    -0.137 N 
ATOM     11  H3  UNL     1      56.633  -3.664  19.784  1.00  0.00     0.205 HD
BRANCH  10  12
HETATM   12  N4  UNL     1      57.770  -2.171  18.871  1.00  0.00    -0.331 N 
ATOM     13  H42 UNL     1      58.303  -1.609  19.535  1.00  0.00     0.177 HD
ATOM     14  H41 UNL     1      57.478  -1.779  17.976  1.00  0.00     0.177 HD
ENDBRANCH  10  12
ENDBRANCH   4  10
BRANCH   1  15
HETATM   15  N1  UNL     1      58.810  -6.277  15.811  1.00  0.00    -0.383 N 
ATOM     16  H12 UNL     1      57.931  -6.577  15.388  1.00  0.00     0.157 HD
ATOM     17  H11 UNL     1      59.634  -6.299  15.212  1.00  0.00     0.157 HD
ENDBRANCH   1  15
BRANCH   9  18
HETATM   18  C4  UNL     1      60.545  -7.590  17.543  1.00  0.00     0.286 C 
HETATM   19  N7  UNL     1      60.694  -8.735  18.364  1.00  0.00    -0.056 NA
HETATM   20  O1  UNL     1      61.140  -7.529  16.445  1.00  0.00    -0.269 OA
ENDBRANCH   9  18
TORSDOF 4
ENDMDL
MODEL 5
REMARK VINA RESULT: -5.748502899      3.109      5.152
REMARK  4 active torsions:
REMARK  status: ('A' for Active; 'I' for Inactive)
REMARK    1  A    between atoms: N1_1  and  C1_4 
REMARK    2  A    between atoms: C2_7  and  N3_8 
REMARK    3  A    between atoms: N3_8  and  N4_10 
REMARK    4  A    between atoms: C3_17  and  C4_18 
ROOT
HETATM    1  C1  UNL     1      57.279  -3.157  20.438  1.00  0.00     0.148 A 
HETATM    2  N2  UNL     1      57.991  -3.744  19.462  1.00  0.00    -0.172 N 
ATOM      3  H2  UNL     1      58.127  -3.241  18.585  1.00  0.00     0.186 HD
HETATM    4  C2  UNL     1      58.529  -4.965  19.597  1.00  0.00     0.712 A 
HETATM    5  N5  UNL     1      58.370  -5.651  20.734  1.00  0.00    -0.130 N 
ATOM      6  H5  UNL     1      58.775  -6.580  20.848  1.00  0.00     0.205 HD
HETATM    7  N6  UNL     1      57.668  -5.086  21.710  1.00  0.00    -0.278 N 
ATOM      8  H6  UNL     1      57.542  -5.601  22.581  1.00  0.00     0.188 HD
HETATM    9  C3  UNL     1      57.123  -3.873  21.600  1.00  0.00     0.158 A 
ENDROOT
BRANCH   4  10
HETATM   10  N3  UNL     1      59.209  -5.503  18.639  1.00  0.00    -0.137 N 
ATOM     11  H3  UNL     1      59.904  -6.219  18.852  1.00  0.00     0.205 HD
BRANCH  10  12
HETATM   12  N4  UNL     1      59.002  -5.115  17.327  1.00  0.00    -0.331 N 
ATOM     13  H42 UNL     1      59.315  -5.733  16.577  1.00  0.00     0.177 HD
ATOM     14  H41 UNL     1      58.546  -4.228  17.114  1.00  0.00     0.177 HD
ENDBRANCH  10  12
ENDBRANCH   4  10
BRANCH   1  15
HETATM   15  N1  UNL     1      56.761  -1.966  20.288  1.00  0.00    -0.383 N 
ATOM     16  H12 UNL     1      56.153  -1.740  19.502  1.00  0.00     0.157 HD
ATOM     17  H11 UNL     1      56.945  -1.215  20.953  1.00  0.00     0.157 HD
ENDBRANCH   1  15
BRANCH   9  18
HETATM   18  C4  UNL     1      56.373  -3.311  22.692  1.00  0.00     0.286 C 
HETATM   19  N7  UNL     1      54.975  -3.522  22.788  1.00  0.00    -0.056 NA
HETATM   20  O1  UNL     1      56.962  -2.632  23.559  1.00  0.00    -0.269 OA
ENDBRANCH   9  18
TORSDOF 4
ENDMDL
