MODEL 1
REMARK VINA RESULT: -5.446427318      0.000      0.000
REMARK  2 active torsions:
REMARK  status: ('A' for Active; 'I' for Inactive)
REMARK    1  A    between atoms: C3_3  and  C5_5 
REMARK    2  A    between atoms: C6_6  and  C7_7 
ROOT
HETATM    1  C1  UNL     1      23.820  15.099   7.682  1.00  0.00     0.103 C 
HETATM    2  C2  UNL     1      24.163  15.388   8.825  1.00  0.00    -0.150 C 
HETATM    3  C3  UNL     1      24.529  15.763  10.140  1.00  0.00    -0.005 C 
HETATM    4  C4  UNL     1      24.627  17.111  10.403  1.00  0.00     0.032 C 
ENDROOT
BRANCH   3   5
HETATM    5  C5  UNL     1      24.698  14.895  11.241  1.00  0.00     0.020 C 
HETATM    6  C6  UNL     1      25.432  13.956  11.641  1.00  0.00     0.017 C 
BRANCH   6   7
HETATM    7  C7  UNL     1      26.578  13.225  11.166  1.00  0.00     0.021 A 
HETATM    8  C8  UNL     1      26.523  12.337  10.058  1.00  0.00     0.103 A 
HETATM    9  N1  UNL     1      27.680  11.696   9.911  1.00  0.00    -0.357 N 
HETATM   10  C9  UNL     1      28.537  12.082  10.851  1.00  0.00     0.119 A 
ATOM     11  H1  UNL     1      27.880  11.009   9.184  1.00  0.00     0.166 HD
HETATM   12 BR1  UNL     1      30.340  11.515  11.144  1.00  0.00    -0.028 Br
HETATM   13  C10 UNL     1      27.851  13.028  11.628  1.00  0.00     0.162 A 
HETATM   14  F1  UNL     1      28.407  13.558  12.734  1.00  0.00    -0.202 F 
ENDBRANCH   6   7
ENDBRANCH   3   5
TORSDOF 2
ENDMDL
MODEL 2
REMARK VINA RESULT: -5.373989430      4.030      5.350
REMARK  2 active torsions:
REMARK  status: ('A' for Active; 'I' for Inactive)
REMARK    1  A    between atoms: C3_3  and  C5_5 
REMARK    2  A    between atoms: C6_6  and  C7_7 
ROOT
HETATM    1  C1  UNL     1      26.258  12.758   9.848  1.00  0.00     0.103 C 
HETATM    2  C2  UNL     1      25.692  13.781   9.474  1.00  0.00    -0.150 C 
HETATM    3  C3  UNL     1      24.998  14.932   9.029  1.00  0.00    -0.005 C 
HETATM    4  C4  UNL     1      24.165  14.781   7.943  1.00  0.00     0.032 C 
ENDROOT
BRANCH   3   5
HETATM    5  C5  UNL     1      24.988  16.198   9.655  1.00  0.00     0.020 C 
HETATM    6  C6  UNL     1      24.540  16.780  10.676  1.00  0.00     0.017 C 
BRANCH   6   7
HETATM    7  C7  UNL     1      23.759  16.440  11.836  1.00  0.00     0.021 A 
HETATM    8  C8  UNL     1      23.427  17.382  12.848  1.00  0.00     0.103 A 
HETATM    9  N1  UNL     1      22.814  16.782  13.866  1.00  0.00    -0.357 N 
HETATM   10  C9  UNL     1      22.701  15.480  13.626  1.00  0.00     0.119 A 
ATOM     11  H1  UNL     1      22.480  17.253  14.707  1.00  0.00     0.166 HD
HETATM   12 BR1  UNL     1      21.915  14.118  14.714  1.00  0.00    -0.028 Br
HETATM   13  C10 UNL     1      23.289  15.270  12.369  1.00  0.00     0.162 A 
HETATM   14  F1  UNL     1      23.426  14.031  11.860  1.00  0.00    -0.202 F 
ENDBRANCH   6   7
ENDBRANCH   3   5
TORSDOF 2
ENDMDL
MODEL 3
REMARK VINA RESULT: -5.352737247      2.734      4.001
REMARK  2 active torsions:
REMARK  status: ('A' for Active; 'I' for Inactive)
REMARK    1  A    between atoms: C3_3  and  C5_5 
REMARK    2  A    between atoms: C6_6  and  C7_7 
ROOT
HETATM    1  C1  UNL     1      23.531  12.894  14.554  1.00  0.00     0.103 C 
HETATM    2  C2  UNL     1      22.874  13.715  13.921  1.00  0.00    -0.150 C 
HETATM    3  C3  UNL     1      22.089  14.671  13.232  1.00  0.00    -0.005 C 
HETATM    4  C4  UNL     1      20.758  14.752  13.575  1.00  0.00     0.032 C 
ENDROOT
BRANCH   3   5
HETATM    5  C5  UNL     1      22.557  15.628  12.306  1.00  0.00     0.020 C 
HETATM    6  C6  UNL     1      23.391  15.759  11.373  1.00  0.00     0.017 C 
BRANCH   6   7
HETATM    7  C7  UNL     1      24.368  14.945  10.698  1.00  0.00     0.021 A 
HETATM    8  C8  UNL     1      24.347  14.716   9.296  1.00  0.00     0.103 A 
HETATM    9  N1  UNL     1      25.277  13.829   8.951  1.00  0.00    -0.357 N 
HETATM   10  C9  UNL     1      25.943  13.424  10.027  1.00  0.00     0.119 A 
ATOM     11  H1  UNL     1      25.453  13.507   7.999  1.00  0.00     0.166 HD
HETATM   12 BR1  UNL     1      27.381  12.170  10.154  1.00  0.00    -0.028 Br
HETATM   13  C10 UNL     1      25.377  14.116  11.109  1.00  0.00     0.162 A 
HETATM   14  F1  UNL     1      25.762  13.869  12.375  1.00  0.00    -0.202 F 
ENDBRANCH   6   7
ENDBRANCH   3   5
TORSDOF 2
ENDMDL
MODEL 4
REMARK VINA RESULT: -5.311377499      1.613      2.252
REMARK  2 active torsions:
REMARK  status: ('A' for Active; 'I' for Inactive)
REMARK    1  A    between atoms: C3_3  and  C5_5 
REMARK    2  A    between atoms: C6_6  and  C7_7 
ROOT
HETATM    1  C1  UNL     1      24.914  17.301  10.471  1.00  0.00     0.103 C 
HETATM    2  C2  UNL     1      24.716  16.207   9.950  1.00  0.00    -0.150 C 
HETATM    3  C3  UNL     1      24.503  14.965   9.305  1.00  0.00    -0.005 C 
HETATM    4  C4  UNL     1      24.063  15.004   8.001  1.00  0.00     0.032 C 
ENDROOT
BRANCH   3   5
HETATM    5  C5  UNL     1      24.802  13.688   9.828  1.00  0.00     0.020 C 
HETATM    6  C6  UNL     1      25.759  13.027  10.306  1.00  0.00     0.017 C 
BRANCH   6   7
HETATM    7  C7  UNL     1      27.150  13.239  10.610  1.00  0.00     0.021 A 
HETATM    8  C8  UNL     1      28.147  12.248  10.401  1.00  0.00     0.103 A 
HETATM    9  N1  UNL     1      29.320  12.652  10.884  1.00  0.00    -0.357 N 
HETATM   10  C9  UNL     1      29.200  13.862  11.419  1.00  0.00     0.119 A 
ATOM     11  H1  UNL     1      30.184  12.110  10.849  1.00  0.00     0.166 HD
HETATM   12 BR1  UNL     1      30.533  14.946  12.258  1.00  0.00    -0.028 Br
HETATM   13  C10 UNL     1      27.855  14.223  11.250  1.00  0.00     0.162 A 
HETATM   14  F1  UNL     1      27.368  15.367  11.767  1.00  0.00    -0.202 F 
ENDBRANCH   6   7
ENDBRANCH   3   5
TORSDOF 2
ENDMDL
MODEL 5
REMARK VINA RESULT: -5.292596209      1.822      2.262
REMARK  2 active torsions:
REMARK  status: ('A' for Active; 'I' for Inactive)
REMARK    1  A    between atoms: C3_3  and  C5_5 
REMARK    2  A    between atoms: C6_6  and  C7_7 
ROOT
HETATM    1  C1  UNL     1      23.416  16.252   8.722  1.00  0.00     0.103 C 
HETATM    2  C2  UNL     1      23.944  15.395   9.424  1.00  0.00    -0.150 C 
HETATM    3  C3  UNL     1      24.512  14.406  10.264  1.00  0.00    -0.005 C 
HETATM    4  C4  UNL     1      24.223  14.485  11.608  1.00  0.00     0.032 C 
ENDROOT
BRANCH   3   5
HETATM    5  C5  UNL     1      25.257  13.281   9.848  1.00  0.00     0.020 C 
HETATM    6  C6  UNL     1      26.415  12.795   9.919  1.00  0.00     0.017 C 
BRANCH   6   7
HETATM    7  C7  UNL     1      27.678  13.141  10.515  1.00  0.00     0.021 A 
HETATM    8  C8  UNL     1      28.765  12.230  10.607  1.00  0.00     0.103 A 
HETATM    9  N1  UNL     1      29.762  12.757  11.314  1.00  0.00    -0.357 N 
HETATM   10  C9  UNL     1      29.435  13.979  11.723  1.00  0.00     0.119 A 
ATOM     11  H1  UNL     1      30.647  12.292  11.514  1.00  0.00     0.166 HD
HETATM   12 BR1  UNL     1      30.455  15.215  12.765  1.00  0.00    -0.028 Br
HETATM   13  C10 UNL     1      28.142  14.214  11.228  1.00  0.00     0.162 A 
HETATM   14  F1  UNL     1      27.468  15.337  11.541  1.00  0.00    -0.202 F 
ENDBRANCH   6   7
ENDBRANCH   3   5
TORSDOF 2
ENDMDL
