MODEL 1
REMARK VINA RESULT: -4.631744500      0.000      0.000
REMARK  2 active torsions:
REMARK  status: ('A' for Active; 'I' for Inactive)
REMARK    1  A    between atoms: C2_2  and  C3_3 
REMARK    2  A    between atoms: C2_2  and  N2_11 
ROOT
HETATM    1  C3  UNL     1     -64.304  37.498 -45.663  1.00  0.00     0.208 C 
HETATM    2  C4  UNL     1     -63.479  37.977 -44.485  1.00  0.00     0.035 C 
HETATM    3  C5  UNL     1     -63.082  36.711 -43.712  1.00  0.00     0.004 C 
HETATM    4  C6  UNL     1     -64.206  35.789 -43.470  1.00  0.00     0.027 C 
HETATM    5  C7  UNL     1     -65.249  35.700 -44.514  1.00  0.00     0.233 C 
HETATM    6  N1  UNL     1     -65.543  37.014 -45.116  1.00  0.00    -0.069 N 
ATOM      7  H11 UNL     1     -66.302  36.986 -45.797  1.00  0.00     0.277 HD
ATOM      8  H12 UNL     1     -65.980  37.667 -44.466  1.00  0.00     0.277 HD
ENDROOT
BRANCH   1   9
HETATM    9  C2  UNL     1     -64.348  38.381 -46.812  1.00  0.00     0.110 C 
HETATM   10  C1  UNL     1     -63.003  39.129 -46.870  1.00  0.00     0.034 C 
BRANCH   9  11
HETATM   11  N2  UNL     1     -64.661  38.010 -48.095  1.00  0.00    -0.387 N 
HETATM   12  C8  UNL     1     -64.238  39.037 -49.019  1.00  0.00     0.122 C 
HETATM   13  C9  UNL     1     -64.596  38.674 -50.431  1.00  0.00     0.020 C 
HETATM   14  C10 UNL     1     -63.753  37.432 -50.738  1.00  0.00     0.007 C 
HETATM   15  C11 UNL     1     -64.218  36.336 -49.865  1.00  0.00     0.044 C 
HETATM   16  C12 UNL     1     -64.882  36.756 -48.570  1.00  0.00     0.058 C 
ENDBRANCH   9  11
ENDBRANCH   1   9
TORSDOF 2
ENDMDL
MODEL 2
REMARK VINA RESULT: -4.609370468      1.115      5.060
REMARK  2 active torsions:
REMARK  status: ('A' for Active; 'I' for Inactive)
REMARK    1  A    between atoms: C2_2  and  C3_3 
REMARK    2  A    between atoms: C2_2  and  N2_11 
ROOT
HETATM    1  C3  UNL     1     -64.154  37.737 -48.104  1.00  0.00     0.208 C 
HETATM    2  C4  UNL     1     -64.519  38.986 -48.883  1.00  0.00     0.035 C 
HETATM    3  C5  UNL     1     -65.726  38.597 -49.750  1.00  0.00     0.004 C 
HETATM    4  C6  UNL     1     -65.548  37.327 -50.476  1.00  0.00     0.027 C 
HETATM    5  C7  UNL     1     -64.768  36.264 -49.806  1.00  0.00     0.233 C 
HETATM    6  N1  UNL     1     -63.617  36.808 -49.062  1.00  0.00    -0.069 N 
ATOM      7  H11 UNL     1     -63.031  36.087 -48.641  1.00  0.00     0.277 HD
ATOM      8  H12 UNL     1     -62.903  37.216 -49.664  1.00  0.00     0.277 HD
ENDROOT
BRANCH   1   9
HETATM    9  C2  UNL     1     -63.437  37.948 -46.862  1.00  0.00     0.110 C 
HETATM   10  C1  UNL     1     -63.005  39.426 -46.823  1.00  0.00     0.034 C 
BRANCH   9  11
HETATM   11  N2  UNL     1     -63.895  37.627 -45.609  1.00  0.00    -0.387 N 
HETATM   12  C8  UNL     1     -65.067  36.789 -45.715  1.00  0.00     0.122 C 
HETATM   13  C9  UNL     1     -65.610  36.446 -44.358  1.00  0.00     0.020 C 
HETATM   14  C10 UNL     1     -64.517  35.592 -43.707  1.00  0.00     0.007 C 
HETATM   15  C11 UNL     1     -63.329  36.445 -43.508  1.00  0.00     0.044 C 
HETATM   16  C12 UNL     1     -63.199  37.631 -44.441  1.00  0.00     0.058 C 
ENDBRANCH   9  11
ENDBRANCH   1   9
TORSDOF 2
ENDMDL
MODEL 3
REMARK VINA RESULT: -4.600636592      2.573      4.069
REMARK  2 active torsions:
REMARK  status: ('A' for Active; 'I' for Inactive)
REMARK    1  A    between atoms: C2_2  and  C3_3 
REMARK    2  A    between atoms: C2_2  and  N2_11 
ROOT
HETATM    1  C3  UNL     1     -63.721  38.695 -44.020  1.00  0.00     0.208 C 
HETATM    2  C4  UNL     1     -63.025  38.844 -42.681  1.00  0.00     0.035 C 
HETATM    3  C5  UNL     1     -63.587  40.133 -42.062  1.00  0.00     0.004 C 
HETATM    4  C6  UNL     1     -63.605  41.277 -42.991  1.00  0.00     0.027 C 
HETATM    5  C7  UNL     1     -63.863  40.990 -44.418  1.00  0.00     0.233 C 
HETATM    6  N1  UNL     1     -63.208  39.744 -44.859  1.00  0.00    -0.069 N 
ATOM      7  H11 UNL     1     -63.324  39.557 -45.855  1.00  0.00     0.277 HD
ATOM      8  H12 UNL     1     -62.191  39.801 -44.858  1.00  0.00     0.277 HD
ENDROOT
BRANCH   1   9
HETATM    9  C2  UNL     1     -63.793  37.349 -44.553  1.00  0.00     0.110 C 
HETATM   10  C1  UNL     1     -63.207  36.399 -43.491  1.00  0.00     0.034 C 
BRANCH   9  11
HETATM   11  N2  UNL     1     -64.918  36.747 -45.058  1.00  0.00    -0.387 N 
HETATM   12  C8  UNL     1     -65.072  37.088 -46.453  1.00  0.00     0.122 C 
HETATM   13  C9  UNL     1     -66.313  36.468 -47.027  1.00  0.00     0.020 C 
HETATM   14  C10 UNL     1     -66.056  34.959 -46.969  1.00  0.00     0.007 C 
HETATM   15  C11 UNL     1     -65.975  34.563 -45.550  1.00  0.00     0.044 C 
HETATM   16  C12 UNL     1     -65.562  35.650 -44.579  1.00  0.00     0.058 C 
ENDBRANCH   9  11
ENDBRANCH   1   9
TORSDOF 2
ENDMDL
MODEL 4
REMARK VINA RESULT: -4.588015150      1.070      5.377
REMARK  2 active torsions:
REMARK  status: ('A' for Active; 'I' for Inactive)
REMARK    1  A    between atoms: C2_2  and  C3_3 
REMARK    2  A    between atoms: C2_2  and  N2_11 
ROOT
HETATM    1  C3  UNL     1     -65.191  37.067 -48.065  1.00  0.00     0.208 C 
HETATM    2  C4  UNL     1     -65.105  36.043 -49.180  1.00  0.00     0.035 C 
HETATM    3  C5  UNL     1     -63.950  36.506 -50.082  1.00  0.00     0.004 C 
HETATM    4  C6  UNL     1     -64.008  37.938 -50.428  1.00  0.00     0.027 C 
HETATM    5  C7  UNL     1     -64.542  38.863 -49.405  1.00  0.00     0.233 C 
HETATM    6  N1  UNL     1     -65.677  38.278 -48.669  1.00  0.00    -0.069 N 
ATOM      7  H11 UNL     1     -66.100  38.922 -48.000  1.00  0.00     0.277 HD
ATOM      8  H12 UNL     1     -66.505  38.137 -49.248  1.00  0.00     0.277 HD
ENDROOT
BRANCH   1   9
HETATM    9  C2  UNL     1     -65.797  36.613 -46.830  1.00  0.00     0.110 C 
HETATM   10  C1  UNL     1     -66.011  35.092 -46.951  1.00  0.00     0.034 C 
BRANCH   9  11
HETATM   11  N2  UNL     1     -65.318  36.854 -45.567  1.00  0.00    -0.387 N 
HETATM   12  C8  UNL     1     -65.351  35.638 -44.789  1.00  0.00     0.122 C 
HETATM   13  C9  UNL     1     -64.860  35.877 -43.390  1.00  0.00     0.020 C 
HETATM   14  C10 UNL     1     -63.385  36.253 -43.556  1.00  0.00     0.007 C 
HETATM   15  C11 UNL     1     -63.319  37.540 -44.277  1.00  0.00     0.044 C 
HETATM   16  C12 UNL     1     -64.503  37.864 -45.164  1.00  0.00     0.058 C 
ENDBRANCH   9  11
ENDBRANCH   1   9
TORSDOF 2
ENDMDL
MODEL 5
REMARK VINA RESULT: -4.513689804      1.016      5.193
REMARK  2 active torsions:
REMARK  status: ('A' for Active; 'I' for Inactive)
REMARK    1  A    between atoms: C2_2  and  C3_3 
REMARK    2  A    between atoms: C2_2  and  N2_11 
ROOT
HETATM    1  C3  UNL     1     -64.231  38.178 -47.995  1.00  0.00     0.208 C 
HETATM    2  C4  UNL     1     -63.804  39.445 -48.711  1.00  0.00     0.035 C 
HETATM    3  C5  UNL     1     -64.395  39.342 -50.125  1.00  0.00     0.004 C 
HETATM    4  C6  UNL     1     -64.157  38.040 -50.772  1.00  0.00     0.027 C 
HETATM    5  C7  UNL     1     -64.147  36.842 -49.906  1.00  0.00     0.233 C 
HETATM    6  N1  UNL     1     -63.498  37.104 -48.607  1.00  0.00    -0.069 N 
ATOM      7  H11 UNL     1     -63.426  36.275 -48.017  1.00  0.00     0.277 HD
ATOM      8  H12 UNL     1     -62.499  37.289 -48.686  1.00  0.00     0.277 HD
ENDROOT
BRANCH   1   9
HETATM    9  C2  UNL     1     -64.282  38.251 -46.548  1.00  0.00     0.110 C 
HETATM   10  C1  UNL     1     -65.354  39.292 -46.175  1.00  0.00     0.034 C 
BRANCH   9  11
HETATM   11  N2  UNL     1     -64.439  37.185 -45.698  1.00  0.00    -0.387 N 
HETATM   12  C8  UNL     1     -63.594  37.354 -44.539  1.00  0.00     0.122 C 
HETATM   13  C9  UNL     1     -63.720  36.187 -43.603  1.00  0.00     0.020 C 
HETATM   14  C10 UNL     1     -65.167  36.245 -43.104  1.00  0.00     0.007 C 
HETATM   15  C11 UNL     1     -66.058  35.993 -44.253  1.00  0.00     0.044 C 
HETATM   16  C12 UNL     1     -65.493  36.332 -45.617  1.00  0.00     0.058 C 
ENDBRANCH   9  11
ENDBRANCH   1   9
TORSDOF 2
ENDMDL
