MODEL 1
REMARK VINA RESULT: -9.595798409      0.000      0.000
REMARK  9 active torsions:
REMARK  status: ('A' for Active; 'I' for Inactive)
REMARK    1  A    between atoms: O1_1  and  O2_3 
REMARK    2  A    between atoms: O2_3  and  C1_4 
REMARK    3  A    between atoms: C3_6  and  N1_7 
REMARK    4  A    between atoms: C12_16  and  N2_17 
REMARK    5  A    between atoms: N2_17  and  C13_19 
REMARK    6  A    between atoms: C13_19  and  O3_20 
REMARK    7  A    between atoms: C13_19  and  C14_22 
REMARK    8  A    between atoms: C16_24  and  O4_25 
REMARK    9  A    between atoms: N3_27  and  C17_28 
ROOT
HETATM    1  N2  UNL     1       0.414   5.383  30.533  1.00  0.00    -0.358 N 
ATOM      2  H2  UNL     1       1.135   5.784  29.935  1.00  0.00     0.162 HD
ENDROOT
BRANCH   1   3
HETATM    3  C12 UNL     1       0.817   4.835  31.752  1.00  0.00     0.067 A 
HETATM    4  C1  UNL     1       1.762   5.458  32.520  1.00  0.00     0.135 A 
HETATM    5  C2  UNL     1       2.151   4.903  33.717  1.00  0.00     0.071 A 
HETATM    6  C3  UNL     1       1.614   3.715  34.187  1.00  0.00     0.033 A 
HETATM    7  C10 UNL     1       0.674   3.092  33.426  1.00  0.00     0.031 A 
HETATM    8  C11 UNL     1       0.282   3.660  32.209  1.00  0.00     0.034 A 
BRANCH   4   9
HETATM    9  O2  UNL     1       2.337   6.642  32.114  1.00  0.00    -0.198 OA
BRANCH   9  10
HETATM   10  O1  UNL     1       1.614   7.760  32.143  1.00  0.00    -0.245 OA
ATOM     11  H1  UNL     1       1.987   8.563  31.799  1.00  0.00     0.254 HD
ENDBRANCH   9  10
ENDBRANCH   4   9
BRANCH   6  12
HETATM   12  N1  UNL     1       2.058   3.197  35.437  1.00  0.00    -0.381 N 
HETATM   13  C4  UNL     1       2.607   1.880  35.510  1.00  0.00     0.123 C 
HETATM   14  C5  UNL     1       1.451   0.973  35.959  1.00  0.00     0.020 C 
HETATM   15  C6  UNL     1       0.821   1.634  37.169  1.00  0.00     0.002 C 
HETATM   16  C7  UNL     1       1.834   2.133  38.143  1.00  0.00     0.002 C 
HETATM   17  C8  UNL     1       2.393   3.484  37.860  1.00  0.00     0.020 C 
HETATM   18  C9  UNL     1       1.892   4.110  36.573  1.00  0.00     0.123 C 
ENDBRANCH   6  12
ENDBRANCH   1   3
BRANCH   1  19
HETATM   19  C13 UNL     1      -0.952   5.424  30.056  1.00  0.00     0.254 C 
BRANCH  19  20
HETATM   20  O3  UNL     1      -1.499   4.162  30.287  1.00  0.00    -0.372 OA
ATOM     21  H3  UNL     1      -2.406   4.201  30.010  1.00  0.00     0.212 HD
ENDBRANCH  19  20
BRANCH  19  22
HETATM   22  C14 UNL     1      -1.752   6.471  30.745  1.00  0.00     0.009 A 
HETATM   23  C15 UNL     1      -2.770   7.217  30.174  1.00  0.00     0.069 A 
HETATM   24  C16 UNL     1      -3.254   8.082  31.161  1.00  0.00     0.142 A 
HETATM   25  N3  UNL     1      -2.576   7.884  32.282  1.00  0.00    -0.333 N 
HETATM   26  C22 UNL     1      -1.667   6.914  32.046  1.00  0.00     0.105 A 
BRANCH  24  27
HETATM   27  O4  UNL     1      -4.279   8.990  30.973  1.00  0.00    -0.346 OA
ATOM     28  H4  UNL     1      -4.478   9.708  31.563  1.00  0.00     0.219 HD
ENDBRANCH  24  27
BRANCH  25  29
HETATM   29  C17 UNL     1      -2.744   8.559  33.557  1.00  0.00     0.091 C 
HETATM   30  C18 UNL     1      -2.618   7.647  34.731  1.00  0.00     0.026 C 
HETATM   31  C19 UNL     1      -1.843   8.421  35.799  1.00  0.00     0.002 C 
HETATM   32  C20 UNL     1      -1.842   9.865  35.291  1.00  0.00     0.002 C 
HETATM   33  C21 UNL     1      -1.712   9.611  33.791  1.00  0.00     0.026 C 
ENDBRANCH  25  29
ENDBRANCH  19  22
ENDBRANCH   1  19
TORSDOF 9
ENDMDL
MODEL 2
REMARK VINA RESULT: -9.406892262      1.183      1.266
REMARK  9 active torsions:
REMARK  status: ('A' for Active; 'I' for Inactive)
REMARK    1  A    between atoms: O1_1  and  O2_3 
REMARK    2  A    between atoms: O2_3  and  C1_4 
REMARK    3  A    between atoms: C3_6  and  N1_7 
REMARK    4  A    between atoms: C12_16  and  N2_17 
REMARK    5  A    between atoms: N2_17  and  C13_19 
REMARK    6  A    between atoms: C13_19  and  O3_20 
REMARK    7  A    between atoms: C13_19  and  C14_22 
REMARK    8  A    between atoms: C16_24  and  O4_25 
REMARK    9  A    between atoms: N3_27  and  C17_28 
ROOT
HETATM    1  N2  UNL     1       0.182   5.632  29.995  1.00  0.00    -0.358 N 
ATOM      2  H2  UNL     1       0.068   4.937  29.256  1.00  0.00     0.162 HD
ENDROOT
BRANCH   1   3
HETATM    3  C12 UNL     1       0.665   5.190  31.227  1.00  0.00     0.067 A 
HETATM    4  C1  UNL     1       1.879   5.612  31.693  1.00  0.00     0.135 A 
HETATM    5  C2  UNL     1       2.343   5.166  32.910  1.00  0.00     0.071 A 
HETATM    6  C3  UNL     1       1.615   4.288  33.697  1.00  0.00     0.033 A 
HETATM    7  C10 UNL     1       0.406   3.866  33.237  1.00  0.00     0.031 A 
HETATM    8  C11 UNL     1      -0.061   4.323  32.000  1.00  0.00     0.034 A 
BRANCH   4   9
HETATM    9  O2  UNL     1       2.655   6.484  30.963  1.00  0.00    -0.198 OA
BRANCH   9  10
HETATM   10  O1  UNL     1       3.232   6.059  29.840  1.00  0.00    -0.245 OA
ATOM     11  H1  UNL     1       2.687   5.740  29.131  1.00  0.00     0.254 HD
ENDBRANCH   9  10
ENDBRANCH   4   9
BRANCH   6  12
HETATM   12  N1  UNL     1       2.151   3.867  34.948  1.00  0.00    -0.381 N 
HETATM   13  C4  UNL     1       3.094   2.795  34.997  1.00  0.00     0.123 C 
HETATM   14  C5  UNL     1       2.276   1.540  35.338  1.00  0.00     0.020 C 
HETATM   15  C6  UNL     1       1.417   1.890  36.537  1.00  0.00     0.002 C 
HETATM   16  C7  UNL     1       2.172   2.630  37.589  1.00  0.00     0.002 C 
HETATM   17  C8  UNL     1       2.273   4.103  37.396  1.00  0.00     0.020 C 
HETATM   18  C9  UNL     1       1.650   4.610  36.111  1.00  0.00     0.123 C 
ENDBRANCH   6  12
ENDBRANCH   1   3
BRANCH   1  19
HETATM   19  C13 UNL     1      -0.171   7.001  29.686  1.00  0.00     0.254 C 
BRANCH  19  20
HETATM   20  O3  UNL     1      -0.547   7.028  28.343  1.00  0.00    -0.372 OA
ATOM     21  H3  UNL     1      -0.561   7.941  28.080  1.00  0.00     0.212 HD
ENDBRANCH  19  20
BRANCH  19  22
HETATM   22  C14 UNL     1      -1.276   7.500  30.546  1.00  0.00     0.009 A 
HETATM   23  C15 UNL     1      -2.629   7.340  30.297  1.00  0.00     0.069 A 
HETATM   24  C16 UNL     1      -3.320   7.955  31.348  1.00  0.00     0.142 A 
HETATM   25  N3  UNL     1      -2.444   8.467  32.200  1.00  0.00    -0.333 N 
HETATM   26  C22 UNL     1      -1.208   8.200  31.731  1.00  0.00     0.105 A 
BRANCH  24  27
HETATM   27  O4  UNL     1      -4.696   8.007  31.456  1.00  0.00    -0.346 OA
ATOM     28  H4  UNL     1      -5.244   8.673  31.058  1.00  0.00     0.219 HD
ENDBRANCH  24  27
BRANCH  25  29
HETATM   29  C17 UNL     1      -2.717   9.191  33.431  1.00  0.00     0.091 C 
HETATM   30  C18 UNL     1      -2.596   8.344  34.653  1.00  0.00     0.026 C 
HETATM   31  C19 UNL     1      -1.924   9.215  35.717  1.00  0.00     0.002 C 
HETATM   32  C20 UNL     1      -1.984  10.631  35.137  1.00  0.00     0.002 C 
HETATM   33  C21 UNL     1      -1.762  10.315  33.660  1.00  0.00     0.026 C 
ENDBRANCH  25  29
ENDBRANCH  19  22
ENDBRANCH   1  19
TORSDOF 9
ENDMDL
MODEL 3
REMARK VINA RESULT: -9.406572841      1.491      1.977
REMARK  9 active torsions:
REMARK  status: ('A' for Active; 'I' for Inactive)
REMARK    1  A    between atoms: O1_1  and  O2_3 
REMARK    2  A    between atoms: O2_3  and  C1_4 
REMARK    3  A    between atoms: C3_6  and  N1_7 
REMARK    4  A    between atoms: C12_16  and  N2_17 
REMARK    5  A    between atoms: N2_17  and  C13_19 
REMARK    6  A    between atoms: C13_19  and  O3_20 
REMARK    7  A    between atoms: C13_19  and  C14_22 
REMARK    8  A    between atoms: C16_24  and  O4_25 
REMARK    9  A    between atoms: N3_27  and  C17_28 
ROOT
HETATM    1  N2  UNL     1       0.223   5.833  29.840  1.00  0.00    -0.358 N 
ATOM      2  H2  UNL     1       0.161   5.165  29.072  1.00  0.00     0.162 HD
ENDROOT
BRANCH   1   3
HETATM    3  C12 UNL     1       0.692   5.363  31.068  1.00  0.00     0.067 A 
HETATM    4  C1  UNL     1      -0.045   4.475  31.803  1.00  0.00     0.135 A 
HETATM    5  C2  UNL     1       0.430   4.022  33.013  1.00  0.00     0.071 A 
HETATM    6  C3  UNL     1       1.648   4.438  33.527  1.00  0.00     0.033 A 
HETATM    7  C10 UNL     1       2.384   5.320  32.799  1.00  0.00     0.031 A 
HETATM    8  C11 UNL     1       1.897   5.778  31.570  1.00  0.00     0.034 A 
BRANCH   4   9
HETATM    9  O2  UNL     1      -1.264   4.020  31.352  1.00  0.00    -0.198 OA
BRANCH   9  10
HETATM   10  O1  UNL     1      -1.359   3.528  30.119  1.00  0.00    -0.245 OA
ATOM     11  H1  UNL     1      -0.568   3.381  29.615  1.00  0.00     0.254 HD
ENDBRANCH   9  10
ENDBRANCH   4   9
BRANCH   6  12
HETATM   12  N1  UNL     1       2.083   3.928  34.784  1.00  0.00    -0.381 N 
HETATM   13  C4  UNL     1       3.003   2.836  34.833  1.00  0.00     0.123 C 
HETATM   14  C5  UNL     1       2.143   1.579  35.032  1.00  0.00     0.020 C 
HETATM   15  C6  UNL     1       1.202   1.869  36.183  1.00  0.00     0.002 C 
HETATM   16  C7  UNL     1       1.888   2.526  37.334  1.00  0.00     0.002 C 
HETATM   17  C8  UNL     1       2.026   4.006  37.245  1.00  0.00     0.020 C 
HETATM   18  C9  UNL     1       1.508   4.606  35.952  1.00  0.00     0.123 C 
ENDBRANCH   6  12
ENDBRANCH   1   3
BRANCH   1  19
HETATM   19  C13 UNL     1      -0.182   7.197  29.577  1.00  0.00     0.254 C 
BRANCH  19  20
HETATM   20  O3  UNL     1      -0.579   7.250  28.241  1.00  0.00    -0.372 OA
ATOM     21  H3  UNL     1      -1.288   6.625  28.141  1.00  0.00     0.212 HD
ENDBRANCH  19  20
BRANCH  19  22
HETATM   22  C14 UNL     1      -1.291   7.631  30.467  1.00  0.00     0.009 A 
HETATM   23  C15 UNL     1      -2.641   7.424  30.236  1.00  0.00     0.069 A 
HETATM   24  C16 UNL     1      -3.338   7.985  31.312  1.00  0.00     0.142 A 
HETATM   25  N3  UNL     1      -2.469   8.511  32.163  1.00  0.00    -0.333 N 
HETATM   26  C22 UNL     1      -1.231   8.305  31.667  1.00  0.00     0.105 A 
BRANCH  24  27
HETATM   27  O4  UNL     1      -4.713   7.980  31.444  1.00  0.00    -0.346 OA
ATOM     28  H4  UNL     1      -5.190   8.421  32.137  1.00  0.00     0.219 HD
ENDBRANCH  24  27
BRANCH  25  29
HETATM   29  C17 UNL     1      -2.749   9.194  33.415  1.00  0.00     0.091 C 
HETATM   30  C18 UNL     1      -2.579   8.323  34.614  1.00  0.00     0.026 C 
HETATM   31  C19 UNL     1      -1.922   9.191  35.689  1.00  0.00     0.002 C 
HETATM   32  C20 UNL     1      -2.042  10.618  35.146  1.00  0.00     0.002 C 
HETATM   33  C21 UNL     1      -1.833  10.347  33.658  1.00  0.00     0.026 C 
ENDBRANCH  25  29
ENDBRANCH  19  22
ENDBRANCH   1  19
TORSDOF 9
ENDMDL
MODEL 4
REMARK VINA RESULT: -9.378249179      1.535      2.607
REMARK  9 active torsions:
REMARK  status: ('A' for Active; 'I' for Inactive)
REMARK    1  A    between atoms: O1_1  and  O2_3 
REMARK    2  A    between atoms: O2_3  and  C1_4 
REMARK    3  A    between atoms: C3_6  and  N1_7 
REMARK    4  A    between atoms: C12_16  and  N2_17 
REMARK    5  A    between atoms: N2_17  and  C13_19 
REMARK    6  A    between atoms: C13_19  and  O3_20 
REMARK    7  A    between atoms: C13_19  and  C14_22 
REMARK    8  A    between atoms: C16_24  and  O4_25 
REMARK    9  A    between atoms: N3_27  and  C17_28 
ROOT
HETATM    1  N2  UNL     1       1.688   4.775  31.320  1.00  0.00    -0.358 N 
ATOM      2  H2  UNL     1       1.776   3.957  30.717  1.00  0.00     0.162 HD
ENDROOT
BRANCH   1   3
HETATM    3  C12 UNL     1       1.815   4.580  32.696  1.00  0.00     0.067 A 
HETATM    4  C1  UNL     1       1.029   3.671  33.349  1.00  0.00     0.135 A 
HETATM    5  C2  UNL     1       1.165   3.492  34.707  1.00  0.00     0.071 A 
HETATM    6  C3  UNL     1       2.085   4.210  35.455  1.00  0.00     0.033 A 
HETATM    7  C10 UNL     1       2.869   5.114  34.809  1.00  0.00     0.031 A 
HETATM    8  C11 UNL     1       2.727   5.293  33.429  1.00  0.00     0.034 A 
BRANCH   4   9
HETATM    9  O2  UNL     1       0.094   2.924  32.667  1.00  0.00    -0.198 OA
BRANCH   9  10
HETATM   10  O1  UNL     1      -0.701   3.524  31.783  1.00  0.00    -0.245 OA
ATOM     11  H1  UNL     1      -0.325   3.877  30.986  1.00  0.00     0.254 HD
ENDBRANCH   9  10
ENDBRANCH   4   9
BRANCH   6  12
HETATM   12  N1  UNL     1       2.177   3.973  36.856  1.00  0.00    -0.381 N 
HETATM   13  C4  UNL     1       1.839   5.010  37.779  1.00  0.00     0.123 C 
HETATM   14  C5  UNL     1       3.171   5.667  38.171  1.00  0.00     0.020 C 
HETATM   15  C6  UNL     1       4.116   4.546  38.555  1.00  0.00     0.002 C 
HETATM   16  C7  UNL     1       3.471   3.525  39.431  1.00  0.00     0.002 C 
HETATM   17  C8  UNL     1       2.703   2.461  38.727  1.00  0.00     0.020 C 
HETATM   18  C9  UNL     1       2.638   2.629  37.222  1.00  0.00     0.123 C 
ENDBRANCH   6  12
ENDBRANCH   1   3
BRANCH   1  19
HETATM   19  C13 UNL     1       1.439   6.052  30.685  1.00  0.00     0.254 C 
BRANCH  19  20
HETATM   20  O3  UNL     1       1.500   5.837  29.309  1.00  0.00    -0.372 OA
ATOM     21  H3  UNL     1       0.617   5.636  29.023  1.00  0.00     0.212 HD
ENDBRANCH  19  20
BRANCH  19  22
HETATM   22  C14 UNL     1       0.117   6.616  31.065  1.00  0.00     0.009 A 
HETATM   23  C15 UNL     1      -1.060   6.467  30.351  1.00  0.00     0.069 A 
HETATM   24  C16 UNL     1      -2.060   7.150  31.053  1.00  0.00     0.142 A 
HETATM   25  N3  UNL     1      -1.533   7.691  32.141  1.00  0.00    -0.333 N 
HETATM   26  C22 UNL     1      -0.221   7.377  32.162  1.00  0.00     0.105 A 
BRANCH  24  27
HETATM   27  O4  UNL     1      -3.381   7.231  30.654  1.00  0.00    -0.346 OA
ATOM     28  H4  UNL     1      -3.667   7.324  29.753  1.00  0.00     0.219 HD
ENDBRANCH  24  27
BRANCH  25  29
HETATM   29  C17 UNL     1      -2.204   8.485  33.157  1.00  0.00     0.091 C 
HETATM   30  C18 UNL     1      -2.255   7.818  34.490  1.00  0.00     0.026 C 
HETATM   31  C19 UNL     1      -2.003   8.912  35.530  1.00  0.00     0.002 C 
HETATM   32  C20 UNL     1      -2.138  10.217  34.743  1.00  0.00     0.002 C 
HETATM   33  C21 UNL     1      -1.519   9.785  33.416  1.00  0.00     0.026 C 
ENDBRANCH  25  29
ENDBRANCH  19  22
ENDBRANCH   1  19
TORSDOF 9
ENDMDL
MODEL 5
REMARK VINA RESULT: -9.229413391      3.473      7.900
REMARK  9 active torsions:
REMARK  status: ('A' for Active; 'I' for Inactive)
REMARK    1  A    between atoms: O1_1  and  O2_3 
REMARK    2  A    between atoms: O2_3  and  C1_4 
REMARK    3  A    between atoms: C3_6  and  N1_7 
REMARK    4  A    between atoms: C12_16  and  N2_17 
REMARK    5  A    between atoms: N2_17  and  C13_19 
REMARK    6  A    between atoms: C13_19  and  O3_20 
REMARK    7  A    between atoms: C13_19  and  C14_22 
REMARK    8  A    between atoms: C16_24  and  O4_25 
REMARK    9  A    between atoms: N3_27  and  C17_28 
ROOT
HETATM    1  N2  UNL     1       2.615   3.046  35.048  1.00  0.00    -0.358 N 
ATOM      2  H2  UNL     1       3.431   2.502  34.767  1.00  0.00     0.162 HD
ENDROOT
BRANCH   1   3
HETATM    3  C12 UNL     1       2.050   3.898  34.098  1.00  0.00     0.067 A 
HETATM    4  C1  UNL     1       0.856   3.591  33.506  1.00  0.00     0.135 A 
HETATM    5  C2  UNL     1       0.313   4.440  32.569  1.00  0.00     0.071 A 
HETATM    6  C3  UNL     1       0.940   5.617  32.193  1.00  0.00     0.033 A 
HETATM    7  C10 UNL     1       2.128   5.926  32.779  1.00  0.00     0.031 A 
HETATM    8  C11 UNL     1       2.675   5.060  33.731  1.00  0.00     0.034 A 
BRANCH   4   9
HETATM    9  O2  UNL     1       0.179   2.437  33.833  1.00  0.00    -0.198 OA
BRANCH   9  10
HETATM   10  O1  UNL     1       0.839   1.281  33.863  1.00  0.00    -0.245 OA
ATOM     11  H1  UNL     1       1.333   1.048  34.640  1.00  0.00     0.254 HD
ENDBRANCH   9  10
ENDBRANCH   4   9
BRANCH   6  12
HETATM   12  N1  UNL     1       0.322   6.453  31.219  1.00  0.00    -0.381 N 
HETATM   13  C4  UNL     1      -0.321   7.664  31.622  1.00  0.00     0.123 C 
HETATM   14  C5  UNL     1      -1.813   7.320  31.742  1.00  0.00     0.020 C 
HETATM   15  C6  UNL     1      -2.203   6.608  30.462  1.00  0.00     0.002 C 
HETATM   16  C7  UNL     1      -1.660   7.275  29.244  1.00  0.00     0.002 C 
HETATM   17  C8  UNL     1      -0.267   6.906  28.871  1.00  0.00     0.020 C 
HETATM   18  C9  UNL     1       0.410   5.957  29.841  1.00  0.00     0.123 C 
ENDBRANCH   6  12
ENDBRANCH   1   3
BRANCH   1  19
HETATM   19  C13 UNL     1       2.130   2.878  36.401  1.00  0.00     0.254 C 
BRANCH  19  20
HETATM   20  O3  UNL     1       2.179   1.512  36.680  1.00  0.00    -0.372 OA
ATOM     21  H3  UNL     1       2.624   1.418  37.513  1.00  0.00     0.212 HD
ENDBRANCH  19  20
BRANCH  19  22
HETATM   22  C14 UNL     1       2.946   3.638  37.384  1.00  0.00     0.009 A 
HETATM   23  C15 UNL     1       3.036   3.370  38.740  1.00  0.00     0.069 A 
HETATM   24  C16 UNL     1       3.904   4.318  39.294  1.00  0.00     0.142 A 
HETATM   25  N3  UNL     1       4.329   5.128  38.336  1.00  0.00    -0.333 N 
HETATM   26  C22 UNL     1       3.760   4.730  37.179  1.00  0.00     0.105 A 
BRANCH  24  27
HETATM   27  O4  UNL     1       4.248   4.378  40.632  1.00  0.00    -0.346 OA
ATOM     28  H4  UNL     1       4.563   5.158  41.072  1.00  0.00     0.219 HD
ENDBRANCH  24  27
BRANCH  25  29
HETATM   29  C17 UNL     1       5.241   6.252  38.460  1.00  0.00     0.091 C 
HETATM   30  C18 UNL     1       5.848   6.666  37.161  1.00  0.00     0.026 C 
HETATM   31  C19 UNL     1       5.886   8.196  37.170  1.00  0.00     0.002 C 
HETATM   32  C20 UNL     1       5.586   8.571  38.623  1.00  0.00     0.002 C 
HETATM   33  C21 UNL     1       4.570   7.485  38.966  1.00  0.00     0.026 C 
ENDBRANCH  25  29
ENDBRANCH  19  22
ENDBRANCH   1  19
TORSDOF 9
ENDMDL
