MODEL 1
REMARK VINA RESULT: -8.640727687      0.000      0.000
REMARK  8 active torsions:
REMARK  status: ('A' for Active; 'I' for Inactive)
REMARK    1  A    between atoms: C2_2  and  O1_3 
REMARK    2  A    between atoms: C2_2  and  C3_5 
REMARK    3  A    between atoms: C6_10  and  C7_11 
REMARK    4  A    between atoms: C9_13  and  C10_14 
REMARK    5  A    between atoms: C13_17  and  O2_18 
REMARK    6  A    between atoms: O2_18  and  C14_19 
REMARK    7  A    between atoms: C14_19  and  C15_20 
REMARK    8  A    between atoms: C21_29  and  O5_30 
ROOT
HETATM    1  C7  UNL     1       1.464   2.213  36.921  1.00  0.00     0.093 A 
HETATM    2  C8  UNL     1       1.923   3.095  37.857  1.00  0.00     0.050 A 
HETATM    3  C9  UNL     1       2.405   4.249  37.231  1.00  0.00     0.007 A 
HETATM    4  C13 UNL     1       2.206   3.994  35.868  1.00  0.00     0.192 A 
HETATM    5  O4  UNL     1       1.655   2.794  35.752  1.00  0.00    -0.287 OA
ENDROOT
BRANCH   1   6
HETATM    6  C6  UNL     1       0.878   0.874  37.075  1.00  0.00     0.047 A 
HETATM    7  C5  UNL     1       1.120   0.232  38.303  1.00  0.00     0.104 A 
HETATM    8  N1  UNL     1       0.684  -0.985  38.589  1.00  0.00    -0.374 N 
HETATM    9  C4  UNL     1      -0.029  -1.675  37.684  1.00  0.00     0.100 A 
ATOM     10  H1  UNL     1       0.890  -1.400  39.498  1.00  0.00     0.164 HD
HETATM   11  C3  UNL     1      -0.300  -1.121  36.478  1.00  0.00     0.019 A 
HETATM   12  C21 UNL     1       0.168   0.190  36.161  1.00  0.00     0.090 A 
BRANCH  11  13
HETATM   13  C2  UNL     1      -1.076  -1.827  35.432  1.00  0.00     0.151 C 
HETATM   14  C1  UNL     1      -1.450  -3.214  35.934  1.00  0.00     0.044 C 
BRANCH  13  15
HETATM   15  O1  UNL     1      -2.195  -1.064  35.108  1.00  0.00    -0.391 OA
ATOM     16  H1  UNL     1      -2.390  -0.413  35.771  1.00  0.00     0.210 HD
ENDBRANCH  13  15
ENDBRANCH  11  13
BRANCH  12  17
HETATM   17  O5  UNL     1      -0.129   0.674  34.941  1.00  0.00    -0.359 OA
ATOM     18  H5  UNL     1       0.597   0.882  34.365  1.00  0.00     0.217 HD
ENDBRANCH  12  17
ENDBRANCH   1   6
BRANCH   3  19
HETATM   19  C10 UNL     1       2.980   5.456  37.869  1.00  0.00     0.023 A 
HETATM   20  C11 UNL     1       4.223   5.244  38.745  1.00  0.00     0.010 A 
HETATM   21  C12 UNL     1       4.375   5.896  37.415  1.00  0.00     0.010 A 
ENDBRANCH   3  19
BRANCH   4  22
HETATM   22  O2  UNL     1       2.492   4.762  34.836  1.00  0.00    -0.327 OA
BRANCH  22  23
HETATM   23  C14 UNL     1       2.965   5.519  33.925  1.00  0.00     0.211 C 
BRANCH  23  24
HETATM   24  C15 UNL     1       2.294   5.393  32.537  1.00  0.00     0.171 C 
HETATM   25  C16 UNL     1       0.984   4.672  32.719  1.00  0.00     0.038 C 
HETATM   26  C17 UNL     1      -0.214   5.570  32.748  1.00  0.00     0.031 C 
HETATM   27  C18 UNL     1      -0.050   6.635  31.687  1.00  0.00     0.050 C 
HETATM   28  C19 UNL     1      -1.182   7.618  31.680  1.00  0.00     0.036 C 
HETATM   29  C20 UNL     1       0.157   6.047  30.325  1.00  0.00     0.036 C 
HETATM   30  N2  UNL     1       1.177   7.352  32.069  1.00  0.00    -0.091 NA
HETATM   31  O3  UNL     1       2.216   6.566  31.873  1.00  0.00    -0.278 OA
ENDBRANCH  23  24
ENDBRANCH  22  23
ENDBRANCH   4  22
TORSDOF 8
ENDMDL
MODEL 2
REMARK VINA RESULT: -8.521520248      2.588      6.243
REMARK  8 active torsions:
REMARK  status: ('A' for Active; 'I' for Inactive)
REMARK    1  A    between atoms: C2_2  and  O1_3 
REMARK    2  A    between atoms: C2_2  and  C3_5 
REMARK    3  A    between atoms: C6_10  and  C7_11 
REMARK    4  A    between atoms: C9_13  and  C10_14 
REMARK    5  A    between atoms: C13_17  and  O2_18 
REMARK    6  A    between atoms: O2_18  and  C14_19 
REMARK    7  A    between atoms: C14_19  and  C15_20 
REMARK    8  A    between atoms: C21_29  and  O5_30 
ROOT
HETATM    1  C7  UNL     1       2.379   4.148  36.090  1.00  0.00     0.093 A 
HETATM    2  C8  UNL     1       1.803   2.915  36.186  1.00  0.00     0.050 A 
HETATM    3  C9  UNL     1       1.058   2.645  35.033  1.00  0.00     0.007 A 
HETATM    4  C13 UNL     1       1.228   3.794  34.251  1.00  0.00     0.192 A 
HETATM    5  O4  UNL     1       2.007   4.633  34.920  1.00  0.00    -0.287 OA
ENDROOT
BRANCH   1   6
HETATM    6  C6  UNL     1       3.237   4.879  37.034  1.00  0.00     0.047 A 
HETATM    7  C5  UNL     1       3.132   4.500  38.384  1.00  0.00     0.104 A 
HETATM    8  N1  UNL     1       3.816   5.076  39.361  1.00  0.00    -0.374 N 
HETATM    9  C4  UNL     1       4.664   6.080  39.086  1.00  0.00     0.100 A 
ATOM     10  H1  UNL     1       3.699   4.758  40.322  1.00  0.00     0.164 HD
HETATM   11  C3  UNL     1       4.817   6.501  37.807  1.00  0.00     0.019 A 
HETATM   12  C21 UNL     1       4.082   5.886  36.750  1.00  0.00     0.090 A 
BRANCH  11  13
HETATM   13  C2  UNL     1       5.731   7.606  37.434  1.00  0.00     0.151 C 
HETATM   14  C1  UNL     1       6.312   8.225  38.697  1.00  0.00     0.044 C 
BRANCH  13  15
HETATM   15  O1  UNL     1       6.720   7.108  36.589  1.00  0.00    -0.391 OA
ATOM     16  H1  UNL     1       6.445   7.102  35.680  1.00  0.00     0.210 HD
ENDBRANCH  13  15
ENDBRANCH  11  13
BRANCH  12  17
HETATM   17  O5  UNL     1       4.275   6.361  35.505  1.00  0.00    -0.359 OA
ATOM     18  H5  UNL     1       4.542   5.740  34.837  1.00  0.00     0.217 HD
ENDBRANCH  12  17
ENDBRANCH   1   6
BRANCH   3  19
HETATM   19  C10 UNL     1       0.283   1.422  34.719  1.00  0.00     0.023 A 
HETATM   20  C11 UNL     1       1.076   0.109  34.630  1.00  0.00     0.010 A 
HETATM   21  C12 UNL     1       0.194   0.346  35.805  1.00  0.00     0.010 A 
ENDBRANCH   3  19
BRANCH   4  22
HETATM   22  O2  UNL     1       0.732   4.061  33.060  1.00  0.00    -0.327 OA
BRANCH  22  23
HETATM   23  C14 UNL     1       0.085   4.403  32.015  1.00  0.00     0.211 C 
BRANCH  23  24
HETATM   24  C15 UNL     1       0.068   5.918  31.706  1.00  0.00     0.171 C 
HETATM   25  C16 UNL     1      -0.927   6.154  30.601  1.00  0.00     0.038 C 
HETATM   26  C17 UNL     1      -2.256   6.664  31.067  1.00  0.00     0.031 C 
HETATM   27  C18 UNL     1      -2.030   7.698  32.148  1.00  0.00     0.050 C 
HETATM   28  C19 UNL     1      -3.313   8.224  32.717  1.00  0.00     0.036 C 
HETATM   29  C20 UNL     1      -1.150   8.817  31.682  1.00  0.00     0.036 C 
HETATM   30  N2  UNL     1      -1.321   6.969  33.212  1.00  0.00    -0.091 NA
HETATM   31  O3  UNL     1      -0.101   6.685  32.805  1.00  0.00    -0.278 OA
ENDBRANCH  23  24
ENDBRANCH  22  23
ENDBRANCH   4  22
TORSDOF 8
ENDMDL
MODEL 3
REMARK VINA RESULT: -8.445965342      1.388      1.792
REMARK  8 active torsions:
REMARK  status: ('A' for Active; 'I' for Inactive)
REMARK    1  A    between atoms: C2_2  and  O1_3 
REMARK    2  A    between atoms: C2_2  and  C3_5 
REMARK    3  A    between atoms: C6_10  and  C7_11 
REMARK    4  A    between atoms: C9_13  and  C10_14 
REMARK    5  A    between atoms: C13_17  and  O2_18 
REMARK    6  A    between atoms: O2_18  and  C14_19 
REMARK    7  A    between atoms: C14_19  and  C15_20 
REMARK    8  A    between atoms: C21_29  and  O5_30 
ROOT
HETATM    1  C7  UNL     1       2.511   3.423  36.865  1.00  0.00     0.093 A 
HETATM    2  C8  UNL     1       3.281   4.431  37.369  1.00  0.00     0.050 A 
HETATM    3  C9  UNL     1       3.560   5.366  36.365  1.00  0.00     0.007 A 
HETATM    4  C13 UNL     1       2.911   4.846  35.239  1.00  0.00     0.192 A 
HETATM    5  O4  UNL     1       2.318   3.715  35.592  1.00  0.00    -0.287 OA
ENDROOT
BRANCH   1   6
HETATM    6  C6  UNL     1       1.970   2.219  37.511  1.00  0.00     0.047 A 
HETATM    7  C5  UNL     1       2.363   2.004  38.844  1.00  0.00     0.104 A 
HETATM    8  N1  UNL     1       1.985   0.955  39.559  1.00  0.00    -0.374 N 
HETATM    9  C4  UNL     1       1.185   0.024  39.014  1.00  0.00     0.100 A 
ATOM     10  H1  UNL     1       2.301   0.854  40.523  1.00  0.00     0.164 HD
HETATM   11  C3  UNL     1       0.767   0.162  37.732  1.00  0.00     0.019 A 
HETATM   12  C21 UNL     1       1.172   1.289  36.956  1.00  0.00     0.090 A 
BRANCH  11  13
HETATM   13  C2  UNL     1      -0.111  -0.829  37.068  1.00  0.00     0.151 C 
HETATM   14  C1  UNL     1      -0.128  -2.113  37.886  1.00  0.00     0.044 C 
BRANCH  13  15
HETATM   15  O1  UNL     1      -1.382  -0.280  36.923  1.00  0.00    -0.391 OA
ATOM     16  H1  UNL     1      -1.356   0.662  36.812  1.00  0.00     0.210 HD
ENDBRANCH  13  15
ENDBRANCH  11  13
BRANCH  12  17
HETATM   17  O5  UNL     1       0.728   1.357  35.687  1.00  0.00    -0.359 OA
ATOM     18  H5  UNL     1       0.109   0.695  35.405  1.00  0.00     0.217 HD
ENDBRANCH  12  17
ENDBRANCH   1   6
BRANCH   3  19
HETATM   19  C10 UNL     1       4.351   6.613  36.482  1.00  0.00     0.023 A 
HETATM   20  C11 UNL     1       5.093   6.836  37.808  1.00  0.00     0.010 A 
HETATM   21  C12 UNL     1       5.872   6.476  36.591  1.00  0.00     0.010 A 
ENDBRANCH   3  19
BRANCH   4  22
HETATM   22  O2  UNL     1       2.859   5.339  34.018  1.00  0.00    -0.327 OA
BRANCH  22  23
HETATM   23  C14 UNL     1       2.595   5.796  32.856  1.00  0.00     0.211 C 
BRANCH  23  24
HETATM   24  C15 UNL     1       1.458   5.072  32.097  1.00  0.00     0.171 C 
HETATM   25  C16 UNL     1       0.188   5.248  32.887  1.00  0.00     0.038 C 
HETATM   26  C17 UNL     1      -0.718   6.320  32.366  1.00  0.00     0.031 C 
HETATM   27  C18 UNL     1      -0.743   6.245  30.856  1.00  0.00     0.050 C 
HETATM   28  C19 UNL     1      -1.585   7.323  30.241  1.00  0.00     0.036 C 
HETATM   29  C20 UNL     1      -1.160   4.893  30.365  1.00  0.00     0.036 C 
HETATM   30  N2  UNL     1       0.654   6.469  30.452  1.00  0.00    -0.091 NA
HETATM   31  O3  UNL     1       1.377   5.423  30.796  1.00  0.00    -0.278 OA
ENDBRANCH  23  24
ENDBRANCH  22  23
ENDBRANCH   4  22
TORSDOF 8
ENDMDL
MODEL 4
REMARK VINA RESULT: -8.392358701      4.022      8.796
REMARK  8 active torsions:
REMARK  status: ('A' for Active; 'I' for Inactive)
REMARK    1  A    between atoms: C2_2  and  O1_3 
REMARK    2  A    between atoms: C2_2  and  C3_5 
REMARK    3  A    between atoms: C6_10  and  C7_11 
REMARK    4  A    between atoms: C9_13  and  C10_14 
REMARK    5  A    between atoms: C13_17  and  O2_18 
REMARK    6  A    between atoms: O2_18  and  C14_19 
REMARK    7  A    between atoms: C14_19  and  C15_20 
REMARK    8  A    between atoms: C21_29  and  O5_30 
ROOT
HETATM    1  C7  UNL     1      -2.385   7.624  33.317  1.00  0.00     0.093 A 
HETATM    2  C8  UNL     1      -2.581   7.326  31.999  1.00  0.00     0.050 A 
HETATM    3  C9  UNL     1      -1.517   6.552  31.522  1.00  0.00     0.007 A 
HETATM    4  C13 UNL     1      -0.681   6.414  32.637  1.00  0.00     0.192 A 
HETATM    5  O4  UNL     1      -1.240   7.060  33.651  1.00  0.00    -0.287 OA
ENDROOT
BRANCH   1   6
HETATM    6  C6  UNL     1      -3.206   8.409  34.251  1.00  0.00     0.047 A 
HETATM    7  C5  UNL     1      -4.516   7.944  34.462  1.00  0.00     0.104 A 
HETATM    8  N1  UNL     1      -5.389   8.551  35.252  1.00  0.00    -0.374 N 
HETATM    9  C4  UNL     1      -5.041   9.673  35.901  1.00  0.00     0.100 A 
ATOM     10  H1  UNL     1      -6.326   8.165  35.367  1.00  0.00     0.164 HD
HETATM   11  C3  UNL     1      -3.795  10.182  35.745  1.00  0.00     0.019 A 
HETATM   12  C21 UNL     1      -2.850   9.535  34.894  1.00  0.00     0.090 A 
BRANCH  11  13
HETATM   13  C2  UNL     1      -3.347  11.419  36.427  1.00  0.00     0.151 C 
HETATM   14  C1  UNL     1      -4.002  12.623  35.765  1.00  0.00     0.044 C 
BRANCH  13  15
HETATM   15  O1  UNL     1      -3.660  11.326  37.781  1.00  0.00    -0.391 OA
ATOM     16  H1  UNL     1      -2.936  10.989  38.294  1.00  0.00     0.210 HD
ENDBRANCH  13  15
ENDBRANCH  11  13
BRANCH  12  17
HETATM   17  O5  UNL     1      -1.633  10.101  34.777  1.00  0.00    -0.359 OA
ATOM     18  H5  UNL     1      -0.914   9.539  34.512  1.00  0.00     0.217 HD
ENDBRANCH  12  17
ENDBRANCH   1   6
BRANCH   3  19
HETATM   19  C10 UNL     1      -1.333   6.004  30.158  1.00  0.00     0.023 A 
HETATM   20  C11 UNL     1      -1.152   7.025  29.025  1.00  0.00     0.010 A 
HETATM   21  C12 UNL     1       0.023   6.234  29.483  1.00  0.00     0.010 A 
ENDBRANCH   3  19
BRANCH   4  22
HETATM   22  O2  UNL     1       0.467   5.775  32.732  1.00  0.00    -0.327 OA
BRANCH  22  23
HETATM   23  C14 UNL     1       1.669   5.349  32.789  1.00  0.00     0.211 C 
BRANCH  23  24
HETATM   24  C15 UNL     1       1.947   4.281  33.873  1.00  0.00     0.171 C 
HETATM   25  C16 UNL     1       3.354   4.482  34.370  1.00  0.00     0.038 C 
HETATM   26  C17 UNL     1       3.448   5.217  35.672  1.00  0.00     0.031 C 
HETATM   27  C18 UNL     1       2.358   4.718  36.593  1.00  0.00     0.050 C 
HETATM   28  C19 UNL     1       2.339   5.441  37.906  1.00  0.00     0.036 C 
HETATM   29  C20 UNL     1       2.429   3.235  36.799  1.00  0.00     0.036 C 
HETATM   30  N2  UNL     1       1.106   5.024  35.884  1.00  0.00    -0.091 NA
HETATM   31  O3  UNL     1       0.999   4.235  34.833  1.00  0.00    -0.278 OA
ENDBRANCH  23  24
ENDBRANCH  22  23
ENDBRANCH   4  22
TORSDOF 8
ENDMDL
MODEL 5
REMARK VINA RESULT: -8.358120449      3.281      6.267
REMARK  8 active torsions:
REMARK  status: ('A' for Active; 'I' for Inactive)
REMARK    1  A    between atoms: C2_2  and  O1_3 
REMARK    2  A    between atoms: C2_2  and  C3_5 
REMARK    3  A    between atoms: C6_10  and  C7_11 
REMARK    4  A    between atoms: C9_13  and  C10_14 
REMARK    5  A    between atoms: C13_17  and  O2_18 
REMARK    6  A    between atoms: O2_18  and  C14_19 
REMARK    7  A    between atoms: C14_19  and  C15_20 
REMARK    8  A    between atoms: C21_29  and  O5_30 
ROOT
HETATM    1  C7  UNL     1       0.627   4.572  33.370  1.00  0.00     0.093 A 
HETATM    2  C8  UNL     1       0.594   4.406  32.016  1.00  0.00     0.050 A 
HETATM    3  C9  UNL     1       0.044   5.542  31.410  1.00  0.00     0.007 A 
HETATM    4  C13 UNL     1      -0.247   6.385  32.488  1.00  0.00     0.192 A 
HETATM    5  O4  UNL     1       0.115   5.766  33.603  1.00  0.00    -0.287 OA
ENDROOT
BRANCH   1   6
HETATM    6  C6  UNL     1       1.100   3.671  34.431  1.00  0.00     0.047 A 
HETATM    7  C5  UNL     1       1.148   2.304  34.105  1.00  0.00     0.104 A 
HETATM    8  N1  UNL     1       1.526   1.362  34.956  1.00  0.00    -0.374 N 
HETATM    9  C4  UNL     1       1.887   1.691  36.206  1.00  0.00     0.100 A 
ATOM     10  H1  UNL     1       1.543   0.386  34.661  1.00  0.00     0.164 HD
HETATM   11  C3  UNL     1       1.864   2.989  36.594  1.00  0.00     0.019 A 
HETATM   12  C21 UNL     1       1.457   4.009  35.683  1.00  0.00     0.090 A 
BRANCH  11  13
HETATM   13  C2  UNL     1       2.244   3.421  37.959  1.00  0.00     0.151 C 
HETATM   14  C1  UNL     1       2.562   2.196  38.804  1.00  0.00     0.044 C 
BRANCH  13  15
HETATM   15  O1  UNL     1       3.325   4.295  37.871  1.00  0.00    -0.391 OA
ATOM     16  H1  UNL     1       3.949   4.029  37.206  1.00  0.00     0.210 HD
ENDBRANCH  13  15
ENDBRANCH  11  13
BRANCH  12  17
HETATM   17  O5  UNL     1       1.447   5.277  36.138  1.00  0.00    -0.359 OA
ATOM     18  H5  UNL     1       1.838   5.438  36.989  1.00  0.00     0.217 HD
ENDBRANCH  12  17
ENDBRANCH   1   6
BRANCH   3  19
HETATM   19  C10 UNL     1      -0.167   5.787  29.964  1.00  0.00     0.023 A 
HETATM   20  C11 UNL     1      -1.624   5.875  29.487  1.00  0.00     0.010 A 
HETATM   21  C12 UNL     1      -0.808   7.118  29.561  1.00  0.00     0.010 A 
ENDBRANCH   3  19
BRANCH   4  22
HETATM   22  O2  UNL     1      -0.784   7.588  32.473  1.00  0.00    -0.327 OA
BRANCH  22  23
HETATM   23  C14 UNL     1      -1.345   8.718  32.667  1.00  0.00     0.211 C 
BRANCH  23  24
HETATM   24  C15 UNL     1      -2.679   8.675  33.448  1.00  0.00     0.171 C 
HETATM   25  C16 UNL     1      -2.367   8.329  34.880  1.00  0.00     0.038 C 
HETATM   26  C17 UNL     1      -2.349   9.505  35.807  1.00  0.00     0.031 C 
HETATM   27  C18 UNL     1      -3.503  10.418  35.459  1.00  0.00     0.050 C 
HETATM   28  C19 UNL     1      -3.531  11.656  36.303  1.00  0.00     0.036 C 
HETATM   29  C20 UNL     1      -4.820   9.706  35.508  1.00  0.00     0.036 C 
HETATM   30  N2  UNL     1      -3.249  10.819  34.066  1.00  0.00    -0.091 NA
HETATM   31  O3  UNL     1      -3.434   9.781  33.276  1.00  0.00    -0.278 OA
ENDBRANCH  23  24
ENDBRANCH  22  23
ENDBRANCH   4  22
TORSDOF 8
ENDMDL
