MODEL 1
REMARK VINA RESULT: -8.056311887      0.000      0.000
REMARK  12 active torsions:
REMARK  status: ('A' for Active; 'I' for Inactive)
REMARK       I    between atoms: C2_2  and  N1_4 
REMARK    1  A    between atoms: N1_4  and  C3_5 
REMARK    2  A    between atoms: C3_5  and  C4_6 
REMARK    3  A    between atoms: C4_6  and  C5_7 
REMARK    4  A    between atoms: C5_7  and  C6_8 
REMARK    5  A    between atoms: C6_8  and  C7_9 
REMARK    6  A    between atoms: C7_9  and  C8_10 
REMARK       I    between atoms: C8_10  and  N2_12 
REMARK    7  A    between atoms: N2_12  and  C9_13 
REMARK    8  A    between atoms: C9_13  and  C10_14 
REMARK    9  A    between atoms: C11_15  and  C12_16 
REMARK   10  A    between atoms: C12_16  and  C13_17 
REMARK   11  A    between atoms: C13_17  and  C14_18 
REMARK       I    between atoms: C14_18  and  N3_20 
REMARK       I    between atoms: N3_20  and  C15_22 
REMARK   12  A    between atoms: C15_22  and  C16_24 
ROOT
HETATM    1  C10 UNL     1      20.634  17.518  30.100  1.00  0.00     0.028 C 
HETATM    2  C11 UNL     1      21.798  18.328  29.838  1.00  0.00    -0.024 C 
ENDROOT
BRANCH   1   3
HETATM    3  C9  UNL     1      19.788  16.877  29.053  1.00  0.00     0.186 C 
BRANCH   3   4
HETATM    4  N2  UNL     1      18.933  17.826  28.538  1.00  0.00    -0.384 NA
HETATM    5  C8  UNL     1      18.097  18.749  28.040  1.00  0.00     0.291 C 
HETATM    6  O2  UNL     1      16.970  19.156  28.533  1.00  0.00    -0.257 OA
BRANCH   5   7
HETATM    7  C7  UNL     1      18.473  19.442  26.726  1.00  0.00     0.119 C 
BRANCH   7   8
HETATM    8  C6  UNL     1      19.851  19.944  26.836  1.00  0.00     0.011 C 
BRANCH   8   9
HETATM    9  C5  UNL     1      20.365  20.557  25.586  1.00  0.00     0.007 C 
BRANCH   9  10
HETATM   10  C4  UNL     1      20.142  19.590  24.437  1.00  0.00     0.060 C 
BRANCH  10  11
HETATM   11  C3  UNL     1      21.305  18.658  24.380  1.00  0.00     0.159 C 
BRANCH  11  12
HETATM   12  N1  UNL     1      21.542  18.152  23.091  1.00  0.00    -0.388 NA
HETATM   13  C2  UNL     1      21.767  17.671  21.866  1.00  0.00     0.286 C 
HETATM   14  C1  UNL     1      22.077  18.665  20.745  1.00  0.00     0.135 C 
HETATM   15  O1  UNL     1      21.758  16.458  21.500  1.00  0.00    -0.258 OA
ENDBRANCH  11  12
ENDBRANCH  10  11
ENDBRANCH   9  10
ENDBRANCH   8   9
ENDBRANCH   7   8
ENDBRANCH   5   7
ENDBRANCH   3   4
ENDBRANCH   1   3
BRANCH   2  16
HETATM   16  C12 UNL     1      22.831  17.966  28.878  1.00  0.00     0.036 C 
BRANCH  16  17
HETATM   17  C13 UNL     1      22.997  18.760  27.623  1.00  0.00     0.107 C 
BRANCH  17  18
HETATM   18  C14 UNL     1      23.882  19.953  27.917  1.00  0.00     0.224 C 
HETATM   19  O3  UNL     1      24.789  19.831  28.730  1.00  0.00    -0.273 OA
HETATM   20  N3  UNL     1      23.648  21.217  27.257  1.00  0.00    -0.295 N 
HETATM   21  C15 UNL     1      24.455  22.345  27.560  1.00  0.00     0.262 C 
ATOM     22  H3  UNL     1      22.900  21.300  26.569  1.00  0.00     0.171 HD
HETATM   23  O4  UNL     1      25.473  22.181  28.283  1.00  0.00    -0.270 OA
BRANCH  21  24
HETATM   24  C16 UNL     1      24.107  23.672  27.053  1.00  0.00     0.190 C 
HETATM   25  C17 UNL     1      25.178  24.201  26.100  1.00  0.00     0.061 C 
HETATM   26 CL1  UNL     1      24.004  24.778  28.477  1.00  0.00    -0.091 Cl
HETATM   27 CL2  UNL     1      22.563  23.643  26.201  1.00  0.00    -0.091 Cl
ENDBRANCH  21  24
ENDBRANCH  17  18
ENDBRANCH  16  17
ENDBRANCH   2  16
TORSDOF 12
ENDMDL
MODEL 2
REMARK VINA RESULT: -8.051371464      1.502      1.626
REMARK  12 active torsions:
REMARK  status: ('A' for Active; 'I' for Inactive)
REMARK       I    between atoms: C2_2  and  N1_4 
REMARK    1  A    between atoms: N1_4  and  C3_5 
REMARK    2  A    between atoms: C3_5  and  C4_6 
REMARK    3  A    between atoms: C4_6  and  C5_7 
REMARK    4  A    between atoms: C5_7  and  C6_8 
REMARK    5  A    between atoms: C6_8  and  C7_9 
REMARK    6  A    between atoms: C7_9  and  C8_10 
REMARK       I    between atoms: C8_10  and  N2_12 
REMARK    7  A    between atoms: N2_12  and  C9_13 
REMARK    8  A    between atoms: C9_13  and  C10_14 
REMARK    9  A    between atoms: C11_15  and  C12_16 
REMARK   10  A    between atoms: C12_16  and  C13_17 
REMARK   11  A    between atoms: C13_17  and  C14_18 
REMARK       I    between atoms: C14_18  and  N3_20 
REMARK       I    between atoms: N3_20  and  C15_22 
REMARK   12  A    between atoms: C15_22  and  C16_24 
ROOT
HETATM    1  C10 UNL     1      20.682  17.613  30.080  1.00  0.00     0.028 C 
HETATM    2  C11 UNL     1      21.809  18.436  29.715  1.00  0.00    -0.024 C 
ENDROOT
BRANCH   1   3
HETATM    3  C9  UNL     1      19.797  16.901  29.113  1.00  0.00     0.186 C 
BRANCH   3   4
HETATM    4  N2  UNL     1      18.923  17.813  28.566  1.00  0.00    -0.384 NA
HETATM    5  C8  UNL     1      18.066  18.700  28.039  1.00  0.00     0.291 C 
HETATM    6  O2  UNL     1      16.973  19.163  28.557  1.00  0.00    -0.257 OA
BRANCH   5   7
HETATM    7  C7  UNL     1      18.371  19.272  26.650  1.00  0.00     0.119 C 
BRANCH   7   8
HETATM    8  C6  UNL     1      19.621  20.043  26.723  1.00  0.00     0.011 C 
BRANCH   8   9
HETATM    9  C5  UNL     1      20.296  20.213  25.412  1.00  0.00     0.007 C 
BRANCH   9  10
HETATM   10  C4  UNL     1      20.326  18.873  24.698  1.00  0.00     0.060 C 
BRANCH  10  11
HETATM   11  C3  UNL     1      21.592  18.792  23.914  1.00  0.00     0.159 C 
BRANCH  11  12
HETATM   12  N1  UNL     1      21.989  20.030  23.380  1.00  0.00    -0.388 NA
HETATM   13  C2  UNL     1      22.367  21.206  22.873  1.00  0.00     0.286 C 
HETATM   14  C1  UNL     1      23.545  21.930  23.527  1.00  0.00     0.135 C 
HETATM   15  O1  UNL     1      21.859  21.819  21.888  1.00  0.00    -0.258 OA
ENDBRANCH  11  12
ENDBRANCH  10  11
ENDBRANCH   9  10
ENDBRANCH   8   9
ENDBRANCH   7   8
ENDBRANCH   5   7
ENDBRANCH   3   4
ENDBRANCH   1   3
BRANCH   2  16
HETATM   16  C12 UNL     1      22.797  18.053  28.718  1.00  0.00     0.036 C 
BRANCH  16  17
HETATM   17  C13 UNL     1      22.970  18.874  27.482  1.00  0.00     0.107 C 
BRANCH  17  18
HETATM   18  C14 UNL     1      23.874  20.047  27.802  1.00  0.00     0.224 C 
HETATM   19  O3  UNL     1      24.817  19.877  28.564  1.00  0.00    -0.273 OA
HETATM   20  N3  UNL     1      23.616  21.347  27.225  1.00  0.00    -0.295 N 
HETATM   21  C15 UNL     1      24.441  22.454  27.554  1.00  0.00     0.262 C 
ATOM     22  H3  UNL     1      22.836  21.469  26.579  1.00  0.00     0.171 HD
HETATM   23  O4  UNL     1      25.490  22.247  28.219  1.00  0.00    -0.270 OA
BRANCH  21  24
HETATM   24  C16 UNL     1      24.076  23.808  27.139  1.00  0.00     0.190 C 
HETATM   25  C17 UNL     1      25.095  24.381  26.154  1.00  0.00     0.061 C 
HETATM   26 CL1  UNL     1      24.066  24.837  28.623  1.00  0.00    -0.091 Cl
HETATM   27 CL2  UNL     1      22.485  23.834  26.378  1.00  0.00    -0.091 Cl
ENDBRANCH  21  24
ENDBRANCH  17  18
ENDBRANCH  16  17
ENDBRANCH   2  16
TORSDOF 12
ENDMDL
MODEL 3
REMARK VINA RESULT: -8.015474965      2.515      6.540
REMARK  12 active torsions:
REMARK  status: ('A' for Active; 'I' for Inactive)
REMARK       I    between atoms: C2_2  and  N1_4 
REMARK    1  A    between atoms: N1_4  and  C3_5 
REMARK    2  A    between atoms: C3_5  and  C4_6 
REMARK    3  A    between atoms: C4_6  and  C5_7 
REMARK    4  A    between atoms: C5_7  and  C6_8 
REMARK    5  A    between atoms: C6_8  and  C7_9 
REMARK    6  A    between atoms: C7_9  and  C8_10 
REMARK       I    between atoms: C8_10  and  N2_12 
REMARK    7  A    between atoms: N2_12  and  C9_13 
REMARK    8  A    between atoms: C9_13  and  C10_14 
REMARK    9  A    between atoms: C11_15  and  C12_16 
REMARK   10  A    between atoms: C12_16  and  C13_17 
REMARK   11  A    between atoms: C13_17  and  C14_18 
REMARK       I    between atoms: C14_18  and  N3_20 
REMARK       I    between atoms: N3_20  and  C15_22 
REMARK   12  A    between atoms: C15_22  and  C16_24 
ROOT
HETATM    1  C10 UNL     1      20.241  16.833  29.772  1.00  0.00     0.028 C 
HETATM    2  C11 UNL     1      19.433  17.102  28.608  1.00  0.00    -0.024 C 
ENDROOT
BRANCH   1   3
HETATM    3  C9  UNL     1      21.094  17.838  30.469  1.00  0.00     0.186 C 
BRANCH   3   4
HETATM    4  N2  UNL     1      22.091  18.239  29.609  1.00  0.00    -0.384 NA
HETATM    5  C8  UNL     1      23.066  18.625  28.772  1.00  0.00     0.291 C 
HETATM    6  O2  UNL     1      24.100  17.950  28.383  1.00  0.00    -0.257 OA
BRANCH   5   7
HETATM    7  C7  UNL     1      22.995  20.033  28.170  1.00  0.00     0.119 C 
BRANCH   7   8
HETATM    8  C6  UNL     1      24.327  20.649  28.257  1.00  0.00     0.011 C 
BRANCH   8   9
HETATM    9  C5  UNL     1      24.409  21.989  27.623  1.00  0.00     0.007 C 
BRANCH   9  10
HETATM   10  C4  UNL     1      25.816  22.531  27.800  1.00  0.00     0.060 C 
BRANCH  10  11
HETATM   11  C3  UNL     1      25.835  23.387  29.021  1.00  0.00     0.159 C 
BRANCH  11  12
HETATM   12  N1  UNL     1      24.967  24.489  28.933  1.00  0.00    -0.388 NA
HETATM   13  C2  UNL     1      24.142  25.535  28.849  1.00  0.00     0.286 C 
HETATM   14  C1  UNL     1      23.059  25.517  27.770  1.00  0.00     0.135 C 
HETATM   15  O1  UNL     1      24.141  26.575  29.573  1.00  0.00    -0.258 OA
ENDBRANCH  11  12
ENDBRANCH  10  11
ENDBRANCH   9  10
ENDBRANCH   8   9
ENDBRANCH   7   8
ENDBRANCH   5   7
ENDBRANCH   3   4
ENDBRANCH   1   3
BRANCH   2  16
HETATM   16  C12 UNL     1      18.586  18.278  28.470  1.00  0.00     0.036 C 
BRANCH  16  17
HETATM   17  C13 UNL     1      17.857  18.528  27.191  1.00  0.00     0.107 C 
BRANCH  17  18
HETATM   18  C14 UNL     1      18.825  18.356  26.038  1.00  0.00     0.224 C 
HETATM   19  O3  UNL     1      18.856  17.285  25.446  1.00  0.00    -0.273 OA
HETATM   20  N3  UNL     1      19.706  19.436  25.656  1.00  0.00    -0.295 N 
HETATM   21  C15 UNL     1      20.638  19.261  24.600  1.00  0.00     0.262 C 
ATOM     22  H3  UNL     1      19.657  20.329  26.147  1.00  0.00     0.171 HD
HETATM   23  O4  UNL     1      20.569  18.216  23.901  1.00  0.00    -0.270 OA
BRANCH  21  24
HETATM   24  C16 UNL     1      21.665  20.269  24.334  1.00  0.00     0.190 C 
HETATM   25  C17 UNL     1      21.576  20.789  22.900  1.00  0.00     0.061 C 
HETATM   26 CL1  UNL     1      23.268  19.468  24.559  1.00  0.00    -0.091 Cl
HETATM   27 CL2  UNL     1      21.516  21.636  25.438  1.00  0.00    -0.091 Cl
ENDBRANCH  21  24
ENDBRANCH  17  18
ENDBRANCH  16  17
ENDBRANCH   2  16
TORSDOF 12
ENDMDL
MODEL 4
REMARK VINA RESULT: -7.818372839      3.334      7.367
REMARK  12 active torsions:
REMARK  status: ('A' for Active; 'I' for Inactive)
REMARK       I    between atoms: C2_2  and  N1_4 
REMARK    1  A    between atoms: N1_4  and  C3_5 
REMARK    2  A    between atoms: C3_5  and  C4_6 
REMARK    3  A    between atoms: C4_6  and  C5_7 
REMARK    4  A    between atoms: C5_7  and  C6_8 
REMARK    5  A    between atoms: C6_8  and  C7_9 
REMARK    6  A    between atoms: C7_9  and  C8_10 
REMARK       I    between atoms: C8_10  and  N2_12 
REMARK    7  A    between atoms: N2_12  and  C9_13 
REMARK    8  A    between atoms: C9_13  and  C10_14 
REMARK    9  A    between atoms: C11_15  and  C12_16 
REMARK   10  A    between atoms: C12_16  and  C13_17 
REMARK   11  A    between atoms: C13_17  and  C14_18 
REMARK       I    between atoms: C14_18  and  N3_20 
REMARK       I    between atoms: N3_20  and  C15_22 
REMARK   12  A    between atoms: C15_22  and  C16_24 
ROOT
HETATM    1  C10 UNL     1      23.546  20.488  27.880  1.00  0.00     0.028 C 
HETATM    2  C11 UNL     1      23.984  19.726  29.023  1.00  0.00    -0.024 C 
ENDROOT
BRANCH   1   3
HETATM    3  C9  UNL     1      23.370  19.940  26.505  1.00  0.00     0.186 C 
BRANCH   3   4
HETATM    4  N2  UNL     1      23.313  20.992  25.618  1.00  0.00    -0.384 NA
HETATM    5  C8  UNL     1      23.256  22.012  24.749  1.00  0.00     0.291 C 
HETATM    6  O2  UNL     1      22.762  22.017  23.552  1.00  0.00    -0.257 OA
BRANCH   5   7
HETATM    7  C7  UNL     1      23.832  23.367  25.176  1.00  0.00     0.119 C 
BRANCH   7   8
HETATM    8  C6  UNL     1      25.183  23.155  25.716  1.00  0.00     0.011 C 
BRANCH   8   9
HETATM    9  C5  UNL     1      25.707  24.310  26.487  1.00  0.00     0.007 C 
BRANCH   9  10
HETATM   10  C4  UNL     1      26.332  23.799  27.773  1.00  0.00     0.060 C 
BRANCH  10  11
HETATM   11  C3  UNL     1      25.263  23.712  28.808  1.00  0.00     0.159 C 
BRANCH  11  12
HETATM   12  N1  UNL     1      24.527  24.902  28.940  1.00  0.00    -0.388 NA
HETATM   13  C2  UNL     1      23.828  26.032  29.066  1.00  0.00     0.286 C 
HETATM   14  C1  UNL     1      22.573  26.205  28.209  1.00  0.00     0.135 C 
HETATM   15  O1  UNL     1      24.078  27.012  29.830  1.00  0.00    -0.258 OA
ENDBRANCH  11  12
ENDBRANCH  10  11
ENDBRANCH   9  10
ENDBRANCH   8   9
ENDBRANCH   7   8
ENDBRANCH   5   7
ENDBRANCH   3   4
ENDBRANCH   1   3
BRANCH   2  16
HETATM   16  C12 UNL     1      23.474  18.403  29.352  1.00  0.00     0.036 C 
BRANCH  16  17
HETATM   17  C13 UNL     1      22.523  18.230  30.491  1.00  0.00     0.107 C 
BRANCH  17  18
HETATM   18  C14 UNL     1      21.163  17.861  29.938  1.00  0.00     0.224 C 
HETATM   19  O3  UNL     1      20.543  16.941  30.455  1.00  0.00    -0.273 OA
HETATM   20  N3  UNL     1      20.614  18.577  28.808  1.00  0.00    -0.295 N 
HETATM   21  C15 UNL     1      19.356  18.206  28.267  1.00  0.00     0.262 C 
ATOM     22  H3  UNL     1      21.134  19.353  28.398  1.00  0.00     0.171 HD
HETATM   23  O4  UNL     1      18.658  17.360  28.887  1.00  0.00    -0.270 OA
BRANCH  21  24
HETATM   24  C16 UNL     1      18.881  18.785  27.010  1.00  0.00     0.190 C 
HETATM   25  C17 UNL     1      17.400  19.151  27.090  1.00  0.00     0.061 C 
HETATM   26 CL1  UNL     1      19.099  17.531  25.729  1.00  0.00    -0.091 Cl
HETATM   27 CL2  UNL     1      19.796  20.235  26.593  1.00  0.00    -0.091 Cl
ENDBRANCH  21  24
ENDBRANCH  17  18
ENDBRANCH  16  17
ENDBRANCH   2  16
TORSDOF 12
ENDMDL
MODEL 5
REMARK VINA RESULT: -7.768641142      2.806      4.071
REMARK  12 active torsions:
REMARK  status: ('A' for Active; 'I' for Inactive)
REMARK       I    between atoms: C2_2  and  N1_4 
REMARK    1  A    between atoms: N1_4  and  C3_5 
REMARK    2  A    between atoms: C3_5  and  C4_6 
REMARK    3  A    between atoms: C4_6  and  C5_7 
REMARK    4  A    between atoms: C5_7  and  C6_8 
REMARK    5  A    between atoms: C6_8  and  C7_9 
REMARK    6  A    between atoms: C7_9  and  C8_10 
REMARK       I    between atoms: C8_10  and  N2_12 
REMARK    7  A    between atoms: N2_12  and  C9_13 
REMARK    8  A    between atoms: C9_13  and  C10_14 
REMARK    9  A    between atoms: C11_15  and  C12_16 
REMARK   10  A    between atoms: C12_16  and  C13_17 
REMARK   11  A    between atoms: C13_17  and  C14_18 
REMARK       I    between atoms: C14_18  and  N3_20 
REMARK       I    between atoms: N3_20  and  C15_22 
REMARK   12  A    between atoms: C15_22  and  C16_24 
ROOT
HETATM    1  C10 UNL     1      22.251  17.852  29.715  1.00  0.00     0.028 C 
HETATM    2  C11 UNL     1      23.040  18.944  29.200  1.00  0.00    -0.024 C 
ENDROOT
BRANCH   1   3
HETATM    3  C9  UNL     1      20.819  17.950  30.118  1.00  0.00     0.186 C 
BRANCH   3   4
HETATM    4  N2  UNL     1      20.079  17.111  29.315  1.00  0.00    -0.384 NA
HETATM    5  C8  UNL     1      19.359  16.290  28.536  1.00  0.00     0.291 C 
HETATM    6  O2  UNL     1      18.877  15.125  28.833  1.00  0.00    -0.257 OA
BRANCH   5   7
HETATM    7  C7  UNL     1      19.037  16.736  27.106  1.00  0.00     0.119 C 
BRANCH   7   8
HETATM    8  C6  UNL     1      20.204  17.445  26.560  1.00  0.00     0.011 C 
BRANCH   8   9
HETATM    9  C5  UNL     1      19.853  18.557  25.642  1.00  0.00     0.007 C 
BRANCH   9  10
HETATM   10  C4  UNL     1      19.431  19.760  26.469  1.00  0.00     0.060 C 
BRANCH  10  11
HETATM   11  C3  UNL     1      18.112  20.234  25.959  1.00  0.00     0.159 C 
BRANCH  11  12
HETATM   12  N1  UNL     1      17.028  19.775  26.729  1.00  0.00    -0.388 NA
HETATM   13  C2  UNL     1      15.999  19.339  27.458  1.00  0.00     0.286 C 
HETATM   14  C1  UNL     1      14.647  20.034  27.288  1.00  0.00     0.135 C 
HETATM   15  O1  UNL     1      15.998  18.393  28.301  1.00  0.00    -0.258 OA
ENDBRANCH  11  12
ENDBRANCH  10  11
ENDBRANCH   9  10
ENDBRANCH   8   9
ENDBRANCH   7   8
ENDBRANCH   5   7
ENDBRANCH   3   4
ENDBRANCH   1   3
BRANCH   2  16
HETATM   16  C12 UNL     1      22.565  19.873  28.186  1.00  0.00     0.036 C 
BRANCH  16  17
HETATM   17  C13 UNL     1      23.245  19.943  26.858  1.00  0.00     0.107 C 
BRANCH  17  18
HETATM   18  C14 UNL     1      23.198  21.374  26.363  1.00  0.00     0.224 C 
HETATM   19  O3  UNL     1      22.842  21.589  25.211  1.00  0.00    -0.273 OA
HETATM   20  N3  UNL     1      23.581  22.462  27.233  1.00  0.00    -0.295 N 
HETATM   21  C15 UNL     1      23.572  23.798  26.756  1.00  0.00     0.262 C 
ATOM     22  H3  UNL     1      23.859  22.268  28.195  1.00  0.00     0.171 HD
HETATM   23  O4  UNL     1      23.069  24.032  25.625  1.00  0.00    -0.270 OA
BRANCH  21  24
HETATM   24  C16 UNL     1      24.142  24.882  27.556  1.00  0.00     0.190 C 
HETATM   25  C17 UNL     1      25.160  25.691  26.753  1.00  0.00     0.061 C 
HETATM   26 CL1  UNL     1      24.987  24.121  28.960  1.00  0.00    -0.091 Cl
HETATM   27 CL2  UNL     1      22.885  25.977  28.133  1.00  0.00    -0.091 Cl
ENDBRANCH  21  24
ENDBRANCH  17  18
ENDBRANCH  16  17
ENDBRANCH   2  16
TORSDOF 12
ENDMDL
