MODEL 1
REMARK VINA RESULT: -6.987400558      0.000      0.000
REMARK  6 active torsions:
REMARK  status: ('A' for Active; 'I' for Inactive)
REMARK    1  A    between atoms: O1_2  and  C2_3 
REMARK    2  A    between atoms: C7_8  and  C8_9 
REMARK    3  A    between atoms: C8_9  and  C9_10 
REMARK    4  A    between atoms: C9_10  and  N1_11 
REMARK    5  A    between atoms: C9_10  and  C10_15 
REMARK    6  A    between atoms: C10_15  and  C11_19 
ROOT
HETATM    1  C9  UNL     1      44.735 -46.585  67.056  1.00  0.00     0.239 C 
ENDROOT
BRANCH   1   2
HETATM    2  C8  UNL     1      45.391 -47.142  68.265  1.00  0.00     0.080 C 
BRANCH   2   3
HETATM    3  C7  UNL     1      45.417 -46.310  69.460  1.00  0.00    -0.022 A 
HETATM    4  C2  UNL     1      44.237 -46.197  70.188  1.00  0.00     0.074 A 
HETATM    5  C3  UNL     1      44.151 -45.444  71.333  1.00  0.00     0.037 A 
HETATM    6  C4  UNL     1      45.256 -44.763  71.806  1.00  0.00     0.003 A 
HETATM    7  C5  UNL     1      46.440 -44.855  71.107  1.00  0.00     0.001 A 
HETATM    8  C6  UNL     1      46.500 -45.622  69.955  1.00  0.00     0.010 A 
BRANCH   4   9
HETATM    9  O1  UNL     1      43.100 -46.861  69.756  1.00  0.00    -0.355 OA
HETATM   10  C1  UNL     1      41.908 -46.882  70.486  1.00  0.00     0.210 C 
ENDBRANCH   4   9
ENDBRANCH   2   3
ENDBRANCH   1   2
BRANCH   1  11
HETATM   11  N1  UNL     1      43.775 -47.463  66.442  1.00  0.00    -0.069 N 
ATOM     12  H13 UNL     1      43.500 -48.199  67.093  1.00  0.00     0.275 HD
ATOM     13  H12 UNL     1      42.880 -46.986  66.327  1.00  0.00     0.275 HD
ATOM     14  H11 UNL     1      44.080 -47.868  65.557  1.00  0.00     0.275 HD
ENDBRANCH   1  11
BRANCH   1  15
HETATM   15  C10 UNL     1      45.771 -46.275  66.041  1.00  0.00     0.060 C 
HETATM   16  N2  UNL     1      47.002 -46.453  66.379  1.00  0.00    -0.399 N 
ATOM     17  H22 UNL     1      47.249 -46.790  67.309  1.00  0.00     0.156 HD
ATOM     18  H21 UNL     1      47.715 -46.240  65.682  1.00  0.00     0.156 HD
BRANCH  15  19
HETATM   19  C11 UNL     1      45.415 -45.789  64.702  1.00  0.00     0.056 A 
HETATM   20  C12 UNL     1      44.873 -44.561  64.396  1.00  0.00     0.033 A 
HETATM   21  C13 UNL     1      44.677 -44.482  63.023  1.00  0.00     0.019 A 
HETATM   22  C14 UNL     1      45.111 -45.680  62.529  1.00  0.00     0.088 A 
HETATM   23  N3  UNL     1      45.551 -46.453  63.545  1.00  0.00    -0.364 N 
ATOM     24  H3  UNL     1      45.927 -47.395  63.448  1.00  0.00     0.165 HD
ENDBRANCH  15  19
ENDBRANCH   1  15
TORSDOF 6
ENDMDL
MODEL 2
REMARK VINA RESULT: -6.958086137      3.670      5.599
REMARK  6 active torsions:
REMARK  status: ('A' for Active; 'I' for Inactive)
REMARK    1  A    between atoms: O1_2  and  C2_3 
REMARK    2  A    between atoms: C7_8  and  C8_9 
REMARK    3  A    between atoms: C8_9  and  C9_10 
REMARK    4  A    between atoms: C9_10  and  N1_11 
REMARK    5  A    between atoms: C9_10  and  C10_15 
REMARK    6  A    between atoms: C10_15  and  C11_19 
ROOT
HETATM    1  C9  UNL     1      48.188 -45.103  63.363  1.00  0.00     0.239 C 
ENDROOT
BRANCH   1   2
HETATM    2  C8  UNL     1      46.900 -44.651  63.944  1.00  0.00     0.080 C 
BRANCH   2   3
HETATM    3  C7  UNL     1      46.280 -45.503  64.950  1.00  0.00    -0.022 A 
HETATM    4  C2  UNL     1      45.118 -46.178  64.589  1.00  0.00     0.074 A 
HETATM    5  C3  UNL     1      44.455 -47.011  65.456  1.00  0.00     0.037 A 
HETATM    6  C4  UNL     1      44.931 -47.208  66.738  1.00  0.00     0.003 A 
HETATM    7  C5  UNL     1      46.081 -46.553  67.125  1.00  0.00     0.001 A 
HETATM    8  C6  UNL     1      46.731 -45.719  66.231  1.00  0.00     0.010 A 
BRANCH   4   9
HETATM    9  O1  UNL     1      44.599 -46.014  63.315  1.00  0.00    -0.355 OA
HETATM   10  C1  UNL     1      43.637 -45.048  63.004  1.00  0.00     0.210 C 
ENDBRANCH   4   9
ENDBRANCH   2   3
ENDBRANCH   1   2
BRANCH   1  11
HETATM   11  N1  UNL     1      48.964 -44.058  62.752  1.00  0.00    -0.069 N 
ATOM     12  H13 UNL     1      49.051 -44.220  61.748  1.00  0.00     0.275 HD
ATOM     13  H12 UNL     1      48.439 -43.183  62.743  1.00  0.00     0.275 HD
ATOM     14  H11 UNL     1      49.884 -43.916  63.169  1.00  0.00     0.275 HD
ENDBRANCH   1  11
BRANCH   1  15
HETATM   15  C10 UNL     1      47.918 -46.126  62.322  1.00  0.00     0.060 C 
HETATM   16  N2  UNL     1      47.039 -45.839  61.425  1.00  0.00    -0.399 N 
ATOM     17  H22 UNL     1      46.549 -44.945  61.435  1.00  0.00     0.156 HD
ATOM     18  H21 UNL     1      46.853 -46.542  60.710  1.00  0.00     0.156 HD
BRANCH  15  19
HETATM   19  C11 UNL     1      48.624 -47.414  62.309  1.00  0.00     0.056 A 
HETATM   20  C12 UNL     1      49.513 -47.868  63.256  1.00  0.00     0.033 A 
HETATM   21  C13 UNL     1      49.966 -49.127  62.885  1.00  0.00     0.019 A 
HETATM   22  C14 UNL     1      49.331 -49.405  61.706  1.00  0.00     0.088 A 
HETATM   23  N3  UNL     1      48.530 -48.371  61.374  1.00  0.00    -0.364 N 
ATOM     24  H3  UNL     1      47.945 -48.323  60.540  1.00  0.00     0.165 HD
ENDBRANCH  15  19
ENDBRANCH   1  15
TORSDOF 6
ENDMDL
MODEL 3
REMARK VINA RESULT: -6.952681339      1.144      2.238
REMARK  6 active torsions:
REMARK  status: ('A' for Active; 'I' for Inactive)
REMARK    1  A    between atoms: O1_2  and  C2_3 
REMARK    2  A    between atoms: C7_8  and  C8_9 
REMARK    3  A    between atoms: C8_9  and  C9_10 
REMARK    4  A    between atoms: C9_10  and  N1_11 
REMARK    5  A    between atoms: C9_10  and  C10_15 
REMARK    6  A    between atoms: C10_15  and  C11_19 
ROOT
HETATM    1  C9  UNL     1      44.937 -46.555  66.975  1.00  0.00     0.239 C 
ENDROOT
BRANCH   1   2
HETATM    2  C8  UNL     1      45.419 -46.249  68.345  1.00  0.00     0.080 C 
BRANCH   2   3
HETATM    3  C7  UNL     1      44.457 -46.349  69.435  1.00  0.00    -0.022 A 
HETATM    4  C2  UNL     1      44.885 -45.971  70.703  1.00  0.00     0.074 A 
HETATM    5  C3  UNL     1      44.060 -46.019  71.799  1.00  0.00     0.037 A 
HETATM    6  C4  UNL     1      42.755 -46.454  71.674  1.00  0.00     0.003 A 
HETATM    7  C5  UNL     1      42.301 -46.836  70.429  1.00  0.00     0.001 A 
HETATM    8  C6  UNL     1      43.153 -46.777  69.339  1.00  0.00     0.010 A 
BRANCH   4   9
HETATM    9  O1  UNL     1      46.185 -45.527  70.882  1.00  0.00    -0.355 OA
HETATM   10  C1  UNL     1      46.498 -44.343  71.558  1.00  0.00     0.210 C 
ENDBRANCH   4   9
ENDBRANCH   2   3
ENDBRANCH   1   2
BRANCH   1  11
HETATM   11  N1  UNL     1      44.857 -47.959  66.672  1.00  0.00    -0.069 N 
ATOM     12  H13 UNL     1      44.123 -48.133  65.986  1.00  0.00     0.275 HD
ATOM     13  H12 UNL     1      45.673 -48.253  66.135  1.00  0.00     0.275 HD
ATOM     14  H11 UNL     1      44.731 -48.559  67.487  1.00  0.00     0.275 HD
ENDBRANCH   1  11
BRANCH   1  15
HETATM   15  C10 UNL     1      45.855 -45.936  65.988  1.00  0.00     0.060 C 
HETATM   16  N2  UNL     1      47.065 -45.706  66.369  1.00  0.00    -0.399 N 
ATOM     17  H22 UNL     1      47.373 -45.939  67.313  1.00  0.00     0.156 HD
ATOM     18  H21 UNL     1      47.696 -45.280  65.691  1.00  0.00     0.156 HD
BRANCH  15  19
HETATM   19  C11 UNL     1      45.411 -45.600  64.630  1.00  0.00     0.056 A 
HETATM   20  C12 UNL     1      44.811 -44.425  64.233  1.00  0.00     0.033 A 
HETATM   21  C13 UNL     1      44.539 -44.494  62.873  1.00  0.00     0.019 A 
HETATM   22  C14 UNL     1      44.987 -45.723  62.477  1.00  0.00     0.088 A 
HETATM   23  N3  UNL     1      45.506 -46.375  63.539  1.00  0.00    -0.364 N 
ATOM     24  H3  UNL     1      45.909 -47.311  63.517  1.00  0.00     0.165 HD
ENDBRANCH  15  19
ENDBRANCH   1  15
TORSDOF 6
ENDMDL
MODEL 4
REMARK VINA RESULT: -6.945657814      3.712      5.557
REMARK  6 active torsions:
REMARK  status: ('A' for Active; 'I' for Inactive)
REMARK    1  A    between atoms: O1_2  and  C2_3 
REMARK    2  A    between atoms: C7_8  and  C8_9 
REMARK    3  A    between atoms: C8_9  and  C9_10 
REMARK    4  A    between atoms: C9_10  and  N1_11 
REMARK    5  A    between atoms: C9_10  and  C10_15 
REMARK    6  A    between atoms: C10_15  and  C11_19 
ROOT
HETATM    1  C9  UNL     1      48.175 -45.247  63.286  1.00  0.00     0.239 C 
ENDROOT
BRANCH   1   2
HETATM    2  C8  UNL     1      47.060 -44.648  64.061  1.00  0.00     0.080 C 
BRANCH   2   3
HETATM    3  C7  UNL     1      46.366 -45.504  65.013  1.00  0.00    -0.022 A 
HETATM    4  C2  UNL     1      45.195 -46.120  64.585  1.00  0.00     0.074 A 
HETATM    5  C3  UNL     1      44.465 -46.952  65.397  1.00  0.00     0.037 A 
HETATM    6  C4  UNL     1      44.879 -47.208  66.690  1.00  0.00     0.003 A 
HETATM    7  C5  UNL     1      46.037 -46.612  67.144  1.00  0.00     0.001 A 
HETATM    8  C6  UNL     1      46.755 -45.778  66.304  1.00  0.00     0.010 A 
BRANCH   4   9
HETATM    9  O1  UNL     1      44.736 -45.896  63.297  1.00  0.00    -0.355 OA
HETATM   10  C1  UNL     1      43.708 -44.996  63.001  1.00  0.00     0.210 C 
ENDBRANCH   4   9
ENDBRANCH   2   3
ENDBRANCH   1   2
BRANCH   1  11
HETATM   11  N1  UNL     1      49.339 -44.409  63.174  1.00  0.00    -0.069 N 
ATOM     12  H13 UNL     1      49.067 -43.450  62.960  1.00  0.00     0.275 HD
ATOM     13  H12 UNL     1      49.767 -44.271  64.090  1.00  0.00     0.275 HD
ATOM     14  H11 UNL     1      50.033 -44.739  62.503  1.00  0.00     0.275 HD
ENDBRANCH   1  11
BRANCH   1  15
HETATM   15  C10 UNL     1      47.704 -45.545  61.910  1.00  0.00     0.060 C 
HETATM   16  N2  UNL     1      46.976 -44.655  61.329  1.00  0.00    -0.399 N 
ATOM     17  H22 UNL     1      46.733 -43.784  61.799  1.00  0.00     0.156 HD
ATOM     18  H21 UNL     1      46.652 -44.860  60.384  1.00  0.00     0.156 HD
BRANCH  15  19
HETATM   19  C11 UNL     1      48.054 -46.800  61.234  1.00  0.00     0.056 A 
HETATM   20  C12 UNL     1      47.980 -47.047  59.881  1.00  0.00     0.033 A 
HETATM   21  C13 UNL     1      48.394 -48.350  59.636  1.00  0.00     0.019 A 
HETATM   22  C14 UNL     1      48.711 -48.864  60.863  1.00  0.00     0.088 A 
HETATM   23  N3  UNL     1      48.504 -47.925  61.810  1.00  0.00    -0.364 N 
ATOM     24  H3  UNL     1      48.663 -48.050  62.809  1.00  0.00     0.165 HD
ENDBRANCH  15  19
ENDBRANCH   1  15
TORSDOF 6
ENDMDL
MODEL 5
REMARK VINA RESULT: -6.906823073      2.547      6.806
REMARK  6 active torsions:
REMARK  status: ('A' for Active; 'I' for Inactive)
REMARK    1  A    between atoms: O1_2  and  C2_3 
REMARK    2  A    between atoms: C7_8  and  C8_9 
REMARK    3  A    between atoms: C8_9  and  C9_10 
REMARK    4  A    between atoms: C9_10  and  N1_11 
REMARK    5  A    between atoms: C9_10  and  C10_15 
REMARK    6  A    between atoms: C10_15  and  C11_19 
ROOT
HETATM    1  C9  UNL     1      45.936 -45.921  67.090  1.00  0.00     0.239 C 
ENDROOT
BRANCH   1   2
HETATM    2  C8  UNL     1      46.284 -46.632  65.835  1.00  0.00     0.080 C 
BRANCH   2   3
HETATM    3  C7  UNL     1      46.127 -45.903  64.583  1.00  0.00    -0.022 A 
HETATM    4  C2  UNL     1      47.088 -46.107  63.599  1.00  0.00     0.074 A 
HETATM    5  C3  UNL     1      47.035 -45.477  62.381  1.00  0.00     0.037 A 
HETATM    6  C4  UNL     1      46.005 -44.603  62.090  1.00  0.00     0.003 A 
HETATM    7  C5  UNL     1      45.037 -44.380  63.045  1.00  0.00     0.001 A 
HETATM    8  C6  UNL     1      45.113 -45.030  64.266  1.00  0.00     0.010 A 
BRANCH   4   9
HETATM    9  O1  UNL     1      48.142 -46.973  63.841  1.00  0.00    -0.355 OA
HETATM   10  C1  UNL     1      49.235 -47.102  62.977  1.00  0.00     0.210 C 
ENDBRANCH   4   9
ENDBRANCH   2   3
ENDBRANCH   1   2
BRANCH   1  11
HETATM   11  N1  UNL     1      47.038 -45.744  67.998  1.00  0.00    -0.069 N 
ATOM     12  H13 UNL     1      47.460 -46.645  68.224  1.00  0.00     0.275 HD
ATOM     13  H12 UNL     1      47.822 -45.297  67.522  1.00  0.00     0.275 HD
ATOM     14  H11 UNL     1      46.804 -45.237  68.851  1.00  0.00     0.275 HD
ENDBRANCH   1  11
BRANCH   1  15
HETATM   15  C10 UNL     1      44.885 -46.685  67.806  1.00  0.00     0.060 C 
HETATM   16  N2  UNL     1      44.097 -47.415  67.094  1.00  0.00    -0.399 N 
ATOM     17  H22 UNL     1      44.193 -47.461  66.080  1.00  0.00     0.156 HD
ATOM     18  H21 UNL     1      43.374 -47.940  67.586  1.00  0.00     0.156 HD
BRANCH  15  19
HETATM   19  C11 UNL     1      44.746 -46.619  69.266  1.00  0.00     0.056 A 
HETATM   20  C12 UNL     1      45.521 -47.282  70.191  1.00  0.00     0.033 A 
HETATM   21  C13 UNL     1      45.074 -46.962  71.467  1.00  0.00     0.019 A 
HETATM   22  C14 UNL     1      44.027 -46.104  71.278  1.00  0.00     0.088 A 
HETATM   23  N3  UNL     1      43.842 -45.907  69.955  1.00  0.00    -0.364 N 
ATOM     24  H3  UNL     1      43.126 -45.310  69.543  1.00  0.00     0.165 HD
ENDBRANCH  15  19
ENDBRANCH   1  15
TORSDOF 6
ENDMDL
