MODEL 1
REMARK VINA RESULT: -8.288685255      0.000      0.000
REMARK  7 active torsions:
REMARK  status: ('A' for Active; 'I' for Inactive)
REMARK    1  A    between atoms: N1_2  and  C2_4 
REMARK    2  A    between atoms: C2_4  and  C3_5 
REMARK    3  A    between atoms: C2_4  and  C4_10 
REMARK    4  A    between atoms: C3_5  and  N2_6 
REMARK    5  A    between atoms: C4_10  and  O1_11 
REMARK    6  A    between atoms: O1_11  and  C5_12 
REMARK    7  A    between atoms: C8_15  and  C9_16 
ROOT
HETATM    1  C5  UNL     1      45.766 -46.537  65.424  1.00  0.00     0.068 A 
HETATM    2  C6  UNL     1      44.541 -47.041  65.844  1.00  0.00     0.037 A 
HETATM    3  C7  UNL     1      44.258 -47.068  67.205  1.00  0.00     0.016 A 
HETATM    4  C8  UNL     1      45.159 -46.610  68.121  1.00  0.00    -0.009 A 
HETATM    5  C13 UNL     1      46.366 -46.112  67.729  1.00  0.00     0.016 A 
HETATM    6  C14 UNL     1      46.656 -46.081  66.381  1.00  0.00     0.037 A 
ENDROOT
BRANCH   1   7
HETATM    7  O1  UNL     1      46.042 -46.515  64.070  1.00  0.00    -0.349 OA
BRANCH   7   8
HETATM    8  C4  UNL     1      47.102 -45.701  63.576  1.00  0.00     0.202 C 
BRANCH   8   9
HETATM    9  C2  UNL     1      46.525 -44.603  62.741  1.00  0.00     0.126 C 
BRANCH   9  10
HETATM   10  N1  UNL     1      47.060 -44.571  61.408  1.00  0.00    -0.418 N 
HETATM   11  C1  UNL     1      47.441 -45.842  60.879  1.00  0.00     0.140 C 
ATOM     12  H1  UNL     1      47.160 -43.705  60.878  1.00  0.00     0.153 HD
ENDBRANCH   9  10
BRANCH   9  13
HETATM   13  C3  UNL     1      45.014 -44.682  62.771  1.00  0.00     0.256 C 
BRANCH  13  14
HETATM   14  N2  UNL     1      44.576 -43.840  63.883  1.00  0.00    -0.077 N 
ATOM     15  H23 UNL     1      43.566 -43.845  64.021  1.00  0.00     0.274 HD
ATOM     16  H22 UNL     1      44.831 -44.213  64.797  1.00  0.00     0.274 HD
ATOM     17  H21 UNL     1      44.956 -42.909  63.707  1.00  0.00     0.274 HD
ENDBRANCH  13  14
ENDBRANCH   9  13
ENDBRANCH   8   9
ENDBRANCH   7   8
ENDBRANCH   1   7
BRANCH   4  18
HETATM   18  C9  UNL     1      44.803 -46.670  69.547  1.00  0.00     0.042 A 
HETATM   19  C10 UNL     1      45.639 -47.125  70.551  1.00  0.00     0.031 A 
HETATM   20  C11 UNL     1      44.944 -47.027  71.740  1.00  0.00     0.019 A 
HETATM   21  C12 UNL     1      43.683 -46.510  71.461  1.00  0.00     0.088 A 
HETATM   22  N3  UNL     1      43.666 -46.320  70.136  1.00  0.00    -0.365 N 
ATOM     23  H3  UNL     1      42.864 -45.945  69.631  1.00  0.00     0.165 HD
ENDBRANCH   4  18
TORSDOF 7
ENDMDL
MODEL 2
REMARK VINA RESULT: -8.288075487      1.196      1.821
REMARK  7 active torsions:
REMARK  status: ('A' for Active; 'I' for Inactive)
REMARK    1  A    between atoms: N1_2  and  C2_4 
REMARK    2  A    between atoms: C2_4  and  C3_5 
REMARK    3  A    between atoms: C2_4  and  C4_10 
REMARK    4  A    between atoms: C3_5  and  N2_6 
REMARK    5  A    between atoms: C4_10  and  O1_11 
REMARK    6  A    between atoms: O1_11  and  C5_12 
REMARK    7  A    between atoms: C8_15  and  C9_16 
ROOT
HETATM    1  C5  UNL     1      45.816 -46.477  65.276  1.00  0.00     0.068 A 
HETATM    2  C6  UNL     1      44.581 -46.976  65.668  1.00  0.00     0.037 A 
HETATM    3  C7  UNL     1      44.277 -47.025  67.024  1.00  0.00     0.016 A 
HETATM    4  C8  UNL     1      45.168 -46.593  67.961  1.00  0.00    -0.009 A 
HETATM    5  C13 UNL     1      46.385 -46.100  67.597  1.00  0.00     0.016 A 
HETATM    6  C14 UNL     1      46.696 -46.047  66.255  1.00  0.00     0.037 A 
ENDROOT
BRANCH   1   7
HETATM    7  O1  UNL     1      46.113 -46.433  63.927  1.00  0.00    -0.349 OA
BRANCH   7   8
HETATM    8  C4  UNL     1      47.424 -46.069  63.501  1.00  0.00     0.202 C 
BRANCH   8   9
HETATM    9  C2  UNL     1      47.341 -45.451  62.143  1.00  0.00     0.126 C 
BRANCH   9  10
HETATM   10  N1  UNL     1      47.978 -44.166  62.071  1.00  0.00    -0.418 N 
HETATM   11  C1  UNL     1      49.199 -44.055  62.803  1.00  0.00     0.140 C 
ATOM     12  H1  UNL     1      47.588 -43.389  61.536  1.00  0.00     0.153 HD
ENDBRANCH   9  10
BRANCH   9  13
HETATM   13  C3  UNL     1      47.858 -46.427  61.107  1.00  0.00     0.256 C 
BRANCH  13  14
HETATM   14  N2  UNL     1      48.218 -47.647  61.830  1.00  0.00    -0.077 N 
ATOM     15  H23 UNL     1      48.369 -47.496  62.827  1.00  0.00     0.274 HD
ATOM     16  H22 UNL     1      47.446 -48.308  61.917  1.00  0.00     0.274 HD
ATOM     17  H21 UNL     1      49.031 -48.036  61.352  1.00  0.00     0.274 HD
ENDBRANCH  13  14
ENDBRANCH   9  13
ENDBRANCH   8   9
ENDBRANCH   7   8
ENDBRANCH   1   7
BRANCH   4  18
HETATM   18  C9  UNL     1      44.789 -46.675  69.380  1.00  0.00     0.042 A 
HETATM   19  C10 UNL     1      45.639 -47.054  70.404  1.00  0.00     0.031 A 
HETATM   20  C11 UNL     1      44.914 -47.008  71.578  1.00  0.00     0.019 A 
HETATM   21  C12 UNL     1      43.621 -46.599  71.271  1.00  0.00     0.088 A 
HETATM   22  N3  UNL     1      43.615 -46.418  69.944  1.00  0.00    -0.365 N 
ATOM     23  H3  UNL     1      42.795 -46.114  69.422  1.00  0.00     0.165 HD
ENDBRANCH   4  18
TORSDOF 7
ENDMDL
MODEL 3
REMARK VINA RESULT: -8.285021101      1.222      2.129
REMARK  7 active torsions:
REMARK  status: ('A' for Active; 'I' for Inactive)
REMARK    1  A    between atoms: N1_2  and  C2_4 
REMARK    2  A    between atoms: C2_4  and  C3_5 
REMARK    3  A    between atoms: C2_4  and  C4_10 
REMARK    4  A    between atoms: C3_5  and  N2_6 
REMARK    5  A    between atoms: C4_10  and  O1_11 
REMARK    6  A    between atoms: O1_11  and  C5_12 
REMARK    7  A    between atoms: C8_15  and  C9_16 
ROOT
HETATM    1  C5  UNL     1      45.795 -46.499  65.299  1.00  0.00     0.068 A 
HETATM    2  C6  UNL     1      46.688 -46.037  66.257  1.00  0.00     0.037 A 
HETATM    3  C7  UNL     1      46.329 -46.106  67.599  1.00  0.00     0.016 A 
HETATM    4  C8  UNL     1      45.124 -46.618  67.979  1.00  0.00    -0.009 A 
HETATM    5  C13 UNL     1      44.233 -47.077  67.056  1.00  0.00     0.016 A 
HETATM    6  C14 UNL     1      44.580 -47.013  65.722  1.00  0.00     0.037 A 
ENDROOT
BRANCH   1   7
HETATM    7  O1  UNL     1      46.156 -46.426  63.968  1.00  0.00    -0.349 OA
BRANCH   7   8
HETATM    8  C4  UNL     1      47.476 -46.024  63.612  1.00  0.00     0.202 C 
BRANCH   8   9
HETATM    9  C2  UNL     1      47.438 -45.353  62.277  1.00  0.00     0.126 C 
BRANCH   9  10
HETATM   10  N1  UNL     1      48.154 -44.107  62.253  1.00  0.00    -0.418 N 
HETATM   11  C1  UNL     1      49.524 -44.191  62.646  1.00  0.00     0.140 C 
ATOM     12  H1  UNL     1      47.715 -43.229  61.977  1.00  0.00     0.153 HD
ENDBRANCH   9  10
BRANCH   9  13
HETATM   13  C3  UNL     1      47.900 -46.321  61.208  1.00  0.00     0.256 C 
BRANCH  13  14
HETATM   14  N2  UNL     1      48.210 -47.577  61.892  1.00  0.00    -0.077 N 
ATOM     15  H23 UNL     1      49.210 -47.738  62.007  1.00  0.00     0.274 HD
ATOM     16  H22 UNL     1      47.968 -47.568  62.882  1.00  0.00     0.274 HD
ATOM     17  H21 UNL     1      47.739 -48.315  61.368  1.00  0.00     0.274 HD
ENDBRANCH  13  14
ENDBRANCH   9  13
ENDBRANCH   8   9
ENDBRANCH   7   8
ENDBRANCH   1   7
BRANCH   4  18
HETATM   18  C9  UNL     1      44.800 -46.659  69.414  1.00  0.00     0.042 A 
HETATM   19  C10 UNL     1      45.645 -47.134  70.401  1.00  0.00     0.031 A 
HETATM   20  C11 UNL     1      44.982 -47.008  71.605  1.00  0.00     0.019 A 
HETATM   21  C12 UNL     1      43.731 -46.454  71.353  1.00  0.00     0.088 A 
HETATM   22  N3  UNL     1      43.689 -46.271  70.027  1.00  0.00    -0.365 N 
ATOM     23  H3  UNL     1      42.886 -45.875  69.540  1.00  0.00     0.165 HD
ENDBRANCH   4  18
TORSDOF 7
ENDMDL
MODEL 4
REMARK VINA RESULT: -8.271979329      1.275      2.002
REMARK  7 active torsions:
REMARK  status: ('A' for Active; 'I' for Inactive)
REMARK    1  A    between atoms: N1_2  and  C2_4 
REMARK    2  A    between atoms: C2_4  and  C3_5 
REMARK    3  A    between atoms: C2_4  and  C4_10 
REMARK    4  A    between atoms: C3_5  and  N2_6 
REMARK    5  A    between atoms: C4_10  and  O1_11 
REMARK    6  A    between atoms: O1_11  and  C5_12 
REMARK    7  A    between atoms: C8_15  and  C9_16 
ROOT
HETATM    1  C5  UNL     1      45.956 -46.454  65.245  1.00  0.00     0.068 A 
HETATM    2  C6  UNL     1      46.812 -46.046  66.260  1.00  0.00     0.037 A 
HETATM    3  C7  UNL     1      46.382 -46.141  67.579  1.00  0.00     0.016 A 
HETATM    4  C8  UNL     1      45.144 -46.625  67.882  1.00  0.00    -0.009 A 
HETATM    5  C13 UNL     1      44.290 -47.031  66.901  1.00  0.00     0.016 A 
HETATM    6  C14 UNL     1      44.707 -46.941  65.590  1.00  0.00     0.037 A 
ENDROOT
BRANCH   1   7
HETATM    7  O1  UNL     1      46.389 -46.356  63.936  1.00  0.00    -0.349 OA
BRANCH   7   8
HETATM    8  C4  UNL     1      47.757 -46.069  63.661  1.00  0.00     0.202 C 
BRANCH   8   9
HETATM    9  C2  UNL     1      48.032 -46.343  62.217  1.00  0.00     0.126 C 
BRANCH   9  10
HETATM   10  N1  UNL     1      48.302 -47.728  61.950  1.00  0.00    -0.418 N 
HETATM   11  C1  UNL     1      49.466 -48.250  62.591  1.00  0.00     0.140 C 
ATOM     12  H1  UNL     1      47.708 -48.296  61.346  1.00  0.00     0.153 HD
ENDBRANCH   9  10
BRANCH   9  13
HETATM   13  C3  UNL     1      46.906 -45.785  61.371  1.00  0.00     0.256 C 
BRANCH  13  14
HETATM   14  N2  UNL     1      46.914 -44.337  61.574  1.00  0.00    -0.077 N 
ATOM     15  H23 UNL     1      46.440 -44.046  62.429  1.00  0.00     0.274 HD
ATOM     16  H22 UNL     1      47.835 -43.966  61.807  1.00  0.00     0.274 HD
ATOM     17  H21 UNL     1      46.514 -43.925  60.730  1.00  0.00     0.274 HD
ENDBRANCH  13  14
ENDBRANCH   9  13
ENDBRANCH   8   9
ENDBRANCH   7   8
ENDBRANCH   1   7
BRANCH   4  18
HETATM   18  C9  UNL     1      44.745 -46.696  69.296  1.00  0.00     0.042 A 
HETATM   19  C10 UNL     1      45.596 -47.005  70.343  1.00  0.00     0.031 A 
HETATM   20  C11 UNL     1      44.848 -46.972  71.503  1.00  0.00     0.019 A 
HETATM   21  C12 UNL     1      43.540 -46.641  71.166  1.00  0.00     0.088 A 
HETATM   22  N3  UNL     1      43.549 -46.490  69.835  1.00  0.00    -0.365 N 
ATOM     23  H3  UNL     1      42.723 -46.242  69.292  1.00  0.00     0.165 HD
ENDBRANCH   4  18
TORSDOF 7
ENDMDL
MODEL 5
REMARK VINA RESULT: -8.176062880      1.350      1.731
REMARK  7 active torsions:
REMARK  status: ('A' for Active; 'I' for Inactive)
REMARK    1  A    between atoms: N1_2  and  C2_4 
REMARK    2  A    between atoms: C2_4  and  C3_5 
REMARK    3  A    between atoms: C2_4  and  C4_10 
REMARK    4  A    between atoms: C3_5  and  N2_6 
REMARK    5  A    between atoms: C4_10  and  O1_11 
REMARK    6  A    between atoms: O1_11  and  C5_12 
REMARK    7  A    between atoms: C8_15  and  C9_16 
ROOT
HETATM    1  C5  UNL     1      45.813 -46.459  65.264  1.00  0.00     0.068 A 
HETATM    2  C6  UNL     1      44.583 -46.968  65.660  1.00  0.00     0.037 A 
HETATM    3  C7  UNL     1      44.285 -47.024  67.017  1.00  0.00     0.016 A 
HETATM    4  C8  UNL     1      45.177 -46.589  67.952  1.00  0.00    -0.009 A 
HETATM    5  C13 UNL     1      46.390 -46.086  67.585  1.00  0.00     0.016 A 
HETATM    6  C14 UNL     1      46.694 -46.026  66.241  1.00  0.00     0.037 A 
ENDROOT
BRANCH   1   7
HETATM    7  O1  UNL     1      46.104 -46.407  63.914  1.00  0.00    -0.349 OA
BRANCH   7   8
HETATM    8  C4  UNL     1      47.057 -45.466  63.429  1.00  0.00     0.202 C 
BRANCH   8   9
HETATM    9  C2  UNL     1      48.276 -46.198  62.969  1.00  0.00     0.126 C 
BRANCH   9  10
HETATM   10  N1  UNL     1      47.980 -47.245  62.030  1.00  0.00    -0.418 N 
HETATM   11  C1  UNL     1      48.259 -46.930  60.666  1.00  0.00     0.140 C 
ATOM     12  H1  UNL     1      47.599 -48.147  62.317  1.00  0.00     0.153 HD
ENDBRANCH   9  10
BRANCH   9  13
HETATM   13  C3  UNL     1      49.298 -45.209  62.450  1.00  0.00     0.256 C 
BRANCH  13  14
HETATM   14  N2  UNL     1      48.737 -43.877  62.672  1.00  0.00    -0.077 N 
ATOM     15  H23 UNL     1      47.762 -43.796  62.381  1.00  0.00     0.274 HD
ATOM     16  H22 UNL     1      48.594 -43.659  63.658  1.00  0.00     0.274 HD
ATOM     17  H21 UNL     1      49.357 -43.220  62.198  1.00  0.00     0.274 HD
ENDBRANCH  13  14
ENDBRANCH   9  13
ENDBRANCH   8   9
ENDBRANCH   7   8
ENDBRANCH   1   7
BRANCH   4  18
HETATM   18  C9  UNL     1      44.805 -46.679  69.372  1.00  0.00     0.042 A 
HETATM   19  C10 UNL     1      45.667 -47.037  70.394  1.00  0.00     0.031 A 
HETATM   20  C11 UNL     1      44.945 -47.007  71.570  1.00  0.00     0.019 A 
HETATM   21  C12 UNL     1      43.642 -46.629  71.267  1.00  0.00     0.088 A 
HETATM   22  N3  UNL     1      43.628 -46.448  69.940  1.00  0.00    -0.365 N 
ATOM     23  H3  UNL     1      42.799 -46.163  69.420  1.00  0.00     0.165 HD
ENDBRANCH   4  18
TORSDOF 7
ENDMDL
