MODEL 1
REMARK VINA RESULT: -6.478261473      0.000      0.000
REMARK  4 active torsions:
REMARK  status: ('A' for Active; 'I' for Inactive)
REMARK    1  A    between atoms: N1_1  and  C1_5 
REMARK    2  A    between atoms: C1_5  and  C2_6 
REMARK    3  A    between atoms: C6_10  and  C7_11 
REMARK    4  A    between atoms: C7_11  and  N2_12 
ROOT
HETATM    1  C2  UNL     1      -9.067 -31.219  19.067  1.00  0.00     0.017 C 
HETATM    2  C3  UNL     1      -9.516 -32.222  20.160  1.00  0.00     0.007 C 
HETATM    3  C4  UNL     1      -8.360 -33.161  20.208  1.00  0.00     0.001 C 
HETATM    4  C5  UNL     1      -7.882 -33.240  18.764  1.00  0.00     0.007 C 
HETATM    5  C6  UNL     1      -8.775 -32.265  17.975  1.00  0.00     0.020 C 
ENDROOT
BRANCH   5   6
HETATM    6  C7  UNL     1      -8.000 -31.714  16.825  1.00  0.00     0.281 C 
BRANCH   6   7
HETATM    7  N2  UNL     1      -8.630 -31.576  15.581  1.00  0.00     0.122 N 
HETATM    8  C8  UNL     1      -8.994 -30.115  15.408  1.00  0.00     0.280 C 
HETATM    9  C9  UNL     1      -7.689 -29.996  14.667  1.00  0.00     0.100 C 
HETATM   10  C10 UNL     1      -8.032 -31.463  14.316  1.00  0.00     0.406 C 
HETATM   11  F1  UNL     1      -6.986 -32.188  13.891  1.00  0.00    -0.216 F 
ENDBRANCH   6   7
ENDBRANCH   5   6
BRANCH   1  12
HETATM   12  C1  UNL     1     -10.238 -30.351  18.765  1.00  0.00     0.234 C 
BRANCH  12  13
HETATM   13  N1  UNL     1     -11.332 -30.960  18.077  1.00  0.00    -0.079 N 
ATOM     14  H13 UNL     1     -10.993 -31.752  17.531  1.00  0.00     0.274 HD
ATOM     15  H12 UNL     1     -11.933 -31.439  18.749  1.00  0.00     0.274 HD
ATOM     16  H11 UNL     1     -11.899 -30.354  17.485  1.00  0.00     0.274 HD
ENDBRANCH  12  13
ENDBRANCH   1  12
TORSDOF 4
ENDMDL
MODEL 2
REMARK VINA RESULT: -6.187714038      1.477      1.708
REMARK  4 active torsions:
REMARK  status: ('A' for Active; 'I' for Inactive)
REMARK    1  A    between atoms: N1_1  and  C1_5 
REMARK    2  A    between atoms: C1_5  and  C2_6 
REMARK    3  A    between atoms: C6_10  and  C7_11 
REMARK    4  A    between atoms: C7_11  and  N2_12 
ROOT
HETATM    1  C2  UNL     1      -9.118 -31.290  18.648  1.00  0.00     0.017 C 
HETATM    2  C3  UNL     1      -8.931 -32.339  19.775  1.00  0.00     0.007 C 
HETATM    3  C4  UNL     1      -7.852 -33.201  19.215  1.00  0.00     0.001 C 
HETATM    4  C5  UNL     1      -8.130 -33.224  17.718  1.00  0.00     0.007 C 
HETATM    5  C6  UNL     1      -9.340 -32.297  17.504  1.00  0.00     0.020 C 
ENDROOT
BRANCH   5   6
HETATM    6  C7  UNL     1      -9.249 -31.678  16.149  1.00  0.00     0.281 C 
BRANCH   6   7
HETATM    7  N2  UNL     1      -8.026 -31.144  15.724  1.00  0.00     0.122 N 
HETATM    8  C8  UNL     1      -7.519 -32.000  14.581  1.00  0.00     0.280 C 
HETATM    9  C9  UNL     1      -8.179 -30.989  13.682  1.00  0.00     0.100 C 
HETATM   10  C10 UNL     1      -7.809 -30.058  14.861  1.00  0.00     0.406 C 
HETATM   11  F1  UNL     1      -8.492 -28.904  14.889  1.00  0.00    -0.216 F 
ENDBRANCH   6   7
ENDBRANCH   5   6
BRANCH   1  12
HETATM   12  C1  UNL     1     -10.330 -30.496  18.989  1.00  0.00     0.234 C 
BRANCH  12  13
HETATM   13  N1  UNL     1     -10.116 -29.166  19.466  1.00  0.00    -0.079 N 
ATOM     14  H13 UNL     1      -9.568 -29.196  20.325  1.00  0.00     0.274 HD
ATOM     15  H12 UNL     1      -9.467 -28.681  18.846  1.00  0.00     0.274 HD
ATOM     16  H11 UNL     1     -10.945 -28.590  19.610  1.00  0.00     0.274 HD
ENDBRANCH  12  13
ENDBRANCH   1  12
TORSDOF 4
ENDMDL
MODEL 3
REMARK VINA RESULT: -6.113189098      1.429      1.678
REMARK  4 active torsions:
REMARK  status: ('A' for Active; 'I' for Inactive)
REMARK    1  A    between atoms: N1_1  and  C1_5 
REMARK    2  A    between atoms: C1_5  and  C2_6 
REMARK    3  A    between atoms: C6_10  and  C7_11 
REMARK    4  A    between atoms: C7_11  and  N2_12 
ROOT
HETATM    1  C2  UNL     1      -9.487 -31.344  18.131  1.00  0.00     0.017 C 
HETATM    2  C3  UNL     1      -9.288 -31.769  19.608  1.00  0.00     0.007 C 
HETATM    3  C4  UNL     1      -7.846 -32.145  19.627  1.00  0.00     0.001 C 
HETATM    4  C5  UNL     1      -7.602 -32.761  18.256  1.00  0.00     0.007 C 
HETATM    5  C6  UNL     1      -8.936 -32.635  17.498  1.00  0.00     0.020 C 
ENDROOT
BRANCH   5   6
HETATM    6  C7  UNL     1      -8.658 -32.503  16.038  1.00  0.00     0.281 C 
BRANCH   6   7
HETATM    7  N2  UNL     1      -7.669 -31.608  15.609  1.00  0.00     0.122 N 
HETATM    8  C8  UNL     1      -7.272 -31.998  14.200  1.00  0.00     0.280 C 
HETATM    9  C9  UNL     1      -8.278 -30.971  13.754  1.00  0.00     0.100 C 
HETATM   10  C10 UNL     1      -7.840 -30.317  15.085  1.00  0.00     0.406 C 
HETATM   11  F1  UNL     1      -8.698 -29.401  15.559  1.00  0.00    -0.216 F 
ENDBRANCH   6   7
ENDBRANCH   5   6
BRANCH   1  12
HETATM   12  C1  UNL     1     -10.950 -31.156  17.925  1.00  0.00     0.234 C 
BRANCH  12  13
HETATM   13  N1  UNL     1     -11.538 -31.834  16.814  1.00  0.00    -0.079 N 
ATOM     14  H13 UNL     1     -12.474 -32.152  17.065  1.00  0.00     0.274 HD
ATOM     15  H12 UNL     1     -11.759 -31.160  16.080  1.00  0.00     0.274 HD
ATOM     16  H11 UNL     1     -11.010 -32.611  16.417  1.00  0.00     0.274 HD
ENDBRANCH  12  13
ENDBRANCH   1  12
TORSDOF 4
ENDMDL
MODEL 4
REMARK VINA RESULT: -6.102052732      0.993      1.163
REMARK  4 active torsions:
REMARK  status: ('A' for Active; 'I' for Inactive)
REMARK    1  A    between atoms: N1_1  and  C1_5 
REMARK    2  A    between atoms: C1_5  and  C2_6 
REMARK    3  A    between atoms: C6_10  and  C7_11 
REMARK    4  A    between atoms: C7_11  and  N2_12 
ROOT
HETATM    1  C2  UNL     1      -9.136 -31.145  19.424  1.00  0.00     0.017 C 
HETATM    2  C3  UNL     1      -9.894 -32.080  20.401  1.00  0.00     0.007 C 
HETATM    3  C4  UNL     1      -8.837 -33.066  20.764  1.00  0.00     0.001 C 
HETATM    4  C5  UNL     1      -8.021 -33.227  19.488  1.00  0.00     0.007 C 
HETATM    5  C6  UNL     1      -8.638 -32.249  18.472  1.00  0.00     0.020 C 
ENDROOT
BRANCH   5   6
HETATM    6  C7  UNL     1      -7.575 -31.783  17.534  1.00  0.00     0.281 C 
BRANCH   6   7
HETATM    7  N2  UNL     1      -7.668 -32.117  16.177  1.00  0.00     0.122 N 
HETATM    8  C8  UNL     1      -9.138 -32.256  15.835  1.00  0.00     0.280 C 
HETATM    9  C9  UNL     1      -9.053 -30.821  15.390  1.00  0.00     0.100 C 
HETATM   10  C10 UNL     1      -7.606 -31.258  15.068  1.00  0.00     0.406 C 
HETATM   11  F1  UNL     1      -6.740 -30.242  14.929  1.00  0.00    -0.216 F 
ENDBRANCH   6   7
ENDBRANCH   5   6
BRANCH   1  12
HETATM   12  C1  UNL     1     -10.148 -30.240  18.813  1.00  0.00     0.234 C 
BRANCH  12  13
HETATM   13  N1  UNL     1     -11.302 -30.857  18.238  1.00  0.00    -0.079 N 
ATOM     14  H13 UNL     1     -11.039 -31.750  17.821  1.00  0.00     0.274 HD
ATOM     15  H12 UNL     1     -11.925 -31.174  18.982  1.00  0.00     0.274 HD
ATOM     16  H11 UNL     1     -11.830 -30.307  17.562  1.00  0.00     0.274 HD
ENDBRANCH  12  13
ENDBRANCH   1  12
TORSDOF 4
ENDMDL
MODEL 5
REMARK VINA RESULT: -5.859190994      1.949      2.741
REMARK  4 active torsions:
REMARK  status: ('A' for Active; 'I' for Inactive)
REMARK    1  A    between atoms: N1_1  and  C1_5 
REMARK    2  A    between atoms: C1_5  and  C2_6 
REMARK    3  A    between atoms: C6_10  and  C7_11 
REMARK    4  A    between atoms: C7_11  and  N2_12 
ROOT
HETATM    1  C2  UNL     1      -9.401 -32.177  18.459  1.00  0.00     0.017 C 
HETATM    2  C3  UNL     1     -10.424 -31.189  19.075  1.00  0.00     0.007 C 
HETATM    3  C4  UNL     1     -11.394 -31.016  17.956  1.00  0.00     0.001 C 
HETATM    4  C5  UNL     1     -10.533 -31.077  16.702  1.00  0.00     0.007 C 
HETATM    5  C6  UNL     1      -9.100 -31.354  17.192  1.00  0.00     0.020 C 
ENDROOT
BRANCH   5   6
HETATM    6  C7  UNL     1      -8.367 -32.129  16.148  1.00  0.00     0.281 C 
BRANCH   6   7
HETATM    7  N2  UNL     1      -7.383 -31.486  15.387  1.00  0.00     0.122 N 
HETATM    8  C8  UNL     1      -7.364 -32.130  14.015  1.00  0.00     0.280 C 
HETATM    9  C9  UNL     1      -8.291 -31.017  13.606  1.00  0.00     0.100 C 
HETATM   10  C10 UNL     1      -7.483 -30.270  14.692  1.00  0.00     0.406 C 
HETATM   11  F1  UNL     1      -8.079 -29.163  15.160  1.00  0.00    -0.216 F 
ENDBRANCH   6   7
ENDBRANCH   5   6
BRANCH   1  12
HETATM   12  C1  UNL     1      -8.253 -32.259  19.404  1.00  0.00     0.234 C 
BRANCH  12  13
HETATM   13  N1  UNL     1      -7.987 -33.536  19.987  1.00  0.00    -0.079 N 
ATOM     14  H13 UNL     1      -8.849 -33.919  20.375  1.00  0.00     0.274 HD
ATOM     15  H12 UNL     1      -7.795 -34.215  19.249  1.00  0.00     0.274 HD
ATOM     16  H11 UNL     1      -7.248 -33.577  20.689  1.00  0.00     0.274 HD
ENDBRANCH  12  13
ENDBRANCH   1  12
TORSDOF 4
ENDMDL
