MODEL 1
REMARK VINA RESULT: -6.937334968      0.000      0.000
REMARK  6 active torsions:
REMARK  status: ('A' for Active; 'I' for Inactive)
REMARK    1  A    between atoms: N1_1  and  C1_4 
REMARK    2  A    between atoms: N3_7  and  C2_8 
REMARK    3  A    between atoms: C2_8  and  C3_9 
REMARK    4  A    between atoms: C3_9  and  C4_10 
REMARK    5  A    between atoms: C4_10  and  C5_11 
REMARK    6  A    between atoms: C5_11  and  N4_12 
ROOT
HETATM    1  C1  UNL     1       2.418  35.813 103.572  1.00  0.00     0.690 A 
HETATM    2  N2  UNL     1       1.828  35.598 102.390  1.00  0.00    -0.131 N 
ATOM      3  H2  UNL     1       1.688  36.386 101.758  1.00  0.00     0.206 HD
HETATM    4  N3  UNL     1       1.420  34.387 102.010  1.00  0.00    -0.288 N 
HETATM    5  C9  UNL     1       1.609  33.339 102.853  1.00  0.00     0.128 A 
HETATM    6  C10 UNL     1       2.214  33.544 104.075  1.00  0.00     0.125 A 
HETATM    7  N6  UNL     1       2.618  34.800 104.425  1.00  0.00    -0.200 N 
ATOM      8  H6  UNL     1       3.067  34.965 105.325  1.00  0.00     0.183 HD
ENDROOT
BRANCH   4   9
HETATM    9  C2  UNL     1       0.788  34.138 100.747  1.00  0.00     0.149 C 
BRANCH   9  10
HETATM   10  C3  UNL     1       0.024  35.351 100.244  1.00  0.00     0.023 C 
BRANCH  10  11
HETATM   11  C4  UNL     1      -1.455  35.221 100.538  1.00  0.00     0.022 C 
BRANCH  11  12
HETATM   12  C5  UNL     1      -1.798  36.212 101.616  1.00  0.00     0.129 C 
BRANCH  12  13
HETATM   13  N4  UNL     1      -2.156  35.596 102.866  1.00  0.00    -0.352 N 
HETATM   14  C6  UNL     1      -3.147  34.722 103.145  1.00  0.00     0.108 A 
HETATM   15  C7  UNL     1      -3.138  34.385 104.468  1.00  0.00     0.106 A 
HETATM   16  N5  UNL     1      -2.119  35.065 105.018  1.00  0.00    -0.361 N 
HETATM   17  C8  UNL     1      -1.528  35.798 104.038  1.00  0.00     0.182 A 
ATOM     18  H5  UNL     1      -1.839  35.036 105.998  1.00  0.00     0.166 HD
ENDBRANCH  12  13
ENDBRANCH  11  12
ENDBRANCH  10  11
ENDBRANCH   9  10
ENDBRANCH   4   9
BRANCH   1  19
HETATM   19  N1  UNL     1       2.807  36.990 103.923  1.00  0.00    -0.233 N 
ATOM     20  H12 UNL     1       3.456  37.486 103.312  1.00  0.00     0.174 HD
ATOM     21  H11 UNL     1       2.479  37.423 104.787  1.00  0.00     0.174 HD
ENDBRANCH   1  19
TORSDOF 6
ENDMDL
MODEL 2
REMARK VINA RESULT: -6.674524583      1.506      4.633
REMARK  6 active torsions:
REMARK  status: ('A' for Active; 'I' for Inactive)
REMARK    1  A    between atoms: N1_1  and  C1_4 
REMARK    2  A    between atoms: N3_7  and  C2_8 
REMARK    3  A    between atoms: C2_8  and  C3_9 
REMARK    4  A    between atoms: C3_9  and  C4_10 
REMARK    5  A    between atoms: C4_10  and  C5_11 
REMARK    6  A    between atoms: C5_11  and  N4_12 
ROOT
HETATM    1  C1  UNL     1      -1.535  34.895 104.084  1.00  0.00     0.690 A 
HETATM    2  N2  UNL     1      -0.994  36.120 104.074  1.00  0.00    -0.131 N 
ATOM      3  H2  UNL     1      -0.615  36.498 104.942  1.00  0.00     0.206 HD
HETATM    4  N3  UNL     1      -0.934  36.860 102.967  1.00  0.00    -0.288 N 
HETATM    5  C9  UNL     1      -1.438  36.354 101.813  1.00  0.00     0.128 A 
HETATM    6  C10 UNL     1      -1.999  35.095 101.806  1.00  0.00     0.125 A 
HETATM    7  N6  UNL     1      -2.041  34.369 102.962  1.00  0.00    -0.200 N 
ATOM      8  H6  UNL     1      -2.452  33.436 102.970  1.00  0.00     0.183 HD
ENDROOT
BRANCH   4   9
HETATM    9  C2  UNL     1      -0.357  38.173 102.939  1.00  0.00     0.149 C 
BRANCH   9  10
HETATM   10  C3  UNL     1       0.981  38.223 103.656  1.00  0.00     0.023 C 
BRANCH  10  11
HETATM   11  C4  UNL     1       2.069  37.585 102.819  1.00  0.00     0.022 C 
BRANCH  11  12
HETATM   12  C5  UNL     1       2.682  36.477 103.630  1.00  0.00     0.129 C 
BRANCH  12  13
HETATM   13  N4  UNL     1       2.224  35.168 103.247  1.00  0.00    -0.352 N 
HETATM   14  C6  UNL     1       2.143  34.033 103.976  1.00  0.00     0.108 A 
HETATM   15  C7  UNL     1       1.650  33.007 103.223  1.00  0.00     0.106 A 
HETATM   16  N5  UNL     1       1.422  33.518 102.002  1.00  0.00    -0.361 N 
HETATM   17  C8  UNL     1       1.774  34.830 102.026  1.00  0.00     0.182 A 
ATOM     18  H5  UNL     1       1.051  33.010 101.199  1.00  0.00     0.166 HD
ENDBRANCH  12  13
ENDBRANCH  11  12
ENDBRANCH  10  11
ENDBRANCH   9  10
ENDBRANCH   4   9
BRANCH   1  19
HETATM   19  N1  UNL     1      -1.584  34.193 105.163  1.00  0.00    -0.233 N 
ATOM     20  H12 UNL     1      -2.393  34.305 105.775  1.00  0.00     0.174 HD
ATOM     21  H11 UNL     1      -0.840  33.539 105.406  1.00  0.00     0.174 HD
ENDBRANCH   1  19
TORSDOF 6
ENDMDL
MODEL 3
REMARK VINA RESULT: -6.662274485      2.235      3.551
REMARK  6 active torsions:
REMARK  status: ('A' for Active; 'I' for Inactive)
REMARK    1  A    between atoms: N1_1  and  C1_4 
REMARK    2  A    between atoms: N3_7  and  C2_8 
REMARK    3  A    between atoms: C2_8  and  C3_9 
REMARK    4  A    between atoms: C3_9  and  C4_10 
REMARK    5  A    between atoms: C4_10  and  C5_11 
REMARK    6  A    between atoms: C5_11  and  N4_12 
ROOT
HETATM    1  C1  UNL     1       3.291  33.966 102.426  1.00  0.00     0.690 A 
HETATM    2  N2  UNL     1       2.300  34.327 101.600  1.00  0.00    -0.131 N 
ATOM      3  H2  UNL     1       2.536  34.695 100.679  1.00  0.00     0.206 HD
HETATM    4  N3  UNL     1       1.017  34.220 101.944  1.00  0.00    -0.288 N 
HETATM    5  C9  UNL     1       0.706  33.729 103.170  1.00  0.00     0.128 A 
HETATM    6  C10 UNL     1       1.714  33.353 104.032  1.00  0.00     0.125 A 
HETATM    7  N6  UNL     1       3.016  33.478 103.642  1.00  0.00    -0.200 N 
ATOM      8  H6  UNL     1       3.772  33.203 104.270  1.00  0.00     0.183 HD
ENDROOT
BRANCH   4   9
HETATM    9  C2  UNL     1      -0.057  34.601 101.072  1.00  0.00     0.149 C 
BRANCH   9  10
HETATM   10  C3  UNL     1      -1.291  35.036 101.845  1.00  0.00     0.023 C 
BRANCH  10  11
HETATM   11  C4  UNL     1      -1.490  36.533 101.753  1.00  0.00     0.022 C 
BRANCH  11  12
HETATM   12  C5  UNL     1      -0.809  37.161 102.938  1.00  0.00     0.129 C 
BRANCH  12  13
HETATM   13  N4  UNL     1       0.258  38.056 102.576  1.00  0.00    -0.352 N 
HETATM   14  C6  UNL     1       1.574  37.806 102.402  1.00  0.00     0.108 A 
HETATM   15  C7  UNL     1       2.243  38.945 102.060  1.00  0.00     0.106 A 
HETATM   16  N5  UNL     1       1.321  39.921 102.021  1.00  0.00    -0.361 N 
HETATM   17  C8  UNL     1       0.119  39.372 102.336  1.00  0.00     0.182 A 
ATOM     18  H5  UNL     1       1.494  40.900 101.795  1.00  0.00     0.166 HD
ENDBRANCH  12  13
ENDBRANCH  11  12
ENDBRANCH  10  11
ENDBRANCH   9  10
ENDBRANCH   4   9
BRANCH   1  19
HETATM   19  N1  UNL     1       4.527  34.075 102.078  1.00  0.00    -0.233 N 
ATOM     20  H12 UNL     1       4.774  34.790 101.394  1.00  0.00     0.174 HD
ATOM     21  H11 UNL     1       5.246  33.468 102.472  1.00  0.00     0.174 HD
ENDBRANCH   1  19
TORSDOF 6
ENDMDL
MODEL 4
REMARK VINA RESULT: -6.575319273      2.255      3.964
REMARK  6 active torsions:
REMARK  status: ('A' for Active; 'I' for Inactive)
REMARK    1  A    between atoms: N1_1  and  C1_4 
REMARK    2  A    between atoms: N3_7  and  C2_8 
REMARK    3  A    between atoms: C2_8  and  C3_9 
REMARK    4  A    between atoms: C3_9  and  C4_10 
REMARK    5  A    between atoms: C4_10  and  C5_11 
REMARK    6  A    between atoms: C5_11  and  N4_12 
ROOT
HETATM    1  C1  UNL     1       1.967  33.566 103.885  1.00  0.00     0.690 A 
HETATM    2  N2  UNL     1       0.722  33.760 104.338  1.00  0.00    -0.131 N 
ATOM      3  H2  UNL     1       0.538  33.654 105.335  1.00  0.00     0.206 HD
HETATM    4  N3  UNL     1      -0.285  34.085 103.527  1.00  0.00    -0.288 N 
HETATM    5  C9  UNL     1      -0.037  34.226 102.200  1.00  0.00     0.128 A 
HETATM    6  C10 UNL     1       1.240  34.030 101.717  1.00  0.00     0.125 A 
HETATM    7  N6  UNL     1       2.243  33.698 102.581  1.00  0.00    -0.200 N 
ATOM      8  H6  UNL     1       3.192  33.551 102.238  1.00  0.00     0.183 HD
ENDROOT
BRANCH   4   9
HETATM    9  C2  UNL     1      -1.624  34.297 103.994  1.00  0.00     0.149 C 
BRANCH   9  10
HETATM   10  C3  UNL     1      -2.218  35.588 103.456  1.00  0.00     0.023 C 
BRANCH  10  11
HETATM   11  C4  UNL     1      -1.465  36.791 103.980  1.00  0.00     0.022 C 
BRANCH  11  12
HETATM   12  C5  UNL     1      -1.426  37.822 102.886  1.00  0.00     0.129 C 
BRANCH  12  13
HETATM   13  N4  UNL     1      -0.106  38.328 102.623  1.00  0.00    -0.352 N 
HETATM   14  C6  UNL     1       1.084  37.688 102.642  1.00  0.00     0.108 A 
HETATM   15  C7  UNL     1       2.101  38.544 102.332  1.00  0.00     0.106 A 
HETATM   16  N5  UNL     1       1.527  39.740 102.117  1.00  0.00    -0.361 N 
HETATM   17  C8  UNL     1       0.188  39.599 102.295  1.00  0.00     0.182 A 
ATOM     18  H5  UNL     1       2.012  40.601 101.864  1.00  0.00     0.166 HD
ENDBRANCH  12  13
ENDBRANCH  11  12
ENDBRANCH  10  11
ENDBRANCH   9  10
ENDBRANCH   4   9
BRANCH   1  19
HETATM   19  N1  UNL     1       2.929  33.252 104.683  1.00  0.00    -0.233 N 
ATOM     20  H12 UNL     1       3.666  32.641 104.332  1.00  0.00     0.174 HD
ATOM     21  H11 UNL     1       2.961  33.601 105.641  1.00  0.00     0.174 HD
ENDBRANCH   1  19
TORSDOF 6
ENDMDL
MODEL 5
REMARK VINA RESULT: -6.529501654      2.012      4.643
REMARK  6 active torsions:
REMARK  status: ('A' for Active; 'I' for Inactive)
REMARK    1  A    between atoms: N1_1  and  C1_4 
REMARK    2  A    between atoms: N3_7  and  C2_8 
REMARK    3  A    between atoms: C2_8  and  C3_9 
REMARK    4  A    between atoms: C3_9  and  C4_10 
REMARK    5  A    between atoms: C4_10  and  C5_11 
REMARK    6  A    between atoms: C5_11  and  N4_12 
ROOT
HETATM    1  C1  UNL     1      -2.056  34.560 104.123  1.00  0.00     0.690 A 
HETATM    2  N2  UNL     1      -0.845  34.014 104.289  1.00  0.00    -0.131 N 
ATOM      3  H2  UNL     1      -0.579  33.678 105.213  1.00  0.00     0.206 HD
HETATM    4  N3  UNL     1       0.024  33.896 103.284  1.00  0.00    -0.288 N 
HETATM    5  C9  UNL     1      -0.334  34.344 102.054  1.00  0.00     0.128 A 
HETATM    6  C10 UNL     1      -1.577  34.909 101.866  1.00  0.00     0.125 A 
HETATM    7  N6  UNL     1      -2.438  35.011 102.921  1.00  0.00    -0.200 N 
ATOM      8  H6  UNL     1      -3.361  35.426 102.795  1.00  0.00     0.183 HD
ENDROOT
BRANCH   4   9
HETATM    9  C2  UNL     1       1.325  33.314 103.444  1.00  0.00     0.149 C 
BRANCH   9  10
HETATM   10  C3  UNL     1       2.432  34.278 103.050  1.00  0.00     0.023 C 
BRANCH  10  11
HETATM   11  C4  UNL     1       2.513  35.437 104.020  1.00  0.00     0.022 C 
BRANCH  11  12
HETATM   12  C5  UNL     1       2.959  36.649 103.250  1.00  0.00     0.129 C 
BRANCH  12  13
HETATM   13  N4  UNL     1       1.914  37.618 103.054  1.00  0.00    -0.352 N 
HETATM   14  C6  UNL     1       1.921  38.764 102.337  1.00  0.00     0.108 A 
HETATM   15  C7  UNL     1       0.713  39.394 102.418  1.00  0.00     0.106 A 
HETATM   16  N5  UNL     1      -0.058  38.621 103.201  1.00  0.00    -0.361 N 
HETATM   17  C8  UNL     1       0.680  37.546 103.582  1.00  0.00     0.182 A 
ATOM     18  H5  UNL     1      -1.025  38.809 103.462  1.00  0.00     0.166 HD
ENDBRANCH  12  13
ENDBRANCH  11  12
ENDBRANCH  10  11
ENDBRANCH   9  10
ENDBRANCH   4   9
BRANCH   1  19
HETATM   19  N1  UNL     1      -2.884  34.666 105.104  1.00  0.00    -0.233 N 
ATOM     20  H12 UNL     1      -3.196  33.812 105.567  1.00  0.00     0.174 HD
ATOM     21  H11 UNL     1      -3.224  35.575 105.417  1.00  0.00     0.174 HD
ENDBRANCH   1  19
TORSDOF 6
ENDMDL
