MODEL 1
REMARK VINA RESULT: -6.052533244      0.000      0.000
REMARK  5 active torsions:
REMARK  status: ('A' for Active; 'I' for Inactive)
REMARK    1  A    between atoms: C1_2  and  O2_3 
REMARK       I    between atoms: C1_2  and  N1_11 
REMARK    2  A    between atoms: O2_3  and  C2_4 
REMARK    3  A    between atoms: C2_4  and  C3_5 
REMARK    4  A    between atoms: C13_16  and  C14_17 
REMARK    5  A    between atoms: C16_19  and  C17_20 
ROOT
HETATM    1  O1  UNL     1      34.543  12.734  -6.493  1.00  0.00    -0.238 OA
HETATM    2  C1  UNL     1      34.932  11.929  -5.572  1.00  0.00     0.363 C 
HETATM    3  N1  UNL     1      34.682  10.545  -5.690  1.00  0.00    -0.318 N 
HETATM    4  C9  UNL     1      35.111   9.637  -4.671  1.00  0.00     0.129 C 
HETATM    5  C10 UNL     1      36.010   8.605  -5.288  1.00  0.00     0.020 C 
HETATM    6  C11 UNL     1      35.493   8.035  -6.567  1.00  0.00     0.004 C 
HETATM    7  C12 UNL     1      34.896   9.024  -7.501  1.00  0.00     0.032 C 
HETATM    8  C13 UNL     1      33.993  10.034  -6.835  1.00  0.00     0.141 C 
ENDROOT
BRANCH   8   9
HETATM    9  C14 UNL     1      32.715   9.420  -6.425  1.00  0.00     0.050 A 
HETATM   10  C15 UNL     1      32.197   8.249  -6.873  1.00  0.00     0.055 A 
HETATM   11  C16 UNL     1      30.989   8.060  -6.224  1.00  0.00     0.032 A 
HETATM   12  N2  UNL     1      30.805   9.112  -5.408  1.00  0.00    -0.304 N 
HETATM   13  N3  UNL     1      31.828   9.914  -5.529  1.00  0.00    -0.303 N 
ATOM     14  H2  UNL     1      30.002   9.259  -4.796  1.00  0.00     0.186 HD
ATOM     15  H3  UNL     1      31.943  10.790  -5.020  1.00  0.00     0.186 HD
BRANCH  11  16
HETATM   16  C17 UNL     1      30.030   6.939  -6.357  1.00  0.00     0.037 C 
HETATM   17  C18 UNL     1      28.620   7.431  -6.143  1.00  0.00     0.011 C 
HETATM   18  C19 UNL     1      27.881   7.741  -7.415  1.00  0.00     0.001 C 
HETATM   19  C20 UNL     1      27.908   6.646  -8.428  1.00  0.00     0.000 C 
HETATM   20  C21 UNL     1      28.838   5.550  -7.959  1.00  0.00     0.001 C 
HETATM   21  C22 UNL     1      30.180   6.229  -7.685  1.00  0.00     0.011 C 
ENDBRANCH  11  16
ENDBRANCH   8   9
BRANCH   2  22
HETATM   22  O2  UNL     1      35.582  12.507  -4.514  1.00  0.00    -0.304 OA
BRANCH  22  23
HETATM   23  C2  UNL     1      36.927  12.906  -4.455  1.00  0.00     0.185 C 
BRANCH  23  24
HETATM   24  C3  UNL     1      37.617  12.601  -3.161  1.00  0.00     0.010 C 
HETATM   25  C4  UNL     1      38.189  13.908  -2.624  1.00  0.00     0.007 C 
HETATM   26  C5  UNL     1      38.103  13.994  -1.130  1.00  0.00     0.000 C 
HETATM   27  C6  UNL     1      38.360  12.664  -0.464  1.00  0.00     0.000 C 
HETATM   28  C7  UNL     1      37.411  11.606  -0.920  1.00  0.00     0.000 C 
HETATM   29  C8  UNL     1      36.656  11.991  -2.168  1.00  0.00     0.007 C 
ENDBRANCH  23  24
ENDBRANCH  22  23
ENDBRANCH   2  22
TORSDOF 5
ENDMDL
MODEL 2
REMARK VINA RESULT: -5.863339716      0.648      1.200
REMARK  5 active torsions:
REMARK  status: ('A' for Active; 'I' for Inactive)
REMARK    1  A    between atoms: C1_2  and  O2_3 
REMARK       I    between atoms: C1_2  and  N1_11 
REMARK    2  A    between atoms: O2_3  and  C2_4 
REMARK    3  A    between atoms: C2_4  and  C3_5 
REMARK    4  A    between atoms: C13_16  and  C14_17 
REMARK    5  A    between atoms: C16_19  and  C17_20 
ROOT
HETATM    1  O1  UNL     1      35.155  12.132  -6.317  1.00  0.00    -0.238 OA
HETATM    2  C1  UNL     1      35.591  11.091  -5.705  1.00  0.00     0.363 C 
HETATM    3  N1  UNL     1      35.079   9.815  -6.025  1.00  0.00    -0.318 N 
HETATM    4  C9  UNL     1      35.557   8.648  -5.351  1.00  0.00     0.129 C 
HETATM    5  C10 UNL     1      36.099   7.687  -6.370  1.00  0.00     0.020 C 
HETATM    6  C11 UNL     1      35.217   7.501  -7.560  1.00  0.00     0.004 C 
HETATM    7  C12 UNL     1      34.612   8.748  -8.095  1.00  0.00     0.032 C 
HETATM    8  C13 UNL     1      34.073   9.677  -7.033  1.00  0.00     0.141 C 
ENDROOT
BRANCH   8   9
HETATM    9  C14 UNL     1      32.831   9.147  -6.439  1.00  0.00     0.050 A 
HETATM   10  C15 UNL     1      32.052   8.154  -6.938  1.00  0.00     0.055 A 
HETATM   11  C16 UNL     1      30.995   7.983  -6.061  1.00  0.00     0.032 A 
HETATM   12  N2  UNL     1      31.156   8.868  -5.063  1.00  0.00    -0.304 N 
HETATM   13  N3  UNL     1      32.243   9.554  -5.289  1.00  0.00    -0.303 N 
ATOM     14  H2  UNL     1      30.534   8.984  -4.263  1.00  0.00     0.186 HD
ATOM     15  H3  UNL     1      32.600  10.295  -4.685  1.00  0.00     0.186 HD
BRANCH  11  16
HETATM   16  C17 UNL     1      29.865   7.029  -6.146  1.00  0.00     0.037 C 
HETATM   17  C18 UNL     1      28.555   7.774  -6.195  1.00  0.00     0.011 C 
HETATM   18  C19 UNL     1      28.019   7.976  -7.585  1.00  0.00     0.001 C 
HETATM   19  C20 UNL     1      27.948   6.733  -8.408  1.00  0.00     0.000 C 
HETATM   20  C21 UNL     1      28.609   5.598  -7.658  1.00  0.00     0.001 C 
HETATM   21  C22 UNL     1      30.017   6.084  -7.318  1.00  0.00     0.011 C 
ENDBRANCH  11  16
ENDBRANCH   8   9
BRANCH   2  22
HETATM   22  O2  UNL     1      36.553  11.320  -4.757  1.00  0.00    -0.304 OA
BRANCH  22  23
HETATM   23  C2  UNL     1      37.134  12.550  -4.411  1.00  0.00     0.185 C 
BRANCH  23  24
HETATM   24  C3  UNL     1      37.080  12.883  -2.952  1.00  0.00     0.010 C 
HETATM   25  C4  UNL     1      36.853  11.583  -2.190  1.00  0.00     0.007 C 
HETATM   26  C5  UNL     1      37.596  11.550  -0.889  1.00  0.00     0.000 C 
HETATM   27  C6  UNL     1      37.613  12.896  -0.205  1.00  0.00     0.000 C 
HETATM   28  C7  UNL     1      38.223  13.960  -1.057  1.00  0.00     0.000 C 
HETATM   29  C8  UNL     1      38.359  13.550  -2.502  1.00  0.00     0.007 C 
ENDBRANCH  23  24
ENDBRANCH  22  23
ENDBRANCH   2  22
TORSDOF 5
ENDMDL
MODEL 3
REMARK VINA RESULT: -5.766406522      1.208      1.478
REMARK  5 active torsions:
REMARK  status: ('A' for Active; 'I' for Inactive)
REMARK    1  A    between atoms: C1_2  and  O2_3 
REMARK       I    between atoms: C1_2  and  N1_11 
REMARK    2  A    between atoms: O2_3  and  C2_4 
REMARK    3  A    between atoms: C2_4  and  C3_5 
REMARK    4  A    between atoms: C13_16  and  C14_17 
REMARK    5  A    between atoms: C16_19  and  C17_20 
ROOT
HETATM    1  O1  UNL     1      35.299  12.547  -6.497  1.00  0.00    -0.238 OA
HETATM    2  C1  UNL     1      35.613  11.692  -5.593  1.00  0.00     0.363 C 
HETATM    3  N1  UNL     1      35.532  10.310  -5.867  1.00  0.00    -0.318 N 
HETATM    4  C9  UNL     1      35.880   9.347  -4.868  1.00  0.00     0.129 C 
HETATM    5  C10 UNL     1      36.971   8.466  -5.403  1.00  0.00     0.020 C 
HETATM    6  C11 UNL     1      36.734   7.982  -6.796  1.00  0.00     0.004 C 
HETATM    7  C12 UNL     1      36.199   9.003  -7.734  1.00  0.00     0.032 C 
HETATM    8  C13 UNL     1      35.097   9.857  -7.152  1.00  0.00     0.141 C 
ENDROOT
BRANCH   8   9
HETATM    9  C14 UNL     1      33.841   9.094  -7.023  1.00  0.00     0.050 A 
HETATM   10  C15 UNL     1      32.757   9.435  -6.281  1.00  0.00     0.055 A 
HETATM   11  C16 UNL     1      31.813   8.437  -6.453  1.00  0.00     0.032 A 
HETATM   12  N2  UNL     1      32.342   7.525  -7.286  1.00  0.00    -0.304 N 
HETATM   13  N3  UNL     1      33.542   7.916  -7.621  1.00  0.00    -0.303 N 
ATOM     14  H2  UNL     1      31.885   6.670  -7.602  1.00  0.00     0.186 HD
ATOM     15  H3  UNL     1      34.167   7.407  -8.245  1.00  0.00     0.186 HD
BRANCH  11  16
HETATM   16  C17 UNL     1      30.459   8.331  -5.862  1.00  0.00     0.037 C 
HETATM   17  C18 UNL     1      29.654   9.566  -6.176  1.00  0.00     0.011 C 
HETATM   18  C19 UNL     1      28.751   9.420  -7.370  1.00  0.00     0.001 C 
HETATM   19  C20 UNL     1      27.874   8.214  -7.338  1.00  0.00     0.000 C 
HETATM   20  C21 UNL     1      28.255   7.347  -6.159  1.00  0.00     0.001 C 
HETATM   21  C22 UNL     1      29.751   7.071  -6.309  1.00  0.00     0.011 C 
ENDBRANCH  11  16
ENDBRANCH   8   9
BRANCH   2  22
HETATM   22  O2  UNL     1      36.017  12.218  -4.394  1.00  0.00    -0.304 OA
BRANCH  22  23
HETATM   23  C2  UNL     1      37.183  12.956  -4.136  1.00  0.00     0.185 C 
BRANCH  23  24
HETATM   24  C3  UNL     1      37.822  12.678  -2.810  1.00  0.00     0.010 C 
HETATM   25  C4  UNL     1      38.155  14.020  -2.169  1.00  0.00     0.007 C 
HETATM   26  C5  UNL     1      37.957  14.004  -0.683  1.00  0.00     0.000 C 
HETATM   27  C6  UNL     1      38.365  12.689  -0.065  1.00  0.00     0.000 C 
HETATM   28  C7  UNL     1      37.617  11.532  -0.643  1.00  0.00     0.000 C 
HETATM   29  C8  UNL     1      36.898  11.877  -1.923  1.00  0.00     0.007 C 
ENDBRANCH  23  24
ENDBRANCH  22  23
ENDBRANCH   2  22
TORSDOF 5
ENDMDL
MODEL 4
REMARK VINA RESULT: -5.720851888      3.397      4.986
REMARK  5 active torsions:
REMARK  status: ('A' for Active; 'I' for Inactive)
REMARK    1  A    between atoms: C1_2  and  O2_3 
REMARK       I    between atoms: C1_2  and  N1_11 
REMARK    2  A    between atoms: O2_3  and  C2_4 
REMARK    3  A    between atoms: C2_4  and  C3_5 
REMARK    4  A    between atoms: C13_16  and  C14_17 
REMARK    5  A    between atoms: C16_19  and  C17_20 
ROOT
HETATM    1  O1  UNL     1      34.132   9.240  -4.261  1.00  0.00    -0.238 OA
HETATM    2  C1  UNL     1      34.147   9.388  -5.536  1.00  0.00     0.363 C 
HETATM    3  N1  UNL     1      33.012   9.898  -6.203  1.00  0.00    -0.318 N 
HETATM    4  C9  UNL     1      33.015  10.069  -7.623  1.00  0.00     0.129 C 
HETATM    5  C10 UNL     1      32.723  11.507  -7.939  1.00  0.00     0.020 C 
HETATM    6  C11 UNL     1      31.584  12.080  -7.164  1.00  0.00     0.004 C 
HETATM    7  C12 UNL     1      31.550  11.707  -5.726  1.00  0.00     0.032 C 
HETATM    8  C13 UNL     1      31.840  10.250  -5.460  1.00  0.00     0.141 C 
ENDROOT
BRANCH   8   9
HETATM    9  C14 UNL     1      30.708   9.396  -5.866  1.00  0.00     0.050 A 
HETATM   10  C15 UNL     1      30.772   8.108  -6.289  1.00  0.00     0.055 A 
HETATM   11  C16 UNL     1      29.478   7.701  -6.562  1.00  0.00     0.032 A 
HETATM   12  N2  UNL     1      28.668   8.742  -6.303  1.00  0.00    -0.304 N 
HETATM   13  N3  UNL     1      29.399   9.743  -5.892  1.00  0.00    -0.303 N 
ATOM     14  H2  UNL     1      27.654   8.749  -6.410  1.00  0.00     0.186 HD
ATOM     15  H3  UNL     1      29.035  10.658  -5.627  1.00  0.00     0.186 HD
BRANCH  11  16
HETATM   16  C17 UNL     1      29.004   6.386  -7.052  1.00  0.00     0.037 C 
HETATM   17  C18 UNL     1      29.505   6.140  -8.453  1.00  0.00     0.011 C 
HETATM   18  C19 UNL     1      30.756   5.308  -8.517  1.00  0.00     0.001 C 
HETATM   19  C20 UNL     1      30.690   4.030  -7.750  1.00  0.00     0.000 C 
HETATM   20  C21 UNL     1      29.404   3.989  -6.954  1.00  0.00     0.001 C 
HETATM   21  C22 UNL     1      29.392   5.265  -6.112  1.00  0.00     0.011 C 
ENDBRANCH  11  16
ENDBRANCH   8   9
BRANCH   2  22
HETATM   22  O2  UNL     1      35.310   9.025  -6.162  1.00  0.00    -0.304 OA
BRANCH  22  23
HETATM   23  C2  UNL     1      36.451   8.454  -5.577  1.00  0.00     0.185 C 
BRANCH  23  24
HETATM   24  C3  UNL     1      36.967   7.231  -6.270  1.00  0.00     0.010 C 
HETATM   25  C4  UNL     1      38.069   6.638  -5.399  1.00  0.00     0.007 C 
HETATM   26  C5  UNL     1      38.067   5.140  -5.421  1.00  0.00     0.000 C 
HETATM   27  C6  UNL     1      37.728   4.588  -6.784  1.00  0.00     0.000 C 
HETATM   28  C7  UNL     1      36.399   5.059  -7.276  1.00  0.00     0.000 C 
HETATM   29  C8  UNL     1      35.860   6.226  -6.487  1.00  0.00     0.007 C 
ENDBRANCH  23  24
ENDBRANCH  22  23
ENDBRANCH   2  22
TORSDOF 5
ENDMDL
MODEL 5
REMARK VINA RESULT: -5.652012761      3.880      6.219
REMARK  5 active torsions:
REMARK  status: ('A' for Active; 'I' for Inactive)
REMARK    1  A    between atoms: C1_2  and  O2_3 
REMARK       I    between atoms: C1_2  and  N1_11 
REMARK    2  A    between atoms: O2_3  and  C2_4 
REMARK    3  A    between atoms: C2_4  and  C3_5 
REMARK    4  A    between atoms: C13_16  and  C14_17 
REMARK    5  A    between atoms: C16_19  and  C17_20 
ROOT
HETATM    1  O1  UNL     1      30.813  10.108  -9.253  1.00  0.00    -0.238 OA
HETATM    2  C1  UNL     1      31.106   9.806  -8.041  1.00  0.00     0.363 C 
HETATM    3  N1  UNL     1      30.127   9.242  -7.195  1.00  0.00    -0.318 N 
HETATM    4  C9  UNL     1      30.442   8.899  -5.842  1.00  0.00     0.129 C 
HETATM    5  C10 UNL     1      30.161   7.439  -5.633  1.00  0.00     0.020 C 
HETATM    6  C11 UNL     1      28.850   6.987  -6.187  1.00  0.00     0.004 C 
HETATM    7  C12 UNL     1      28.512   7.533  -7.527  1.00  0.00     0.032 C 
HETATM    8  C13 UNL     1      28.804   9.006  -7.685  1.00  0.00     0.141 C 
ENDROOT
BRANCH   8   9
HETATM    9  C14 UNL     1      27.833   9.827  -6.936  1.00  0.00     0.050 A 
HETATM   10  C15 UNL     1      27.983  11.122  -6.562  1.00  0.00     0.055 A 
HETATM   11  C16 UNL     1      26.833  11.489  -5.885  1.00  0.00     0.032 A 
HETATM   12  N2  UNL     1      26.022  10.417  -5.864  1.00  0.00    -0.304 N 
HETATM   13  N3  UNL     1      26.617   9.436  -6.487  1.00  0.00    -0.303 N 
ATOM     14  H2  UNL     1      25.098  10.377  -5.434  1.00  0.00     0.186 HD
ATOM     15  H3  UNL     1      26.221   8.505  -6.617  1.00  0.00     0.186 HD
BRANCH  11  16
HETATM   16  C17 UNL     1      26.494  12.794  -5.272  1.00  0.00     0.037 C 
HETATM   17  C18 UNL     1      25.440  12.613  -4.208  1.00  0.00     0.011 C 
HETATM   18  C19 UNL     1      25.991  12.507  -2.813  1.00  0.00     0.001 C 
HETATM   19  C20 UNL     1      26.935  13.599  -2.437  1.00  0.00     0.000 C 
HETATM   20  C21 UNL     1      27.223  14.454  -3.651  1.00  0.00     0.001 C 
HETATM   21  C22 UNL     1      27.722  13.493  -4.730  1.00  0.00     0.011 C 
ENDBRANCH  11  16
ENDBRANCH   8   9
BRANCH   2  22
HETATM   22  O2  UNL     1      32.396  10.067  -7.660  1.00  0.00    -0.304 OA
BRANCH  22  23
HETATM   23  C2  UNL     1      33.506   9.213  -7.765  1.00  0.00     0.185 C 
BRANCH  23  24
HETATM   24  C3  UNL     1      34.610   9.496  -6.794  1.00  0.00     0.010 C 
HETATM   25  C4  UNL     1      34.007  10.252  -5.617  1.00  0.00     0.007 C 
HETATM   26  C5  UNL     1      34.632   9.862  -4.311  1.00  0.00     0.000 C 
HETATM   27  C6  UNL     1      36.115   9.613  -4.438  1.00  0.00     0.000 C 
HETATM   28  C7  UNL     1      36.431   8.548  -5.437  1.00  0.00     0.000 C 
HETATM   29  C8  UNL     1      35.262   8.214  -6.330  1.00  0.00     0.007 C 
ENDBRANCH  23  24
ENDBRANCH  22  23
ENDBRANCH   2  22
TORSDOF 5
ENDMDL
