MODEL 1
REMARK VINA RESULT: -3.812364611      0.000      0.000
REMARK  1 active torsions:
REMARK  status: ('A' for Active; 'I' for Inactive)
REMARK    1  A    between atoms: C1_2  and  C2_3 
ROOT
HETATM    1  C2  UNL     1      17.315   1.824  11.717  1.00  0.00     0.196 C 
HETATM    2  C3  UNL     1      16.484   0.897  10.881  1.00  0.00     0.034 C 
HETATM    3  C4  UNL     1      16.890  -0.520  11.309  1.00  0.00     0.004 C 
HETATM    4  C5  UNL     1      18.278  -0.746  10.805  1.00  0.00     0.027 C 
HETATM    5  C6  UNL     1      18.986   0.579  10.509  1.00  0.00     0.232 C 
HETATM    6  N1  UNL     1      18.727   1.555  11.534  1.00  0.00    -0.070 N 
ATOM      7  H11 UNL     1      19.163   1.281  12.415  1.00  0.00     0.277 HD
ATOM      8  H12 UNL     1      19.242   2.418  11.355  1.00  0.00     0.277 HD
ENDROOT
BRANCH   1   9
HETATM    9  C1  UNL     1      17.077   3.272  11.438  1.00  0.00     0.119 C 
HETATM   10  S1  UNL     1      18.416   4.206  12.278  1.00  0.00    -0.096 SA
ENDBRANCH   1   9
TORSDOF 1
ENDMDL
MODEL 2
REMARK VINA RESULT: -3.718817455      4.586      5.379
REMARK  1 active torsions:
REMARK  status: ('A' for Active; 'I' for Inactive)
REMARK    1  A    between atoms: C1_2  and  C2_3 
ROOT
HETATM    1  C2  UNL     1      16.138   2.167  14.715  1.00  0.00     0.196 C 
HETATM    2  C3  UNL     1      15.194   3.143  15.352  1.00  0.00     0.034 C 
HETATM    3  C4  UNL     1      14.982   4.251  14.311  1.00  0.00     0.004 C 
HETATM    4  C5  UNL     1      16.263   5.014  14.220  1.00  0.00     0.027 C 
HETATM    5  C6  UNL     1      17.439   4.193  14.757  1.00  0.00     0.232 C 
HETATM    6  N1  UNL     1      17.368   2.824  14.321  1.00  0.00    -0.070 N 
ATOM      7  H11 UNL     1      17.512   2.755  13.314  1.00  0.00     0.277 HD
ATOM      8  H12 UNL     1      18.181   2.296  14.642  1.00  0.00     0.277 HD
ENDROOT
BRANCH   1   9
HETATM    9  C1  UNL     1      16.488   1.005  15.584  1.00  0.00     0.119 C 
HETATM   10  S1  UNL     1      15.172   0.871  16.856  1.00  0.00    -0.096 SA
ENDBRANCH   1   9
TORSDOF 1
ENDMDL
MODEL 3
REMARK VINA RESULT: -3.716981598      1.707      2.230
REMARK  1 active torsions:
REMARK  status: ('A' for Active; 'I' for Inactive)
REMARK    1  A    between atoms: C1_2  and  C2_3 
ROOT
HETATM    1  C2  UNL     1      18.420   1.887  10.726  1.00  0.00     0.196 C 
HETATM    2  C3  UNL     1      19.058   0.535  10.844  1.00  0.00     0.034 C 
HETATM    3  C4  UNL     1      18.006  -0.462  10.339  1.00  0.00     0.004 C 
HETATM    4  C5  UNL     1      16.918  -0.501  11.362  1.00  0.00     0.027 C 
HETATM    5  C6  UNL     1      16.942   0.747  12.248  1.00  0.00     0.232 C 
HETATM    6  N1  UNL     1      17.181   1.938  11.475  1.00  0.00    -0.070 N 
ATOM      7  H11 UNL     1      16.392   2.136  10.860  1.00  0.00     0.277 HD
ATOM      8  H12 UNL     1      17.146   2.769  12.065  1.00  0.00     0.277 HD
ENDROOT
BRANCH   1   9
HETATM    9  C1  UNL     1      19.289   3.011  11.187  1.00  0.00     0.119 C 
HETATM   10  S1  UNL     1      20.738   3.065  10.061  1.00  0.00    -0.096 SA
ENDBRANCH   1   9
TORSDOF 1
ENDMDL
MODEL 4
REMARK VINA RESULT: -3.645296257      3.116      4.722
REMARK  1 active torsions:
REMARK  status: ('A' for Active; 'I' for Inactive)
REMARK    1  A    between atoms: C1_2  and  C2_3 
ROOT
HETATM    1  C2  UNL     1      16.440   3.023  13.094  1.00  0.00     0.196 C 
HETATM    2  C3  UNL     1      15.491   3.421  14.184  1.00  0.00     0.034 C 
HETATM    3  C4  UNL     1      15.426   4.954  14.136  1.00  0.00     0.004 C 
HETATM    4  C5  UNL     1      16.745   5.461  14.620  1.00  0.00     0.027 C 
HETATM    5  C6  UNL     1      17.828   4.383  14.517  1.00  0.00     0.232 C 
HETATM    6  N1  UNL     1      17.731   3.655  13.279  1.00  0.00    -0.070 N 
ATOM      7  H11 UNL     1      17.960   4.254  12.486  1.00  0.00     0.277 HD
ATOM      8  H12 UNL     1      18.486   2.974  13.197  1.00  0.00     0.277 HD
ENDROOT
BRANCH   1   9
HETATM    9  C1  UNL     1      16.655   1.550  12.983  1.00  0.00     0.119 C 
HETATM   10  S1  UNL     1      16.431   1.107  11.216  1.00  0.00    -0.096 SA
ENDBRANCH   1   9
TORSDOF 1
ENDMDL
MODEL 5
REMARK VINA RESULT: -3.619341545      1.183      1.833
REMARK  1 active torsions:
REMARK  status: ('A' for Active; 'I' for Inactive)
REMARK    1  A    between atoms: C1_2  and  C2_3 
ROOT
HETATM    1  C2  UNL     1      17.493   2.456  10.622  1.00  0.00     0.196 C 
HETATM    2  C3  UNL     1      18.741   1.851  11.192  1.00  0.00     0.034 C 
HETATM    3  C4  UNL     1      18.924   0.515  10.459  1.00  0.00     0.004 C 
HETATM    4  C5  UNL     1      17.843  -0.397  10.941  1.00  0.00     0.027 C 
HETATM    5  C6  UNL     1      16.685   0.390  11.560  1.00  0.00     0.232 C 
HETATM    6  N1  UNL     1      16.367   1.559  10.782  1.00  0.00    -0.070 N 
ATOM      7  H11 UNL     1      15.978   1.298   9.877  1.00  0.00     0.277 HD
ATOM      8  H12 UNL     1      15.563   2.050  11.174  1.00  0.00     0.277 HD
ENDROOT
BRANCH   1   9
HETATM    9  C1  UNL     1      17.128   3.774  11.223  1.00  0.00     0.119 C 
HETATM   10  S1  UNL     1      18.452   4.202  12.420  1.00  0.00    -0.096 SA
ENDBRANCH   1   9
TORSDOF 1
ENDMDL
