MODEL 1
REMARK VINA RESULT: -9.386996459      0.000      0.000
REMARK  5 active torsions:
REMARK  status: ('A' for Active; 'I' for Inactive)
REMARK    1  A    between atoms: O1_1  and  C1_3 
REMARK    2  A    between atoms: C1_3  and  N1_4 
REMARK    3  A    between atoms: C1_3  and  C12_26 
REMARK       I    between atoms: N1_4  and  C2_6 
REMARK       I    between atoms: C2_6  and  N2_7 
REMARK       I    between atoms: C2_6  and  N4_17 
REMARK    4  A    between atoms: N4_17  and  C5_19 
REMARK    5  A    between atoms: C5_19  and  C6_20 
ROOT
HETATM    1  N1  UNL     1       8.126  55.703   1.873  1.00  0.00    -0.308 N 
ATOM      2  H1  UNL     1       7.903  56.697   1.823  1.00  0.00     0.171 HD
HETATM    3  C2  UNL     1       9.154  55.682   1.491  1.00  0.00     0.187 C 
HETATM    4  N2  UNL     1      10.392  55.239   1.095  1.00  0.00    -0.308 N 
ATOM      5  H2  UNL     1      11.100  55.963   1.214  1.00  0.00     0.171 HD
HETATM    6  C3  UNL     1      10.888  54.190   0.629  1.00  0.00     0.157 C 
HETATM    7  N3  UNL     1      12.278  54.090   0.326  1.00  0.00    -0.263 N 
ATOM      8  H3  UNL     1      12.886  54.900   0.206  1.00  0.00     0.180 HD
HETATM    9  S1  UNL     1      12.819  52.485   0.185  1.00  0.00     0.241 S 
HETATM   10  O2  UNL     1      13.355  51.990   1.508  1.00  0.00    -0.205 OA
HETATM   11  O3  UNL     1      13.863  52.348  -0.908  1.00  0.00    -0.205 OA
HETATM   12  C4  UNL     1      11.363  51.577  -0.226  1.00  0.00     0.245 C 
HETATM   13  S2  UNL     1      10.029  52.684   0.279  1.00  0.00    -0.076 SA
HETATM   14  N4  UNL     1       9.358  57.284   1.085  1.00  0.00    -0.337 N 
ATOM     15  H4  UNL     1       9.874  57.978   1.623  1.00  0.00     0.168 HD
ENDROOT
BRANCH   1  16
HETATM   16  C1  UNL     1       6.968  55.179   2.378  1.00  0.00     0.153 C 
BRANCH  16  17
HETATM   17  O1  UNL     1       6.388  55.926   3.344  1.00  0.00    -0.345 OA
ATOM     18  H1  UNL     1       5.503  56.208   3.146  1.00  0.00     0.219 HD
ENDBRANCH  16  17
BRANCH  16  19
HETATM   19  C12 UNL     1       6.212  53.992   2.105  1.00  0.00     0.015 A 
HETATM   20  C13 UNL     1       5.160  53.995   1.188  1.00  0.00     0.016 A 
HETATM   21  C14 UNL     1       4.422  52.877   0.871  1.00  0.00     0.001 A 
HETATM   22  C15 UNL     1       4.689  51.673   1.453  1.00  0.00     0.000 A 
HETATM   23  C16 UNL     1       5.726  51.621   2.375  1.00  0.00     0.001 A 
HETATM   24  C17 UNL     1       6.464  52.769   2.685  1.00  0.00     0.016 A 
ENDBRANCH  16  19
ENDBRANCH   1  16
BRANCH  14  25
HETATM   25  C5  UNL     1       8.694  57.511  -0.127  1.00  0.00     0.102 C 
BRANCH  25  26
HETATM   26  C6  UNL     1       7.604  58.484  -0.108  1.00  0.00    -0.021 A 
HETATM   27  C7  UNL     1       7.937  59.827  -0.361  1.00  0.00     0.013 A 
HETATM   28  C8  UNL     1       6.913  60.775  -0.360  1.00  0.00     0.001 A 
HETATM   29  C9  UNL     1       5.617  60.421  -0.119  1.00  0.00     0.000 A 
HETATM   30  C10 UNL     1       5.340  59.096   0.123  1.00  0.00     0.001 A 
HETATM   31  C11 UNL     1       6.300  58.109   0.137  1.00  0.00     0.013 A 
ENDBRANCH  25  26
ENDBRANCH  14  25
TORSDOF 5
ENDMDL
MODEL 2
REMARK VINA RESULT: -9.079224567      0.847      1.548
REMARK  5 active torsions:
REMARK  status: ('A' for Active; 'I' for Inactive)
REMARK    1  A    between atoms: O1_1  and  C1_3 
REMARK    2  A    between atoms: C1_3  and  N1_4 
REMARK    3  A    between atoms: C1_3  and  C12_26 
REMARK       I    between atoms: N1_4  and  C2_6 
REMARK       I    between atoms: C2_6  and  N2_7 
REMARK       I    between atoms: C2_6  and  N4_17 
REMARK    4  A    between atoms: N4_17  and  C5_19 
REMARK    5  A    between atoms: C5_19  and  C6_20 
ROOT
HETATM    1  N1  UNL     1       8.879  55.384   1.529  1.00  0.00    -0.308 N 
ATOM      2  H1  UNL     1       8.705  56.387   1.478  1.00  0.00     0.171 HD
HETATM    3  C2  UNL     1       9.867  55.301   1.059  1.00  0.00     0.187 C 
HETATM    4  N2  UNL     1      11.040  54.786   0.565  1.00  0.00    -0.308 N 
ATOM      5  H2  UNL     1      11.793  55.473   0.607  1.00  0.00     0.171 HD
HETATM    6  C3  UNL     1      11.438  53.704   0.078  1.00  0.00     0.157 C 
HETATM    7  N3  UNL     1      12.788  53.526  -0.343  1.00  0.00    -0.263 N 
ATOM      8  H3  UNL     1      13.424  54.300  -0.532  1.00  0.00     0.180 HD
HETATM    9  S1  UNL     1      13.230  51.892  -0.499  1.00  0.00     0.241 S 
HETATM   10  O2  UNL     1      13.854  51.389   0.781  1.00  0.00    -0.205 OA
HETATM   11  O3  UNL     1      14.164  51.681  -1.676  1.00  0.00    -0.205 OA
HETATM   12  C4  UNL     1      11.698  51.057  -0.762  1.00  0.00     0.245 C 
HETATM   13  S2  UNL     1      10.473  52.242  -0.164  1.00  0.00    -0.076 SA
HETATM   14  N4  UNL     1      10.117  56.883   0.604  1.00  0.00    -0.337 N 
ATOM     15  H4  UNL     1      10.715  57.557   1.081  1.00  0.00     0.168 HD
ENDROOT
BRANCH   1  16
HETATM   16  C1  UNL     1       7.744  54.931   2.144  1.00  0.00     0.153 C 
BRANCH  16  17
HETATM   17  O1  UNL     1       7.449  55.553   3.307  1.00  0.00    -0.345 OA
ATOM     18  H1  UNL     1       7.451  56.501   3.258  1.00  0.00     0.219 HD
ENDBRANCH  16  17
BRANCH  16  19
HETATM   19  C12 UNL     1       6.774  53.925   1.824  1.00  0.00     0.015 A 
HETATM   20  C13 UNL     1       6.995  52.580   2.126  1.00  0.00     0.016 A 
HETATM   21  C14 UNL     1       6.085  51.582   1.864  1.00  0.00     0.001 A 
HETATM   22  C15 UNL     1       4.886  51.862   1.278  1.00  0.00     0.000 A 
HETATM   23  C16 UNL     1       4.622  53.187   0.956  1.00  0.00     0.001 A 
HETATM   24  C17 UNL     1       5.561  54.188   1.230  1.00  0.00     0.016 A 
ENDBRANCH  16  19
ENDBRANCH   1  16
BRANCH  14  25
HETATM   25  C5  UNL     1       9.362  57.127  -0.550  1.00  0.00     0.102 C 
BRANCH  25  26
HETATM   26  C6  UNL     1       8.358  58.186  -0.466  1.00  0.00    -0.021 A 
HETATM   27  C7  UNL     1       7.116  57.849   0.101  1.00  0.00     0.013 A 
HETATM   28  C8  UNL     1       6.142  58.845   0.204  1.00  0.00     0.001 A 
HETATM   29  C9  UNL     1       6.378  60.116  -0.234  1.00  0.00     0.000 A 
HETATM   30  C10 UNL     1       7.607  60.397  -0.782  1.00  0.00     0.001 A 
HETATM   31  C11 UNL     1       8.612  59.465  -0.913  1.00  0.00     0.013 A 
ENDBRANCH  25  26
ENDBRANCH  14  25
TORSDOF 5
ENDMDL
MODEL 3
REMARK VINA RESULT: -9.069062137      1.145      1.791
REMARK  5 active torsions:
REMARK  status: ('A' for Active; 'I' for Inactive)
REMARK    1  A    between atoms: O1_1  and  C1_3 
REMARK    2  A    between atoms: C1_3  and  N1_4 
REMARK    3  A    between atoms: C1_3  and  C12_26 
REMARK       I    between atoms: N1_4  and  C2_6 
REMARK       I    between atoms: C2_6  and  N2_7 
REMARK       I    between atoms: C2_6  and  N4_17 
REMARK    4  A    between atoms: N4_17  and  C5_19 
REMARK    5  A    between atoms: C5_19  and  C6_20 
ROOT
HETATM    1  N1  UNL     1       8.134  54.826   1.100  1.00  0.00    -0.308 N 
ATOM      2  H1  UNL     1       7.766  55.768   1.228  1.00  0.00     0.171 HD
HETATM    3  C2  UNL     1       9.217  55.005   1.097  1.00  0.00     0.187 C 
HETATM    4  N2  UNL     1      10.574  54.804   1.048  1.00  0.00    -0.308 N 
ATOM      5  H2  UNL     1      11.074  55.519   1.578  1.00  0.00     0.171 HD
HETATM    6  C3  UNL     1      11.365  53.985   0.531  1.00  0.00     0.157 C 
HETATM    7  N3  UNL     1      12.776  54.096   0.704  1.00  0.00    -0.263 N 
ATOM      8  H3  UNL     1      13.239  54.954   1.004  1.00  0.00     0.180 HD
HETATM    9  S1  UNL     1      13.609  52.655   0.357  1.00  0.00     0.241 S 
HETATM   10  O2  UNL     1      13.798  51.840   1.614  1.00  0.00    -0.205 OA
HETATM   11  O3  UNL     1      14.941  52.935  -0.314  1.00  0.00    -0.205 OA
HETATM   12  C4  UNL     1      12.529  51.789  -0.737  1.00  0.00     0.245 C 
HETATM   13  S2  UNL     1      10.931  52.582  -0.455  1.00  0.00    -0.076 SA
HETATM   14  N4  UNL     1       9.248  56.667   1.199  1.00  0.00    -0.337 N 
ATOM     15  H4  UNL     1       9.447  57.213   2.037  1.00  0.00     0.168 HD
ENDROOT
BRANCH   1  16
HETATM   16  C1  UNL     1       6.989  54.081   1.034  1.00  0.00     0.153 C 
BRANCH  16  17
HETATM   17  O1  UNL     1       6.013  54.619   0.269  1.00  0.00    -0.345 OA
ATOM     18  H1  UNL     1       5.341  55.080   0.755  1.00  0.00     0.219 HD
ENDBRANCH  16  17
BRANCH  16  19
HETATM   19  C12 UNL     1       6.584  52.829   1.601  1.00  0.00     0.015 A 
HETATM   20  C13 UNL     1       7.521  51.895   2.046  1.00  0.00     0.016 A 
HETATM   21  C14 UNL     1       7.183  50.691   2.622  1.00  0.00     0.001 A 
HETATM   22  C15 UNL     1       5.877  50.339   2.794  1.00  0.00     0.000 A 
HETATM   23  C16 UNL     1       4.908  51.235   2.364  1.00  0.00     0.001 A 
HETATM   24  C17 UNL     1       5.271  52.453   1.780  1.00  0.00     0.016 A 
ENDBRANCH  16  19
ENDBRANCH   1  16
BRANCH  14  25
HETATM   25  C5  UNL     1       8.952  57.184  -0.068  1.00  0.00     0.102 C 
BRANCH  25  26
HETATM   26  C6  UNL     1       7.964  58.260  -0.125  1.00  0.00    -0.021 A 
HETATM   27  C7  UNL     1       6.655  57.952   0.287  1.00  0.00     0.013 A 
HETATM   28  C8  UNL     1       5.694  58.964   0.254  1.00  0.00     0.001 A 
HETATM   29  C9  UNL     1       6.005  60.224  -0.167  1.00  0.00     0.000 A 
HETATM   30  C10 UNL     1       7.298  60.477  -0.561  1.00  0.00     0.001 A 
HETATM   31  C11 UNL     1       8.295  59.528  -0.553  1.00  0.00     0.013 A 
ENDBRANCH  25  26
ENDBRANCH  14  25
TORSDOF 5
ENDMDL
MODEL 4
REMARK VINA RESULT: -8.801649501      1.546      2.203
REMARK  5 active torsions:
REMARK  status: ('A' for Active; 'I' for Inactive)
REMARK    1  A    between atoms: O1_1  and  C1_3 
REMARK    2  A    between atoms: C1_3  and  N1_4 
REMARK    3  A    between atoms: C1_3  and  C12_26 
REMARK       I    between atoms: N1_4  and  C2_6 
REMARK       I    between atoms: C2_6  and  N2_7 
REMARK       I    between atoms: C2_6  and  N4_17 
REMARK    4  A    between atoms: N4_17  and  C5_19 
REMARK    5  A    between atoms: C5_19  and  C6_20 
ROOT
HETATM    1  N1  UNL     1       7.210  53.814   1.909  1.00  0.00    -0.308 N 
ATOM      2  H1  UNL     1       6.656  54.657   2.063  1.00  0.00     0.171 HD
HETATM    3  C2  UNL     1       8.199  54.232   1.683  1.00  0.00     0.187 C 
HETATM    4  N2  UNL     1       9.533  54.339   1.376  1.00  0.00    -0.308 N 
ATOM      5  H2  UNL     1       9.935  55.193   1.763  1.00  0.00     0.171 HD
HETATM    6  C3  UNL     1      10.390  53.676   0.750  1.00  0.00     0.157 C 
HETATM    7  N3  UNL     1      11.740  54.118   0.635  1.00  0.00    -0.263 N 
ATOM      8  H3  UNL     1      12.031  55.081   0.798  1.00  0.00     0.180 HD
HETATM    9  S1  UNL     1      12.816  52.877   0.196  1.00  0.00     0.241 S 
HETATM   10  O2  UNL     1      13.419  52.243   1.427  1.00  0.00    -0.205 OA
HETATM   11  O3  UNL     1      13.898  53.387  -0.737  1.00  0.00    -0.205 OA
HETATM   12  C4  UNL     1      11.794  51.694  -0.622  1.00  0.00     0.245 C 
HETATM   13  S2  UNL     1      10.132  52.128  -0.066  1.00  0.00    -0.076 SA
HETATM   14  N4  UNL     1       7.850  55.860   1.701  1.00  0.00    -0.337 N 
ATOM     15  H4  UNL     1       8.062  56.510   2.458  1.00  0.00     0.168 HD
ENDROOT
BRANCH   1  16
HETATM   16  C1  UNL     1       6.284  52.827   2.104  1.00  0.00     0.153 C 
BRANCH  16  17
HETATM   17  O1  UNL     1       5.027  53.154   1.728  1.00  0.00    -0.345 OA
ATOM     18  H1  UNL     1       4.397  52.448   1.804  1.00  0.00     0.219 HD
ENDBRANCH  16  17
BRANCH  16  19
HETATM   19  C12 UNL     1       6.348  51.493   2.624  1.00  0.00     0.015 A 
HETATM   20  C13 UNL     1       7.525  50.745   2.565  1.00  0.00     0.016 A 
HETATM   21  C14 UNL     1       7.645  49.472   3.074  1.00  0.00     0.001 A 
HETATM   22  C15 UNL     1       6.589  48.857   3.681  1.00  0.00     0.000 A 
HETATM   23  C16 UNL     1       5.396  49.562   3.761  1.00  0.00     0.001 A 
HETATM   24  C17 UNL     1       5.293  50.855   3.237  1.00  0.00     0.016 A 
ENDBRANCH  16  19
ENDBRANCH   1  16
BRANCH  14  25
HETATM   25  C5  UNL     1       7.215  56.180   0.495  1.00  0.00     0.102 C 
BRANCH  25  26
HETATM   26  C6  UNL     1       6.973  57.598   0.236  1.00  0.00    -0.021 A 
HETATM   27  C7  UNL     1       8.055  58.355  -0.248  1.00  0.00     0.013 A 
HETATM   28  C8  UNL     1       7.849  59.710  -0.516  1.00  0.00     0.001 A 
HETATM   29  C9  UNL     1       6.633  60.296  -0.316  1.00  0.00     0.000 A 
HETATM   30  C10 UNL     1       5.606  59.515   0.159  1.00  0.00     0.001 A 
HETATM   31  C11 UNL     1       5.738  58.175   0.443  1.00  0.00     0.013 A 
ENDBRANCH  25  26
ENDBRANCH  14  25
TORSDOF 5
ENDMDL
MODEL 5
REMARK VINA RESULT: -8.218063122      3.346      7.266
REMARK  5 active torsions:
REMARK  status: ('A' for Active; 'I' for Inactive)
REMARK    1  A    between atoms: O1_1  and  C1_3 
REMARK    2  A    between atoms: C1_3  and  N1_4 
REMARK    3  A    between atoms: C1_3  and  C12_26 
REMARK       I    between atoms: N1_4  and  C2_6 
REMARK       I    between atoms: C2_6  and  N2_7 
REMARK       I    between atoms: C2_6  and  N4_17 
REMARK    4  A    between atoms: N4_17  and  C5_19 
REMARK    5  A    between atoms: C5_19  and  C6_20 
ROOT
HETATM    1  N1  UNL     1       6.413  52.933   2.111  1.00  0.00    -0.308 N 
ATOM      2  H1  UNL     1       5.478  52.738   2.468  1.00  0.00     0.171 HD
HETATM    3  C2  UNL     1       6.710  51.957   1.708  1.00  0.00     0.187 C 
HETATM    4  N2  UNL     1       7.431  50.958   1.103  1.00  0.00    -0.308 N 
ATOM      5  H2  UNL     1       6.818  50.265   0.674  1.00  0.00     0.171 HD
HETATM    6  C3  UNL     1       8.636  50.666   0.933  1.00  0.00     0.157 C 
HETATM    7  N3  UNL     1       9.028  49.495   0.220  1.00  0.00    -0.263 N 
ATOM      8  H3  UNL     1       8.404  48.708   0.047  1.00  0.00     0.180 HD
HETATM    9  S1  UNL     1      10.641  49.546  -0.314  1.00  0.00     0.241 S 
HETATM   10  O2  UNL     1      10.715  50.092  -1.720  1.00  0.00    -0.205 OA
HETATM   11  O3  UNL     1      11.295  48.179  -0.228  1.00  0.00    -0.205 OA
HETATM   12  C4  UNL     1      11.422  50.681   0.789  1.00  0.00     0.245 C 
HETATM   13  S2  UNL     1      10.033  51.594   1.493  1.00  0.00    -0.076 SA
HETATM   14  N4  UNL     1       5.394  51.036   2.150  1.00  0.00    -0.337 N 
ATOM     15  H4  UNL     1       4.636  50.741   1.535  1.00  0.00     0.168 HD
ENDROOT
BRANCH   1  16
HETATM   16  C1  UNL     1       6.560  54.258   2.415  1.00  0.00     0.153 C 
BRANCH  16  17
HETATM   17  O1  UNL     1       7.199  54.499   3.582  1.00  0.00    -0.345 OA
ATOM     18  H1  UNL     1       7.511  55.389   3.684  1.00  0.00     0.219 HD
ENDBRANCH  16  17
BRANCH  16  19
HETATM   19  C12 UNL     1       6.186  55.477   1.759  1.00  0.00     0.015 A 
HETATM   20  C13 UNL     1       7.119  56.238   1.052  1.00  0.00     0.016 A 
HETATM   21  C14 UNL     1       6.804  57.399   0.383  1.00  0.00     0.001 A 
HETATM   22  C15 UNL     1       5.528  57.880   0.376  1.00  0.00     0.000 A 
HETATM   23  C16 UNL     1       4.566  57.158   1.069  1.00  0.00     0.001 A 
HETATM   24  C17 UNL     1       4.905  55.980   1.743  1.00  0.00     0.016 A 
ENDBRANCH  16  19
ENDBRANCH   1  16
BRANCH  14  25
HETATM   25  C5  UNL     1       5.512  50.738   3.512  1.00  0.00     0.102 C 
BRANCH  25  26
HETATM   26  C6  UNL     1       5.422  49.328   3.887  1.00  0.00    -0.021 A 
HETATM   27  C7  UNL     1       4.221  48.897   4.479  1.00  0.00     0.013 A 
HETATM   28  C8  UNL     1       4.103  47.552   4.836  1.00  0.00     0.001 A 
HETATM   29  C9  UNL     1       5.121  46.669   4.622  1.00  0.00     0.000 A 
HETATM   30  C10 UNL     1       6.276  47.137   4.041  1.00  0.00     0.001 A 
HETATM   31  C11 UNL     1       6.460  48.449   3.664  1.00  0.00     0.013 A 
ENDBRANCH  25  26
ENDBRANCH  14  25
TORSDOF 5
ENDMDL
