MODEL 1
REMARK VINA RESULT: -6.112485615      0.000      0.000
REMARK  3 active torsions:
REMARK  status: ('A' for Active; 'I' for Inactive)
REMARK    1  A    between atoms: C2_2  and  C4_4 
REMARK    2  A    between atoms: C6_6  and  O1_7 
REMARK    3  A    between atoms: N1_14  and  O3_16 
ROOT
HETATM    1  C4  UNL     1       0.867 -46.310 -22.222  1.00  0.00     0.016 C 
HETATM    2  C5  UNL     1       0.770 -47.160 -20.944  1.00  0.00     0.042 C 
HETATM    3  C6  UNL     1       1.585 -48.385 -21.282  1.00  0.00     0.135 C 
HETATM    4  C7  UNL     1       3.033 -48.094 -21.570  1.00  0.00     0.061 C 
HETATM    5  C8  UNL     1       3.755 -48.258 -20.216  1.00  0.00     0.027 C 
HETATM    6  C9  UNL     1       3.502 -49.223 -22.411  1.00  0.00     0.213 C 
HETATM    7  O2  UNL     1       3.962 -50.246 -21.860  1.00  0.00    -0.288 OA
HETATM    8  C10 UNL     1       3.418 -49.120 -23.852  1.00  0.00     0.215 C 
HETATM    9  N1  UNL     1       3.085 -50.135 -24.552  1.00  0.00    -0.242 N 
ATOM     10  H1  UNL     1       2.888 -51.001 -24.052  1.00  0.00     0.196 HD
HETATM   11  O4  UNL     1       3.723 -47.853 -24.389  1.00  0.00    -0.293 OA
HETATM   12  C12 UNL     1       4.072 -46.845 -23.474  1.00  0.00     0.062 C 
HETATM   13  C13 UNL     1       5.024 -45.975 -23.759  1.00  0.00    -0.057 C 
HETATM   14  C14 UNL     1       5.750 -46.034 -25.049  1.00  0.00     0.045 C 
HETATM   15  C15 UNL     1       5.396 -44.920 -22.794  1.00  0.00     0.045 C 
HETATM   16  C16 UNL     1       3.342 -46.764 -22.153  1.00  0.00     0.062 C 
HETATM   17  C17 UNL     1       2.252 -45.761 -22.215  1.00  0.00     0.021 C 
ENDROOT
BRANCH   9  18
HETATM   18  O3  UNL     1       2.973 -50.159 -25.903  1.00  0.00    -0.283 OA
HETATM   19  C11 UNL     1       2.032 -51.024 -26.510  1.00  0.00     0.237 C 
ENDBRANCH   9  18
BRANCH   3  20
HETATM   20  O1  UNL     1       1.541 -49.320 -20.250  1.00  0.00    -0.394 OA
ATOM     21  H1  UNL     1       1.908 -48.966 -19.448  1.00  0.00     0.210 HD
ENDBRANCH   3  20
BRANCH   1  22
HETATM   22  C2  UNL     1      -0.173 -45.296 -22.286  1.00  0.00    -0.089 C 
HETATM   23  C1  UNL     1      -0.673 -44.769 -21.190  1.00  0.00     0.014 C 
HETATM   24  C3  UNL     1      -0.687 -44.842 -23.603  1.00  0.00     0.043 C 
ENDBRANCH   1  22
TORSDOF 3
ENDMDL
MODEL 2
REMARK VINA RESULT: -5.959933717      3.181      5.070
REMARK  3 active torsions:
REMARK  status: ('A' for Active; 'I' for Inactive)
REMARK    1  A    between atoms: C2_2  and  C4_4 
REMARK    2  A    between atoms: C6_6  and  O1_7 
REMARK    3  A    between atoms: N1_14  and  O3_16 
ROOT
HETATM    1  C4  UNL     1      -1.783 -45.532 -22.817  1.00  0.00     0.016 C 
HETATM    2  C5  UNL     1      -2.520 -44.691 -21.761  1.00  0.00     0.042 C 
HETATM    3  C6  UNL     1      -2.310 -45.475 -20.488  1.00  0.00     0.135 C 
HETATM    4  C7  UNL     1      -0.866 -45.612 -20.088  1.00  0.00     0.061 C 
HETATM    5  C8  UNL     1      -0.595 -44.425 -19.140  1.00  0.00     0.027 C 
HETATM    6  C9  UNL     1      -0.807 -46.825 -19.234  1.00  0.00     0.213 C 
HETATM    7  O2  UNL     1      -0.993 -46.715 -18.003  1.00  0.00    -0.288 OA
HETATM    8  C10 UNL     1      -0.538 -48.111 -19.841  1.00  0.00     0.215 C 
HETATM    9  N1  UNL     1      -1.148 -49.156 -19.434  1.00  0.00    -0.242 N 
ATOM     10  H1  UNL     1      -1.819 -49.038 -18.676  1.00  0.00     0.196 HD
HETATM   11  O4  UNL     1       0.419 -48.105 -20.876  1.00  0.00    -0.293 OA
HETATM   12  C12 UNL     1       0.996 -46.864 -21.198  1.00  0.00     0.062 C 
HETATM   13  C13 UNL     1       2.277 -46.777 -21.507  1.00  0.00    -0.057 C 
HETATM   14  C14 UNL     1       3.142 -47.979 -21.526  1.00  0.00     0.045 C 
HETATM   15  C15 UNL     1       2.886 -45.471 -21.837  1.00  0.00     0.045 C 
HETATM   16  C16 UNL     1       0.133 -45.624 -21.187  1.00  0.00     0.062 C 
HETATM   17  C17 UNL     1      -0.336 -45.298 -22.556  1.00  0.00     0.021 C 
ENDROOT
BRANCH   9  18
HETATM   18  O3  UNL     1      -0.980 -50.409 -19.923  1.00  0.00    -0.283 OA
HETATM   19  C11 UNL     1      -1.330 -51.524 -19.125  1.00  0.00     0.237 C 
ENDBRANCH   9  18
BRANCH   3  20
HETATM   20  O1  UNL     1      -2.989 -44.893 -19.420  1.00  0.00    -0.394 OA
ATOM     21  H1  UNL     1      -2.482 -44.948 -18.618  1.00  0.00     0.210 HD
ENDBRANCH   3  20
BRANCH   1  22
HETATM   22  C2  UNL     1      -2.203 -45.203 -24.170  1.00  0.00    -0.089 C 
HETATM   23  C1  UNL     1      -1.387 -45.360 -25.189  1.00  0.00     0.014 C 
HETATM   24  C3  UNL     1      -3.571 -44.681 -24.416  1.00  0.00     0.043 C 
ENDBRANCH   1  22
TORSDOF 3
ENDMDL
MODEL 3
REMARK VINA RESULT: -5.844921222      2.461      5.442
REMARK  3 active torsions:
REMARK  status: ('A' for Active; 'I' for Inactive)
REMARK    1  A    between atoms: C2_2  and  C4_4 
REMARK    2  A    between atoms: C6_6  and  O1_7 
REMARK    3  A    between atoms: N1_14  and  O3_16 
ROOT
HETATM    1  C4  UNL     1       3.509 -49.362 -24.426  1.00  0.00     0.016 C 
HETATM    2  C5  UNL     1       4.853 -48.780 -24.897  1.00  0.00     0.042 C 
HETATM    3  C6  UNL     1       4.643 -47.289 -24.780  1.00  0.00     0.135 C 
HETATM    4  C7  UNL     1       4.369 -46.821 -23.377  1.00  0.00     0.061 C 
HETATM    5  C8  UNL     1       5.750 -46.449 -22.798  1.00  0.00     0.027 C 
HETATM    6  C9  UNL     1       3.641 -45.536 -23.525  1.00  0.00     0.213 C 
HETATM    7  O2  UNL     1       4.290 -44.472 -23.605  1.00  0.00    -0.288 OA
HETATM    8  C10 UNL     1       2.194 -45.539 -23.576  1.00  0.00     0.215 C 
HETATM    9  N1  UNL     1       1.576 -44.753 -24.369  1.00  0.00    -0.242 N 
ATOM     10  H1  UNL     1       2.144 -44.137 -24.950  1.00  0.00     0.196 HD
HETATM   11  O4  UNL     1       1.559 -46.450 -22.708  1.00  0.00    -0.293 OA
HETATM   12  C12 UNL     1       2.392 -47.242 -21.899  1.00  0.00     0.062 C 
HETATM   13  C13 UNL     1       2.058 -47.517 -20.652  1.00  0.00    -0.057 C 
HETATM   14  C14 UNL     1       0.798 -47.002 -20.068  1.00  0.00     0.045 C 
HETATM   15  C15 UNL     1       2.938 -48.343 -19.800  1.00  0.00     0.045 C 
HETATM   16  C16 UNL     1       3.682 -47.780 -22.475  1.00  0.00     0.062 C 
HETATM   17  C17 UNL     1       3.504 -49.174 -22.949  1.00  0.00     0.021 C 
ENDROOT
BRANCH   9  18
HETATM   18  O3  UNL     1       0.230 -44.666 -24.505  1.00  0.00    -0.283 OA
HETATM   19  C11 UNL     1      -0.349 -44.751 -25.793  1.00  0.00     0.237 C 
ENDBRANCH   9  18
BRANCH   3  20
HETATM   20  O1  UNL     1       5.750 -46.586 -25.249  1.00  0.00    -0.394 OA
ATOM     21  H1  UNL     1       6.409 -46.488 -24.571  1.00  0.00     0.210 HD
ENDBRANCH   3  20
BRANCH   1  22
HETATM   22  C2  UNL     1       3.330 -50.741 -24.850  1.00  0.00    -0.089 C 
HETATM   23  C1  UNL     1       2.685 -51.030 -25.959  1.00  0.00     0.014 C 
HETATM   24  C3  UNL     1       3.880 -51.847 -24.027  1.00  0.00     0.043 C 
ENDBRANCH   1  22
TORSDOF 3
ENDMDL
MODEL 4
REMARK VINA RESULT: -5.765646977      2.250      5.445
REMARK  3 active torsions:
REMARK  status: ('A' for Active; 'I' for Inactive)
REMARK    1  A    between atoms: C2_2  and  C4_4 
REMARK    2  A    between atoms: C6_6  and  O1_7 
REMARK    3  A    between atoms: N1_14  and  O3_16 
ROOT
HETATM    1  C4  UNL     1       3.768 -49.641 -23.828  1.00  0.00     0.016 C 
HETATM    2  C5  UNL     1       4.993 -48.940 -24.440  1.00  0.00     0.042 C 
HETATM    3  C6  UNL     1       4.560 -47.495 -24.515  1.00  0.00     0.135 C 
HETATM    4  C7  UNL     1       4.259 -46.879 -23.176  1.00  0.00     0.061 C 
HETATM    5  C8  UNL     1       5.582 -46.229 -22.722  1.00  0.00     0.027 C 
HETATM    6  C9  UNL     1       3.337 -45.750 -23.460  1.00  0.00     0.213 C 
HETATM    7  O2  UNL     1       3.813 -44.623 -23.715  1.00  0.00    -0.288 OA
HETATM    8  C10 UNL     1       1.908 -45.975 -23.437  1.00  0.00     0.215 C 
HETATM    9  N1  UNL     1       1.153 -45.408 -24.297  1.00  0.00    -0.242 N 
ATOM     10  H1  UNL     1       1.602 -44.803 -24.984  1.00  0.00     0.196 HD
HETATM   11  O4  UNL     1       1.445 -46.837 -22.424  1.00  0.00    -0.293 OA
HETATM   12  C12 UNL     1       2.414 -47.375 -21.558  1.00  0.00     0.062 C 
HETATM   13  C13 UNL     1       2.162 -47.517 -20.270  1.00  0.00    -0.057 C 
HETATM   14  C14 UNL     1       0.855 -47.117 -19.698  1.00  0.00     0.045 C 
HETATM   15  C15 UNL     1       3.183 -48.075 -19.359  1.00  0.00     0.045 C 
HETATM   16  C16 UNL     1       3.753 -47.792 -22.120  1.00  0.00     0.062 C 
HETATM   17  C17 UNL     1       3.778 -49.250 -22.391  1.00  0.00     0.021 C 
ENDROOT
BRANCH   9  18
HETATM   18  O3  UNL     1      -0.193 -45.542 -24.376  1.00  0.00    -0.283 OA
HETATM   19  C11 UNL     1      -1.028 -44.596 -23.734  1.00  0.00     0.237 C 
ENDBRANCH   9  18
BRANCH   3  20
HETATM   20  O1  UNL     1       5.532 -46.709 -25.130  1.00  0.00    -0.394 OA
ATOM     21  H1  UNL     1       6.183 -47.246 -25.567  1.00  0.00     0.210 HD
ENDBRANCH   3  20
BRANCH   1  22
HETATM   22  C2  UNL     1       3.791 -51.078 -24.052  1.00  0.00    -0.089 C 
HETATM   23  C1  UNL     1       4.447 -51.879 -23.242  1.00  0.00     0.014 C 
HETATM   24  C3  UNL     1       3.068 -51.659 -25.211  1.00  0.00     0.043 C 
ENDBRANCH   1  22
TORSDOF 3
ENDMDL
MODEL 5
REMARK VINA RESULT: -5.606627046      2.364      5.630
REMARK  3 active torsions:
REMARK  status: ('A' for Active; 'I' for Inactive)
REMARK    1  A    between atoms: C2_2  and  C4_4 
REMARK    2  A    between atoms: C6_6  and  O1_7 
REMARK    3  A    between atoms: N1_14  and  O3_16 
ROOT
HETATM    1  C4  UNL     1       3.346 -49.545 -23.202  1.00  0.00     0.016 C 
HETATM    2  C5  UNL     1       4.065 -48.402 -23.938  1.00  0.00     0.042 C 
HETATM    3  C6  UNL     1       3.119 -47.236 -23.773  1.00  0.00     0.135 C 
HETATM    4  C7  UNL     1       2.891 -46.834 -22.341  1.00  0.00     0.061 C 
HETATM    5  C8  UNL     1       3.939 -45.738 -22.058  1.00  0.00     0.027 C 
HETATM    6  C9  UNL     1       1.578 -46.142 -22.330  1.00  0.00     0.213 C 
HETATM    7  O2  UNL     1       1.535 -44.910 -22.537  1.00  0.00    -0.288 OA
HETATM    8  C10 UNL     1       0.374 -46.905 -22.081  1.00  0.00     0.215 C 
HETATM    9  N1  UNL     1      -0.697 -46.645 -22.726  1.00  0.00    -0.242 N 
ATOM     10  H1  UNL     1      -0.659 -45.890 -23.409  1.00  0.00     0.196 HD
HETATM   11  O4  UNL     1       0.486 -47.915 -21.105  1.00  0.00    -0.293 OA
HETATM   12  C12 UNL     1       1.741 -48.065 -20.490  1.00  0.00     0.062 C 
HETATM   13  C13 UNL     1       1.832 -48.340 -19.201  1.00  0.00    -0.057 C 
HETATM   14  C14 UNL     1       0.618 -48.499 -18.367  1.00  0.00     0.045 C 
HETATM   15  C15 UNL     1       3.151 -48.489 -18.553  1.00  0.00     0.045 C 
HETATM   16  C16 UNL     1       2.993 -47.909 -21.322  1.00  0.00     0.062 C 
HETATM   17  C17 UNL     1       3.504 -49.232 -21.755  1.00  0.00     0.021 C 
ENDROOT
BRANCH   9  18
HETATM   18  O3  UNL     1      -1.881 -47.289 -22.580  1.00  0.00    -0.283 OA
HETATM   19  C11 UNL     1      -2.949 -46.644 -21.910  1.00  0.00     0.237 C 
ENDBRANCH   9  18
BRANCH   3  20
HETATM   20  O1  UNL     1       3.578 -46.113 -24.458  1.00  0.00    -0.394 OA
ATOM     21  H1  UNL     1       4.526 -46.060 -24.435  1.00  0.00     0.210 HD
ENDBRANCH   3  20
BRANCH   1  22
HETATM   22  C2  UNL     1       3.857 -50.851 -23.587  1.00  0.00    -0.089 C 
HETATM   23  C1  UNL     1       3.490 -51.416 -24.716  1.00  0.00     0.014 C 
HETATM   24  C3  UNL     1       4.808 -51.566 -22.699  1.00  0.00     0.043 C 
ENDBRANCH   1  22
TORSDOF 3
ENDMDL
