MODEL 1
REMARK VINA RESULT: -7.534307172      0.000      0.000
REMARK  5 active torsions:
REMARK  status: ('A' for Active; 'I' for Inactive)
REMARK    1  A    between atoms: C2_2  and  C3_3 
REMARK    2  A    between atoms: C2_2  and  N3_21 
REMARK       I    between atoms: C3_3  and  N1_5 
REMARK    3  A    between atoms: N1_5  and  C4_7 
REMARK    4  A    between atoms: C4_7  and  C5_8 
REMARK       I    between atoms: C5_8  and  N2_10 
REMARK    5  A    between atoms: N2_10  and  C6_12 
ROOT
HETATM    1  C4  UNL     1      11.682  26.388   6.985  1.00  0.00     0.114 C 
HETATM    2  C10 UNL     1      10.389  25.628   6.750  1.00  0.00     0.041 C 
HETATM    3  C11 UNL     1      10.449  24.184   7.105  1.00  0.00     0.003 C 
HETATM    4  C12 UNL     1      10.996  23.863   8.453  1.00  0.00     0.000 C 
HETATM    5  C13 UNL     1      12.157  24.761   8.775  1.00  0.00     0.003 C 
HETATM    6  C14 UNL     1      12.675  25.346   7.477  1.00  0.00     0.041 C 
ENDROOT
BRANCH   1   7
HETATM    7  N1  UNL     1      11.490  27.333   8.039  1.00  0.00    -0.341 N 
HETATM    8  C3  UNL     1      12.467  28.205   8.571  1.00  0.00     0.241 C 
HETATM    9  O1  UNL     1      13.622  28.167   8.092  1.00  0.00    -0.271 OA
ATOM     10  H1  UNL     1      10.557  27.383   8.449  1.00  0.00     0.163 HD
BRANCH   8  11
HETATM   11  C2  UNL     1      12.212  29.168   9.666  1.00  0.00     0.171 C 
HETATM   12  C1  UNL     1      12.416  30.572   9.159  1.00  0.00     0.042 C 
BRANCH  11  13
HETATM   13  N3  UNL     1      12.915  28.857  10.846  1.00  0.00    -0.380 N 
HETATM   14  C15 UNL     1      13.378  29.896  11.671  1.00  0.00     0.059 C 
HETATM   15  C16 UNL     1      13.345  29.610  13.150  1.00  0.00     0.044 C 
HETATM   16  C17 UNL     1      12.195  28.793  13.604  1.00  0.00     0.007 C 
HETATM   17  C18 UNL     1      11.820  27.668  12.690  1.00  0.00     0.020 C 
HETATM   18  C19 UNL     1      12.642  27.607  11.446  1.00  0.00     0.123 C 
ENDBRANCH  11  13
ENDBRANCH   8  11
ENDBRANCH   1   7
BRANCH   1  19
HETATM   19  C5  UNL     1      12.179  27.002   5.722  1.00  0.00     0.246 C 
HETATM   20  O2  UNL     1      12.806  26.340   4.857  1.00  0.00    -0.271 OA
HETATM   21  N2  UNL     1      11.955  28.364   5.455  1.00  0.00    -0.351 N 
ATOM     22  H2  UNL     1      11.447  28.919   6.144  1.00  0.00     0.163 HD
BRANCH  21  23
HETATM   23  C6  UNL     1      12.412  29.011   4.252  1.00  0.00     0.022 C 
HETATM   24  C7  UNL     1      12.119  30.507   4.400  1.00  0.00     0.037 C 
HETATM   25  C8  UNL     1      11.652  28.544   3.031  1.00  0.00     0.037 C 
HETATM   26  C9  UNL     1      13.877  28.817   3.995  1.00  0.00     0.037 C 
ENDBRANCH  21  23
ENDBRANCH   1  19
TORSDOF 5
ENDMDL
MODEL 2
REMARK VINA RESULT: -7.403939938      1.185      1.268
REMARK  5 active torsions:
REMARK  status: ('A' for Active; 'I' for Inactive)
REMARK    1  A    between atoms: C2_2  and  C3_3 
REMARK    2  A    between atoms: C2_2  and  N3_21 
REMARK       I    between atoms: C3_3  and  N1_5 
REMARK    3  A    between atoms: N1_5  and  C4_7 
REMARK    4  A    between atoms: C4_7  and  C5_8 
REMARK       I    between atoms: C5_8  and  N2_10 
REMARK    5  A    between atoms: N2_10  and  C6_12 
ROOT
HETATM    1  C4  UNL     1      12.183  25.861   7.230  1.00  0.00     0.114 C 
HETATM    2  C10 UNL     1      10.820  25.323   7.624  1.00  0.00     0.041 C 
HETATM    3  C11 UNL     1      10.849  23.978   8.261  1.00  0.00     0.003 C 
HETATM    4  C12 UNL     1      11.814  23.805   9.383  1.00  0.00     0.000 C 
HETATM    5  C13 UNL     1      13.103  24.516   9.080  1.00  0.00     0.003 C 
HETATM    6  C14 UNL     1      13.168  24.758   7.585  1.00  0.00     0.041 C 
ENDROOT
BRANCH   1   7
HETATM    7  N1  UNL     1      12.496  26.996   8.039  1.00  0.00    -0.341 N 
HETATM    8  C3  UNL     1      11.588  27.742   8.825  1.00  0.00     0.241 C 
HETATM    9  O1  UNL     1      10.385  27.398   8.830  1.00  0.00    -0.271 OA
ATOM     10  H1  UNL     1      13.470  27.299   8.051  1.00  0.00     0.163 HD
BRANCH   8  11
HETATM   11  C2  UNL     1      11.968  28.911   9.647  1.00  0.00     0.171 C 
HETATM   12  C1  UNL     1      12.531  29.990   8.759  1.00  0.00     0.042 C 
BRANCH  11  13
HETATM   13  N3  UNL     1      12.779  28.569  10.747  1.00  0.00    -0.380 N 
HETATM   14  C15 UNL     1      13.490  29.574  11.423  1.00  0.00     0.059 C 
HETATM   15  C16 UNL     1      13.623  29.383  12.912  1.00  0.00     0.044 C 
HETATM   16  C17 UNL     1      12.445  28.772  13.572  1.00  0.00     0.007 C 
HETATM   17  C18 UNL     1      11.796  27.663  12.803  1.00  0.00     0.020 C 
HETATM   18  C19 UNL     1      12.421  27.410  11.473  1.00  0.00     0.123 C 
ENDBRANCH  11  13
ENDBRANCH   8  11
ENDBRANCH   1   7
BRANCH   1  19
HETATM   19  C5  UNL     1      12.245  26.141   5.767  1.00  0.00     0.246 C 
HETATM   20  O2  UNL     1      12.825  25.369   4.962  1.00  0.00    -0.271 OA
HETATM   21  N2  UNL     1      11.645  27.296   5.237  1.00  0.00    -0.351 N 
ATOM     22  H2  UNL     1      11.169  27.935   5.873  1.00  0.00     0.163 HD
BRANCH  21  23
HETATM   23  C6  UNL     1      11.674  27.617   3.833  1.00  0.00     0.022 C 
HETATM   24  C7  UNL     1      10.786  28.849   3.629  1.00  0.00     0.037 C 
HETATM   25  C8  UNL     1      11.077  26.516   2.985  1.00  0.00     0.037 C 
HETATM   26  C9  UNL     1      13.052  27.911   3.320  1.00  0.00     0.037 C 
ENDBRANCH  21  23
ENDBRANCH   1  19
TORSDOF 5
ENDMDL
MODEL 3
REMARK VINA RESULT: -7.303305086      1.386      2.336
REMARK  5 active torsions:
REMARK  status: ('A' for Active; 'I' for Inactive)
REMARK    1  A    between atoms: C2_2  and  C3_3 
REMARK    2  A    between atoms: C2_2  and  N3_21 
REMARK       I    between atoms: C3_3  and  N1_5 
REMARK    3  A    between atoms: N1_5  and  C4_7 
REMARK    4  A    between atoms: C4_7  and  C5_8 
REMARK       I    between atoms: C5_8  and  N2_10 
REMARK    5  A    between atoms: N2_10  and  C6_12 
ROOT
HETATM    1  C4  UNL     1      11.777  25.904   7.109  1.00  0.00     0.114 C 
HETATM    2  C10 UNL     1      10.264  25.785   7.154  1.00  0.00     0.041 C 
HETATM    3  C11 UNL     1       9.732  24.489   6.652  1.00  0.00     0.003 C 
HETATM    4  C12 UNL     1      10.361  23.261   7.214  1.00  0.00     0.000 C 
HETATM    5  C13 UNL     1      11.844  23.453   7.362  1.00  0.00     0.003 C 
HETATM    6  C14 UNL     1      12.261  24.609   6.476  1.00  0.00     0.041 C 
ENDROOT
BRANCH   1   7
HETATM    7  N1  UNL     1      12.287  25.950   8.443  1.00  0.00    -0.341 N 
HETATM    8  C3  UNL     1      11.674  26.572   9.554  1.00  0.00     0.241 C 
HETATM    9  O1  UNL     1      10.577  27.147   9.383  1.00  0.00    -0.271 OA
ATOM     10  H1  UNL     1      13.182  25.490   8.609  1.00  0.00     0.163 HD
BRANCH   8  11
HETATM   11  C2  UNL     1      12.249  26.588  10.918  1.00  0.00     0.171 C 
HETATM   12  C1  UNL     1      11.797  25.364  11.670  1.00  0.00     0.042 C 
BRANCH  11  13
HETATM   13  N3  UNL     1      12.035  27.807  11.590  1.00  0.00    -0.380 N 
HETATM   14  C15 UNL     1      11.935  27.818  12.991  1.00  0.00     0.059 C 
HETATM   15  C16 UNL     1      12.516  29.030  13.672  1.00  0.00     0.044 C 
HETATM   16  C17 UNL     1      13.738  29.578  13.038  1.00  0.00     0.007 C 
HETATM   17  C18 UNL     1      13.722  29.586  11.541  1.00  0.00     0.020 C 
HETATM   18  C19 UNL     1      12.493  28.982  10.951  1.00  0.00     0.123 C 
ENDBRANCH  11  13
ENDBRANCH   8  11
ENDBRANCH   1   7
BRANCH   1  19
HETATM   19  C5  UNL     1      12.197  27.063   6.273  1.00  0.00     0.246 C 
HETATM   20  O2  UNL     1      12.593  28.144   6.778  1.00  0.00    -0.271 OA
HETATM   21  N2  UNL     1      12.163  26.980   4.870  1.00  0.00    -0.351 N 
ATOM     22  H2  UNL     1      11.846  26.111   4.440  1.00  0.00     0.163 HD
BRANCH  21  23
HETATM   23  C6  UNL     1      12.558  28.068   4.012  1.00  0.00     0.022 C 
HETATM   24  C7  UNL     1      12.536  27.544   2.573  1.00  0.00     0.037 C 
HETATM   25  C8  UNL     1      13.976  28.519   4.281  1.00  0.00     0.037 C 
HETATM   26  C9  UNL     1      11.657  29.262   4.118  1.00  0.00     0.037 C 
ENDBRANCH  21  23
ENDBRANCH   1  19
TORSDOF 5
ENDMDL
MODEL 4
REMARK VINA RESULT: -7.249680285      1.113      3.961
REMARK  5 active torsions:
REMARK  status: ('A' for Active; 'I' for Inactive)
REMARK    1  A    between atoms: C2_2  and  C3_3 
REMARK    2  A    between atoms: C2_2  and  N3_21 
REMARK       I    between atoms: C3_3  and  N1_5 
REMARK    3  A    between atoms: N1_5  and  C4_7 
REMARK    4  A    between atoms: C4_7  and  C5_8 
REMARK       I    between atoms: C5_8  and  N2_10 
REMARK    5  A    between atoms: N2_10  and  C6_12 
ROOT
HETATM    1  C4  UNL     1      12.286  27.679   5.488  1.00  0.00     0.114 C 
HETATM    2  C10 UNL     1      13.760  27.902   5.198  1.00  0.00     0.041 C 
HETATM    3  C11 UNL     1      14.033  28.725   3.988  1.00  0.00     0.003 C 
HETATM    4  C12 UNL     1      13.289  30.012   3.890  1.00  0.00     0.000 C 
HETATM    5  C13 UNL     1      11.877  29.840   4.373  1.00  0.00     0.003 C 
HETATM    6  C14 UNL     1      11.546  28.361   4.347  1.00  0.00     0.041 C 
ENDROOT
BRANCH   1   7
HETATM    7  N1  UNL     1      11.934  28.355   6.696  1.00  0.00    -0.341 N 
HETATM    8  C3  UNL     1      12.653  28.326   7.913  1.00  0.00     0.241 C 
HETATM    9  O1  UNL     1      13.703  27.648   7.967  1.00  0.00    -0.271 OA
ATOM     10  H1  UNL     1      11.081  28.914   6.679  1.00  0.00     0.163 HD
BRANCH   8  11
HETATM   11  C2  UNL     1      12.242  29.049   9.137  1.00  0.00     0.171 C 
HETATM   12  C1  UNL     1      12.318  30.534   8.895  1.00  0.00     0.042 C 
BRANCH  11  13
HETATM   13  N3  UNL     1      12.915  28.603  10.291  1.00  0.00    -0.380 N 
HETATM   14  C15 UNL     1      13.642  29.521  11.067  1.00  0.00     0.059 C 
HETATM   15  C16 UNL     1      13.620  29.271  12.553  1.00  0.00     0.044 C 
HETATM   16  C17 UNL     1      12.339  28.744  13.080  1.00  0.00     0.007 C 
HETATM   17  C18 UNL     1      11.674  27.721  12.213  1.00  0.00     0.020 C 
HETATM   18  C19 UNL     1      12.396  27.457  10.935  1.00  0.00     0.123 C 
ENDBRANCH  11  13
ENDBRANCH   8  11
ENDBRANCH   1   7
BRANCH   1  19
HETATM   19  C5  UNL     1      11.959  26.226   5.505  1.00  0.00     0.246 C 
HETATM   20  O2  UNL     1      12.670  25.372   4.917  1.00  0.00    -0.271 OA
HETATM   21  N2  UNL     1      10.825  25.759   6.192  1.00  0.00    -0.351 N 
ATOM     22  H2  UNL     1      10.234  26.435   6.676  1.00  0.00     0.163 HD
BRANCH  21  23
HETATM   23  C6  UNL     1      10.459  24.366   6.242  1.00  0.00     0.022 C 
HETATM   24  C7  UNL     1       9.090  24.279   6.923  1.00  0.00     0.037 C 
HETATM   25  C8  UNL     1      11.413  23.558   7.094  1.00  0.00     0.037 C 
HETATM   26  C9  UNL     1      10.381  23.725   4.888  1.00  0.00     0.037 C 
ENDBRANCH  21  23
ENDBRANCH   1  19
TORSDOF 5
ENDMDL
MODEL 5
REMARK VINA RESULT: -7.225194807      1.163      1.498
REMARK  5 active torsions:
REMARK  status: ('A' for Active; 'I' for Inactive)
REMARK    1  A    between atoms: C2_2  and  C3_3 
REMARK    2  A    between atoms: C2_2  and  N3_21 
REMARK       I    between atoms: C3_3  and  N1_5 
REMARK    3  A    between atoms: N1_5  and  C4_7 
REMARK    4  A    between atoms: C4_7  and  C5_8 
REMARK       I    between atoms: C5_8  and  N2_10 
REMARK    5  A    between atoms: N2_10  and  C6_12 
ROOT
HETATM    1  C4  UNL     1      11.434  25.651   6.300  1.00  0.00     0.114 C 
HETATM    2  C10 UNL     1      10.113  25.109   5.782  1.00  0.00     0.041 C 
HETATM    3  C11 UNL     1       9.988  23.627   5.845  1.00  0.00     0.003 C 
HETATM    4  C12 UNL     1      10.326  22.996   7.151  1.00  0.00     0.000 C 
HETATM    5  C13 UNL     1      11.519  23.671   7.767  1.00  0.00     0.003 C 
HETATM    6  C14 UNL     1      12.251  24.424   6.674  1.00  0.00     0.041 C 
ENDROOT
BRANCH   1   7
HETATM    7  N1  UNL     1      11.202  26.397   7.496  1.00  0.00    -0.341 N 
HETATM    8  C3  UNL     1      12.153  27.175   8.196  1.00  0.00     0.241 C 
HETATM    9  O1  UNL     1      13.320  27.233   7.748  1.00  0.00    -0.271 OA
ATOM     10  H1  UNL     1      10.259  26.366   7.883  1.00  0.00     0.163 HD
BRANCH   8  11
HETATM   11  C2  UNL     1      11.858  27.931   9.433  1.00  0.00     0.171 C 
HETATM   12  C1  UNL     1      12.170  29.389   9.219  1.00  0.00     0.042 C 
BRANCH  11  13
HETATM   13  N3  UNL     1      12.447  27.362  10.579  1.00  0.00    -0.380 N 
HETATM   14  C15 UNL     1      12.432  28.072  11.790  1.00  0.00     0.059 C 
HETATM   15  C16 UNL     1      12.281  27.229  13.031  1.00  0.00     0.044 C 
HETATM   16  C17 UNL     1      11.399  26.048  12.882  1.00  0.00     0.007 C 
HETATM   17  C18 UNL     1      11.536  25.319  11.582  1.00  0.00     0.020 C 
HETATM   18  C19 UNL     1      12.503  25.951  10.639  1.00  0.00     0.123 C 
ENDBRANCH  11  13
ENDBRANCH   8  11
ENDBRANCH   1   7
BRANCH   1  19
HETATM   19  C5  UNL     1      12.143  26.428   5.245  1.00  0.00     0.246 C 
HETATM   20  O2  UNL     1      13.037  25.916   4.524  1.00  0.00    -0.271 OA
HETATM   21  N2  UNL     1      11.828  27.779   5.020  1.00  0.00    -0.351 N 
ATOM     22  H2  UNL     1      11.105  28.213   5.594  1.00  0.00     0.163 HD
BRANCH  21  23
HETATM   23  C6  UNL     1      12.481  28.578   4.015  1.00  0.00     0.022 C 
HETATM   24  C7  UNL     1      11.887  29.987   4.097  1.00  0.00     0.037 C 
HETATM   25  C8  UNL     1      12.198  28.076   2.617  1.00  0.00     0.037 C 
HETATM   26  C9  UNL     1      13.968  28.656   4.194  1.00  0.00     0.037 C 
ENDBRANCH  21  23
ENDBRANCH   1  19
TORSDOF 5
ENDMDL
