MODEL 1
REMARK VINA RESULT: -6.617184556      0.000      0.000
REMARK  3 active torsions:
REMARK  status: ('A' for Active; 'I' for Inactive)
REMARK    1  A    between atoms: C4_4  and  C5_5 
REMARK    2  A    between atoms: C5_5  and  N1_6 
REMARK    3  A    between atoms: N1_6  and  C6_8 
ROOT
HETATM    1  N1  UNL     1      13.891 -17.457 -43.115  1.00  0.00    -0.362 N 
ATOM      2  H1  UNL     1      13.726 -16.473 -42.903  1.00  0.00     0.162 HD
ENDROOT
BRANCH   1   3
HETATM    3  C5  UNL     1      14.198 -18.395 -42.066  1.00  0.00     0.127 C 
BRANCH   3   4
HETATM    4  C4  UNL     1      12.967 -18.827 -41.307  1.00  0.00     0.003 C 
HETATM    5  C3  UNL     1      12.866 -20.348 -41.498  1.00  0.00     0.006 C 
HETATM    6  C2  UNL     1      11.500 -20.687 -40.912  1.00  0.00     0.000 C 
HETATM    7  C1  UNL     1      11.579 -20.510 -39.438  1.00  0.00     0.000 C 
HETATM    8  C10 UNL     1      12.197 -19.266 -38.951  1.00  0.00     0.000 C 
HETATM    9  C9  UNL     1      13.085 -18.526 -39.859  1.00  0.00     0.006 C 
ENDBRANCH   3   4
ENDBRANCH   1   3
BRANCH   1  10
HETATM   10  C6  UNL     1      13.825 -17.935 -44.455  1.00  0.00     0.171 C 
HETATM   11  N2  UNL     1      13.245 -19.011 -44.872  1.00  0.00    -0.361 N 
HETATM   12  C7  UNL     1      13.389 -19.165 -46.306  1.00  0.00     0.142 C 
ATOM     13  H2  UNL     1      12.749 -19.669 -44.270  1.00  0.00     0.162 HD
HETATM   14  C8  UNL     1      14.560 -18.253 -46.603  1.00  0.00     0.142 C 
HETATM   15  N3  UNL     1      14.420 -17.253 -45.563  1.00  0.00    -0.361 N 
ATOM     16  H3  UNL     1      14.689 -16.271 -45.610  1.00  0.00     0.162 HD
ENDBRANCH   1  10
TORSDOF 3
ENDMDL
MODEL 2
REMARK VINA RESULT: -6.549800938      2.176      3.820
REMARK  3 active torsions:
REMARK  status: ('A' for Active; 'I' for Inactive)
REMARK    1  A    between atoms: C4_4  and  C5_5 
REMARK    2  A    between atoms: C5_5  and  N1_6 
REMARK    3  A    between atoms: N1_6  and  C6_8 
ROOT
HETATM    1  N1  UNL     1      14.133 -18.670 -46.840  1.00  0.00    -0.362 N 
ATOM      2  H1  UNL     1      13.468 -19.395 -47.110  1.00  0.00     0.162 HD
ENDROOT
BRANCH   1   3
HETATM    3  C5  UNL     1      13.796 -17.701 -45.829  1.00  0.00     0.127 C 
BRANCH   3   4
HETATM    4  C4  UNL     1      14.005 -18.236 -44.432  1.00  0.00     0.003 C 
HETATM    5  C3  UNL     1      13.918 -17.021 -43.497  1.00  0.00     0.006 C 
HETATM    6  C2  UNL     1      14.359 -17.579 -42.150  1.00  0.00     0.000 C 
HETATM    7  C1  UNL     1      13.291 -18.492 -41.662  1.00  0.00     0.000 C 
HETATM    8  C10 UNL     1      12.766 -19.473 -42.625  1.00  0.00     0.000 C 
HETATM    9  C9  UNL     1      12.953 -19.213 -44.060  1.00  0.00     0.006 C 
ENDBRANCH   3   4
ENDBRANCH   1   3
BRANCH   1  10
HETATM   10  C6  UNL     1      15.414 -18.590 -47.456  1.00  0.00     0.171 C 
HETATM   11  N2  UNL     1      15.926 -19.421 -48.303  1.00  0.00    -0.361 N 
HETATM   12  C7  UNL     1      17.254 -19.005 -48.709  1.00  0.00     0.142 C 
ATOM     13  H2  UNL     1      15.457 -20.261 -48.642  1.00  0.00     0.162 HD
HETATM   14  C8  UNL     1      17.638 -18.049 -47.600  1.00  0.00     0.142 C 
HETATM   15  N3  UNL     1      16.343 -17.532 -47.204  1.00  0.00    -0.361 N 
ATOM     16  H3  UNL     1      16.137 -16.607 -46.825  1.00  0.00     0.162 HD
ENDBRANCH   1  10
TORSDOF 3
ENDMDL
MODEL 3
REMARK VINA RESULT: -6.332303668      2.234      3.801
REMARK  3 active torsions:
REMARK  status: ('A' for Active; 'I' for Inactive)
REMARK    1  A    between atoms: C4_4  and  C5_5 
REMARK    2  A    between atoms: C5_5  and  N1_6 
REMARK    3  A    between atoms: N1_6  and  C6_8 
ROOT
HETATM    1  N1  UNL     1      14.943 -17.584 -46.473  1.00  0.00    -0.362 N 
ATOM      2  H1  UNL     1      15.045 -16.668 -46.037  1.00  0.00     0.162 HD
ENDROOT
BRANCH   1   3
HETATM    3  C5  UNL     1      13.813 -18.424 -46.167  1.00  0.00     0.127 C 
BRANCH   3   4
HETATM    4  C4  UNL     1      13.258 -18.155 -44.789  1.00  0.00     0.003 C 
HETATM    5  C3  UNL     1      13.239 -19.513 -44.071  1.00  0.00     0.006 C 
HETATM    6  C2  UNL     1      12.467 -19.223 -42.788  1.00  0.00     0.000 C 
HETATM    7  C1  UNL     1      13.323 -18.367 -41.925  1.00  0.00     0.000 C 
HETATM    8  C10 UNL     1      13.963 -17.207 -42.567  1.00  0.00     0.000 C 
HETATM    9  C9  UNL     1      14.118 -17.215 -44.029  1.00  0.00     0.006 C 
ENDBRANCH   3   4
ENDBRANCH   1   3
BRANCH   1  10
HETATM   10  C6  UNL     1      15.915 -18.064 -47.397  1.00  0.00     0.171 C 
HETATM   11  N2  UNL     1      15.794 -19.060 -48.211  1.00  0.00    -0.361 N 
HETATM   12  C7  UNL     1      16.998 -19.247 -48.996  1.00  0.00     0.142 C 
ATOM     13  H2  UNL     1      14.959 -19.640 -48.291  1.00  0.00     0.162 HD
HETATM   14  C8  UNL     1      18.028 -18.500 -48.176  1.00  0.00     0.142 C 
HETATM   15  N3  UNL     1      17.212 -17.479 -47.548  1.00  0.00    -0.361 N 
ATOM     16  H3  UNL     1      17.502 -16.541 -47.271  1.00  0.00     0.162 HD
ENDBRANCH   1  10
TORSDOF 3
ENDMDL
MODEL 4
REMARK VINA RESULT: -6.201185556      2.483      4.357
REMARK  3 active torsions:
REMARK  status: ('A' for Active; 'I' for Inactive)
REMARK    1  A    between atoms: C4_4  and  C5_5 
REMARK    2  A    between atoms: C5_5  and  N1_6 
REMARK    3  A    between atoms: N1_6  and  C6_8 
ROOT
HETATM    1  N1  UNL     1      14.803 -18.463 -47.129  1.00  0.00    -0.362 N 
ATOM      2  H1  UNL     1      14.147 -19.174 -47.453  1.00  0.00     0.162 HD
ENDROOT
BRANCH   1   3
HETATM    3  C5  UNL     1      14.416 -17.510 -46.120  1.00  0.00     0.127 C 
BRANCH   3   4
HETATM    4  C4  UNL     1      14.312 -18.139 -44.751  1.00  0.00     0.003 C 
HETATM    5  C3  UNL     1      14.071 -16.980 -43.772  1.00  0.00     0.006 C 
HETATM    6  C2  UNL     1      14.203 -17.639 -42.404  1.00  0.00     0.000 C 
HETATM    7  C1  UNL     1      13.027 -18.528 -42.211  1.00  0.00     0.000 C 
HETATM    8  C10 UNL     1      12.683 -19.424 -43.327  1.00  0.00     0.000 C 
HETATM    9  C9  UNL     1      13.174 -19.086 -44.671  1.00  0.00     0.006 C 
ENDBRANCH   3   4
ENDBRANCH   1   3
BRANCH   1  10
HETATM   10  C6  UNL     1      16.120 -18.388 -47.664  1.00  0.00     0.171 C 
HETATM   11  N2  UNL     1      16.935 -17.388 -47.597  1.00  0.00    -0.361 N 
HETATM   12  C7  UNL     1      18.188 -17.685 -48.260  1.00  0.00     0.142 C 
ATOM     13  H2  UNL     1      16.723 -16.503 -47.137  1.00  0.00     0.162 HD
HETATM   14  C8  UNL     1      17.806 -18.850 -49.148  1.00  0.00     0.142 C 
HETATM   15  N3  UNL     1      16.739 -19.461 -48.380  1.00  0.00    -0.361 N 
ATOM     16  H3  UNL     1      16.484 -20.448 -48.355  1.00  0.00     0.162 HD
ENDBRANCH   1  10
TORSDOF 3
ENDMDL
MODEL 5
REMARK VINA RESULT: -6.134194825      2.315      4.030
REMARK  3 active torsions:
REMARK  status: ('A' for Active; 'I' for Inactive)
REMARK    1  A    between atoms: C4_4  and  C5_5 
REMARK    2  A    between atoms: C5_5  and  N1_6 
REMARK    3  A    between atoms: N1_6  and  C6_8 
ROOT
HETATM    1  N1  UNL     1      14.834 -17.773 -46.745  1.00  0.00    -0.362 N 
ATOM      2  H1  UNL     1      14.779 -16.773 -46.550  1.00  0.00     0.162 HD
ENDROOT
BRANCH   1   3
HETATM    3  C5  UNL     1      13.796 -18.668 -46.302  1.00  0.00     0.127 C 
BRANCH   3   4
HETATM    4  C4  UNL     1      13.257 -18.290 -44.943  1.00  0.00     0.003 C 
HETATM    5  C3  UNL     1      13.249 -19.586 -44.118  1.00  0.00     0.006 C 
HETATM    6  C2  UNL     1      12.492 -19.195 -42.854  1.00  0.00     0.000 C 
HETATM    7  C1  UNL     1      13.357 -18.271 -42.072  1.00  0.00     0.000 C 
HETATM    8  C10 UNL     1      13.988 -17.167 -42.813  1.00  0.00     0.000 C 
HETATM    9  C9  UNL     1      14.125 -17.292 -44.272  1.00  0.00     0.006 C 
ENDBRANCH   3   4
ENDBRANCH   1   3
BRANCH   1  10
HETATM   10  C6  UNL     1      15.938 -18.315 -47.462  1.00  0.00     0.171 C 
HETATM   11  N2  UNL     1      17.146 -17.857 -47.501  1.00  0.00    -0.361 N 
HETATM   12  C7  UNL     1      17.994 -18.680 -48.339  1.00  0.00     0.142 C 
ATOM     13  H2  UNL     1      17.461 -17.022 -47.006  1.00  0.00     0.162 HD
HETATM   14  C8  UNL     1      16.979 -19.429 -49.175  1.00  0.00     0.142 C 
HETATM   15  N3  UNL     1      15.849 -19.493 -48.269  1.00  0.00    -0.361 N 
ATOM     16  H3  UNL     1      15.139 -20.224 -48.219  1.00  0.00     0.162 HD
ENDBRANCH   1  10
TORSDOF 3
ENDMDL
