MODEL 1
REMARK VINA RESULT: -6.995907356      0.000      0.000
REMARK  4 active torsions:
REMARK  status: ('A' for Active; 'I' for Inactive)
REMARK       I    between atoms: C1_2  and  N2_4 
REMARK    1  A    between atoms: N2_4  and  N3_6 
REMARK    2  A    between atoms: N3_6  and  N4_8 
REMARK    3  A    between atoms: N4_8  and  C2_10 
REMARK    4  A    between atoms: C2_10  and  C3_11 
ROOT
HETATM    1  N4  UNL     1      13.772 -18.871 -47.099  1.00  0.00    -0.322 N 
ATOM      2  H4  UNL     1      13.375 -19.641 -47.637  1.00  0.00     0.181 HD
ENDROOT
BRANCH   1   3
HETATM    3  N3  UNL     1      14.944 -18.399 -47.356  1.00  0.00    -0.243 N 
ATOM      4  H3  UNL     1      15.293 -17.619 -46.797  1.00  0.00     0.208 HD
BRANCH   3   5
HETATM    5  N2  UNL     1      15.747 -18.909 -48.362  1.00  0.00    -0.240 N 
HETATM    6  C1  UNL     1      17.149 -18.829 -48.228  1.00  0.00     0.348 C 
HETATM    7  N1  UNL     1      18.005 -19.354 -49.263  1.00  0.00    -0.038 NA
HETATM    8  O1  UNL     1      17.689 -18.308 -47.219  1.00  0.00    -0.249 OA
ATOM      9  H2  UNL     1      15.330 -19.337 -49.188  1.00  0.00     0.193 HD
ENDBRANCH   3   5
ENDBRANCH   1   3
BRANCH   1  10
HETATM   10  C2  UNL     1      13.055 -18.259 -46.018  1.00  0.00     0.145 C 
BRANCH  10  11
HETATM   11  C3  UNL     1      13.738 -18.509 -44.666  1.00  0.00     0.005 C 
HETATM   12  C4  UNL     1      12.806 -19.384 -43.906  1.00  0.00     0.006 C 
HETATM   13  C5  UNL     1      13.041 -19.470 -42.451  1.00  0.00     0.000 C 
HETATM   14  C6  UNL     1      13.860 -18.387 -41.854  1.00  0.00     0.000 C 
HETATM   15  C7  UNL     1      13.813 -17.087 -42.595  1.00  0.00     0.000 C 
HETATM   16  C8  UNL     1      14.016 -17.188 -44.056  1.00  0.00     0.006 C 
ENDBRANCH  10  11
ENDBRANCH   1  10
TORSDOF 4
ENDMDL
MODEL 2
REMARK VINA RESULT: -6.508358273      1.360      1.530
REMARK  4 active torsions:
REMARK  status: ('A' for Active; 'I' for Inactive)
REMARK       I    between atoms: C1_2  and  N2_4 
REMARK    1  A    between atoms: N2_4  and  N3_6 
REMARK    2  A    between atoms: N3_6  and  N4_8 
REMARK    3  A    between atoms: N4_8  and  C2_10 
REMARK    4  A    between atoms: C2_10  and  C3_11 
ROOT
HETATM    1  N4  UNL     1      13.169 -18.116 -45.916  1.00  0.00    -0.322 N 
ATOM      2  H4  UNL     1      13.200 -17.137 -45.633  1.00  0.00     0.181 HD
ENDROOT
BRANCH   1   3
HETATM    3  N3  UNL     1      13.498 -18.488 -47.106  1.00  0.00    -0.243 N 
ATOM      4  H3  UNL     1      12.770 -18.562 -47.817  1.00  0.00     0.208 HD
BRANCH   3   5
HETATM    5  N2  UNL     1      14.803 -18.789 -47.457  1.00  0.00    -0.240 N 
HETATM    6  C1  UNL     1      15.836 -17.902 -47.088  1.00  0.00     0.348 C 
HETATM    7  N1  UNL     1      17.203 -18.195 -47.443  1.00  0.00    -0.038 NA
HETATM    8  O1  UNL     1      15.603 -16.844 -46.448  1.00  0.00    -0.249 OA
ATOM      9  H2  UNL     1      15.015 -19.642 -47.974  1.00  0.00     0.193 HD
ENDBRANCH   3   5
ENDBRANCH   1   3
BRANCH   1  10
HETATM   10  C2  UNL     1      12.758 -19.150 -45.011  1.00  0.00     0.145 C 
BRANCH  10  11
HETATM   11  C3  UNL     1      13.510 -19.073 -43.676  1.00  0.00     0.005 C 
HETATM   12  C4  UNL     1      12.534 -19.514 -42.644  1.00  0.00     0.006 C 
HETATM   13  C5  UNL     1      12.875 -19.183 -41.247  1.00  0.00     0.000 C 
HETATM   14  C6  UNL     1      13.881 -18.110 -41.054  1.00  0.00     0.000 C 
HETATM   15  C7  UNL     1      13.950 -17.111 -42.167  1.00  0.00     0.000 C 
HETATM   16  C8  UNL     1      14.016 -17.688 -43.527  1.00  0.00     0.006 C 
ENDBRANCH  10  11
ENDBRANCH   1  10
TORSDOF 4
ENDMDL
MODEL 3
REMARK VINA RESULT: -6.454365555      1.153      1.771
REMARK  4 active torsions:
REMARK  status: ('A' for Active; 'I' for Inactive)
REMARK       I    between atoms: C1_2  and  N2_4 
REMARK    1  A    between atoms: N2_4  and  N3_6 
REMARK    2  A    between atoms: N3_6  and  N4_8 
REMARK    3  A    between atoms: N4_8  and  C2_10 
REMARK    4  A    between atoms: C2_10  and  C3_11 
ROOT
HETATM    1  N4  UNL     1      14.301 -18.387 -47.075  1.00  0.00    -0.322 N 
ATOM      2  H4  UNL     1      13.334 -18.661 -47.249  1.00  0.00     0.181 HD
ENDROOT
BRANCH   1   3
HETATM    3  N3  UNL     1      15.258 -18.744 -47.863  1.00  0.00    -0.243 N 
ATOM      4  H3  UNL     1      15.084 -19.483 -48.544  1.00  0.00     0.208 HD
BRANCH   3   5
HETATM    5  N2  UNL     1      16.513 -18.161 -47.819  1.00  0.00    -0.240 N 
HETATM    6  C1  UNL     1      17.638 -18.925 -48.196  1.00  0.00     0.348 C 
HETATM    7  N1  UNL     1      18.956 -18.339 -48.158  1.00  0.00    -0.038 NA
HETATM    8  O1  UNL     1      17.531 -20.121 -48.571  1.00  0.00    -0.249 OA
ATOM      9  H2  UNL     1      16.623 -17.193 -47.519  1.00  0.00     0.193 HD
ENDBRANCH   3   5
ENDBRANCH   1   3
BRANCH   1  10
HETATM   10  C2  UNL     1      14.666 -17.587 -45.943  1.00  0.00     0.145 C 
BRANCH  10  11
HETATM   11  C3  UNL     1      13.617 -17.667 -44.825  1.00  0.00     0.005 C 
HETATM   12  C4  UNL     1      14.263 -17.062 -43.630  1.00  0.00     0.006 C 
HETATM   13  C5  UNL     1      13.619 -17.346 -42.333  1.00  0.00     0.000 C 
HETATM   14  C6  UNL     1      12.698 -18.509 -42.299  1.00  0.00     0.000 C 
HETATM   15  C7  UNL     1      12.998 -19.573 -43.308  1.00  0.00     0.000 C 
HETATM   16  C8  UNL     1      13.219 -19.087 -44.688  1.00  0.00     0.006 C 
ENDBRANCH  10  11
ENDBRANCH   1  10
TORSDOF 4
ENDMDL
MODEL 4
REMARK VINA RESULT: -6.381235410      2.951      4.253
REMARK  4 active torsions:
REMARK  status: ('A' for Active; 'I' for Inactive)
REMARK       I    between atoms: C1_2  and  N2_4 
REMARK    1  A    between atoms: N2_4  and  N3_6 
REMARK    2  A    between atoms: N3_6  and  N4_8 
REMARK    3  A    between atoms: N4_8  and  C2_10 
REMARK    4  A    between atoms: C2_10  and  C3_11 
ROOT
HETATM    1  N4  UNL     1      14.360 -17.878 -42.800  1.00  0.00    -0.322 N 
ATOM      2  H4  UNL     1      15.105 -18.566 -42.913  1.00  0.00     0.181 HD
ENDROOT
BRANCH   1   3
HETATM    3  N3  UNL     1      13.971 -17.134 -43.778  1.00  0.00    -0.243 N 
ATOM      4  H3  UNL     1      13.507 -16.250 -43.569  1.00  0.00     0.208 HD
BRANCH   3   5
HETATM    5  N2  UNL     1      14.160 -17.490 -45.103  1.00  0.00    -0.240 N 
HETATM    6  C1  UNL     1      13.544 -18.660 -45.594  1.00  0.00     0.348 C 
HETATM    7  N1  UNL     1      13.726 -19.050 -46.970  1.00  0.00    -0.038 NA
HETATM    8  O1  UNL     1      12.827 -19.389 -44.861  1.00  0.00    -0.249 OA
ATOM      9  H2  UNL     1      14.736 -16.913 -45.716  1.00  0.00     0.193 HD
ENDBRANCH   3   5
ENDBRANCH   1   3
BRANCH   1  10
HETATM   10  C2  UNL     1      13.693 -17.689 -41.544  1.00  0.00     0.145 C 
BRANCH  10  11
HETATM   11  C3  UNL     1      13.295 -19.025 -40.902  1.00  0.00     0.005 C 
HETATM   12  C4  UNL     1      12.148 -19.526 -41.705  1.00  0.00     0.006 C 
HETATM   13  C5  UNL     1      11.341 -20.595 -41.085  1.00  0.00     0.000 C 
HETATM   14  C6  UNL     1      11.476 -20.749 -39.615  1.00  0.00     0.000 C 
HETATM   15  C7  UNL     1      11.866 -19.500 -38.890  1.00  0.00     0.000 C 
HETATM   16  C8  UNL     1      13.009 -18.765 -39.472  1.00  0.00     0.006 C 
ENDBRANCH  10  11
ENDBRANCH   1  10
TORSDOF 4
ENDMDL
MODEL 5
REMARK VINA RESULT: -6.318357862      1.212      1.856
REMARK  4 active torsions:
REMARK  status: ('A' for Active; 'I' for Inactive)
REMARK       I    between atoms: C1_2  and  N2_4 
REMARK    1  A    between atoms: N2_4  and  N3_6 
REMARK    2  A    between atoms: N3_6  and  N4_8 
REMARK    3  A    between atoms: N4_8  and  C2_10 
REMARK    4  A    between atoms: C2_10  and  C3_11 
ROOT
HETATM    1  N4  UNL     1      13.389 -18.248 -46.328  1.00  0.00    -0.322 N 
ATOM      2  H4  UNL     1      12.738 -17.466 -46.398  1.00  0.00     0.181 HD
ENDROOT
BRANCH   1   3
HETATM    3  N3  UNL     1      14.340 -18.416 -47.183  1.00  0.00    -0.243 N 
ATOM      4  H3  UNL     1      14.169 -19.004 -47.999  1.00  0.00     0.208 HD
BRANCH   3   5
HETATM    5  N2  UNL     1      15.584 -17.827 -47.036  1.00  0.00    -0.240 N 
HETATM    6  C1  UNL     1      16.696 -18.398 -47.690  1.00  0.00     0.348 C 
HETATM    7  N1  UNL     1      18.002 -17.802 -47.551  1.00  0.00    -0.038 NA
HETATM    8  O1  UNL     1      16.587 -19.428 -48.404  1.00  0.00    -0.249 OA
ATOM      9  H2  UNL     1      15.696 -16.991 -46.462  1.00  0.00     0.193 HD
ENDBRANCH   3   5
ENDBRANCH   1   3
BRANCH   1  10
HETATM   10  C2  UNL     1      13.294 -19.218 -45.276  1.00  0.00     0.145 C 
BRANCH  10  11
HETATM   11  C3  UNL     1      13.017 -18.561 -43.917  1.00  0.00     0.005 C 
HETATM   12  C4  UNL     1      14.218 -17.734 -43.623  1.00  0.00     0.006 C 
HETATM   13  C5  UNL     1      14.374 -17.296 -42.222  1.00  0.00     0.000 C 
HETATM   14  C6  UNL     1      13.599 -18.053 -41.208  1.00  0.00     0.000 C 
HETATM   15  C7  UNL     1      13.286 -19.466 -41.588  1.00  0.00     0.000 C 
HETATM   16  C8  UNL     1      12.732 -19.644 -42.947  1.00  0.00     0.006 C 
ENDBRANCH  10  11
ENDBRANCH   1  10
TORSDOF 4
ENDMDL
