MODEL 1
REMARK VINA RESULT: -6.105041665      0.000      0.000
REMARK  4 active torsions:
REMARK  status: ('A' for Active; 'I' for Inactive)
REMARK    1  A    between atoms: C2_2  and  N1_3 
REMARK       I    between atoms: N1_3  and  C3_5 
REMARK       I    between atoms: C3_5  and  N4_12 
REMARK    2  A    between atoms: N2_6  and  N3_8 
REMARK    3  A    between atoms: N3_8  and  O1_10 
REMARK    4  A    between atoms: N4_12  and  C4_14 
ROOT
HETATM    1  N1  UNL     1      13.795 -18.738 -39.945  1.00  0.00    -0.225 N 
ATOM      2  H1  UNL     1      14.602 -19.297 -39.666  1.00  0.00     0.177 HD
HETATM    3  C3  UNL     1      14.024 -17.606 -40.741  1.00  0.00     0.690 C 
HETATM    4  N2  UNL     1      14.884 -16.703 -40.342  1.00  0.00    -0.113 N 
ATOM      5  H2  UNL     1      15.055 -15.877 -40.916  1.00  0.00     0.207 HD
HETATM    6  N4  UNL     1      13.382 -17.353 -41.982  1.00  0.00    -0.220 N 
ATOM      7  H4  UNL     1      12.629 -16.668 -42.044  1.00  0.00     0.178 HD
ENDROOT
BRANCH   1   8
HETATM    8  C2  UNL     1      12.488 -19.164 -39.495  1.00  0.00     0.133 C 
HETATM    9  C1  UNL     1      11.993 -20.327 -40.324  1.00  0.00     0.027 C 
ENDBRANCH   1   8
BRANCH   4  10
HETATM   10  N3  UNL     1      15.565 -16.861 -39.138  1.00  0.00    -0.196 N 
ATOM     11  H3  UNL     1      15.411 -16.151 -38.421  1.00  0.00     0.216 HD
BRANCH  10  12
HETATM   12  O1  UNL     1      16.330 -17.774 -38.861  1.00  0.00    -0.274 OA
ATOM     13  H1  UNL     1      16.224 -18.685 -39.107  1.00  0.00     0.246 HD
ENDBRANCH  10  12
ENDBRANCH   4  10
BRANCH   6  14
HETATM   14  C4  UNL     1      13.805 -18.068 -43.136  1.00  0.00     0.099 C 
HETATM   15  C5  UNL     1      14.030 -17.159 -44.340  1.00  0.00     0.026 C 
HETATM   16  C6  UNL     1      13.692 -18.009 -45.559  1.00  0.00     0.002 C 
HETATM   17  C7  UNL     1      13.411 -19.408 -45.006  1.00  0.00     0.002 C 
HETATM   18  C8  UNL     1      12.751 -19.011 -43.678  1.00  0.00     0.026 C 
ENDBRANCH   6  14
TORSDOF 4
ENDMDL
MODEL 2
REMARK VINA RESULT: -5.907182124     10.282     11.837
REMARK  4 active torsions:
REMARK  status: ('A' for Active; 'I' for Inactive)
REMARK    1  A    between atoms: C2_2  and  N1_3 
REMARK       I    between atoms: N1_3  and  C3_5 
REMARK       I    between atoms: C3_5  and  N4_12 
REMARK    2  A    between atoms: N2_6  and  N3_8 
REMARK    3  A    between atoms: N3_8  and  O1_10 
REMARK    4  A    between atoms: N4_12  and  C4_14 
ROOT
HETATM    1  N1  UNL     1      17.025 -22.615 -50.327  1.00  0.00    -0.225 N 
ATOM      2  H1  UNL     1      17.274 -21.998 -51.101  1.00  0.00     0.177 HD
HETATM    3  C3  UNL     1      17.430 -23.956 -50.400  1.00  0.00     0.690 C 
HETATM    4  N2  UNL     1      17.116 -24.665 -51.455  1.00  0.00    -0.113 N 
ATOM      5  H2  UNL     1      17.408 -25.642 -51.514  1.00  0.00     0.207 HD
HETATM    6  N4  UNL     1      18.175 -24.626 -49.394  1.00  0.00    -0.220 N 
ATOM      7  H4  UNL     1      17.717 -25.285 -48.764  1.00  0.00     0.178 HD
ENDROOT
BRANCH   1   8
HETATM    8  C2  UNL     1      16.277 -22.050 -49.225  1.00  0.00     0.133 C 
HETATM    9  C1  UNL     1      16.788 -20.667 -48.889  1.00  0.00     0.027 C 
ENDBRANCH   1   8
BRANCH   4  10
HETATM   10  N3  UNL     1      16.386 -24.097 -52.495  1.00  0.00    -0.196 N 
ATOM     11  H3  UNL     1      15.386 -23.966 -52.343  1.00  0.00     0.216 HD
BRANCH  10  12
HETATM   12  O1  UNL     1      16.835 -23.741 -53.576  1.00  0.00    -0.274 OA
ATOM     13  H1  UNL     1      16.630 -22.929 -54.024  1.00  0.00     0.246 HD
ENDBRANCH  10  12
ENDBRANCH   4  10
BRANCH   6  14
HETATM   14  C4  UNL     1      19.568 -24.366 -49.279  1.00  0.00     0.099 C 
HETATM   15  C5  UNL     1      20.283 -25.377 -48.390  1.00  0.00     0.026 C 
HETATM   16  C6  UNL     1      21.429 -24.610 -47.742  1.00  0.00     0.002 C 
HETATM   17  C7  UNL     1      21.398 -23.223 -48.388  1.00  0.00     0.002 C 
HETATM   18  C8  UNL     1      19.879 -23.072 -48.555  1.00  0.00     0.026 C 
ENDBRANCH   6  14
TORSDOF 4
ENDMDL
MODEL 3
REMARK VINA RESULT: -5.494916815      5.031      7.003
REMARK  4 active torsions:
REMARK  status: ('A' for Active; 'I' for Inactive)
REMARK    1  A    between atoms: C2_2  and  N1_3 
REMARK       I    between atoms: N1_3  and  C3_5 
REMARK       I    between atoms: C3_5  and  N4_12 
REMARK    2  A    between atoms: N2_6  and  N3_8 
REMARK    3  A    between atoms: N3_8  and  O1_10 
REMARK    4  A    between atoms: N4_12  and  C4_14 
ROOT
HETATM    1  N1  UNL     1      16.597 -17.319 -47.032  1.00  0.00    -0.225 N 
ATOM      2  H1  UNL     1      17.427 -17.907 -46.959  1.00  0.00     0.177 HD
HETATM    3  C3  UNL     1      15.344 -17.950 -47.044  1.00  0.00     0.690 C 
HETATM    4  N2  UNL     1      15.110 -18.898 -47.916  1.00  0.00    -0.113 N 
ATOM      5  H2  UNL     1      14.201 -19.361 -47.931  1.00  0.00     0.207 HD
HETATM    6  N4  UNL     1      14.277 -17.636 -46.162  1.00  0.00    -0.220 N 
ATOM      7  H4  UNL     1      13.482 -17.084 -46.486  1.00  0.00     0.178 HD
ENDROOT
BRANCH   1   8
HETATM    8  C2  UNL     1      16.787 -15.887 -47.116  1.00  0.00     0.133 C 
HETATM    9  C1  UNL     1      18.054 -15.563 -47.874  1.00  0.00     0.027 C 
ENDBRANCH   1   8
BRANCH   4  10
HETATM   10  N3  UNL     1      16.094 -19.278 -48.825  1.00  0.00    -0.196 N 
ATOM     11  H3  UNL     1      16.642 -20.108 -48.596  1.00  0.00     0.216 HD
BRANCH  10  12
HETATM   12  O1  UNL     1      16.363 -18.707 -49.873  1.00  0.00    -0.274 OA
ATOM     13  H1  UNL     1      15.817 -18.680 -50.649  1.00  0.00     0.246 HD
ENDBRANCH  10  12
ENDBRANCH   4  10
BRANCH   6  14
HETATM   14  C4  UNL     1      14.333 -18.101 -44.818  1.00  0.00     0.099 C 
HETATM   15  C5  UNL     1      13.282 -19.165 -44.522  1.00  0.00     0.026 C 
HETATM   16  C6  UNL     1      12.926 -18.985 -43.051  1.00  0.00     0.002 C 
HETATM   17  C7  UNL     1      13.884 -17.907 -42.537  1.00  0.00     0.002 C 
HETATM   18  C8  UNL     1      13.967 -17.040 -43.801  1.00  0.00     0.026 C 
ENDBRANCH   6  14
TORSDOF 4
ENDMDL
MODEL 4
REMARK VINA RESULT: -5.312076346      9.561     10.292
REMARK  4 active torsions:
REMARK  status: ('A' for Active; 'I' for Inactive)
REMARK    1  A    between atoms: C2_2  and  N1_3 
REMARK       I    between atoms: N1_3  and  C3_5 
REMARK       I    between atoms: C3_5  and  N4_12 
REMARK    2  A    between atoms: N2_6  and  N3_8 
REMARK    3  A    between atoms: N3_8  and  O1_10 
REMARK    4  A    between atoms: N4_12  and  C4_14 
ROOT
HETATM    1  N1  UNL     1      18.851 -22.635 -48.820  1.00  0.00    -0.225 N 
ATOM      2  H1  UNL     1      18.065 -22.997 -48.281  1.00  0.00     0.177 HD
HETATM    3  C3  UNL     1      18.761 -21.325 -49.314  1.00  0.00     0.690 C 
HETATM    4  N2  UNL     1      17.724 -20.981 -50.037  1.00  0.00    -0.113 N 
ATOM      5  H2  UNL     1      17.652 -20.030 -50.399  1.00  0.00     0.207 HD
HETATM    6  N4  UNL     1      19.729 -20.312 -49.088  1.00  0.00    -0.220 N 
ATOM      7  H4  UNL     1      20.383 -20.047 -49.824  1.00  0.00     0.178 HD
ENDROOT
BRANCH   1   8
HETATM    8  C2  UNL     1      19.989 -23.505 -49.028  1.00  0.00     0.133 C 
HETATM    9  C1  UNL     1      19.768 -24.839 -48.352  1.00  0.00     0.027 C 
ENDBRANCH   1   8
BRANCH   4  10
HETATM   10  N3  UNL     1      16.721 -21.905 -50.315  1.00  0.00    -0.196 N 
ATOM     11  H3  UNL     1      15.790 -21.702 -49.950  1.00  0.00     0.216 HD
BRANCH  10  12
HETATM   12  O1  UNL     1      16.853 -22.938 -50.956  1.00  0.00    -0.274 OA
ATOM     13  H1  UNL     1      17.649 -23.450 -51.030  1.00  0.00     0.246 HD
ENDBRANCH  10  12
ENDBRANCH   4  10
BRANCH   6  14
HETATM   14  C4  UNL     1      19.774 -19.672 -47.818  1.00  0.00     0.099 C 
HETATM   15  C5  UNL     1      19.576 -18.164 -47.913  1.00  0.00     0.026 C 
HETATM   16  C6  UNL     1      20.386 -17.574 -46.764  1.00  0.00     0.002 C 
HETATM   17  C7  UNL     1      20.909 -18.782 -45.983  1.00  0.00     0.002 C 
HETATM   18  C8  UNL     1      21.135 -19.745 -47.157  1.00  0.00     0.026 C 
ENDBRANCH   6  14
TORSDOF 4
ENDMDL
MODEL 5
REMARK VINA RESULT: -5.270025237      6.120      7.919
REMARK  4 active torsions:
REMARK  status: ('A' for Active; 'I' for Inactive)
REMARK    1  A    between atoms: C2_2  and  N1_3 
REMARK       I    between atoms: N1_3  and  C3_5 
REMARK       I    between atoms: C3_5  and  N4_12 
REMARK    2  A    between atoms: N2_6  and  N3_8 
REMARK    3  A    between atoms: N3_8  and  O1_10 
REMARK    4  A    between atoms: N4_12  and  C4_14 
ROOT
HETATM    1  N1  UNL     1      17.860 -18.786 -47.979  1.00  0.00    -0.225 N 
ATOM      2  H1  UNL     1      18.443 -19.534 -47.602  1.00  0.00     0.177 HD
HETATM    3  C3  UNL     1      16.530 -19.090 -48.302  1.00  0.00     0.690 C 
HETATM    4  N2  UNL     1      16.276 -20.093 -49.104  1.00  0.00    -0.113 N 
ATOM      5  H2  UNL     1      15.311 -20.320 -49.343  1.00  0.00     0.207 HD
HETATM    6  N4  UNL     1      15.402 -18.379 -47.815  1.00  0.00    -0.220 N 
ATOM      7  H4  UNL     1      14.907 -17.719 -48.415  1.00  0.00     0.178 HD
ENDROOT
BRANCH   1   8
HETATM    8  C2  UNL     1      18.459 -17.479 -48.145  1.00  0.00     0.133 C 
HETATM    9  C1  UNL     1      19.671 -17.333 -47.253  1.00  0.00     0.027 C 
ENDBRANCH   1   8
BRANCH   4  10
HETATM   10  N3  UNL     1      17.316 -20.852 -49.634  1.00  0.00    -0.196 N 
ATOM     11  H3  UNL     1      17.365 -21.832 -49.354  1.00  0.00     0.216 HD
BRANCH  10  12
HETATM   12  O1  UNL     1      18.177 -20.451 -50.405  1.00  0.00    -0.274 OA
ATOM     13  H1  UNL     1      18.993 -20.894 -50.609  1.00  0.00     0.246 HD
ENDBRANCH  10  12
ENDBRANCH   4  10
BRANCH   6  14
HETATM   14  C4  UNL     1      14.972 -18.599 -46.477  1.00  0.00     0.099 C 
HETATM   15  C5  UNL     1      13.638 -19.333 -46.403  1.00  0.00     0.026 C 
HETATM   16  C6  UNL     1      12.963 -18.821 -45.136  1.00  0.00     0.002 C 
HETATM   17  C7  UNL     1      13.997 -17.910 -44.472  1.00  0.00     0.002 C 
HETATM   18  C8  UNL     1      14.641 -17.321 -45.735  1.00  0.00     0.026 C 
ENDBRANCH   6  14
TORSDOF 4
ENDMDL
