MODEL 1
REMARK VINA RESULT: -7.718789518      0.000      0.000
REMARK  16 active torsions:
REMARK  status: ('A' for Active; 'I' for Inactive)
REMARK    1  A    between atoms: C5_5  and  N1_6 
REMARK    2  A    between atoms: N1_6  and  C6_8 
REMARK    3  A    between atoms: C9_16  and  N4_17 
REMARK    4  A    between atoms: N4_17  and  C10_19 
REMARK    5  A    between atoms: C10_19  and  N5_21 
REMARK    6  A    between atoms: N5_21  and  C11_23 
REMARK    7  A    between atoms: C11_23  and  C12_24 
REMARK    8  A    between atoms: C12_24  and  C13_25 
REMARK    9  A    between atoms: C13_25  and  C14_26 
REMARK   10  A    between atoms: C14_26  and  C15_27 
REMARK   11  A    between atoms: C15_27  and  C16_28 
REMARK   12  A    between atoms: C16_28  and  C17_29 
REMARK   13  A    between atoms: C17_29  and  C18_30 
REMARK   14  A    between atoms: N6_32  and  N7_34 
REMARK   15  A    between atoms: C19_39  and  C20_40 
REMARK   16  A    between atoms: C21_41  and  N9_42 
ROOT
HETATM    1  C6  UNL     1      18.933   1.560  19.549  1.00  0.00     0.151 A 
HETATM    2  N2  UNL     1      17.748   1.957  20.044  1.00  0.00    -0.332 N 
ATOM      3  H2  UNL     1      17.345   2.858  19.784  1.00  0.00     0.168 HD
HETATM    4  C7  UNL     1      17.108   1.128  20.893  1.00  0.00     0.096 A 
HETATM    5 BR1  UNL     1      15.428   1.612  21.638  1.00  0.00    -0.030 Br
HETATM    6  C8  UNL     1      17.657  -0.099  21.246  1.00  0.00     0.127 A 
HETATM    7  N3  UNL     1      18.845  -0.496  20.751  1.00  0.00    -0.346 N 
ATOM      8  H3  UNL     1      19.250  -1.396  21.010  1.00  0.00     0.167 HD
HETATM    9  C9  UNL     1      19.486   0.345  19.893  1.00  0.00     0.152 A 
ENDROOT
BRANCH   9  10
HETATM   10  N4  UNL     1      20.634   0.015  19.387  1.00  0.00    -0.316 N 
ATOM     11  H4  UNL     1      20.742  -0.051  18.375  1.00  0.00     0.170 HD
BRANCH  10  12
HETATM   12  C10 UNL     1      21.747  -0.258  20.239  1.00  0.00     0.177 C 
HETATM   13  S1  UNL     1      22.200  -1.787  20.548  1.00  0.00    -0.040 SA
BRANCH  12  14
HETATM   14  N5  UNL     1      22.511   0.817  20.859  1.00  0.00    -0.343 N 
ATOM     15  H5  UNL     1      22.327   1.104  21.820  1.00  0.00     0.167 HD
BRANCH  14  16
HETATM   16  C11 UNL     1      23.494   1.438  20.107  1.00  0.00     0.087 C 
BRANCH  16  17
HETATM   17  C12 UNL     1      24.553   2.306  20.595  1.00  0.00    -0.004 C 
BRANCH  17  18
HETATM   18  C13 UNL     1      24.882   2.453  22.014  1.00  0.00     0.082 C 
BRANCH  18  19
HETATM   19  C14 UNL     1      24.640   3.725  22.699  1.00  0.00     0.008 C 
HETATM   20  N6  UNL     1      25.520   4.650  22.676  1.00  0.00    -0.295 N 
ATOM     21  H6  UNL     1      26.399   4.507  22.179  1.00  0.00     0.187 HD
BRANCH  19  22
HETATM   22  C15 UNL     1      23.369   3.905  23.527  1.00  0.00     0.054 C 
BRANCH  22  23
HETATM   23  C16 UNL     1      23.168   2.740  24.417  1.00  0.00     0.006 C 
BRANCH  23  24
HETATM   24  C17 UNL     1      23.777   2.766  25.759  1.00  0.00     0.011 C 
BRANCH  24  25
HETATM   25  C18 UNL     1      24.714   3.856  26.081  1.00  0.00     0.085 C 
HETATM   26 BR2  UNL     1      23.851   5.431  26.723  1.00  0.00    -0.097 Br
ENDBRANCH  24  25
ENDBRANCH  23  24
ENDBRANCH  22  23
ENDBRANCH  19  22
BRANCH  20  27
HETATM   27  N7  UNL     1      25.277   5.852  23.331  1.00  0.00    -0.249 N 
HETATM   28  N8  UNL     1      26.171   6.765  23.415  1.00  0.00    -0.331 N 
ATOM     29  H82 UNL     1      27.079   6.589  22.985  1.00  0.00     0.178 HD
ATOM     30  H81 UNL     1      25.993   7.647  23.895  1.00  0.00     0.178 HD
ATOM     31  H7  UNL     1      24.362   6.012  23.755  1.00  0.00     0.207 HD
ENDBRANCH  20  27
ENDBRANCH  18  19
ENDBRANCH  17  18
ENDBRANCH  16  17
ENDBRANCH  14  16
ENDBRANCH  12  14
ENDBRANCH  10  12
ENDBRANCH   9  10
BRANCH   1  32
HETATM   32  N1  UNL     1      19.579   2.326  18.739  1.00  0.00    -0.338 N 
ATOM     33  H1  UNL     1      19.394   2.214  17.742  1.00  0.00     0.167 HD
BRANCH  32  34
HETATM   34  C5  UNL     1      20.514   3.297  19.116  1.00  0.00     0.052 A 
HETATM   35  C4  UNL     1      20.498   3.770  20.411  1.00  0.00     0.031 A 
HETATM   36  C3  UNL     1      21.401   4.730  20.827  1.00  0.00     0.009 A 
HETATM   37  C2  UNL     1      22.329   5.207  19.902  1.00  0.00    -0.060 A 
HETATM   38  C1  UNL     1      23.291   6.235  20.360  1.00  0.00     0.048 C 
HETATM   39  C22 UNL     1      22.362   4.748  18.603  1.00  0.00     0.029 A 
HETATM   40  C19 UNL     1      21.438   3.787  18.233  1.00  0.00     0.046 A 
BRANCH  40  41
HETATM   41  C20 UNL     1      21.507   3.332  16.859  1.00  0.00    -0.042 C 
HETATM   42  C21 UNL     1      21.565   2.975  15.714  1.00  0.00     0.009 C 
BRANCH  42  43
HETATM   43  N9  UNL     1      21.655   2.573  14.377  1.00  0.00    -0.359 N 
ATOM     44  H92 UNL     1      22.050   2.250  15.261  1.00  0.00     0.166 HD
ATOM     45  H91 UNL     1      21.709   2.295  13.398  1.00  0.00     0.166 HD
ENDBRANCH  42  43
ENDBRANCH  40  41
ENDBRANCH  32  34
ENDBRANCH   1  32
TORSDOF 16
ENDMDL
MODEL 2
REMARK VINA RESULT: -7.586125438      3.849      8.994
REMARK  16 active torsions:
REMARK  status: ('A' for Active; 'I' for Inactive)
REMARK    1  A    between atoms: C5_5  and  N1_6 
REMARK    2  A    between atoms: N1_6  and  C6_8 
REMARK    3  A    between atoms: C9_16  and  N4_17 
REMARK    4  A    between atoms: N4_17  and  C10_19 
REMARK    5  A    between atoms: C10_19  and  N5_21 
REMARK    6  A    between atoms: N5_21  and  C11_23 
REMARK    7  A    between atoms: C11_23  and  C12_24 
REMARK    8  A    between atoms: C12_24  and  C13_25 
REMARK    9  A    between atoms: C13_25  and  C14_26 
REMARK   10  A    between atoms: C14_26  and  C15_27 
REMARK   11  A    between atoms: C15_27  and  C16_28 
REMARK   12  A    between atoms: C16_28  and  C17_29 
REMARK   13  A    between atoms: C17_29  and  C18_30 
REMARK   14  A    between atoms: N6_32  and  N7_34 
REMARK   15  A    between atoms: C19_39  and  C20_40 
REMARK   16  A    between atoms: C21_41  and  N9_42 
ROOT
HETATM    1  C6  UNL     1      19.667   2.201  19.859  1.00  0.00     0.151 A 
HETATM    2  N2  UNL     1      20.422   2.112  20.967  1.00  0.00    -0.332 N 
ATOM      3  H2  UNL     1      20.181   1.464  21.717  1.00  0.00     0.168 HD
HETATM    4  C7  UNL     1      21.508   2.906  21.057  1.00  0.00     0.096 A 
HETATM    5 BR1  UNL     1      22.630   2.844  22.590  1.00  0.00    -0.030 Br
HETATM    6  C8  UNL     1      21.837   3.789  20.035  1.00  0.00     0.127 A 
HETATM    7  N3  UNL     1      21.081   3.878  18.925  1.00  0.00    -0.346 N 
ATOM      8  H3  UNL     1      21.320   4.526  18.174  1.00  0.00     0.167 HD
HETATM    9  C9  UNL     1      19.985   3.072  18.839  1.00  0.00     0.152 A 
ENDROOT
BRANCH   9  10
HETATM   10  N4  UNL     1      19.220   3.118  17.793  1.00  0.00    -0.316 N 
ATOM     11  H4  UNL     1      18.237   2.857  17.872  1.00  0.00     0.170 HD
BRANCH  10  12
HETATM   12  C10 UNL     1      19.744   3.531  16.531  1.00  0.00     0.177 C 
HETATM   13  S1  UNL     1      18.954   4.619  15.620  1.00  0.00    -0.040 SA
BRANCH  12  14
HETATM   14  N5  UNL     1      20.999   2.995  16.017  1.00  0.00    -0.343 N 
ATOM     15  H5  UNL     1      21.299   2.049  16.249  1.00  0.00     0.167 HD
BRANCH  14  16
HETATM   16  C11 UNL     1      21.772   3.807  15.204  1.00  0.00     0.087 C 
BRANCH  16  17
HETATM   17  C12 UNL     1      22.107   3.584  13.808  1.00  0.00    -0.004 C 
BRANCH  17  18
HETATM   18  C13 UNL     1      22.630   4.633  12.930  1.00  0.00     0.082 C 
BRANCH  18  19
HETATM   19  C14 UNL     1      21.711   5.483  12.169  1.00  0.00     0.008 C 
HETATM   20  N6  UNL     1      21.019   6.378  12.760  1.00  0.00    -0.295 N 
ATOM     21  H6  UNL     1      21.102   6.506  13.768  1.00  0.00     0.187 HD
BRANCH  19  22
HETATM   22  C15 UNL     1      21.510   5.229  10.676  1.00  0.00     0.054 C 
BRANCH  22  23
HETATM   23  C16 UNL     1      20.864   3.915  10.463  1.00  0.00     0.006 C 
BRANCH  23  24
HETATM   24  C17 UNL     1      19.419   3.791  10.727  1.00  0.00     0.011 C 
BRANCH  24  25
HETATM   25  C18 UNL     1      18.985   2.987  11.883  1.00  0.00     0.085 C 
HETATM   26 BR2  UNL     1      17.602   1.743  11.463  1.00  0.00    -0.097 Br
ENDBRANCH  24  25
ENDBRANCH  23  24
ENDBRANCH  22  23
ENDBRANCH  19  22
BRANCH  20  27
HETATM   27  N7  UNL     1      20.150   7.178  12.026  1.00  0.00    -0.249 N 
HETATM   28  N8  UNL     1      18.883   7.130  12.200  1.00  0.00    -0.331 N 
ATOM     29  H82 UNL     1      18.517   6.484  12.899  1.00  0.00     0.178 HD
ATOM     30  H81 UNL     1      18.245   7.717  11.661  1.00  0.00     0.178 HD
ATOM     31  H7  UNL     1      20.533   7.820  11.331  1.00  0.00     0.207 HD
ENDBRANCH  20  27
ENDBRANCH  18  19
ENDBRANCH  17  18
ENDBRANCH  16  17
ENDBRANCH  14  16
ENDBRANCH  12  14
ENDBRANCH  10  12
ENDBRANCH   9  10
BRANCH   1  32
HETATM   32  N1  UNL     1      18.619   1.463  19.736  1.00  0.00    -0.338 N 
ATOM     33  H1  UNL     1      18.464   1.016  18.833  1.00  0.00     0.167 HD
BRANCH  32  34
HETATM   34  C5  UNL     1      17.674   1.227  20.742  1.00  0.00     0.052 A 
HETATM   35  C4  UNL     1      16.761   2.214  21.045  1.00  0.00     0.031 A 
HETATM   36  C3  UNL     1      15.811   2.025  22.031  1.00  0.00     0.009 A 
HETATM   37  C2  UNL     1      15.801   0.808  22.711  1.00  0.00    -0.060 A 
HETATM   38  C1  UNL     1      14.780   0.618  23.765  1.00  0.00     0.048 C 
HETATM   39  C22 UNL     1      16.705  -0.192  22.424  1.00  0.00     0.029 A 
HETATM   40  C19 UNL     1      17.637   0.043  21.429  1.00  0.00     0.046 A 
BRANCH  40  41
HETATM   41  C20 UNL     1      18.568  -1.034  21.160  1.00  0.00    -0.042 C 
HETATM   42  C21 UNL     1      19.326  -1.940  20.946  1.00  0.00     0.009 C 
BRANCH  42  43
HETATM   43  N9  UNL     1      20.190  -3.008  20.684  1.00  0.00    -0.359 N 
ATOM     44  H92 UNL     1      19.247  -2.750  20.395  1.00  0.00     0.166 HD
ATOM     45  H91 UNL     1      20.834  -3.779  20.505  1.00  0.00     0.166 HD
ENDBRANCH  42  43
ENDBRANCH  40  41
ENDBRANCH  32  34
ENDBRANCH   1  32
TORSDOF 16
ENDMDL
MODEL 3
REMARK VINA RESULT: -7.564587321      2.175      4.246
REMARK  16 active torsions:
REMARK  status: ('A' for Active; 'I' for Inactive)
REMARK    1  A    between atoms: C5_5  and  N1_6 
REMARK    2  A    between atoms: N1_6  and  C6_8 
REMARK    3  A    between atoms: C9_16  and  N4_17 
REMARK    4  A    between atoms: N4_17  and  C10_19 
REMARK    5  A    between atoms: C10_19  and  N5_21 
REMARK    6  A    between atoms: N5_21  and  C11_23 
REMARK    7  A    between atoms: C11_23  and  C12_24 
REMARK    8  A    between atoms: C12_24  and  C13_25 
REMARK    9  A    between atoms: C13_25  and  C14_26 
REMARK   10  A    between atoms: C14_26  and  C15_27 
REMARK   11  A    between atoms: C15_27  and  C16_28 
REMARK   12  A    between atoms: C16_28  and  C17_29 
REMARK   13  A    between atoms: C17_29  and  C18_30 
REMARK   14  A    between atoms: N6_32  and  N7_34 
REMARK   15  A    between atoms: C19_39  and  C20_40 
REMARK   16  A    between atoms: C21_41  and  N9_42 
ROOT
HETATM    1  C6  UNL     1      18.145   0.391  20.268  1.00  0.00     0.151 A 
HETATM    2  N2  UNL     1      17.481  -0.063  21.345  1.00  0.00    -0.332 N 
ATOM      3  H2  UNL     1      17.717  -0.961  21.769  1.00  0.00     0.168 HD
HETATM    4  C7  UNL     1      16.493   0.705  21.849  1.00  0.00     0.096 A 
HETATM    5 BR1  UNL     1      15.504   0.139  23.370  1.00  0.00    -0.030 Br
HETATM    6  C8  UNL     1      16.172   1.928  21.272  1.00  0.00     0.127 A 
HETATM    7  N3  UNL     1      16.837   2.383  20.192  1.00  0.00    -0.346 N 
ATOM      8  H3  UNL     1      16.602   3.280  19.767  1.00  0.00     0.167 HD
HETATM    9  C9  UNL     1      17.835   1.602  19.689  1.00  0.00     0.152 A 
ENDROOT
BRANCH   9  10
HETATM   10  N4  UNL     1      18.507   1.989  18.650  1.00  0.00    -0.316 N 
ATOM     11  H4  UNL     1      18.305   1.585  17.736  1.00  0.00     0.170 HD
BRANCH  10  12
HETATM   12  C10 UNL     1      19.528   2.979  18.777  1.00  0.00     0.177 C 
HETATM   13  S1  UNL     1      20.400   3.443  17.487  1.00  0.00    -0.040 SA
BRANCH  12  14
HETATM   14  N5  UNL     1      19.826   3.603  20.060  1.00  0.00    -0.343 N 
ATOM     15  H5  UNL     1      19.144   3.593  20.819  1.00  0.00     0.167 HD
BRANCH  14  16
HETATM   16  C11 UNL     1      21.059   4.211  20.221  1.00  0.00     0.087 C 
BRANCH  16  17
HETATM   17  C12 UNL     1      21.968   4.067  21.346  1.00  0.00    -0.004 C 
BRANCH  17  18
HETATM   18  C13 UNL     1      23.380   3.707  21.198  1.00  0.00     0.082 C 
BRANCH  18  19
HETATM   19  C14 UNL     1      24.351   4.094  22.225  1.00  0.00     0.008 C 
HETATM   20  N6  UNL     1      24.686   5.317  22.370  1.00  0.00    -0.295 N 
ATOM     21  H6  UNL     1      24.278   6.034  21.770  1.00  0.00     0.187 HD
BRANCH  19  22
HETATM   22  C15 UNL     1      25.037   3.013  23.057  1.00  0.00     0.054 C 
BRANCH  22  23
HETATM   23  C16 UNL     1      24.060   2.362  23.958  1.00  0.00     0.006 C 
BRANCH  23  24
HETATM   24  C17 UNL     1      23.364   3.191  24.958  1.00  0.00     0.011 C 
BRANCH  24  25
HETATM   25  C18 UNL     1      24.132   3.686  26.114  1.00  0.00     0.085 C 
HETATM   26 BR2  UNL     1      23.808   5.524  26.507  1.00  0.00    -0.097 Br
ENDBRANCH  24  25
ENDBRANCH  23  24
ENDBRANCH  22  23
ENDBRANCH  19  22
BRANCH  20  27
HETATM   27  N7  UNL     1      25.608   5.670  23.349  1.00  0.00    -0.249 N 
HETATM   28  N8  UNL     1      26.064   6.863  23.445  1.00  0.00    -0.331 N 
ATOM     29  H82 UNL     1      25.731   7.560  22.778  1.00  0.00     0.178 HD
ATOM     30  H81 UNL     1      26.741   7.122  24.162  1.00  0.00     0.178 HD
ATOM     31  H7  UNL     1      25.931   4.961  24.007  1.00  0.00     0.207 HD
ENDBRANCH  20  27
ENDBRANCH  18  19
ENDBRANCH  17  18
ENDBRANCH  16  17
ENDBRANCH  14  16
ENDBRANCH  12  14
ENDBRANCH  10  12
ENDBRANCH   9  10
BRANCH   1  32
HETATM   32  N1  UNL     1      19.091  -0.315  19.754  1.00  0.00    -0.338 N 
ATOM     33  H1  UNL     1      18.944  -0.682  18.813  1.00  0.00     0.167 HD
BRANCH  32  34
HETATM   34  C5  UNL     1      20.305  -0.621  20.381  1.00  0.00     0.052 A 
HETATM   35  C4  UNL     1      21.014   0.392  20.990  1.00  0.00     0.031 A 
HETATM   36  C3  UNL     1      22.217   0.138  21.621  1.00  0.00     0.009 A 
HETATM   37  C2  UNL     1      22.695  -1.172  21.625  1.00  0.00    -0.060 A 
HETATM   38  C1  UNL     1      23.985  -1.432  22.302  1.00  0.00     0.048 C 
HETATM   39  C22 UNL     1      22.003  -2.199  21.021  1.00  0.00     0.029 A 
HETATM   40  C19 UNL     1      20.803  -1.896  20.403  1.00  0.00     0.046 A 
BRANCH  40  41
HETATM   41  C20 UNL     1      20.107  -3.005  19.781  1.00  0.00    -0.042 C 
HETATM   42  C21 UNL     1      19.546  -3.924  19.250  1.00  0.00     0.009 C 
BRANCH  42  43
HETATM   43  N9  UNL     1      18.914  -5.008  18.633  1.00  0.00    -0.359 N 
ATOM     44  H92 UNL     1      19.858  -4.620  18.629  1.00  0.00     0.166 HD
ATOM     45  H91 UNL     1      18.437  -5.795  18.192  1.00  0.00     0.166 HD
ENDBRANCH  42  43
ENDBRANCH  40  41
ENDBRANCH  32  34
ENDBRANCH   1  32
TORSDOF 16
ENDMDL
MODEL 4
REMARK VINA RESULT: -7.519732961      3.754      8.415
REMARK  16 active torsions:
REMARK  status: ('A' for Active; 'I' for Inactive)
REMARK    1  A    between atoms: C5_5  and  N1_6 
REMARK    2  A    between atoms: N1_6  and  C6_8 
REMARK    3  A    between atoms: C9_16  and  N4_17 
REMARK    4  A    between atoms: N4_17  and  C10_19 
REMARK    5  A    between atoms: C10_19  and  N5_21 
REMARK    6  A    between atoms: N5_21  and  C11_23 
REMARK    7  A    between atoms: C11_23  and  C12_24 
REMARK    8  A    between atoms: C12_24  and  C13_25 
REMARK    9  A    between atoms: C13_25  and  C14_26 
REMARK   10  A    between atoms: C14_26  and  C15_27 
REMARK   11  A    between atoms: C15_27  and  C16_28 
REMARK   12  A    between atoms: C16_28  and  C17_29 
REMARK   13  A    between atoms: C17_29  and  C18_30 
REMARK   14  A    between atoms: N6_32  and  N7_34 
REMARK   15  A    between atoms: C19_39  and  C20_40 
REMARK   16  A    between atoms: C21_41  and  N9_42 
ROOT
HETATM    1  C6  UNL     1      22.219   1.936  21.488  1.00  0.00     0.151 A 
HETATM    2  N2  UNL     1      21.093   1.342  21.918  1.00  0.00    -0.332 N 
ATOM      3  H2  UNL     1      21.049   0.901  22.837  1.00  0.00     0.168 HD
HETATM    4  C7  UNL     1      20.024   1.345  21.097  1.00  0.00     0.096 A 
HETATM    5 BR1  UNL     1      18.392   0.527  21.626  1.00  0.00    -0.030 Br
HETATM    6  C8  UNL     1      20.085   1.946  19.845  1.00  0.00     0.127 A 
HETATM    7  N3  UNL     1      21.213   2.541  19.414  1.00  0.00    -0.346 N 
ATOM      8  H3  UNL     1      21.260   2.982  18.495  1.00  0.00     0.167 HD
HETATM    9  C9  UNL     1      22.290   2.535  20.249  1.00  0.00     0.152 A 
ENDROOT
BRANCH   9  10
HETATM   10  N4  UNL     1      23.403   3.092  19.885  1.00  0.00    -0.316 N 
ATOM     11  H4  UNL     1      24.290   2.630  20.085  1.00  0.00     0.170 HD
BRANCH  10  12
HETATM   12  C10 UNL     1      23.394   4.347  19.206  1.00  0.00     0.177 C 
HETATM   13  S1  UNL     1      23.014   5.716  19.995  1.00  0.00    -0.040 SA
BRANCH  12  14
HETATM   14  N5  UNL     1      23.722   4.448  17.789  1.00  0.00    -0.343 N 
ATOM     15  H5  UNL     1      24.453   3.866  17.377  1.00  0.00     0.167 HD
BRANCH  14  16
HETATM   16  C11 UNL     1      23.016   5.354  17.017  1.00  0.00     0.087 C 
BRANCH  16  17
HETATM   17  C12 UNL     1      23.238   5.674  15.617  1.00  0.00    -0.004 C 
BRANCH  17  18
HETATM   18  C13 UNL     1      22.611   4.941  14.515  1.00  0.00     0.082 C 
BRANCH  18  19
HETATM   19  C14 UNL     1      21.154   4.948  14.359  1.00  0.00     0.008 C 
HETATM   20  N6  UNL     1      20.502   3.851  14.325  1.00  0.00    -0.295 N 
ATOM     21  H6  UNL     1      20.993   2.962  14.406  1.00  0.00     0.187 HD
BRANCH  19  22
HETATM   22  C15 UNL     1      20.428   6.273  14.138  1.00  0.00     0.054 C 
BRANCH  22  23
HETATM   23  C16 UNL     1      20.938   6.940  12.920  1.00  0.00     0.006 C 
BRANCH  23  24
HETATM   24  C17 UNL     1      20.523   6.419  11.605  1.00  0.00     0.011 C 
BRANCH  24  25
HETATM   25  C18 UNL     1      21.548   5.818  10.735  1.00  0.00     0.085 C 
HETATM   26 BR2  UNL     1      21.449   3.915  10.651  1.00  0.00    -0.097 Br
ENDBRANCH  24  25
ENDBRANCH  23  24
ENDBRANCH  22  23
ENDBRANCH  19  22
BRANCH  20  27
HETATM   27  N7  UNL     1      19.120   3.873  14.176  1.00  0.00    -0.249 N 
HETATM   28  N8  UNL     1      18.554   3.495  13.091  1.00  0.00    -0.331 N 
ATOM     29  H82 UNL     1      19.147   3.172  12.327  1.00  0.00     0.178 HD
ATOM     30  H81 UNL     1      17.540   3.512  12.982  1.00  0.00     0.178 HD
ATOM     31  H7  UNL     1      18.542   4.199  14.951  1.00  0.00     0.207 HD
ENDBRANCH  20  27
ENDBRANCH  18  19
ENDBRANCH  17  18
ENDBRANCH  16  17
ENDBRANCH  14  16
ENDBRANCH  12  14
ENDBRANCH  10  12
ENDBRANCH   9  10
BRANCH   1  32
HETATM   32  N1  UNL     1      23.265   1.949  22.241  1.00  0.00    -0.338 N 
ATOM     33  H1  UNL     1      24.047   1.355  21.966  1.00  0.00     0.167 HD
BRANCH  32  34
HETATM   34  C5  UNL     1      23.414   2.713  23.405  1.00  0.00     0.052 A 
HETATM   35  C4  UNL     1      23.338   4.087  23.315  1.00  0.00     0.031 A 
HETATM   36  C3  UNL     1      23.479   4.881  24.437  1.00  0.00     0.009 A 
HETATM   37  C2  UNL     1      23.702   4.255  25.663  1.00  0.00    -0.060 A 
HETATM   38  C1  UNL     1      23.854   5.117  26.857  1.00  0.00     0.048 C 
HETATM   39  C22 UNL     1      23.783   2.884  25.775  1.00  0.00     0.029 A 
HETATM   40  C19 UNL     1      23.634   2.131  24.624  1.00  0.00     0.046 A 
BRANCH  40  41
HETATM   41  C20 UNL     1      23.725   0.694  24.786  1.00  0.00    -0.042 C 
HETATM   42  C21 UNL     1      23.810  -0.498  24.901  1.00  0.00     0.009 C 
BRANCH  42  43
HETATM   43  N9  UNL     1      23.934  -1.885  25.030  1.00  0.00    -0.359 N 
ATOM     44  H92 UNL     1      23.861  -1.233  24.250  1.00  0.00     0.166 HD
ATOM     45  H91 UNL     1      24.026  -2.895  25.145  1.00  0.00     0.166 HD
ENDBRANCH  42  43
ENDBRANCH  40  41
ENDBRANCH  32  34
ENDBRANCH   1  32
TORSDOF 16
ENDMDL
MODEL 5
REMARK VINA RESULT: -7.500738697      3.419      7.276
REMARK  16 active torsions:
REMARK  status: ('A' for Active; 'I' for Inactive)
REMARK    1  A    between atoms: C5_5  and  N1_6 
REMARK    2  A    between atoms: N1_6  and  C6_8 
REMARK    3  A    between atoms: C9_16  and  N4_17 
REMARK    4  A    between atoms: N4_17  and  C10_19 
REMARK    5  A    between atoms: C10_19  and  N5_21 
REMARK    6  A    between atoms: N5_21  and  C11_23 
REMARK    7  A    between atoms: C11_23  and  C12_24 
REMARK    8  A    between atoms: C12_24  and  C13_25 
REMARK    9  A    between atoms: C13_25  and  C14_26 
REMARK   10  A    between atoms: C14_26  and  C15_27 
REMARK   11  A    between atoms: C15_27  and  C16_28 
REMARK   12  A    between atoms: C16_28  and  C17_29 
REMARK   13  A    between atoms: C17_29  and  C18_30 
REMARK   14  A    between atoms: N6_32  and  N7_34 
REMARK   15  A    between atoms: C19_39  and  C20_40 
REMARK   16  A    between atoms: C21_41  and  N9_42 
ROOT
HETATM    1  C6  UNL     1      21.570   0.686  21.309  1.00  0.00     0.151 A 
HETATM    2  N2  UNL     1      22.296  -0.445  21.301  1.00  0.00    -0.332 N 
ATOM      3  H2  UNL     1      23.316  -0.415  21.321  1.00  0.00     0.168 HD
HETATM    4  C7  UNL     1      21.636  -1.620  21.265  1.00  0.00     0.096 A 
HETATM    5 BR1  UNL     1      22.585  -3.266  21.251  1.00  0.00    -0.030 Br
HETATM    6  C8  UNL     1      20.247  -1.660  21.238  1.00  0.00     0.127 A 
HETATM    7  N3  UNL     1      19.519  -0.527  21.246  1.00  0.00    -0.346 N 
ATOM      8  H3  UNL     1      18.499  -0.555  21.225  1.00  0.00     0.167 HD
HETATM    9  C9  UNL     1      20.192   0.657  21.283  1.00  0.00     0.152 A 
ENDROOT
BRANCH   9  10
HETATM   10  N4  UNL     1      19.542   1.779  21.290  1.00  0.00    -0.316 N 
ATOM     11  H4  UNL     1      19.749   2.480  22.000  1.00  0.00     0.170 HD
BRANCH  10  12
HETATM   12  C10 UNL     1      18.538   2.038  20.309  1.00  0.00     0.177 C 
HETATM   13  S1  UNL     1      16.962   1.975  20.698  1.00  0.00    -0.040 SA
BRANCH  12  14
HETATM   14  N5  UNL     1      18.886   2.365  18.932  1.00  0.00    -0.343 N 
ATOM     15  H5  UNL     1      18.319   2.029  18.153  1.00  0.00     0.167 HD
BRANCH  14  16
HETATM   16  C11 UNL     1      20.008   3.145  18.709  1.00  0.00     0.087 C 
BRANCH  16  17
HETATM   17  C12 UNL     1      21.226   2.751  18.021  1.00  0.00    -0.004 C 
BRANCH  17  18
HETATM   18  C13 UNL     1      21.791   3.498  16.894  1.00  0.00     0.082 C 
BRANCH  18  19
HETATM   19  C14 UNL     1      20.906   4.139  15.918  1.00  0.00     0.008 C 
HETATM   20  N6  UNL     1      19.900   3.510  15.446  1.00  0.00    -0.295 N 
ATOM     21  H6  UNL     1      19.706   2.555  15.748  1.00  0.00     0.187 HD
BRANCH  19  22
HETATM   22  C15 UNL     1      21.250   5.530  15.390  1.00  0.00     0.054 C 
BRANCH  22  23
HETATM   23  C16 UNL     1      22.401   5.457  14.464  1.00  0.00     0.006 C 
BRANCH  23  24
HETATM   24  C17 UNL     1      22.172   5.721  13.032  1.00  0.00     0.011 C 
BRANCH  24  25
HETATM   25  C18 UNL     1      21.481   6.966  12.653  1.00  0.00     0.085 C 
HETATM   26 BR2  UNL     1      19.717   6.679  11.985  1.00  0.00    -0.097 Br
ENDBRANCH  24  25
ENDBRANCH  23  24
ENDBRANCH  22  23
ENDBRANCH  19  22
BRANCH  20  27
HETATM   27  N7  UNL     1      19.069   4.130  14.520  1.00  0.00    -0.249 N 
HETATM   28  N8  UNL     1      18.090   3.511  13.975  1.00  0.00    -0.331 N 
ATOM     29  H82 UNL     1      17.929   2.539  14.238  1.00  0.00     0.178 HD
ATOM     30  H81 UNL     1      17.480   3.966  13.295  1.00  0.00     0.178 HD
ATOM     31  H7  UNL     1      19.244   5.104  14.269  1.00  0.00     0.207 HD
ENDBRANCH  20  27
ENDBRANCH  18  19
ENDBRANCH  17  18
ENDBRANCH  16  17
ENDBRANCH  14  16
ENDBRANCH  12  14
ENDBRANCH  10  12
ENDBRANCH   9  10
BRANCH   1  32
HETATM   32  N1  UNL     1      22.163   1.828  21.337  1.00  0.00    -0.338 N 
ATOM     33  H1  UNL     1      22.331   2.291  20.443  1.00  0.00     0.167 HD
BRANCH  32  34
HETATM   34  C5  UNL     1      22.595   2.487  22.494  1.00  0.00     0.052 A 
HETATM   35  C4  UNL     1      22.588   1.805  23.691  1.00  0.00     0.031 A 
HETATM   36  C3  UNL     1      23.006   2.415  24.859  1.00  0.00     0.009 A 
HETATM   37  C2  UNL     1      23.435   3.739  24.793  1.00  0.00    -0.060 A 
HETATM   38  C1  UNL     1      23.879   4.382  26.051  1.00  0.00     0.048 C 
HETATM   39  C22 UNL     1      23.451   4.440  23.607  1.00  0.00     0.029 A 
HETATM   40  C19 UNL     1      23.024   3.787  22.464  1.00  0.00     0.046 A 
BRANCH  40  41
HETATM   41  C20 UNL     1      23.055   4.560  21.239  1.00  0.00    -0.042 C 
HETATM   42  C21 UNL     1      23.100   5.208  20.229  1.00  0.00     0.009 C 
BRANCH  42  43
HETATM   43  N9  UNL     1      23.176   5.952  19.047  1.00  0.00    -0.359 N 
ATOM     44  H92 UNL     1      22.593   5.187  19.387  1.00  0.00     0.166 HD
ATOM     45  H91 UNL     1      23.246   6.505  18.193  1.00  0.00     0.166 HD
ENDBRANCH  42  43
ENDBRANCH  40  41
ENDBRANCH  32  34
ENDBRANCH   1  32
TORSDOF 16
ENDMDL
