MODEL 1
REMARK VINA RESULT: -7.706118534      0.000      0.000
REMARK  6 active torsions:
REMARK  status: ('A' for Active; 'I' for Inactive)
REMARK    1  A    between atoms: C2_2  and  C3_3 
REMARK    2  A    between atoms: C3_3  and  O1_4 
REMARK    3  A    between atoms: O1_4  and  C4_5 
REMARK       I    between atoms: C4_5  and  N1_7 
REMARK    4  A    between atoms: N1_7  and  C5_9 
REMARK    5  A    between atoms: C5_9  and  C7_11 
REMARK    6  A    between atoms: C17_26  and  O8_27 
ROOT
HETATM    1  C7  UNL     1      95.649  28.388  15.694  1.00  0.00     0.179 C 
HETATM    2  O3  UNL     1      94.698  28.657  14.754  1.00  0.00    -0.350 OA
HETATM    3  C8  UNL     1      95.091  28.968  13.495  1.00  0.00     0.276 C 
HETATM    4  O4  UNL     1      94.468  28.220  12.474  1.00  0.00    -0.324 OA
HETATM    5  C9  UNL     1      95.654  27.970  11.767  1.00  0.00     0.174 C 
HETATM    6  C10 UNL     1      95.946  28.900  10.637  1.00  0.00     0.080 C 
HETATM    7  O5  UNL     1      95.924  26.657  11.495  1.00  0.00    -0.352 OA
HETATM    8  C11 UNL     1      97.239  26.268  11.741  1.00  0.00     0.206 C 
HETATM    9  C12 UNL     1      97.505  26.196  13.257  1.00  0.00     0.187 C 
HETATM   10  O6  UNL     1      97.069  24.924  13.642  1.00  0.00    -0.345 OA
HETATM   11  C13 UNL     1      95.752  25.022  14.006  1.00  0.00     0.158 C 
HETATM   12  C14 UNL     1      94.814  24.232  13.122  1.00  0.00     0.078 C 
HETATM   13  C15 UNL     1      95.624  24.439  15.413  1.00  0.00     0.078 C 
HETATM   14  O7  UNL     1      95.373  26.348  13.962  1.00  0.00    -0.339 OA
HETATM   15  C16 UNL     1      96.535  27.096  13.882  1.00  0.00     0.134 C 
HETATM   16  C17 UNL     1      96.849  27.603  15.263  1.00  0.00     0.190 C 
HETATM   17  C19 UNL     1      96.371  28.335  13.041  1.00  0.00     0.143 C 
ENDROOT
BRANCH   1  18
HETATM   18  C5  UNL     1      95.928  29.536  16.629  1.00  0.00     0.114 C 
HETATM   19  C6  UNL     1      96.710  30.634  15.862  1.00  0.00     0.035 C 
BRANCH  18  20
HETATM   20  N1  UNL     1      96.715  29.223  17.775  1.00  0.00    -0.330 N 
HETATM   21  C4  UNL     1      96.117  28.598  18.888  1.00  0.00     0.360 C 
HETATM   22  O2  UNL     1      94.893  28.309  18.895  1.00  0.00    -0.239 OA
ATOM     23  H1  UNL     1      97.709  29.450  17.789  1.00  0.00     0.165 HD
BRANCH  21  24
HETATM   24  O1  UNL     1      96.871  28.292  19.995  1.00  0.00    -0.304 OA
BRANCH  24  25
HETATM   25  C3  UNL     1      96.889  27.057  20.650  1.00  0.00     0.180 C 
BRANCH  25  26
HETATM   26  C2  UNL     1      96.023  27.070  21.870  1.00  0.00     0.022 C 
HETATM   27  C1  UNL     1      94.973  25.955  21.732  1.00  0.00     0.007 C 
ENDBRANCH  25  26
ENDBRANCH  24  25
ENDBRANCH  21  24
ENDBRANCH  18  20
ENDBRANCH   1  18
BRANCH  16  28
HETATM   28  O8  UNL     1      97.924  28.476  15.143  1.00  0.00    -0.385 OA
HETATM   29  C18 UNL     1      99.097  27.929  15.666  1.00  0.00     0.202 C 
ENDBRANCH  16  28
TORSDOF 6
ENDMDL
MODEL 2
REMARK VINA RESULT: -7.517475426      2.419      6.435
REMARK  6 active torsions:
REMARK  status: ('A' for Active; 'I' for Inactive)
REMARK    1  A    between atoms: C2_2  and  C3_3 
REMARK    2  A    between atoms: C3_3  and  O1_4 
REMARK    3  A    between atoms: O1_4  and  C4_5 
REMARK       I    between atoms: C4_5  and  N1_7 
REMARK    4  A    between atoms: N1_7  and  C5_9 
REMARK    5  A    between atoms: C5_9  and  C7_11 
REMARK    6  A    between atoms: C17_26  and  O8_27 
ROOT
HETATM    1  C7  UNL     1      96.034  27.401  14.998  1.00  0.00     0.179 C 
HETATM    2  O3  UNL     1      95.179  26.355  14.809  1.00  0.00    -0.350 OA
HETATM    3  C8  UNL     1      95.679  25.095  14.786  1.00  0.00     0.276 C 
HETATM    4  O4  UNL     1      95.028  24.181  15.641  1.00  0.00    -0.324 OA
HETATM    5  C9  UNL     1      96.213  23.627  16.149  1.00  0.00     0.174 C 
HETATM    6  C10 UNL     1      96.681  22.374  15.487  1.00  0.00     0.080 C 
HETATM    7  O5  UNL     1      96.335  23.619  17.511  1.00  0.00    -0.352 OA
HETATM    8  C11 UNL     1      97.576  24.035  17.989  1.00  0.00     0.206 C 
HETATM    9  C12 UNL     1      97.744  25.555  17.802  1.00  0.00     0.187 C 
HETATM   10  O6  UNL     1      97.134  26.128  18.922  1.00  0.00    -0.345 OA
HETATM   11  C13 UNL     1      95.820  26.363  18.614  1.00  0.00     0.158 C 
HETATM   12  C14 UNL     1      94.845  25.565  19.448  1.00  0.00     0.078 C 
HETATM   13  C15 UNL     1      95.542  27.838  18.902  1.00  0.00     0.078 C 
HETATM   14  O7  UNL     1      95.610  26.050  17.286  1.00  0.00    -0.339 OA
HETATM   15  C16 UNL     1      96.858  25.928  16.699  1.00  0.00     0.134 C 
HETATM   16  C17 UNL     1      97.151  27.215  15.978  1.00  0.00     0.190 C 
HETATM   17  C19 UNL     1      96.895  24.866  15.631  1.00  0.00     0.143 C 
ENDROOT
BRANCH   1  18
HETATM   18  C5  UNL     1      96.397  28.132  13.733  1.00  0.00     0.114 C 
HETATM   19  C6  UNL     1      95.707  29.521  13.735  1.00  0.00     0.035 C 
BRANCH  18  20
HETATM   20  N1  UNL     1      96.001  27.501  12.519  1.00  0.00    -0.330 N 
HETATM   21  C4  UNL     1      96.977  26.949  11.663  1.00  0.00     0.360 C 
HETATM   22  O2  UNL     1      98.200  27.003  11.948  1.00  0.00    -0.239 OA
ATOM     23  H1  UNL     1      95.014  27.449  12.269  1.00  0.00     0.165 HD
BRANCH  21  24
HETATM   24  O1  UNL     1      96.601  26.338  10.492  1.00  0.00    -0.304 OA
BRANCH  24  25
HETATM   25  C3  UNL     1      96.118  25.031  10.376  1.00  0.00     0.180 C 
BRANCH  25  26
HETATM   26  C2  UNL     1      96.552  24.397   9.094  1.00  0.00     0.022 C 
HETATM   27  C1  UNL     1      95.982  25.221   7.927  1.00  0.00     0.007 C 
ENDBRANCH  25  26
ENDBRANCH  24  25
ENDBRANCH  21  24
ENDBRANCH  18  20
ENDBRANCH   1  18
BRANCH  16  28
HETATM   28  O8  UNL     1      98.331  27.025  15.267  1.00  0.00    -0.385 OA
HETATM   29  C18 UNL     1      99.363  27.830  15.750  1.00  0.00     0.202 C 
ENDBRANCH  16  28
TORSDOF 6
ENDMDL
MODEL 3
REMARK VINA RESULT: -7.503373778      1.636      3.544
REMARK  6 active torsions:
REMARK  status: ('A' for Active; 'I' for Inactive)
REMARK    1  A    between atoms: C2_2  and  C3_3 
REMARK    2  A    between atoms: C3_3  and  O1_4 
REMARK    3  A    between atoms: O1_4  and  C4_5 
REMARK       I    between atoms: C4_5  and  N1_7 
REMARK    4  A    between atoms: N1_7  and  C5_9 
REMARK    5  A    between atoms: C5_9  and  C7_11 
REMARK    6  A    between atoms: C17_26  and  O8_27 
ROOT
HETATM    1  C7  UNL     1      97.448  27.249  15.354  1.00  0.00     0.179 C 
HETATM    2  O3  UNL     1      97.821  26.052  15.892  1.00  0.00    -0.350 OA
HETATM    3  C8  UNL     1      96.860  25.196  16.318  1.00  0.00     0.276 C 
HETATM    4  O4  UNL     1      96.973  23.880  15.824  1.00  0.00    -0.324 OA
HETATM    5  C9  UNL     1      95.612  23.754  15.503  1.00  0.00     0.174 C 
HETATM    6  C10 UNL     1      94.761  23.086  16.531  1.00  0.00     0.080 C 
HETATM    7  O5  UNL     1      95.332  23.383  14.217  1.00  0.00    -0.352 OA
HETATM    8  C11 UNL     1      94.318  24.117  13.605  1.00  0.00     0.206 C 
HETATM    9  C12 UNL     1      94.806  25.542  13.279  1.00  0.00     0.187 C 
HETATM   10  O6  UNL     1      95.454  25.430  12.045  1.00  0.00    -0.345 OA
HETATM   11  C13 UNL     1      96.778  25.168  12.285  1.00  0.00     0.158 C 
HETATM   12  C14 UNL     1      97.235  23.820  11.778  1.00  0.00     0.078 C 
HETATM   13  C15 UNL     1      97.593  26.220  11.533  1.00  0.00     0.078 C 
HETATM   14  O7  UNL     1      97.003  25.218  13.645  1.00  0.00    -0.339 OA
HETATM   15  C16 UNL     1      95.896  25.822  14.215  1.00  0.00     0.134 C 
HETATM   16  C17 UNL     1      96.240  27.264  14.467  1.00  0.00     0.190 C 
HETATM   17  C19 UNL     1      95.561  25.258  15.572  1.00  0.00     0.143 C 
ENDROOT
BRANCH   1  18
HETATM   18  C5  UNL     1      97.570  28.412  16.301  1.00  0.00     0.114 C 
HETATM   19  C6  UNL     1      99.003  28.998  16.200  1.00  0.00     0.035 C 
BRANCH  18  20
HETATM   20  N1  UNL     1      97.367  28.112  17.679  1.00  0.00    -0.330 N 
HETATM   21  C4  UNL     1      96.814  29.084  18.536  1.00  0.00     0.360 C 
HETATM   22  O2  UNL     1      96.493  30.223  18.109  1.00  0.00    -0.239 OA
ATOM     23  H1  UNL     1      97.623  27.195  18.045  1.00  0.00     0.165 HD
BRANCH  21  24
HETATM   24  O1  UNL     1      96.614  28.800  19.865  1.00  0.00    -0.304 OA
BRANCH  24  25
HETATM   25  C3  UNL     1      96.546  27.518  20.420  1.00  0.00     0.180 C 
BRANCH  25  26
HETATM   26  C2  UNL     1      95.132  27.107  20.680  1.00  0.00     0.022 C 
HETATM   27  C1  UNL     1      94.700  26.128  19.575  1.00  0.00     0.007 C 
ENDBRANCH  25  26
ENDBRANCH  24  25
ENDBRANCH  21  24
ENDBRANCH  18  20
ENDBRANCH   1  18
BRANCH  16  28
HETATM   28  O8  UNL     1      95.182  27.819  15.179  1.00  0.00    -0.385 OA
HETATM   29  C18 UNL     1      94.582  28.868  14.481  1.00  0.00     0.202 C 
ENDBRANCH  16  28
TORSDOF 6
ENDMDL
MODEL 4
REMARK VINA RESULT: -7.458192357      2.568      6.511
REMARK  6 active torsions:
REMARK  status: ('A' for Active; 'I' for Inactive)
REMARK    1  A    between atoms: C2_2  and  C3_3 
REMARK    2  A    between atoms: C3_3  and  O1_4 
REMARK    3  A    between atoms: O1_4  and  C4_5 
REMARK       I    between atoms: C4_5  and  N1_7 
REMARK    4  A    between atoms: N1_7  and  C5_9 
REMARK    5  A    between atoms: C5_9  and  C7_11 
REMARK    6  A    between atoms: C17_26  and  O8_27 
ROOT
HETATM    1  C7  UNL     1      96.012  25.708  16.194  1.00  0.00     0.179 C 
HETATM    2  O3  UNL     1      97.228  25.610  16.803  1.00  0.00    -0.350 OA
HETATM    3  C8  UNL     1      98.309  26.167  16.205  1.00  0.00     0.276 C 
HETATM    4  O4  UNL     1      99.074  27.017  17.030  1.00  0.00    -0.324 OA
HETATM    5  C9  UNL     1      99.201  28.034  16.071  1.00  0.00     0.174 C 
HETATM    6  C10 UNL     1     100.456  28.012  15.263  1.00  0.00     0.080 C 
HETATM    7  O5  UNL     1      98.813  29.284  16.468  1.00  0.00    -0.352 OA
HETATM    8  C11 UNL     1      98.026  29.971  15.546  1.00  0.00     0.206 C 
HETATM    9  C12 UNL     1      96.614  29.357  15.477  1.00  0.00     0.187 C 
HETATM   10  O6  UNL     1      95.904  29.964  16.518  1.00  0.00    -0.345 OA
HETATM   11  C13 UNL     1      96.050  29.187  17.638  1.00  0.00     0.158 C 
HETATM   12  C14 UNL     1      96.782  29.876  18.766  1.00  0.00     0.078 C 
HETATM   13  C15 UNL     1      94.648  28.866  18.154  1.00  0.00     0.078 C 
HETATM   14  O7  UNL     1      96.749  28.046  17.302  1.00  0.00    -0.339 OA
HETATM   15  C16 UNL     1      96.755  27.969  15.920  1.00  0.00     0.134 C 
HETATM   16  C17 UNL     1      95.680  26.999  15.511  1.00  0.00     0.190 C 
HETATM   17  C19 UNL     1      98.033  27.385  15.376  1.00  0.00     0.143 C 
ENDROOT
BRANCH   1  18
HETATM   18  C5  UNL     1      95.591  24.461  15.460  1.00  0.00     0.114 C 
HETATM   19  C6  UNL     1      95.077  23.419  16.488  1.00  0.00     0.035 C 
BRANCH  18  20
HETATM   20  N1  UNL     1      96.615  23.806  14.718  1.00  0.00    -0.330 N 
HETATM   21  C4  UNL     1      96.439  23.564  13.340  1.00  0.00     0.360 C 
HETATM   22  O2  UNL     1      95.387  23.915  12.746  1.00  0.00    -0.239 OA
ATOM     23  H1  UNL     1      97.474  23.512  15.182  1.00  0.00     0.165 HD
BRANCH  21  24
HETATM   24  O1  UNL     1      97.423  22.934  12.619  1.00  0.00    -0.304 OA
BRANCH  24  25
HETATM   25  C3  UNL     1      97.860  21.620  12.816  1.00  0.00     0.180 C 
BRANCH  25  26
HETATM   26  C2  UNL     1      97.455  20.731  11.685  1.00  0.00     0.022 C 
HETATM   27  C1  UNL     1      97.157  21.610  10.458  1.00  0.00     0.007 C 
ENDBRANCH  25  26
ENDBRANCH  24  25
ENDBRANCH  21  24
ENDBRANCH  18  20
ENDBRANCH   1  18
BRANCH  16  28
HETATM   28  O8  UNL     1      95.798  26.812  14.139  1.00  0.00    -0.385 OA
HETATM   29  C18 UNL     1      94.726  27.376  13.445  1.00  0.00     0.202 C 
ENDBRANCH  16  28
TORSDOF 6
ENDMDL
MODEL 5
REMARK VINA RESULT: -7.396563164      2.810      7.246
REMARK  6 active torsions:
REMARK  status: ('A' for Active; 'I' for Inactive)
REMARK    1  A    between atoms: C2_2  and  C3_3 
REMARK    2  A    between atoms: C3_3  and  O1_4 
REMARK    3  A    between atoms: O1_4  and  C4_5 
REMARK       I    between atoms: C4_5  and  N1_7 
REMARK    4  A    between atoms: N1_7  and  C5_9 
REMARK    5  A    between atoms: C5_9  and  C7_11 
REMARK    6  A    between atoms: C17_26  and  O8_27 
ROOT
HETATM    1  C7  UNL     1      97.059  26.427  12.835  1.00  0.00     0.179 C 
HETATM    2  O3  UNL     1      96.973  27.692  12.330  1.00  0.00    -0.350 OA
HETATM    3  C8  UNL     1      95.900  28.455  12.653  1.00  0.00     0.276 C 
HETATM    4  O4  UNL     1      96.209  29.740  13.144  1.00  0.00    -0.324 OA
HETATM    5  C9  UNL     1      95.298  29.685  14.210  1.00  0.00     0.174 C 
HETATM    6  C10 UNL     1      93.968  30.313  13.963  1.00  0.00     0.080 C 
HETATM    7  O5  UNL     1      95.814  29.936  15.452  1.00  0.00    -0.352 OA
HETATM    8  C11 UNL     1      95.403  29.050  16.445  1.00  0.00     0.206 C 
HETATM    9  C12 UNL     1      96.069  27.674  16.250  1.00  0.00     0.187 C 
HETATM   10  O6  UNL     1      97.314  27.781  16.876  1.00  0.00    -0.345 OA
HETATM   11  C13 UNL     1      98.221  28.211  15.943  1.00  0.00     0.158 C 
HETATM   12  C14 UNL     1      98.812  29.568  16.248  1.00  0.00     0.078 C 
HETATM   13  C15 UNL     1      99.381  27.216  15.943  1.00  0.00     0.078 C 
HETATM   14  O7  UNL     1      97.599  28.277  14.713  1.00  0.00    -0.339 OA
HETATM   15  C16 UNL     1      96.405  27.585  14.828  1.00  0.00     0.134 C 
HETATM   16  C17 UNL     1      96.614  26.213  14.249  1.00  0.00     0.190 C 
HETATM   17  C19 UNL     1      95.301  28.193  14.001  1.00  0.00     0.143 C 
ENDROOT
BRANCH   1  18
HETATM   18  C5  UNL     1      96.662  25.350  11.860  1.00  0.00     0.114 C 
HETATM   19  C6  UNL     1      97.227  23.991  12.352  1.00  0.00     0.035 C 
BRANCH  18  20
HETATM   20  N1  UNL     1      97.140  25.514  10.529  1.00  0.00    -0.330 N 
HETATM   21  C4  UNL     1      96.408  24.980   9.449  1.00  0.00     0.360 C 
HETATM   22  O2  UNL     1      95.333  24.354   9.635  1.00  0.00    -0.239 OA
ATOM     23  H1  UNL     1      98.011  26.016  10.357  1.00  0.00     0.165 HD
BRANCH  21  24
HETATM   24  O1  UNL     1      96.863  25.136   8.162  1.00  0.00    -0.304 OA
BRANCH  24  25
HETATM   25  C3  UNL     1      97.044  24.106   7.234  1.00  0.00     0.180 C 
BRANCH  25  26
HETATM   26  C2  UNL     1      97.991  23.066   7.745  1.00  0.00     0.022 C 
HETATM   27  C1  UNL     1      99.379  23.335   7.139  1.00  0.00     0.007 C 
ENDBRANCH  25  26
ENDBRANCH  24  25
ENDBRANCH  21  24
ENDBRANCH  18  20
ENDBRANCH   1  18
BRANCH  16  28
HETATM   28  O8  UNL     1      95.374  25.585  14.227  1.00  0.00    -0.385 OA
HETATM   29  C18 UNL     1      95.332  24.490  15.091  1.00  0.00     0.202 C 
ENDBRANCH  16  28
TORSDOF 6
ENDMDL
