MODEL 1
REMARK VINA RESULT: -8.088352717      0.000      0.000
REMARK  7 active torsions:
REMARK  status: ('A' for Active; 'I' for Inactive)
REMARK    1  A    between atoms: C2_2  and  O2_4 
REMARK    2  A    between atoms: O2_4  and  C3_5 
REMARK    3  A    between atoms: C4_6  and  C5_7 
REMARK    4  A    between atoms: C5_7  and  O3_8 
REMARK    5  A    between atoms: C16_22  and  O5_23 
REMARK    6  A    between atoms: O5_23  and  C17_24 
REMARK    7  A    between atoms: C17_24  and  C18_26 
ROOT
HETATM    1  C3  UNL     1      96.524  27.592  17.086  1.00  0.00     0.171 C 
HETATM    2  C4  UNL     1      95.466  28.601  16.795  1.00  0.00     0.065 C 
HETATM    3  C6  UNL     1      94.745  28.380  15.501  1.00  0.00    -0.003 C 
HETATM    4  C7  UNL     1      95.176  27.561  14.588  1.00  0.00    -0.017 C 
HETATM    5  S1  UNL     1      94.589  27.073  12.988  1.00  0.00    -0.128 SA
HETATM    6  C8  UNL     1      95.419  25.421  13.018  1.00  0.00     0.068 C 
HETATM    7  C9  UNL     1      95.646  24.901  11.650  1.00  0.00     0.050 C 
HETATM    8  C10 UNL     1      96.402  25.871  10.824  1.00  0.00    -0.079 C 
HETATM    9  C11 UNL     1      96.023  26.033   9.404  1.00  0.00     0.043 C 
HETATM   10  C12 UNL     1      97.372  26.523  11.432  1.00  0.00     0.053 C 
HETATM   11  C13 UNL     1      97.688  26.310  12.830  1.00  0.00     0.155 C 
HETATM   12  O4  UNL     1      98.820  26.548  13.285  1.00  0.00    -0.293 OA
HETATM   13  C14 UNL     1      96.645  25.788  13.783  1.00  0.00     0.085 C 
HETATM   14  C15 UNL     1      96.409  26.801  14.808  1.00  0.00     0.070 C 
HETATM   15  C16 UNL     1      96.384  26.339  16.246  1.00  0.00     0.171 C 
ENDROOT
BRANCH  15  16
HETATM   16  O5  UNL     1      97.511  25.507  16.540  1.00  0.00    -0.312 OA
BRANCH  16  17
HETATM   17  C17 UNL     1      97.383  24.398  17.366  1.00  0.00     0.262 C 
HETATM   18  O6  UNL     1      98.228  24.318  18.315  1.00  0.00    -0.265 OA
BRANCH  17  19
HETATM   19  C18 UNL     1      96.344  23.362  17.176  1.00  0.00     0.077 C 
HETATM   20  C19 UNL     1      95.995  22.670  18.496  1.00  0.00     0.020 C 
HETATM   21  C20 UNL     1      96.821  22.260  16.243  1.00  0.00     0.020 C 
ENDBRANCH  17  19
ENDBRANCH  16  17
ENDBRANCH  15  16
BRANCH   1  22
HETATM   22  O2  UNL     1      97.777  28.179  16.697  1.00  0.00    -0.313 OA
BRANCH  22  23
HETATM   23  C2  UNL     1      97.883  29.560  16.596  1.00  0.00     0.255 C 
HETATM   24  C1  UNL     1      97.864  30.360  17.848  1.00  0.00     0.126 C 
HETATM   25  O1  UNL     1      97.989  30.049  15.449  1.00  0.00    -0.266 OA
ENDBRANCH  22  23
ENDBRANCH   1  22
BRANCH   2  26
HETATM   26  C5  UNL     1      94.462  28.668  17.928  1.00  0.00     0.175 C 
BRANCH  26  27
HETATM   27  O3  UNL     1      94.879  29.683  18.807  1.00  0.00    -0.400 OA
ATOM     28  H3  UNL     1      94.108  30.171  19.070  1.00  0.00     0.209 HD
ENDBRANCH  26  27
ENDBRANCH   2  26
TORSDOF 7
ENDMDL
MODEL 2
REMARK VINA RESULT: -7.999554700      1.874      4.403
REMARK  7 active torsions:
REMARK  status: ('A' for Active; 'I' for Inactive)
REMARK    1  A    between atoms: C2_2  and  O2_4 
REMARK    2  A    between atoms: O2_4  and  C3_5 
REMARK    3  A    between atoms: C4_6  and  C5_7 
REMARK    4  A    between atoms: C5_7  and  O3_8 
REMARK    5  A    between atoms: C16_22  and  O5_23 
REMARK    6  A    between atoms: O5_23  and  C17_24 
REMARK    7  A    between atoms: C17_24  and  C18_26 
ROOT
HETATM    1  C3  UNL     1      96.522  27.904  15.412  1.00  0.00     0.171 C 
HETATM    2  C4  UNL     1      96.708  27.877  13.933  1.00  0.00     0.065 C 
HETATM    3  C6  UNL     1      96.291  26.594  13.284  1.00  0.00    -0.003 C 
HETATM    4  C7  UNL     1      96.053  25.510  13.961  1.00  0.00    -0.017 C 
HETATM    5  S1  UNL     1      95.556  23.865  13.526  1.00  0.00    -0.128 SA
HETATM    6  C8  UNL     1      94.770  23.505  15.161  1.00  0.00     0.068 C 
HETATM    7  C9  UNL     1      94.709  22.050  15.427  1.00  0.00     0.050 C 
HETATM    8  C10 UNL     1      96.049  21.426  15.323  1.00  0.00    -0.079 C 
HETATM    9  C11 UNL     1      96.157  20.090  14.698  1.00  0.00     0.043 C 
HETATM   10  C12 UNL     1      97.056  22.125  15.805  1.00  0.00     0.053 C 
HETATM   11  C13 UNL     1      96.872  23.431  16.405  1.00  0.00     0.155 C 
HETATM   12  O4  UNL     1      97.679  23.886  17.235  1.00  0.00    -0.293 OA
HETATM   13  C14 UNL     1      95.687  24.286  16.039  1.00  0.00     0.085 C 
HETATM   14  C15 UNL     1      96.179  25.515  15.421  1.00  0.00     0.070 C 
HETATM   15  C16 UNL     1      95.588  26.818  15.904  1.00  0.00     0.171 C 
ENDROOT
BRANCH  15  16
HETATM   16  O5  UNL     1      95.582  26.883  17.333  1.00  0.00    -0.312 OA
BRANCH  16  17
HETATM   17  C17 UNL     1      95.172  28.034  17.994  1.00  0.00     0.262 C 
HETATM   18  O6  UNL     1      94.146  28.611  17.510  1.00  0.00    -0.265 OA
BRANCH  17  19
HETATM   19  C18 UNL     1      95.867  28.575  19.184  1.00  0.00     0.077 C 
HETATM   20  C19 UNL     1      96.830  29.702  18.806  1.00  0.00     0.020 C 
HETATM   21  C20 UNL     1      96.717  27.512  19.862  1.00  0.00     0.020 C 
ENDBRANCH  17  19
ENDBRANCH  16  17
ENDBRANCH  15  16
BRANCH   1  22
HETATM   22  O2  UNL     1      97.802  27.606  15.996  1.00  0.00    -0.313 OA
BRANCH  22  23
HETATM   23  C2  UNL     1      98.825  28.540  15.916  1.00  0.00     0.255 C 
HETATM   24  C1  UNL     1     100.223  28.046  15.816  1.00  0.00     0.126 C 
HETATM   25  O1  UNL     1      98.505  29.749  15.934  1.00  0.00    -0.266 OA
ENDBRANCH  22  23
ENDBRANCH   1  22
BRANCH   2  26
HETATM   26  C5  UNL     1      95.978  29.034  13.280  1.00  0.00     0.175 C 
BRANCH  26  27
HETATM   27  O3  UNL     1      96.353  30.209  13.954  1.00  0.00    -0.400 OA
ATOM     28  H3  UNL     1      95.850  30.926  13.586  1.00  0.00     0.209 HD
ENDBRANCH  26  27
ENDBRANCH   2  26
TORSDOF 7
ENDMDL
MODEL 3
REMARK VINA RESULT: -7.662849963      1.987      4.233
REMARK  7 active torsions:
REMARK  status: ('A' for Active; 'I' for Inactive)
REMARK    1  A    between atoms: C2_2  and  O2_4 
REMARK    2  A    between atoms: O2_4  and  C3_5 
REMARK    3  A    between atoms: C4_6  and  C5_7 
REMARK    4  A    between atoms: C5_7  and  O3_8 
REMARK    5  A    between atoms: C16_22  and  O5_23 
REMARK    6  A    between atoms: O5_23  and  C17_24 
REMARK    7  A    between atoms: C17_24  and  C18_26 
ROOT
HETATM    1  C3  UNL     1      96.672  27.917  15.479  1.00  0.00     0.171 C 
HETATM    2  C4  UNL     1      96.584  27.817  13.994  1.00  0.00     0.065 C 
HETATM    3  C6  UNL     1      96.017  26.524  13.496  1.00  0.00    -0.003 C 
HETATM    4  C7  UNL     1      95.873  25.481  14.259  1.00  0.00    -0.017 C 
HETATM    5  S1  UNL     1      95.254  23.840  14.005  1.00  0.00    -0.128 SA
HETATM    6  C8  UNL     1      94.767  23.585  15.771  1.00  0.00     0.068 C 
HETATM    7  C9  UNL     1      94.711  22.146  16.118  1.00  0.00     0.050 C 
HETATM    8  C10 UNL     1      95.989  21.466  15.806  1.00  0.00    -0.079 C 
HETATM    9  C11 UNL     1      95.941  20.100  15.241  1.00  0.00     0.043 C 
HETATM   10  C12 UNL     1      97.088  22.145  16.062  1.00  0.00     0.053 C 
HETATM   11  C13 UNL     1      97.057  23.483  16.619  1.00  0.00     0.155 C 
HETATM   12  O4  UNL     1      98.015  23.941  17.266  1.00  0.00    -0.293 OA
HETATM   13  C14 UNL     1      95.853  24.367  16.429  1.00  0.00     0.085 C 
HETATM   14  C15 UNL     1      96.262  25.546  15.670  1.00  0.00     0.070 C 
HETATM   15  C16 UNL     1      95.809  26.892  16.185  1.00  0.00     0.171 C 
ENDROOT
BRANCH  15  16
HETATM   16  O5  UNL     1      96.064  27.021  17.587  1.00  0.00    -0.312 OA
BRANCH  16  17
HETATM   17  C17 UNL     1      95.064  27.427  18.461  1.00  0.00     0.262 C 
HETATM   18  O6  UNL     1      94.250  28.291  18.002  1.00  0.00    -0.265 OA
BRANCH  17  19
HETATM   19  C18 UNL     1      94.933  26.905  19.839  1.00  0.00     0.077 C 
HETATM   20  C19 UNL     1      96.261  26.980  20.595  1.00  0.00     0.020 C 
HETATM   21  C20 UNL     1      94.535  25.437  19.843  1.00  0.00     0.020 C 
ENDBRANCH  17  19
ENDBRANCH  16  17
ENDBRANCH  15  16
BRANCH   1  22
HETATM   22  O2  UNL     1      98.026  27.594  15.837  1.00  0.00    -0.313 OA
BRANCH  22  23
HETATM   23  C2  UNL     1      98.962  28.612  15.962  1.00  0.00     0.255 C 
HETATM   24  C1  UNL     1     100.402  28.254  15.900  1.00  0.00     0.126 C 
HETATM   25  O1  UNL     1      98.531  29.776  16.120  1.00  0.00    -0.266 OA
ENDBRANCH  22  23
ENDBRANCH   1  22
BRANCH   2  26
HETATM   26  C5  UNL     1      95.785  28.972  13.424  1.00  0.00     0.175 C 
BRANCH  26  27
HETATM   27  O3  UNL     1      96.293  30.158  13.982  1.00  0.00    -0.400 OA
ATOM     28  H3  UNL     1      95.554  30.717  14.192  1.00  0.00     0.209 HD
ENDBRANCH  26  27
ENDBRANCH   2  26
TORSDOF 7
ENDMDL
MODEL 4
REMARK VINA RESULT: -7.519437115      1.202      1.524
REMARK  7 active torsions:
REMARK  status: ('A' for Active; 'I' for Inactive)
REMARK    1  A    between atoms: C2_2  and  O2_4 
REMARK    2  A    between atoms: O2_4  and  C3_5 
REMARK    3  A    between atoms: C4_6  and  C5_7 
REMARK    4  A    between atoms: C5_7  and  O3_8 
REMARK    5  A    between atoms: C16_22  and  O5_23 
REMARK    6  A    between atoms: O5_23  and  C17_24 
REMARK    7  A    between atoms: C17_24  and  C18_26 
ROOT
HETATM    1  C3  UNL     1      96.512  28.385  16.174  1.00  0.00     0.171 C 
HETATM    2  C4  UNL     1      95.369  29.217  15.701  1.00  0.00     0.065 C 
HETATM    3  C6  UNL     1      94.607  28.622  14.557  1.00  0.00    -0.003 C 
HETATM    4  C7  UNL     1      95.056  27.621  13.861  1.00  0.00    -0.017 C 
HETATM    5  S1  UNL     1      94.433  26.696  12.482  1.00  0.00    -0.128 SA
HETATM    6  C8  UNL     1      95.385  25.162  12.884  1.00  0.00     0.068 C 
HETATM    7  C9  UNL     1      95.587  24.317  11.685  1.00  0.00     0.050 C 
HETATM    8  C10 UNL     1      96.230  25.079  10.590  1.00  0.00    -0.079 C 
HETATM    9  C11 UNL     1      95.773  24.841   9.203  1.00  0.00     0.043 C 
HETATM   10  C12 UNL     1      97.175  25.926  10.945  1.00  0.00     0.053 C 
HETATM   11  C13 UNL     1      97.570  26.106  12.328  1.00  0.00     0.155 C 
HETATM   12  O4  UNL     1      98.702  26.523  12.632  1.00  0.00    -0.293 OA
HETATM   13  C14 UNL     1      96.615  25.790  13.448  1.00  0.00     0.085 C 
HETATM   14  C15 UNL     1      96.352  27.020  14.190  1.00  0.00     0.070 C 
HETATM   15  C16 UNL     1      96.428  26.951  15.697  1.00  0.00     0.171 C 
ENDROOT
BRANCH  15  16
HETATM   16  O5  UNL     1      97.625  26.294  16.123  1.00  0.00    -0.312 OA
BRANCH  16  17
HETATM   17  C17 UNL     1      97.647  25.527  17.281  1.00  0.00     0.262 C 
HETATM   18  O6  UNL     1      98.741  24.922  17.519  1.00  0.00    -0.265 OA
BRANCH  17  19
HETATM   19  C18 UNL     1      96.487  25.403  18.191  1.00  0.00     0.077 C 
HETATM   20  C19 UNL     1      96.602  26.363  19.378  1.00  0.00     0.020 C 
HETATM   21  C20 UNL     1      96.399  24.009  18.792  1.00  0.00     0.020 C 
ENDBRANCH  17  19
ENDBRANCH  16  17
ENDBRANCH  15  16
BRANCH   1  22
HETATM   22  O2  UNL     1      97.698  28.925  15.566  1.00  0.00    -0.313 OA
BRANCH  22  23
HETATM   23  C2  UNL     1      98.747  29.349  16.371  1.00  0.00     0.255 C 
HETATM   24  C1  UNL     1     100.093  28.769  16.134  1.00  0.00     0.126 C 
HETATM   25  O1  UNL     1      98.490  30.200  17.252  1.00  0.00    -0.266 OA
ENDBRANCH  22  23
ENDBRANCH   1  22
BRANCH   2  26
HETATM   26  C5  UNL     1      94.416  29.519  16.840  1.00  0.00     0.175 C 
BRANCH  26  27
HETATM   27  O3  UNL     1      95.125  29.353  18.043  1.00  0.00    -0.400 OA
ATOM     28  H3  UNL     1      94.696  28.663  18.537  1.00  0.00     0.209 HD
ENDBRANCH  26  27
ENDBRANCH   2  26
TORSDOF 7
ENDMDL
MODEL 5
REMARK VINA RESULT: -7.389211021      2.666      6.002
REMARK  7 active torsions:
REMARK  status: ('A' for Active; 'I' for Inactive)
REMARK    1  A    between atoms: C2_2  and  O2_4 
REMARK    2  A    between atoms: O2_4  and  C3_5 
REMARK    3  A    between atoms: C4_6  and  C5_7 
REMARK    4  A    between atoms: C5_7  and  O3_8 
REMARK    5  A    between atoms: C16_22  and  O5_23 
REMARK    6  A    between atoms: O5_23  and  C17_24 
REMARK    7  A    between atoms: C17_24  and  C18_26 
ROOT
HETATM    1  C3  UNL     1      96.737  28.016  14.216  1.00  0.00     0.171 C 
HETATM    2  C4  UNL     1      95.289  28.370  14.222  1.00  0.00     0.065 C 
HETATM    3  C6  UNL     1      94.689  28.485  15.589  1.00  0.00    -0.003 C 
HETATM    4  C7  UNL     1      95.289  28.050  16.657  1.00  0.00    -0.017 C 
HETATM    5  S1  UNL     1      94.879  28.025  18.382  1.00  0.00    -0.128 SA
HETATM    6  C8  UNL     1      96.636  27.990  18.956  1.00  0.00     0.068 C 
HETATM    7  C9  UNL     1      96.753  27.412  20.315  1.00  0.00     0.050 C 
HETATM    8  C10 UNL     1      96.135  26.067  20.383  1.00  0.00    -0.079 C 
HETATM    9  C11 UNL     1      95.374  25.702  21.598  1.00  0.00     0.043 C 
HETATM   10  C12 UNL     1      96.317  25.288  19.336  1.00  0.00     0.053 C 
HETATM   11  C13 UNL     1      97.078  25.716  18.179  1.00  0.00     0.155 C 
HETATM   12  O4  UNL     1      97.627  24.896  17.422  1.00  0.00    -0.293 OA
HETATM   13  C14 UNL     1      97.227  27.179  17.854  1.00  0.00     0.085 C 
HETATM   14  C15 UNL     1      96.611  27.428  16.554  1.00  0.00     0.070 C 
HETATM   15  C16 UNL     1      97.400  28.245  15.558  1.00  0.00     0.171 C 
ENDROOT
BRANCH  15  16
HETATM   16  O5  UNL     1      98.745  27.770  15.451  1.00  0.00    -0.312 OA
BRANCH  16  17
HETATM   17  C17 UNL     1      99.813  28.537  15.898  1.00  0.00     0.262 C 
HETATM   18  O6  UNL     1      99.505  29.653  16.427  1.00  0.00    -0.265 OA
BRANCH  17  19
HETATM   19  C18 UNL     1     101.224  28.109  15.777  1.00  0.00     0.077 C 
HETATM   20  C19 UNL     1     101.599  27.102  16.867  1.00  0.00     0.020 C 
HETATM   21  C20 UNL     1     102.177  29.282  15.951  1.00  0.00     0.020 C 
ENDBRANCH  17  19
ENDBRANCH  16  17
ENDBRANCH  15  16
BRANCH   1  22
HETATM   22  O2  UNL     1      96.818  26.600  13.983  1.00  0.00    -0.313 OA
BRANCH  22  23
HETATM   23  C2  UNL     1      97.253  26.133  12.750  1.00  0.00     0.255 C 
HETATM   24  C1  UNL     1      97.460  27.119  11.658  1.00  0.00     0.126 C 
HETATM   25  O1  UNL     1      97.444  24.902  12.634  1.00  0.00    -0.266 OA
ENDBRANCH  22  23
ENDBRANCH   1  22
BRANCH   2  26
HETATM   26  C5  UNL     1      95.048  29.655  13.454  1.00  0.00     0.175 C 
BRANCH  26  27
HETATM   27  O3  UNL     1      93.988  30.333  14.082  1.00  0.00    -0.400 OA
ATOM     28  H3  UNL     1      93.778  31.092  13.551  1.00  0.00     0.209 HD
ENDBRANCH  26  27
ENDBRANCH   2  26
TORSDOF 7
ENDMDL
