MODEL 1
REMARK VINA RESULT: -7.624922671      0.000      0.000
REMARK  6 active torsions:
REMARK  status: ('A' for Active; 'I' for Inactive)
REMARK       I    between atoms: N1_2  and  C3_4 
REMARK       I    between atoms: C3_4  and  N2_6 
REMARK    1  A    between atoms: C4_8  and  N3_9 
REMARK    2  A    between atoms: C4_8  and  C6_14 
REMARK    3  A    between atoms: C6_14  and  N6_15 
REMARK    4  A    between atoms: C6_14  and  C8_20 
REMARK    5  A    between atoms: C8_20  and  O2_21 
REMARK    6  A    between atoms: N9_23  and  O3_25 
ROOT
HETATM    1  C1  UNL     1      15.128 -30.117 -14.393  1.00  0.00     0.154 C 
HETATM    2  N1  UNL     1      16.499 -30.270 -14.802  1.00  0.00    -0.343 N 
HETATM    3  C2  UNL     1      16.895 -31.427 -15.565  1.00  0.00     0.154 C 
HETATM    4  C3  UNL     1      17.456 -29.308 -14.470  1.00  0.00     0.323 C 
HETATM    5  O1  UNL     1      18.637 -29.455 -14.831  1.00  0.00    -0.247 OA
HETATM    6  N2  UNL     1      17.096 -28.165 -13.724  1.00  0.00    -0.296 N 
ATOM      7  H2  UNL     1      16.846 -28.300 -12.744  1.00  0.00     0.172 HD
HETATM    8  C4  UNL     1      17.059 -26.978 -14.182  1.00  0.00     0.118 C 
ENDROOT
BRANCH   8   9
HETATM    9  N3  UNL     1      16.689 -25.898 -13.369  1.00  0.00    -0.320 N 
HETATM   10  C5  UNL     1      15.512 -25.465 -13.165  1.00  0.00     0.202 C 
HETATM   11  N4  UNL     1      15.376 -24.334 -12.282  1.00  0.00    -0.066 NA
HETATM   12  N5  UNL     1      14.325 -25.980 -13.716  1.00  0.00    -0.066 NA
ATOM     13  H3  UNL     1      17.444 -25.408 -12.890  1.00  0.00     0.169 HD
ENDBRANCH   8   9
BRANCH   8  14
HETATM   14  C6  UNL     1      17.408 -26.693 -15.606  1.00  0.00     0.228 C 
BRANCH  14  15
HETATM   15  N6  UNL     1      18.843 -26.583 -15.792  1.00  0.00    -0.348 N 
HETATM   16  C7  UNL     1      19.367 -27.130 -16.848  1.00  0.00     0.197 C 
HETATM   17  N7  UNL     1      18.561 -27.824 -17.810  1.00  0.00    -0.067 NA
HETATM   18  N8  UNL     1      20.757 -27.065 -17.099  1.00  0.00    -0.067 NA
ATOM     19  H6  UNL     1      19.423 -26.090 -15.113  1.00  0.00     0.163 HD
ENDBRANCH  14  15
BRANCH  14  20
HETATM   20  C8  UNL     1      16.725 -25.426 -16.031  1.00  0.00     0.166 C 
HETATM   21  N9  UNL     1      17.285 -24.282 -15.898  1.00  0.00    -0.249 N 
ATOM     22  H9  UNL     1      18.219 -24.212 -15.495  1.00  0.00     0.196 HD
BRANCH  20  23
HETATM   23  O2  UNL     1      15.455 -25.487 -16.583  1.00  0.00    -0.346 OA
ATOM     24  H2  UNL     1      14.733 -25.819 -16.063  1.00  0.00     0.219 HD
ENDBRANCH  20  23
BRANCH  21  25
HETATM   25  O3  UNL     1      16.626 -23.157 -16.299  1.00  0.00    -0.288 OA
ATOM     26  H3  UNL     1      15.676 -23.151 -16.318  1.00  0.00     0.244 HD
ENDBRANCH  21  25
ENDBRANCH  14  20
ENDBRANCH   8  14
TORSDOF 6
ENDMDL
MODEL 2
REMARK VINA RESULT: -7.601789584      2.297      4.527
REMARK  6 active torsions:
REMARK  status: ('A' for Active; 'I' for Inactive)
REMARK       I    between atoms: N1_2  and  C3_4 
REMARK       I    between atoms: C3_4  and  N2_6 
REMARK    1  A    between atoms: C4_8  and  N3_9 
REMARK    2  A    between atoms: C4_8  and  C6_14 
REMARK    3  A    between atoms: C6_14  and  N6_15 
REMARK    4  A    between atoms: C6_14  and  C8_20 
REMARK    5  A    between atoms: C8_20  and  O2_21 
REMARK    6  A    between atoms: N9_23  and  O3_25 
ROOT
HETATM    1  C1  UNL     1      17.484 -31.305 -15.291  1.00  0.00     0.154 C 
HETATM    2  N1  UNL     1      16.298 -30.617 -14.854  1.00  0.00    -0.343 N 
HETATM    3  C2  UNL     1      15.555 -31.114 -13.724  1.00  0.00     0.154 C 
HETATM    4  C3  UNL     1      15.855 -29.467 -15.513  1.00  0.00     0.323 C 
HETATM    5  O1  UNL     1      14.828 -28.883 -15.123  1.00  0.00    -0.247 OA
HETATM    6  N2  UNL     1      16.564 -28.958 -16.623  1.00  0.00    -0.296 N 
ATOM      7  H2  UNL     1      16.540 -29.500 -17.487  1.00  0.00     0.172 HD
HETATM    8  C4  UNL     1      17.230 -27.873 -16.626  1.00  0.00     0.118 C 
ENDROOT
BRANCH   8   9
HETATM    9  N3  UNL     1      17.905 -27.441 -17.776  1.00  0.00    -0.320 N 
HETATM   10  C5  UNL     1      19.081 -27.759 -18.134  1.00  0.00     0.202 C 
HETATM   11  N4  UNL     1      19.567 -27.186 -19.364  1.00  0.00    -0.066 NA
HETATM   12  N5  UNL     1      19.961 -28.616 -17.448  1.00  0.00    -0.066 NA
ATOM     13  H3  UNL     1      17.398 -26.804 -18.390  1.00  0.00     0.169 HD
ENDBRANCH   8   9
BRANCH   8  14
HETATM   14  C6  UNL     1      17.317 -27.021 -15.403  1.00  0.00     0.228 C 
BRANCH  14  15
HETATM   15  N6  UNL     1      17.505 -25.622 -15.740  1.00  0.00    -0.348 N 
HETATM   16  C7  UNL     1      16.487 -24.822 -15.624  1.00  0.00     0.197 C 
HETATM   17  N7  UNL     1      15.210 -25.296 -15.176  1.00  0.00    -0.067 NA
HETATM   18  N8  UNL     1      16.591 -23.446 -15.933  1.00  0.00    -0.067 NA
ATOM     19  H6  UNL     1      18.411 -25.276 -16.058  1.00  0.00     0.163 HD
ENDBRANCH  14  15
BRANCH  14  20
HETATM   20  C8  UNL     1      18.447 -27.511 -14.546  1.00  0.00     0.166 C 
HETATM   21  N9  UNL     1      19.671 -27.317 -14.871  1.00  0.00    -0.249 N 
ATOM     22  H9  UNL     1      19.901 -26.818 -15.731  1.00  0.00     0.196 HD
BRANCH  20  23
HETATM   23  O2  UNL     1      18.169 -28.192 -13.372  1.00  0.00    -0.346 OA
ATOM     24  H2  UNL     1      18.786 -28.838 -13.047  1.00  0.00     0.219 HD
ENDBRANCH  20  23
BRANCH  21  25
HETATM   25  O3  UNL     1      20.666 -27.781 -14.062  1.00  0.00    -0.288 OA
ATOM     26  H3  UNL     1      20.886 -27.307 -13.269  1.00  0.00     0.244 HD
ENDBRANCH  21  25
ENDBRANCH  14  20
ENDBRANCH   8  14
TORSDOF 6
ENDMDL
MODEL 3
REMARK VINA RESULT: -6.685184528      1.677      4.321
REMARK  6 active torsions:
REMARK  status: ('A' for Active; 'I' for Inactive)
REMARK       I    between atoms: N1_2  and  C3_4 
REMARK       I    between atoms: C3_4  and  N2_6 
REMARK    1  A    between atoms: C4_8  and  N3_9 
REMARK    2  A    between atoms: C4_8  and  C6_14 
REMARK    3  A    between atoms: C6_14  and  N6_15 
REMARK    4  A    between atoms: C6_14  and  C8_20 
REMARK    5  A    between atoms: C8_20  and  O2_21 
REMARK    6  A    between atoms: N9_23  and  O3_25 
ROOT
HETATM    1  C1  UNL     1      17.420 -31.098 -14.581  1.00  0.00     0.154 C 
HETATM    2  N1  UNL     1      16.133 -30.539 -14.261  1.00  0.00    -0.343 N 
HETATM    3  C2  UNL     1      15.399 -31.031 -13.123  1.00  0.00     0.154 C 
HETATM    4  C3  UNL     1      15.583 -29.520 -15.043  1.00  0.00     0.323 C 
HETATM    5  O1  UNL     1      14.469 -29.046 -14.755  1.00  0.00    -0.247 OA
HETATM    6  N2  UNL     1      16.280 -29.019 -16.164  1.00  0.00    -0.296 N 
ATOM      7  H2  UNL     1      16.375 -29.632 -16.974  1.00  0.00     0.172 HD
HETATM    8  C4  UNL     1      16.800 -27.860 -16.240  1.00  0.00     0.118 C 
ENDROOT
BRANCH   8   9
HETATM    9  N3  UNL     1      17.476 -27.443 -17.394  1.00  0.00    -0.320 N 
HETATM   10  C5  UNL     1      18.686 -27.683 -17.698  1.00  0.00     0.202 C 
HETATM   11  N4  UNL     1      19.165 -27.147 -18.947  1.00  0.00    -0.066 NA
HETATM   12  N5  UNL     1      19.609 -28.422 -16.935  1.00  0.00    -0.066 NA
ATOM     13  H3  UNL     1      16.941 -26.888 -18.062  1.00  0.00     0.169 HD
ENDBRANCH   8   9
BRANCH   8  14
HETATM   14  C6  UNL     1      16.709 -26.900 -15.099  1.00  0.00     0.228 C 
BRANCH  14  15
HETATM   15  N6  UNL     1      15.333 -26.682 -14.694  1.00  0.00    -0.348 N 
HETATM   16  C7  UNL     1      15.114 -26.003 -13.607  1.00  0.00     0.197 C 
HETATM   17  N7  UNL     1      16.195 -25.480 -12.822  1.00  0.00    -0.067 NA
HETATM   18  N8  UNL     1      13.802 -25.749 -13.147  1.00  0.00    -0.067 NA
ATOM     19  H6  UNL     1      14.558 -27.050 -15.247  1.00  0.00     0.163 HD
ENDBRANCH  14  15
BRANCH  14  20
HETATM   20  C8  UNL     1      17.351 -25.605 -15.499  1.00  0.00     0.166 C 
HETATM   21  N9  UNL     1      16.695 -24.503 -15.507  1.00  0.00    -0.249 N 
ATOM     22  H9  UNL     1      15.712 -24.489 -15.236  1.00  0.00     0.196 HD
BRANCH  20  23
HETATM   23  O2  UNL     1      18.685 -25.589 -15.872  1.00  0.00    -0.346 OA
ATOM     24  H2  UNL     1      19.244 -26.324 -15.647  1.00  0.00     0.219 HD
ENDBRANCH  20  23
BRANCH  21  25
HETATM   25  O3  UNL     1      17.320 -23.349 -15.878  1.00  0.00    -0.288 OA
ATOM     26  H3  UNL     1      18.095 -23.390 -16.426  1.00  0.00     0.244 HD
ENDBRANCH  21  25
ENDBRANCH  14  20
ENDBRANCH   8  14
TORSDOF 6
ENDMDL
MODEL 4
REMARK VINA RESULT: -6.532794445      1.403      4.108
REMARK  6 active torsions:
REMARK  status: ('A' for Active; 'I' for Inactive)
REMARK       I    between atoms: N1_2  and  C3_4 
REMARK       I    between atoms: C3_4  and  N2_6 
REMARK    1  A    between atoms: C4_8  and  N3_9 
REMARK    2  A    between atoms: C4_8  and  C6_14 
REMARK    3  A    between atoms: C6_14  and  N6_15 
REMARK    4  A    between atoms: C6_14  and  C8_20 
REMARK    5  A    between atoms: C8_20  and  O2_21 
REMARK    6  A    between atoms: N9_23  and  O3_25 
ROOT
HETATM    1  C1  UNL     1      18.667 -27.884 -17.937  1.00  0.00     0.154 C 
HETATM    2  N1  UNL     1      19.480 -27.712 -16.762  1.00  0.00    -0.343 N 
HETATM    3  C2  UNL     1      20.842 -27.259 -16.891  1.00  0.00     0.154 C 
HETATM    4  C3  UNL     1      18.964 -27.977 -15.490  1.00  0.00     0.323 C 
HETATM    5  O1  UNL     1      19.679 -27.823 -14.484  1.00  0.00    -0.247 OA
HETATM    6  N2  UNL     1      17.633 -28.422 -15.334  1.00  0.00    -0.296 N 
ATOM      7  H2  UNL     1      17.409 -29.363 -15.657  1.00  0.00     0.172 HD
HETATM    8  C4  UNL     1      16.692 -27.735 -14.822  1.00  0.00     0.118 C 
ENDROOT
BRANCH   8   9
HETATM    9  N3  UNL     1      15.396 -28.256 -14.705  1.00  0.00    -0.320 N 
HETATM   10  C5  UNL     1      15.075 -29.424 -14.322  1.00  0.00     0.202 C 
HETATM   11  N4  UNL     1      13.668 -29.734 -14.282  1.00  0.00    -0.066 NA
HETATM   12  N5  UNL     1      15.957 -30.448 -13.932  1.00  0.00    -0.066 NA
ATOM     13  H3  UNL     1      14.629 -27.631 -14.954  1.00  0.00     0.169 HD
ENDBRANCH   8   9
BRANCH   8  14
HETATM   14  C6  UNL     1      16.934 -26.347 -14.327  1.00  0.00     0.228 C 
BRANCH  14  15
HETATM   15  N6  UNL     1      16.053 -26.013 -13.224  1.00  0.00    -0.348 N 
HETATM   16  C7  UNL     1      14.879 -25.527 -13.502  1.00  0.00     0.197 C 
HETATM   17  N7  UNL     1      14.457 -25.324 -14.858  1.00  0.00    -0.067 NA
HETATM   18  N8  UNL     1      13.965 -25.177 -12.483  1.00  0.00    -0.067 NA
ATOM     19  H6  UNL     1      16.345 -26.155 -12.257  1.00  0.00     0.163 HD
ENDBRANCH  14  15
BRANCH  14  20
HETATM   20  C8  UNL     1      16.744 -25.384 -15.461  1.00  0.00     0.166 C 
HETATM   21  N9  UNL     1      16.830 -24.117 -15.290  1.00  0.00    -0.249 N 
ATOM     22  H9  UNL     1      17.033 -23.737 -14.366  1.00  0.00     0.196 HD
BRANCH  20  23
HETATM   23  O2  UNL     1      16.469 -25.868 -16.730  1.00  0.00    -0.346 OA
ATOM     24  H2  UNL     1      15.570 -26.049 -16.978  1.00  0.00     0.219 HD
ENDBRANCH  20  23
BRANCH  21  25
HETATM   25  O3  UNL     1      16.650 -23.280 -16.351  1.00  0.00    -0.288 OA
ATOM     26  H3  UNL     1      17.393 -23.041 -16.892  1.00  0.00     0.244 HD
ENDBRANCH  21  25
ENDBRANCH  14  20
ENDBRANCH   8  14
TORSDOF 6
ENDMDL
MODEL 5
REMARK VINA RESULT: -6.519757467      1.880      3.594
REMARK  6 active torsions:
REMARK  status: ('A' for Active; 'I' for Inactive)
REMARK       I    between atoms: N1_2  and  C3_4 
REMARK       I    between atoms: C3_4  and  N2_6 
REMARK    1  A    between atoms: C4_8  and  N3_9 
REMARK    2  A    between atoms: C4_8  and  C6_14 
REMARK    3  A    between atoms: C6_14  and  N6_15 
REMARK    4  A    between atoms: C6_14  and  C8_20 
REMARK    5  A    between atoms: C8_20  and  O2_21 
REMARK    6  A    between atoms: N9_23  and  O3_25 
ROOT
HETATM    1  C1  UNL     1      20.626 -27.873 -14.751  1.00  0.00     0.154 C 
HETATM    2  N1  UNL     1      19.920 -27.947 -16.003  1.00  0.00    -0.343 N 
HETATM    3  C2  UNL     1      20.487 -28.685 -17.103  1.00  0.00     0.154 C 
HETATM    4  C3  UNL     1      18.687 -27.312 -16.167  1.00  0.00     0.323 C 
HETATM    5  O1  UNL     1      18.089 -27.385 -17.255  1.00  0.00    -0.247 OA
HETATM    6  N2  UNL     1      18.108 -26.582 -15.106  1.00  0.00    -0.296 N 
ATOM      7  H2  UNL     1      18.558 -25.708 -14.833  1.00  0.00     0.172 HD
HETATM    8  C4  UNL     1      17.067 -26.934 -14.463  1.00  0.00     0.118 C 
ENDROOT
BRANCH   8   9
HETATM    9  N3  UNL     1      16.560 -26.148 -13.420  1.00  0.00    -0.320 N 
HETATM   10  C5  UNL     1      15.986 -25.019 -13.524  1.00  0.00     0.202 C 
HETATM   11  N4  UNL     1      15.544 -24.394 -12.303  1.00  0.00    -0.066 NA
HETATM   12  N5  UNL     1      15.738 -24.316 -14.718  1.00  0.00    -0.066 NA
ATOM     13  H3  UNL     1      16.661 -26.521 -12.476  1.00  0.00     0.169 HD
ENDBRANCH   8   9
BRANCH   8  14
HETATM   14  C6  UNL     1      16.349 -28.200 -14.796  1.00  0.00     0.228 C 
BRANCH  14  15
HETATM   15  N6  UNL     1      17.275 -29.269 -15.123  1.00  0.00    -0.348 N 
HETATM   16  C7  UNL     1      17.112 -30.420 -14.543  1.00  0.00     0.197 C 
HETATM   17  N7  UNL     1      16.050 -30.641 -13.604  1.00  0.00    -0.067 NA
HETATM   18  N8  UNL     1      17.973 -31.510 -14.810  1.00  0.00    -0.067 NA
ATOM     19  H6  UNL     1      18.032 -29.120 -15.791  1.00  0.00     0.163 HD
ENDBRANCH  14  15
BRANCH  14  20
HETATM   20  C8  UNL     1      15.415 -27.945 -15.942  1.00  0.00     0.166 C 
HETATM   21  N9  UNL     1      15.026 -26.761 -16.241  1.00  0.00    -0.249 N 
ATOM     22  H9  UNL     1      15.349 -25.961 -15.697  1.00  0.00     0.196 HD
BRANCH  20  23
HETATM   23  O2  UNL     1      14.958 -29.009 -16.702  1.00  0.00    -0.346 OA
ATOM     24  H2  UNL     1      14.119 -29.406 -16.496  1.00  0.00     0.219 HD
ENDBRANCH  20  23
BRANCH  21  25
HETATM   25  O3  UNL     1      14.176 -26.576 -17.292  1.00  0.00    -0.288 OA
ATOM     26  H3  UNL     1      13.536 -25.875 -17.261  1.00  0.00     0.244 HD
ENDBRANCH  21  25
ENDBRANCH  14  20
ENDBRANCH   8  14
TORSDOF 6
ENDMDL
