MODEL 1
REMARK VINA RESULT: -8.599263193      0.000      0.000
REMARK  6 active torsions:
REMARK  status: ('A' for Active; 'I' for Inactive)
REMARK    1  A    between atoms: N1_2  and  C2_4 
REMARK    2  A    between atoms: C2_4  and  N2_6 
REMARK    3  A    between atoms: N2_6  and  N3_8 
REMARK       I    between atoms: N3_8  and  C3_10 
REMARK    4  A    between atoms: C3_10  and  C4_12 
REMARK    5  A    between atoms: C4_12  and  N4_13 
REMARK    6  A    between atoms: C4_12  and  C6_18 
REMARK       I    between atoms: C6_18  and  N7_20 
REMARK       I    between atoms: N7_20  and  C7_22 
ROOT
HETATM    1  C4  UNL     1      16.582 -27.421 -15.294  1.00  0.00     0.271 C 
ENDROOT
BRANCH   1   2
HETATM    2  C3  UNL     1      17.646 -26.998 -16.219  1.00  0.00     0.268 C 
HETATM    3  N3  UNL     1      18.971 -26.828 -15.771  1.00  0.00    -0.266 N 
ATOM      4  H3  UNL     1      19.185 -26.999 -14.788  1.00  0.00     0.190 HD
HETATM    5  O1  UNL     1      17.393 -26.782 -17.415  1.00  0.00    -0.269 OA
BRANCH   3   6
HETATM    6  N2  UNL     1      20.013 -26.429 -16.636  1.00  0.00    -0.274 N 
ATOM      7  H2  UNL     1      20.220 -25.437 -16.756  1.00  0.00     0.189 HD
BRANCH   6   8
HETATM    8  C2  UNL     1      20.769 -27.394 -17.337  1.00  0.00     0.186 C 
HETATM    9  S1  UNL     1      21.234 -28.763 -16.542  1.00  0.00    -0.040 SA
BRANCH   8  10
HETATM   10  N1  UNL     1      21.139 -27.219 -18.713  1.00  0.00    -0.370 N 
HETATM   11  C1  UNL     1      20.078 -27.233 -19.731  1.00  0.00     0.148 C 
ATOM     12  H1  UNL     1      22.115 -27.087 -18.978  1.00  0.00     0.161 HD
ENDBRANCH   8  10
ENDBRANCH   6   8
ENDBRANCH   3   6
ENDBRANCH   1   2
BRANCH   1  13
HETATM   13  N4  UNL     1      16.515 -26.662 -14.077  1.00  0.00    -0.346 N 
HETATM   14  C5  UNL     1      15.796 -25.657 -13.805  1.00  0.00     0.198 C 
HETATM   15  N5  UNL     1      14.899 -25.144 -14.777  1.00  0.00    -0.067 NA
HETATM   16  N6  UNL     1      15.841 -24.997 -12.555  1.00  0.00    -0.067 NA
ATOM     17  H4  UNL     1      17.131 -26.977 -13.327  1.00  0.00     0.163 HD
ENDBRANCH   1  13
BRANCH   1  18
HETATM   18  C6  UNL     1      16.804 -28.851 -14.879  1.00  0.00     0.256 C 
HETATM   19  O2  UNL     1      17.878 -29.362 -15.279  1.00  0.00    -0.270 OA
HETATM   20  N7  UNL     1      15.912 -29.593 -14.103  1.00  0.00    -0.296 N 
HETATM   21  C7  UNL     1      16.246 -30.911 -13.719  1.00  0.00     0.220 C 
ATOM     22  H7  UNL     1      15.023 -29.184 -13.813  1.00  0.00     0.171 HD
HETATM   23  C8  UNL     1      15.387 -31.759 -12.858  1.00  0.00     0.117 C 
HETATM   24  O3  UNL     1      17.328 -31.434 -14.109  1.00  0.00    -0.274 OA
ENDBRANCH   1  18
TORSDOF 6
ENDMDL
MODEL 2
REMARK VINA RESULT: -8.233769355      1.095      1.183
REMARK  6 active torsions:
REMARK  status: ('A' for Active; 'I' for Inactive)
REMARK    1  A    between atoms: N1_2  and  C2_4 
REMARK    2  A    between atoms: C2_4  and  N2_6 
REMARK    3  A    between atoms: N2_6  and  N3_8 
REMARK       I    between atoms: N3_8  and  C3_10 
REMARK    4  A    between atoms: C3_10  and  C4_12 
REMARK    5  A    between atoms: C4_12  and  N4_13 
REMARK    6  A    between atoms: C4_12  and  C6_18 
REMARK       I    between atoms: C6_18  and  N7_20 
REMARK       I    between atoms: N7_20  and  C7_22 
ROOT
HETATM    1  C4  UNL     1      16.666 -27.477 -15.319  1.00  0.00     0.271 C 
ENDROOT
BRANCH   1   2
HETATM    2  C3  UNL     1      17.674 -27.001 -16.281  1.00  0.00     0.268 C 
HETATM    3  N3  UNL     1      19.042 -26.976 -15.944  1.00  0.00    -0.266 N 
ATOM      4  H3  UNL     1      19.327 -27.289 -15.016  1.00  0.00     0.190 HD
HETATM    5  O1  UNL     1      17.334 -26.612 -17.410  1.00  0.00    -0.269 OA
BRANCH   3   6
HETATM    6  N2  UNL     1      20.031 -26.530 -16.848  1.00  0.00    -0.274 N 
ATOM      7  H2  UNL     1      20.345 -25.561 -16.816  1.00  0.00     0.189 HD
BRANCH   6   8
HETATM    8  C2  UNL     1      20.586 -27.419 -17.795  1.00  0.00     0.186 C 
HETATM    9  S1  UNL     1      20.092 -27.308 -19.365  1.00  0.00    -0.040 SA
BRANCH   8  10
HETATM   10  N1  UNL     1      21.563 -28.406 -17.432  1.00  0.00    -0.370 N 
HETATM   11  C1  UNL     1      22.536 -28.835 -18.447  1.00  0.00     0.148 C 
ATOM     12  H1  UNL     1      21.582 -28.800 -16.491  1.00  0.00     0.161 HD
ENDBRANCH   8  10
ENDBRANCH   6   8
ENDBRANCH   3   6
ENDBRANCH   1   2
BRANCH   1  13
HETATM   13  N4  UNL     1      16.645 -26.761 -14.074  1.00  0.00    -0.346 N 
HETATM   14  C5  UNL     1      16.042 -25.688 -13.785  1.00  0.00     0.198 C 
HETATM   15  N5  UNL     1      15.249 -25.035 -14.763  1.00  0.00    -0.067 NA
HETATM   16  N6  UNL     1      16.121 -25.083 -12.509  1.00  0.00    -0.067 NA
ATOM     17  H4  UNL     1      17.193 -27.175 -13.320  1.00  0.00     0.163 HD
ENDBRANCH   1  13
BRANCH   1  18
HETATM   18  C6  UNL     1      16.936 -28.916 -14.965  1.00  0.00     0.256 C 
HETATM   19  O2  UNL     1      17.844 -29.468 -15.633  1.00  0.00    -0.270 OA
HETATM   20  N7  UNL     1      16.257 -29.622 -13.971  1.00  0.00    -0.296 N 
HETATM   21  C7  UNL     1      16.631 -30.953 -13.678  1.00  0.00     0.220 C 
ATOM     22  H7  UNL     1      15.494 -29.180 -13.458  1.00  0.00     0.171 HD
HETATM   23  C8  UNL     1      16.002 -31.767 -12.610  1.00  0.00     0.117 C 
HETATM   24  O3  UNL     1      17.549 -31.518 -14.338  1.00  0.00    -0.274 OA
ENDBRANCH   1  18
TORSDOF 6
ENDMDL
MODEL 3
REMARK VINA RESULT: -8.149631089      1.459      1.536
REMARK  6 active torsions:
REMARK  status: ('A' for Active; 'I' for Inactive)
REMARK    1  A    between atoms: N1_2  and  C2_4 
REMARK    2  A    between atoms: C2_4  and  N2_6 
REMARK    3  A    between atoms: N2_6  and  N3_8 
REMARK       I    between atoms: N3_8  and  C3_10 
REMARK    4  A    between atoms: C3_10  and  C4_12 
REMARK    5  A    between atoms: C4_12  and  N4_13 
REMARK    6  A    between atoms: C4_12  and  C6_18 
REMARK       I    between atoms: C6_18  and  N7_20 
REMARK       I    between atoms: N7_20  and  C7_22 
ROOT
HETATM    1  C4  UNL     1      15.978 -26.418 -15.327  1.00  0.00     0.271 C 
ENDROOT
BRANCH   1   2
HETATM    2  C3  UNL     1      17.156 -26.515 -16.205  1.00  0.00     0.268 C 
HETATM    3  N3  UNL     1      18.423 -26.078 -15.768  1.00  0.00    -0.266 N 
ATOM      4  H3  UNL     1      18.513 -25.686 -14.831  1.00  0.00     0.190 HD
HETATM    5  O1  UNL     1      17.053 -26.984 -17.350  1.00  0.00    -0.269 OA
BRANCH   3   6
HETATM    6  N2  UNL     1      19.570 -26.163 -16.586  1.00  0.00    -0.274 N 
ATOM      7  H2  UNL     1      19.855 -25.359 -17.145  1.00  0.00     0.189 HD
BRANCH   6   8
HETATM    8  C2  UNL     1      20.326 -27.356 -16.635  1.00  0.00     0.186 C 
HETATM    9  S1  UNL     1      20.574 -28.191 -15.234  1.00  0.00    -0.040 SA
BRANCH   8  10
HETATM   10  N1  UNL     1      20.878 -27.857 -17.861  1.00  0.00    -0.370 N 
HETATM   11  C1  UNL     1      20.150 -27.602 -19.113  1.00  0.00     0.148 C 
ATOM     12  H1  UNL     1      21.756 -28.377 -17.864  1.00  0.00     0.161 HD
ENDBRANCH   8  10
ENDBRANCH   6   8
ENDBRANCH   3   6
ENDBRANCH   1   2
BRANCH   1  13
HETATM   13  N4  UNL     1      16.208 -25.719 -14.095  1.00  0.00    -0.346 N 
HETATM   14  C5  UNL     1      15.430 -24.950 -13.459  1.00  0.00     0.198 C 
HETATM   15  N5  UNL     1      14.127 -24.691 -13.958  1.00  0.00    -0.067 NA
HETATM   16  N6  UNL     1      15.798 -24.314 -12.251  1.00  0.00    -0.067 NA
ATOM     17  H4  UNL     1      17.126 -25.860 -13.673  1.00  0.00     0.163 HD
ENDBRANCH   1  13
BRANCH   1  18
HETATM   18  C6  UNL     1      15.515 -27.798 -14.940  1.00  0.00     0.256 C 
HETATM   19  O2  UNL     1      14.274 -27.926 -14.801  1.00  0.00    -0.270 OA
HETATM   20  N7  UNL     1      16.367 -28.887 -14.743  1.00  0.00    -0.296 N 
HETATM   21  C7  UNL     1      15.823 -30.155 -14.439  1.00  0.00     0.220 C 
ATOM     22  H7  UNL     1      17.377 -28.767 -14.818  1.00  0.00     0.171 HD
HETATM   23  C8  UNL     1      16.641 -31.379 -14.261  1.00  0.00     0.117 C 
HETATM   24  O3  UNL     1      14.574 -30.298 -14.305  1.00  0.00    -0.274 OA
ENDBRANCH   1  18
TORSDOF 6
ENDMDL
MODEL 4
REMARK VINA RESULT: -7.980366636      1.566      1.729
REMARK  6 active torsions:
REMARK  status: ('A' for Active; 'I' for Inactive)
REMARK    1  A    between atoms: N1_2  and  C2_4 
REMARK    2  A    between atoms: C2_4  and  N2_6 
REMARK    3  A    between atoms: N2_6  and  N3_8 
REMARK       I    between atoms: N3_8  and  C3_10 
REMARK    4  A    between atoms: C3_10  and  C4_12 
REMARK    5  A    between atoms: C4_12  and  N4_13 
REMARK    6  A    between atoms: C4_12  and  C6_18 
REMARK       I    between atoms: C6_18  and  N7_20 
REMARK       I    between atoms: N7_20  and  C7_22 
ROOT
HETATM    1  C4  UNL     1      17.219 -27.502 -15.440  1.00  0.00     0.271 C 
ENDROOT
BRANCH   1   2
HETATM    2  C3  UNL     1      18.605 -27.293 -15.893  1.00  0.00     0.268 C 
HETATM    3  N3  UNL     1      18.903 -27.124 -17.260  1.00  0.00    -0.266 N 
ATOM      4  H3  UNL     1      18.141 -27.152 -17.938  1.00  0.00     0.190 HD
HETATM    5  O1  UNL     1      19.538 -27.264 -15.075  1.00  0.00    -0.269 OA
BRANCH   3   6
HETATM    6  N2  UNL     1      20.221 -26.916 -17.722  1.00  0.00    -0.274 N 
ATOM      7  H2  UNL     1      20.899 -26.447 -17.121  1.00  0.00     0.189 HD
BRANCH   6   8
HETATM    8  C2  UNL     1      20.605 -27.352 -19.009  1.00  0.00     0.186 C 
HETATM    9  S1  UNL     1      19.704 -26.872 -20.306  1.00  0.00    -0.040 SA
BRANCH   8  10
HETATM   10  N1  UNL     1      21.749 -28.192 -19.219  1.00  0.00    -0.370 N 
HETATM   11  C1  UNL     1      22.353 -28.856 -18.054  1.00  0.00     0.148 C 
ATOM     12  H1  UNL     1      22.134 -28.326 -20.153  1.00  0.00     0.161 HD
ENDBRANCH   8  10
ENDBRANCH   6   8
ENDBRANCH   3   6
ENDBRANCH   1   2
BRANCH   1  13
HETATM   13  N4  UNL     1      16.893 -26.853 -14.202  1.00  0.00    -0.346 N 
HETATM   14  C5  UNL     1      16.306 -25.749 -14.015  1.00  0.00     0.198 C 
HETATM   15  N5  UNL     1      15.869 -24.980 -15.125  1.00  0.00    -0.067 NA
HETATM   16  N6  UNL     1      16.057 -25.221 -12.726  1.00  0.00    -0.067 NA
ATOM     17  H4  UNL     1      17.174 -27.351 -13.357  1.00  0.00     0.163 HD
ENDBRANCH   1  13
BRANCH   1  18
HETATM   18  C6  UNL     1      16.971 -28.971 -15.217  1.00  0.00     0.256 C 
HETATM   19  O2  UNL     1      17.085 -29.693 -16.236  1.00  0.00    -0.270 OA
HETATM   20  N7  UNL     1      16.641 -29.534 -13.982  1.00  0.00    -0.296 N 
HETATM   21  C7  UNL     1      16.488 -30.934 -13.870  1.00  0.00     0.220 C 
ATOM     22  H7  UNL     1      16.512 -28.936 -13.165  1.00  0.00     0.171 HD
HETATM   23  C8  UNL     1      16.186 -31.627 -12.594  1.00  0.00     0.117 C 
HETATM   24  O3  UNL     1      16.608 -31.673 -14.888  1.00  0.00    -0.274 OA
ENDBRANCH   1  18
TORSDOF 6
ENDMDL
MODEL 5
REMARK VINA RESULT: -7.925314063      1.193      1.242
REMARK  6 active torsions:
REMARK  status: ('A' for Active; 'I' for Inactive)
REMARK    1  A    between atoms: N1_2  and  C2_4 
REMARK    2  A    between atoms: C2_4  and  N2_6 
REMARK    3  A    between atoms: N2_6  and  N3_8 
REMARK       I    between atoms: N3_8  and  C3_10 
REMARK    4  A    between atoms: C3_10  and  C4_12 
REMARK    5  A    between atoms: C4_12  and  N4_13 
REMARK    6  A    between atoms: C4_12  and  C6_18 
REMARK       I    between atoms: C6_18  and  N7_20 
REMARK       I    between atoms: N7_20  and  C7_22 
ROOT
HETATM    1  C4  UNL     1      16.257 -27.326 -15.570  1.00  0.00     0.271 C 
ENDROOT
BRANCH   1   2
HETATM    2  C3  UNL     1      17.351 -26.986 -16.495  1.00  0.00     0.268 C 
HETATM    3  N3  UNL     1      18.074 -27.994 -17.164  1.00  0.00    -0.266 N 
ATOM      4  H3  UNL     1      17.831 -28.970 -16.994  1.00  0.00     0.190 HD
HETATM    5  O1  UNL     1      17.656 -25.801 -16.703  1.00  0.00    -0.269 OA
BRANCH   3   6
HETATM    6  N2  UNL     1      19.122 -27.698 -18.061  1.00  0.00    -0.274 N 
ATOM      7  H2  UNL     1      18.906 -27.409 -19.015  1.00  0.00     0.189 HD
BRANCH   6   8
HETATM    8  C2  UNL     1      20.469 -27.799 -17.646  1.00  0.00     0.186 C 
HETATM    9  S1  UNL     1      20.784 -28.287 -16.101  1.00  0.00    -0.040 SA
BRANCH   8  10
HETATM   10  N1  UNL     1      21.561 -27.492 -18.524  1.00  0.00    -0.370 N 
HETATM   11  C1  UNL     1      22.570 -28.532 -18.777  1.00  0.00     0.148 C 
ATOM     12  H1  UNL     1      21.636 -26.575 -18.964  1.00  0.00     0.161 HD
ENDBRANCH   8  10
ENDBRANCH   6   8
ENDBRANCH   3   6
ENDBRANCH   1   2
BRANCH   1  13
HETATM   13  N4  UNL     1      16.347 -26.694 -14.284  1.00  0.00    -0.346 N 
HETATM   14  C5  UNL     1      15.732 -25.676 -13.854  1.00  0.00     0.198 C 
HETATM   15  N5  UNL     1      14.801 -25.005 -14.688  1.00  0.00    -0.067 NA
HETATM   16  N6  UNL     1      15.930 -25.152 -12.555  1.00  0.00    -0.067 NA
ATOM     17  H4  UNL     1      16.997 -27.125 -13.626  1.00  0.00     0.163 HD
ENDBRANCH   1  13
BRANCH   1  18
HETATM   18  C6  UNL     1      16.254 -28.808 -15.304  1.00  0.00     0.256 C 
HETATM   19  O2  UNL     1      16.095 -29.532 -16.316  1.00  0.00    -0.270 OA
HETATM   20  N7  UNL     1      16.419 -29.381 -14.041  1.00  0.00    -0.296 N 
HETATM   21  C7  UNL     1      16.461 -30.787 -13.911  1.00  0.00     0.220 C 
ATOM     22  H7  UNL     1      16.509 -28.787 -13.217  1.00  0.00     0.171 HD
HETATM   23  C8  UNL     1      16.679 -31.487 -12.622  1.00  0.00     0.117 C 
HETATM   24  O3  UNL     1      16.309 -31.527 -14.925  1.00  0.00    -0.274 OA
ENDBRANCH   1  18
TORSDOF 6
ENDMDL
