MODEL 1
REMARK VINA RESULT: -6.387694850      0.000      0.000
REMARK  2 active torsions:
REMARK  status: ('A' for Active; 'I' for Inactive)
REMARK    1  A    between atoms: C7_8  and  O1_9 
REMARK    2  A    between atoms: O1_9  and  C8_10 
ROOT
HETATM    1  C1  UNL     1       3.116  51.158   0.559  1.00  0.00     0.221 C 
HETATM    2  N1  UNL     1       3.643  51.572   1.523  1.00  0.00    -0.466 NA
HETATM    3  C2  UNL     1       4.270  52.072   2.662  1.00  0.00     0.162 C 
HETATM    4  C3  UNL     1       5.604  51.408   2.911  1.00  0.00     0.044 C 
HETATM    5  C4  UNL     1       6.577  52.018   1.948  1.00  0.00    -0.002 A 
HETATM    6  C5  UNL     1       7.956  52.332   2.249  1.00  0.00     0.015 A 
HETATM    7  C6  UNL     1       6.988  53.381   2.560  1.00  0.00     0.054 A 
HETATM    8  C7  UNL     1       6.493  54.408   1.606  1.00  0.00     0.184 C 
HETATM    9  O2  UNL     1       6.056  55.616   2.106  1.00  0.00    -0.343 OA
HETATM   10  C9  UNL     1       4.945  55.588   1.307  1.00  0.00     0.066 C 
HETATM   11  C10 UNL     1       3.739  56.090   2.115  1.00  0.00     0.046 C 
HETATM   12  C11 UNL     1       4.977  56.238  -0.019  1.00  0.00     0.046 C 
HETATM   13  C12 UNL     1       5.046  54.061   1.317  1.00  0.00     0.086 C 
HETATM   14  C13 UNL     1       4.364  53.559   2.552  1.00  0.00     0.052 C 
ENDROOT
BRANCH   8  15
HETATM   15  O1  UNL     1       7.323  54.578   0.515  1.00  0.00    -0.286 OA
BRANCH  15  16
HETATM   16  C8  UNL     1       8.494  55.290   0.626  1.00  0.00     0.227 C 
HETATM   17  N2  UNL     1       8.452  56.525   0.958  1.00  0.00    -0.368 N 
ATOM     18  H22 UNL     1       7.533  56.935   1.130  1.00  0.00     0.159 HD
ATOM     19  H21 UNL     1       9.320  57.053   1.041  1.00  0.00     0.159 HD
HETATM   20  N3  UNL     1       9.765  54.723   0.388  1.00  0.00    -0.057 NA
ENDBRANCH  15  16
ENDBRANCH   8  15
TORSDOF 2
ENDMDL
MODEL 2
REMARK VINA RESULT: -6.289099209      3.109      5.651
REMARK  2 active torsions:
REMARK  status: ('A' for Active; 'I' for Inactive)
REMARK    1  A    between atoms: C7_8  and  O1_9 
REMARK    2  A    between atoms: O1_9  and  C8_10 
ROOT
HETATM    1  C1  UNL     1       5.433  61.565   1.063  1.00  0.00     0.221 C 
HETATM    2  N1  UNL     1       5.449  60.762   0.207  1.00  0.00    -0.466 NA
HETATM    3  C2  UNL     1       5.467  59.802  -0.802  1.00  0.00     0.162 C 
HETATM    4  C3  UNL     1       6.822  59.704  -1.464  1.00  0.00     0.044 C 
HETATM    5  C4  UNL     1       7.704  58.931  -0.532  1.00  0.00    -0.002 A 
HETATM    6  C5  UNL     1       8.694  57.959  -0.941  1.00  0.00     0.015 A 
HETATM    7  C6  UNL     1       7.344  57.438  -0.739  1.00  0.00     0.054 A 
HETATM    8  C7  UNL     1       6.780  56.983   0.558  1.00  0.00     0.184 C 
HETATM    9  O2  UNL     1       5.774  56.040   0.546  1.00  0.00    -0.343 OA
HETATM   10  C9  UNL     1       5.048  56.747   1.466  1.00  0.00     0.066 C 
HETATM   11  C10 UNL     1       3.566  56.703   1.070  1.00  0.00     0.046 C 
HETATM   12  C11 UNL     1       5.199  56.451   2.906  1.00  0.00     0.046 C 
HETATM   13  C12 UNL     1       5.741  58.013   0.957  1.00  0.00     0.086 C 
HETATM   14  C13 UNL     1       4.990  58.501  -0.244  1.00  0.00     0.052 C 
ENDROOT
BRANCH   8  15
HETATM   15  O1  UNL     1       7.749  56.683   1.495  1.00  0.00    -0.286 OA
BRANCH  15  16
HETATM   16  C8  UNL     1       8.377  55.459   1.490  1.00  0.00     0.227 C 
HETATM   17  N2  UNL     1       7.788  54.447   2.005  1.00  0.00    -0.368 N 
ATOM     18  H22 UNL     1       6.861  54.594   2.404  1.00  0.00     0.159 HD
ATOM     19  H21 UNL     1       8.254  53.539   2.001  1.00  0.00     0.159 HD
HETATM   20  N3  UNL     1       9.660  55.254   0.937  1.00  0.00    -0.057 NA
ENDBRANCH  15  16
ENDBRANCH   8  15
TORSDOF 2
ENDMDL
MODEL 3
REMARK VINA RESULT: -6.288630327      2.833      5.032
REMARK  2 active torsions:
REMARK  status: ('A' for Active; 'I' for Inactive)
REMARK    1  A    between atoms: C7_8  and  O1_9 
REMARK    2  A    between atoms: O1_9  and  C8_10 
ROOT
HETATM    1  C1  UNL     1       2.571  59.855   2.713  1.00  0.00     0.221 C 
HETATM    2  N1  UNL     1       2.752  59.203   1.753  1.00  0.00    -0.466 NA
HETATM    3  C2  UNL     1       2.973  58.425   0.620  1.00  0.00     0.162 C 
HETATM    4  C3  UNL     1       3.903  59.102  -0.359  1.00  0.00     0.044 C 
HETATM    5  C4  UNL     1       5.291  58.942   0.182  1.00  0.00    -0.002 A 
HETATM    6  C5  UNL     1       6.470  58.687  -0.618  1.00  0.00     0.015 A 
HETATM    7  C6  UNL     1       5.732  57.503  -0.187  1.00  0.00     0.054 A 
HETATM    8  C7  UNL     1       5.911  56.799   1.110  1.00  0.00     0.184 C 
HETATM    9  O2  UNL     1       5.607  55.457   1.180  1.00  0.00    -0.343 OA
HETATM   10  C9  UNL     1       4.931  55.632   2.357  1.00  0.00     0.066 C 
HETATM   11  C10 UNL     1       3.657  54.775   2.332  1.00  0.00     0.046 C 
HETATM   12  C11 UNL     1       5.637  55.457   3.643  1.00  0.00     0.046 C 
HETATM   13  C12 UNL     1       4.661  57.074   1.922  1.00  0.00     0.086 C 
HETATM   14  C13 UNL     1       3.447  57.073   1.043  1.00  0.00     0.052 C 
ENDROOT
BRANCH   8  15
HETATM   15  O1  UNL     1       7.120  57.080   1.716  1.00  0.00    -0.286 OA
BRANCH  15  16
HETATM   16  C8  UNL     1       8.281  56.484   1.280  1.00  0.00     0.227 C 
HETATM   17  N2  UNL     1       8.555  55.291   1.654  1.00  0.00    -0.368 N 
ATOM     18  H22 UNL     1       7.889  54.826   2.270  1.00  0.00     0.159 HD
ATOM     19  H21 UNL     1       9.416  54.849   1.330  1.00  0.00     0.159 HD
HETATM   20  N3  UNL     1       9.203  57.127   0.426  1.00  0.00    -0.057 NA
ENDBRANCH  15  16
ENDBRANCH   8  15
TORSDOF 2
ENDMDL
MODEL 4
REMARK VINA RESULT: -6.282442744      2.378      4.600
REMARK  2 active torsions:
REMARK  status: ('A' for Active; 'I' for Inactive)
REMARK    1  A    between atoms: C7_8  and  O1_9 
REMARK    2  A    between atoms: O1_9  and  C8_10 
ROOT
HETATM    1  C1  UNL     1       3.704  58.592   2.451  1.00  0.00     0.221 C 
HETATM    2  N1  UNL     1       4.011  58.253   1.369  1.00  0.00    -0.466 NA
HETATM    3  C2  UNL     1       4.380  57.843   0.091  1.00  0.00     0.162 C 
HETATM    4  C3  UNL     1       5.466  58.717  -0.492  1.00  0.00     0.044 C 
HETATM    5  C4  UNL     1       6.751  58.297   0.155  1.00  0.00    -0.002 A 
HETATM    6  C5  UNL     1       8.030  58.214  -0.516  1.00  0.00     0.015 A 
HETATM    7  C6  UNL     1       7.203  57.011  -0.580  1.00  0.00     0.054 A 
HETATM    8  C7  UNL     1       7.164  55.935   0.443  1.00  0.00     0.184 C 
HETATM    9  O2  UNL     1       6.816  54.661   0.049  1.00  0.00    -0.343 OA
HETATM   10  C9  UNL     1       5.974  54.518   1.119  1.00  0.00     0.066 C 
HETATM   11  C10 UNL     1       4.696  53.805   0.655  1.00  0.00     0.046 C 
HETATM   12  C11 UNL     1       6.472  53.909   2.369  1.00  0.00     0.046 C 
HETATM   13  C12 UNL     1       5.813  56.040   1.123  1.00  0.00     0.086 C 
HETATM   14  C13 UNL     1       4.748  56.396   0.131  1.00  0.00     0.052 C 
ENDROOT
BRANCH   8  15
HETATM   15  O1  UNL     1       8.275  55.928   1.265  1.00  0.00    -0.286 OA
BRANCH  15  16
HETATM   16  C8  UNL     1       9.382  55.179   0.945  1.00  0.00     0.227 C 
HETATM   17  N2  UNL     1       9.867  55.244  -0.237  1.00  0.00    -0.368 N 
ATOM     18  H22 UNL     1       9.402  55.861  -0.903  1.00  0.00     0.159 HD
ATOM     19  H21 UNL     1      10.689  54.689  -0.475  1.00  0.00     0.159 HD
HETATM   20  N3  UNL     1      10.027  54.325   1.866  1.00  0.00    -0.057 NA
ENDBRANCH  15  16
ENDBRANCH   8  15
TORSDOF 2
ENDMDL
MODEL 5
REMARK VINA RESULT: -6.045689048      1.938      2.537
REMARK  2 active torsions:
REMARK  status: ('A' for Active; 'I' for Inactive)
REMARK    1  A    between atoms: C7_8  and  O1_9 
REMARK    2  A    between atoms: O1_9  and  C8_10 
ROOT
HETATM    1  C1  UNL     1       4.317  52.577   0.872  1.00  0.00     0.221 C 
HETATM    2  N1  UNL     1       5.012  53.200   1.584  1.00  0.00    -0.466 NA
HETATM    3  C2  UNL     1       5.835  53.946   2.424  1.00  0.00     0.162 C 
HETATM    4  C3  UNL     1       7.298  53.637   2.202  1.00  0.00     0.044 C 
HETATM    5  C4  UNL     1       7.706  54.353   0.950  1.00  0.00    -0.002 A 
HETATM    6  C5  UNL     1       8.980  55.006   0.745  1.00  0.00     0.015 A 
HETATM    7  C6  UNL     1       7.939  55.829   1.356  1.00  0.00     0.054 A 
HETATM    8  C7  UNL     1       6.913  56.610   0.618  1.00  0.00     0.184 C 
HETATM    9  O2  UNL     1       6.377  57.729   1.218  1.00  0.00    -0.343 OA
HETATM   10  C9  UNL     1       5.108  57.363   0.859  1.00  0.00     0.066 C 
HETATM   11  C10 UNL     1       4.156  57.654   2.028  1.00  0.00     0.046 C 
HETATM   12  C11 UNL     1       4.530  57.862  -0.406  1.00  0.00     0.046 C 
HETATM   13  C12 UNL     1       5.589  55.910   0.858  1.00  0.00     0.086 C 
HETATM   14  C13 UNL     1       5.509  55.395   2.263  1.00  0.00     0.052 C 
ENDROOT
BRANCH   8  15
HETATM   15  O1  UNL     1       7.258  56.853  -0.697  1.00  0.00    -0.286 OA
BRANCH  15  16
HETATM   16  C8  UNL     1       8.168  57.834  -1.016  1.00  0.00     0.227 C 
HETATM   17  N2  UNL     1       7.911  59.052  -0.719  1.00  0.00    -0.368 N 
ATOM     18  H22 UNL     1       7.025  59.245  -0.251  1.00  0.00     0.159 HD
ATOM     19  H21 UNL     1       8.585  59.779  -0.955  1.00  0.00     0.159 HD
HETATM   20  N3  UNL     1       9.393  57.566  -1.663  1.00  0.00    -0.057 NA
ENDBRANCH  15  16
ENDBRANCH   8  15
TORSDOF 2
ENDMDL
