MODEL 1
REMARK VINA RESULT: -7.835612210      0.000      0.000
REMARK  2 active torsions:
REMARK  status: ('A' for Active; 'I' for Inactive)
REMARK    1  A    between atoms: C5_9  and  N2_10 
REMARK    2  A    between atoms: N2_10  and  C6_12 
ROOT
HETATM    1  C1  UNL     1       3.858  59.164   1.609  1.00  0.00     0.057 C 
HETATM    2  C2  UNL     1       5.166  58.600   1.101  1.00  0.00    -0.012 A 
HETATM    3  S1  UNL     1       5.747  57.008   1.231  1.00  0.00    -0.076 SA
HETATM    4  C3  UNL     1       7.247  57.207   0.423  1.00  0.00     0.092 A 
HETATM    5  N1  UNL     1       8.172  56.220   0.228  1.00  0.00    -0.338 N 
ATOM      6  H1  UNL     1       7.822  55.266   0.304  1.00  0.00     0.167 HD
HETATM    7  C4  UNL     1       9.494  56.340  -0.053  1.00  0.00     0.145 C 
HETATM    8  S2  UNL     1      10.442  55.188   0.566  1.00  0.00    -0.056 SA
HETATM    9  C5  UNL     1      10.044  57.363  -0.801  1.00  0.00     0.143 C 
HETATM   10  N3  UNL     1       9.589  58.664  -0.784  1.00  0.00    -0.306 N 
ATOM     11  H3  UNL     1      10.300  59.387  -0.900  1.00  0.00     0.170 HD
HETATM   12  C9  UNL     1       8.328  59.104  -0.633  1.00  0.00     0.260 C 
HETATM   13  O1  UNL     1       8.118  60.195  -1.226  1.00  0.00    -0.267 OA
HETATM   14  C10 UNL     1       7.243  58.531   0.074  1.00  0.00     0.073 A 
HETATM   15  C11 UNL     1       6.164  59.250   0.427  1.00  0.00    -0.031 A 
HETATM   16  C12 UNL     1       6.007  60.731   0.122  1.00  0.00     0.050 C 
ENDROOT
BRANCH   9  17
HETATM   17  N2  UNL     1      10.997  57.087  -1.536  1.00  0.00    -0.370 N 
ATOM     18  H2  UNL     1      11.688  56.572  -0.992  1.00  0.00     0.161 HD
BRANCH  17  19
HETATM   19  C6  UNL     1      11.464  57.224  -2.828  1.00  0.00     0.075 C 
HETATM   20  C7  UNL     1      12.352  56.028  -3.265  1.00  0.00     0.031 C 
HETATM   21  C8  UNL     1      12.313  58.498  -2.965  1.00  0.00     0.031 C 
ENDBRANCH  17  19
ENDBRANCH   9  17
TORSDOF 2
ENDMDL
MODEL 2
REMARK VINA RESULT: -7.637153947      2.472      3.399
REMARK  2 active torsions:
REMARK  status: ('A' for Active; 'I' for Inactive)
REMARK    1  A    between atoms: C5_9  and  N2_10 
REMARK    2  A    between atoms: N2_10  and  C6_12 
ROOT
HETATM    1  C1  UNL     1       5.766  61.021   0.110  1.00  0.00     0.057 C 
HETATM    2  C2  UNL     1       6.271  59.602   0.241  1.00  0.00    -0.012 A 
HETATM    3  S1  UNL     1       5.513  58.281   0.996  1.00  0.00    -0.076 SA
HETATM    4  C3  UNL     1       6.712  57.087   0.706  1.00  0.00     0.092 A 
HETATM    5  N1  UNL     1       6.638  55.785   1.112  1.00  0.00    -0.338 N 
ATOM      6  H1  UNL     1       5.703  55.444   1.334  1.00  0.00     0.167 HD
HETATM    7  C4  UNL     1       7.642  54.885   1.260  1.00  0.00     0.145 C 
HETATM    8  S2  UNL     1       7.444  53.814   2.454  1.00  0.00    -0.056 SA
HETATM    9  C5  UNL     1       8.781  54.850   0.480  1.00  0.00     0.143 C 
HETATM   10  N3  UNL     1       9.410  55.970  -0.020  1.00  0.00    -0.306 N 
ATOM     11  H3  UNL     1      10.427  55.914  -0.094  1.00  0.00     0.170 HD
HETATM   12  C9  UNL     1       8.857  57.126  -0.423  1.00  0.00     0.260 C 
HETATM   13  O1  UNL     1       9.518  57.692  -1.333  1.00  0.00    -0.267 OA
HETATM   14  C10 UNL     1       7.677  57.773   0.018  1.00  0.00     0.073 A 
HETATM   15  C11 UNL     1       7.446  59.074  -0.221  1.00  0.00    -0.031 A 
HETATM   16  C12 UNL     1       8.419  59.976  -0.964  1.00  0.00     0.050 C 
ENDROOT
BRANCH   9  17
HETATM   17  N2  UNL     1       9.255  53.743   0.208  1.00  0.00    -0.370 N 
ATOM     18  H2  UNL     1       8.508  53.147  -0.147  1.00  0.00     0.161 HD
BRANCH  17  19
HETATM   19  C6  UNL     1      10.431  53.019   0.211  1.00  0.00     0.075 C 
HETATM   20  C7  UNL     1      10.195  51.507   0.469  1.00  0.00     0.031 C 
HETATM   21  C8  UNL     1      11.377  53.528   1.311  1.00  0.00     0.031 C 
ENDBRANCH  17  19
ENDBRANCH   9  17
TORSDOF 2
ENDMDL
MODEL 3
REMARK VINA RESULT: -7.240340679      3.514      5.590
REMARK  2 active torsions:
REMARK  status: ('A' for Active; 'I' for Inactive)
REMARK    1  A    between atoms: C5_9  and  N2_10 
REMARK    2  A    between atoms: N2_10  and  C6_12 
ROOT
HETATM    1  C1  UNL     1       8.456  60.170  -0.860  1.00  0.00     0.057 C 
HETATM    2  C2  UNL     1       8.242  58.782  -0.300  1.00  0.00    -0.012 A 
HETATM    3  S1  UNL     1       9.406  57.583   0.013  1.00  0.00    -0.076 SA
HETATM    4  C3  UNL     1       8.367  56.358   0.617  1.00  0.00     0.092 A 
HETATM    5  N1  UNL     1       8.770  55.120   1.033  1.00  0.00    -0.338 N 
ATOM      6  H1  UNL     1       9.758  55.035   1.271  1.00  0.00     0.167 HD
HETATM    7  C4  UNL     1       8.033  53.990   1.172  1.00  0.00     0.145 C 
HETATM    8  S2  UNL     1       8.814  52.610   0.861  1.00  0.00    -0.056 SA
HETATM    9  C5  UNL     1       6.701  53.966   1.537  1.00  0.00     0.143 C 
HETATM   10  N3  UNL     1       5.779  54.921   1.163  1.00  0.00    -0.306 N 
ATOM     11  H3  UNL     1       4.828  54.584   1.008  1.00  0.00     0.170 HD
HETATM   12  C9  UNL     1       5.972  56.237   0.976  1.00  0.00     0.260 C 
HETATM   13  O1  UNL     1       4.945  56.921   1.228  1.00  0.00    -0.267 OA
HETATM   14  C10 UNL     1       7.128  56.937   0.552  1.00  0.00     0.073 A 
HETATM   15  C11 UNL     1       7.066  58.192   0.077  1.00  0.00    -0.031 A 
HETATM   16  C12 UNL     1       5.769  58.971  -0.066  1.00  0.00     0.050 C 
ENDROOT
BRANCH   9  17
HETATM   17  N2  UNL     1       6.320  53.035   2.253  1.00  0.00    -0.370 N 
ATOM     18  H2  UNL     1       6.919  52.993   3.077  1.00  0.00     0.161 HD
BRANCH  17  19
HETATM   19  C6  UNL     1       5.377  52.030   2.341  1.00  0.00     0.075 C 
HETATM   20  C7  UNL     1       5.810  50.896   3.307  1.00  0.00     0.031 C 
HETATM   21  C8  UNL     1       5.137  51.391   0.963  1.00  0.00     0.031 C 
ENDBRANCH  17  19
ENDBRANCH   9  17
TORSDOF 2
ENDMDL
MODEL 4
REMARK VINA RESULT: -7.044411167      2.747      3.191
REMARK  2 active torsions:
REMARK  status: ('A' for Active; 'I' for Inactive)
REMARK    1  A    between atoms: C5_9  and  N2_10 
REMARK    2  A    between atoms: N2_10  and  C6_12 
ROOT
HETATM    1  C1  UNL     1       3.684  59.530   1.410  1.00  0.00     0.057 C 
HETATM    2  C2  UNL     1       4.615  58.348   1.265  1.00  0.00    -0.012 A 
HETATM    3  S1  UNL     1       4.327  56.724   1.675  1.00  0.00    -0.076 SA
HETATM    4  C3  UNL     1       5.840  56.061   1.208  1.00  0.00     0.092 A 
HETATM    5  N1  UNL     1       6.190  54.745   1.321  1.00  0.00    -0.338 N 
ATOM      6  H1  UNL     1       5.414  54.088   1.410  1.00  0.00     0.167 HD
HETATM    7  C4  UNL     1       7.430  54.195   1.332  1.00  0.00     0.145 C 
HETATM    8  S2  UNL     1       7.597  52.880   2.257  1.00  0.00    -0.056 SA
HETATM    9  C5  UNL     1       8.511  54.692   0.631  1.00  0.00     0.143 C 
HETATM   10  N3  UNL     1       8.745  56.034   0.420  1.00  0.00    -0.306 N 
ATOM     11  H3  UNL     1       9.725  56.317   0.395  1.00  0.00     0.170 HD
HETATM   12  C9  UNL     1       7.847  57.018   0.241  1.00  0.00     0.260 C 
HETATM   13  O1  UNL     1       8.282  57.949  -0.487  1.00  0.00    -0.267 OA
HETATM   14  C10 UNL     1       6.528  57.148   0.740  1.00  0.00     0.073 A 
HETATM   15  C11 UNL     1       5.892  58.331   0.771  1.00  0.00    -0.031 A 
HETATM   16  C12 UNL     1       6.518  59.632   0.296  1.00  0.00     0.050 C 
ENDROOT
BRANCH   9  17
HETATM   17  N2  UNL     1       9.309  53.878   0.158  1.00  0.00    -0.370 N 
ATOM     18  H2  UNL     1       8.783  53.135  -0.302  1.00  0.00     0.161 HD
BRANCH  17  19
HETATM   19  C6  UNL     1      10.657  53.609   0.025  1.00  0.00     0.075 C 
HETATM   20  C7  UNL     1      10.924  52.205  -0.579  1.00  0.00     0.031 C 
HETATM   21  C8  UNL     1      11.356  53.658   1.394  1.00  0.00     0.031 C 
ENDBRANCH  17  19
ENDBRANCH   9  17
TORSDOF 2
ENDMDL
MODEL 5
REMARK VINA RESULT: -7.037734093      2.609      3.316
REMARK  2 active torsions:
REMARK  status: ('A' for Active; 'I' for Inactive)
REMARK    1  A    between atoms: C5_9  and  N2_10 
REMARK    2  A    between atoms: N2_10  and  C6_12 
ROOT
HETATM    1  C1  UNL     1       5.824  59.351  -0.115  1.00  0.00     0.057 C 
HETATM    2  C2  UNL     1       6.759  58.167  -0.022  1.00  0.00    -0.012 A 
HETATM    3  S1  UNL     1       6.373  56.542   0.291  1.00  0.00    -0.076 SA
HETATM    4  C3  UNL     1       7.954  55.876   0.224  1.00  0.00     0.092 A 
HETATM    5  N1  UNL     1       8.261  54.558   0.417  1.00  0.00    -0.338 N 
ATOM      6  H1  UNL     1       7.488  53.904   0.300  1.00  0.00     0.167 HD
HETATM    7  C4  UNL     1       9.456  54.005   0.743  1.00  0.00     0.145 C 
HETATM    8  S2  UNL     1       9.378  52.685   1.673  1.00  0.00    -0.056 SA
HETATM    9  C5  UNL     1      10.682  54.502   0.346  1.00  0.00     0.143 C 
HETATM   10  N3  UNL     1      10.964  55.845   0.209  1.00  0.00    -0.306 N 
ATOM     11  H3  UNL     1      11.918  56.125   0.438  1.00  0.00     0.170 HD
HETATM   12  C9  UNL     1      10.143  56.832  -0.189  1.00  0.00     0.260 C 
HETATM   13  O1  UNL     1      10.752  57.765  -0.776  1.00  0.00    -0.267 OA
HETATM   14  C10 UNL     1       8.741  56.964  -0.045  1.00  0.00     0.073 A 
HETATM   15  C11 UNL     1       8.120  58.148  -0.172  1.00  0.00    -0.031 A 
HETATM   16  C12 UNL     1       8.849  59.450  -0.463  1.00  0.00     0.050 C 
ENDROOT
BRANCH   9  17
HETATM   17  N2  UNL     1      11.574  53.688   0.089  1.00  0.00    -0.370 N 
ATOM     18  H2  UNL     1      12.410  53.948   0.610  1.00  0.00     0.161 HD
BRANCH  17  19
HETATM   19  C6  UNL     1      11.848  52.554  -0.649  1.00  0.00     0.075 C 
HETATM   20  C7  UNL     1      12.947  51.675   0.005  1.00  0.00     0.031 C 
HETATM   21  C8  UNL     1      12.339  52.929  -2.057  1.00  0.00     0.031 C 
ENDBRANCH  17  19
ENDBRANCH   9  17
TORSDOF 2
ENDMDL
