MODEL 1
REMARK VINA RESULT: -7.131209064      0.000      0.000
REMARK  2 active torsions:
REMARK  status: ('A' for Active; 'I' for Inactive)
REMARK    1  A    between atoms: C3_3  and  C4_4 
REMARK    2  A    between atoms: C15_18  and  N1_19 
ROOT
HETATM    1  C1  UNL     1       7.528  52.015   2.646  1.00  0.00     0.011 C 
HETATM    2  C2  UNL     1       6.116  52.452   2.973  1.00  0.00     0.000 C 
HETATM    3  C3  UNL     1       5.480  53.286   1.918  1.00  0.00     0.028 C 
HETATM    4  C11 UNL     1       5.646  52.560   0.613  1.00  0.00     0.011 C 
HETATM    5  C12 UNL     1       4.820  51.323   0.681  1.00  0.00     0.042 C 
HETATM    6  C13 UNL     1       4.722  50.613   1.952  1.00  0.00     0.101 C 
HETATM    7  C14 UNL     1       3.243  50.273   2.206  1.00  0.00     0.050 C 
HETATM    8  O2  UNL     1       5.360  49.364   1.895  1.00  0.00    -0.227 OA
HETATM    9  O3  UNL     1       6.280  49.318   2.795  1.00  0.00    -0.206 OA
HETATM   10  C15 UNL     1       5.915  50.107   3.876  1.00  0.00     0.363 C 
HETATM   11  C16 UNL     1       5.229  51.257   3.185  1.00  0.00     0.086 C 
ENDROOT
BRANCH   3  12
HETATM   12  C4  UNL     1       5.865  54.710   1.843  1.00  0.00     0.080 C 
HETATM   13  C5  UNL     1       4.558  55.520   1.883  1.00  0.00     0.051 C 
HETATM   14  C6  UNL     1       6.669  55.168   2.980  1.00  0.00     0.010 C 
HETATM   15  C7  UNL     1       7.570  56.007   2.504  1.00  0.00     0.009 C 
HETATM   16  C8  UNL     1       7.390  56.129   1.042  1.00  0.00     0.073 C 
HETATM   17  C9  UNL     1       8.695  55.915   0.295  1.00  0.00     0.050 C 
HETATM   18  C10 UNL     1       6.820  57.460   0.632  1.00  0.00     0.050 C 
HETATM   19  O1  UNL     1       6.498  55.102   0.684  1.00  0.00    -0.362 OA
ENDBRANCH   3  12
BRANCH  10  20
HETATM   20  N1  UNL     1       4.994  49.325   4.678  1.00  0.00    -0.049 N 
ATOM     21  H13 UNL     1       4.634  48.505   4.190  1.00  0.00     0.277 HD
ATOM     22  H12 UNL     1       5.450  48.830   5.445  1.00  0.00     0.277 HD
ATOM     23  H11 UNL     1       4.259  49.959   4.990  1.00  0.00     0.277 HD
ENDBRANCH  10  20
TORSDOF 2
ENDMDL
MODEL 2
REMARK VINA RESULT: -7.117180163      1.436      2.067
REMARK  2 active torsions:
REMARK  status: ('A' for Active; 'I' for Inactive)
REMARK    1  A    between atoms: C3_3  and  C4_4 
REMARK    2  A    between atoms: C15_18  and  N1_19 
ROOT
HETATM    1  C1  UNL     1       7.141  50.429   1.741  1.00  0.00     0.011 C 
HETATM    2  C2  UNL     1       6.071  51.046   2.616  1.00  0.00     0.000 C 
HETATM    3  C3  UNL     1       5.339  52.172   1.975  1.00  0.00     0.028 C 
HETATM    4  C11 UNL     1       4.876  51.695   0.628  1.00  0.00     0.011 C 
HETATM    5  C12 UNL     1       3.849  50.642   0.854  1.00  0.00     0.042 C 
HETATM    6  C13 UNL     1       4.015  49.729   1.980  1.00  0.00     0.101 C 
HETATM    7  C14 UNL     1       2.671  49.624   2.724  1.00  0.00     0.050 C 
HETATM    8  O2  UNL     1       4.275  48.419   1.548  1.00  0.00    -0.227 OA
HETATM    9  O3  UNL     1       5.404  48.031   2.031  1.00  0.00    -0.206 OA
HETATM   10  C15 UNL     1       5.625  48.648   3.253  1.00  0.00     0.363 C 
HETATM   11  C16 UNL     1       5.046  50.017   3.003  1.00  0.00     0.086 C 
ENDROOT
BRANCH   3  12
HETATM   12  C4  UNL     1       6.008  53.488   1.927  1.00  0.00     0.080 C 
HETATM   13  C5  UNL     1       7.289  53.360   2.770  1.00  0.00     0.051 C 
HETATM   14  C6  UNL     1       6.436  53.887   0.584  1.00  0.00     0.010 C 
HETATM   15  C7  UNL     1       6.230  55.187   0.482  1.00  0.00     0.009 C 
HETATM   16  C8  UNL     1       5.660  55.685   1.751  1.00  0.00     0.073 C 
HETATM   17  C9  UNL     1       4.404  56.507   1.519  1.00  0.00     0.050 C 
HETATM   18  C10 UNL     1       6.633  56.516   2.543  1.00  0.00     0.050 C 
HETATM   19  O1  UNL     1       5.311  54.536   2.485  1.00  0.00    -0.362 OA
ENDBRANCH   3  12
BRANCH  10  20
HETATM   20  N1  UNL     1       4.868  47.909   4.244  1.00  0.00    -0.049 N 
ATOM     21  H13 UNL     1       5.248  46.981   4.429  1.00  0.00     0.277 HD
ATOM     22  H12 UNL     1       4.971  48.283   5.188  1.00  0.00     0.277 HD
ATOM     23  H11 UNL     1       3.900  47.889   3.924  1.00  0.00     0.277 HD
ENDBRANCH  10  20
TORSDOF 2
ENDMDL
MODEL 3
REMARK VINA RESULT: -7.030486056      2.533      5.856
REMARK  2 active torsions:
REMARK  status: ('A' for Active; 'I' for Inactive)
REMARK    1  A    between atoms: C3_3  and  C4_4 
REMARK    2  A    between atoms: C15_18  and  N1_19 
ROOT
HETATM    1  C1  UNL     1       8.083  53.053   2.575  1.00  0.00     0.011 C 
HETATM    2  C2  UNL     1       7.381  53.119   1.235  1.00  0.00     0.000 C 
HETATM    3  C3  UNL     1       5.910  52.905   1.311  1.00  0.00     0.028 C 
HETATM    4  C11 UNL     1       5.377  53.832   2.365  1.00  0.00     0.011 C 
HETATM    5  C12 UNL     1       5.541  55.223   1.864  1.00  0.00     0.042 C 
HETATM    6  C13 UNL     1       6.727  55.551   1.077  1.00  0.00     0.101 C 
HETATM    7  C14 UNL     1       6.283  56.349  -0.162  1.00  0.00     0.050 C 
HETATM    8  O2  UNL     1       7.578  56.427   1.768  1.00  0.00    -0.227 OA
HETATM    9  O3  UNL     1       8.734  55.876   1.900  1.00  0.00    -0.206 OA
HETATM   10  C15 UNL     1       8.973  55.030   0.828  1.00  0.00     0.363 C 
HETATM   11  C16 UNL     1       7.599  54.459   0.590  1.00  0.00     0.086 C 
ENDROOT
BRANCH   3  12
HETATM   12  C4  UNL     1       5.425  51.517   1.456  1.00  0.00     0.080 C 
HETATM   13  C5  UNL     1       4.367  51.306   0.359  1.00  0.00     0.051 C 
HETATM   14  C6  UNL     1       6.457  50.501   1.236  1.00  0.00     0.010 C 
HETATM   15  C7  UNL     1       6.238  49.532   2.105  1.00  0.00     0.009 C 
HETATM   16  C8  UNL     1       5.058  49.878   2.925  1.00  0.00     0.073 C 
HETATM   17  C9  UNL     1       5.348  49.750   4.410  1.00  0.00     0.050 C 
HETATM   18  C10 UNL     1       3.854  49.035   2.601  1.00  0.00     0.050 C 
HETATM   19  O1  UNL     1       4.782  51.227   2.639  1.00  0.00    -0.362 OA
ENDBRANCH   3  12
BRANCH  10  20
HETATM   20  N1  UNL     1       9.417  55.859  -0.275  1.00  0.00    -0.049 N 
ATOM     21  H13 UNL     1       8.648  56.222  -0.840  1.00  0.00     0.277 HD
ATOM     22  H12 UNL     1       9.793  56.759   0.026  1.00  0.00     0.277 HD
ATOM     23  H11 UNL     1      10.083  55.307  -0.815  1.00  0.00     0.277 HD
ENDBRANCH  10  20
TORSDOF 2
ENDMDL
MODEL 4
REMARK VINA RESULT: -6.845708234      2.908      4.509
REMARK  2 active torsions:
REMARK  status: ('A' for Active; 'I' for Inactive)
REMARK    1  A    between atoms: C3_3  and  C4_4 
REMARK    2  A    between atoms: C15_18  and  N1_19 
ROOT
HETATM    1  C1  UNL     1       7.217  54.738   2.529  1.00  0.00     0.011 C 
HETATM    2  C2  UNL     1       7.510  54.534   1.058  1.00  0.00     0.000 C 
HETATM    3  C3  UNL     1       8.319  55.622   0.445  1.00  0.00     0.028 C 
HETATM    4  C11 UNL     1       9.521  55.833   1.320  1.00  0.00     0.011 C 
HETATM    5  C12 UNL     1      10.369  54.614   1.218  1.00  0.00     0.042 C 
HETATM    6  C13 UNL     1       9.718  53.313   1.103  1.00  0.00     0.101 C 
HETATM    7  C14 UNL     1      10.404  52.524  -0.026  1.00  0.00     0.050 C 
HETATM    8  O2  UNL     1       9.926  52.530   2.249  1.00  0.00    -0.227 OA
HETATM    9  O3  UNL     1       8.786  52.221   2.761  1.00  0.00    -0.206 OA
HETATM   10  C15 UNL     1       7.831  52.134   1.758  1.00  0.00     0.363 C 
HETATM   11  C16 UNL     1       8.262  53.250   0.842  1.00  0.00     0.086 C 
ENDROOT
BRANCH   3  12
HETATM   12  C4  UNL     1       7.626  56.879   0.096  1.00  0.00     0.080 C 
HETATM   13  C5  UNL     1       8.608  57.697  -0.760  1.00  0.00     0.051 C 
HETATM   14  C6  UNL     1       6.426  56.688  -0.723  1.00  0.00     0.010 C 
HETATM   15  C7  UNL     1       5.530  57.564  -0.308  1.00  0.00     0.009 C 
HETATM   16  C8  UNL     1       6.110  58.360   0.794  1.00  0.00     0.073 C 
HETATM   17  C9  UNL     1       5.193  58.392   2.005  1.00  0.00     0.050 C 
HETATM   18  C10 UNL     1       6.420  59.777   0.394  1.00  0.00     0.050 C 
HETATM   19  O1  UNL     1       7.298  57.698   1.153  1.00  0.00    -0.362 OA
ENDBRANCH   3  12
BRANCH  10  20
HETATM   20  N1  UNL     1       7.985  50.832   1.140  1.00  0.00    -0.049 N 
ATOM     21  H13 UNL     1       8.620  50.839   0.342  1.00  0.00     0.277 HD
ATOM     22  H12 UNL     1       8.509  50.173   1.717  1.00  0.00     0.277 HD
ATOM     23  H11 UNL     1       7.050  50.502   0.903  1.00  0.00     0.277 HD
ENDBRANCH  10  20
TORSDOF 2
ENDMDL
MODEL 5
REMARK VINA RESULT: -6.786925552      3.667      4.646
REMARK  2 active torsions:
REMARK  status: ('A' for Active; 'I' for Inactive)
REMARK    1  A    between atoms: C3_3  and  C4_4 
REMARK    2  A    between atoms: C15_18  and  N1_19 
ROOT
HETATM    1  C1  UNL     1       8.750  55.926  -0.116  1.00  0.00     0.011 C 
HETATM    2  C2  UNL     1       8.548  55.371   1.278  1.00  0.00     0.000 C 
HETATM    3  C3  UNL     1       7.201  54.782   1.507  1.00  0.00     0.028 C 
HETATM    4  C11 UNL     1       6.938  53.819   0.385  1.00  0.00     0.011 C 
HETATM    5  C12 UNL     1       7.889  52.684   0.535  1.00  0.00     0.042 C 
HETATM    6  C13 UNL     1       9.240  52.959   1.014  1.00  0.00     0.101 C 
HETATM    7  C14 UNL     1       9.587  51.932   2.107  1.00  0.00     0.050 C 
HETATM    8  O2  UNL     1      10.198  52.736   0.012  1.00  0.00    -0.227 OA
HETATM    9  O3  UNL     1      10.854  53.824  -0.194  1.00  0.00    -0.206 OA
HETATM   10  C15 UNL     1      10.917  54.562   0.979  1.00  0.00     0.363 C 
HETATM   11  C16 UNL     1       9.556  54.294   1.569  1.00  0.00     0.086 C 
ENDROOT
BRANCH   3  12
HETATM   12  C4  UNL     1       6.078  55.709   1.753  1.00  0.00     0.080 C 
HETATM   13  C5  UNL     1       4.928  54.863   2.325  1.00  0.00     0.051 C 
HETATM   14  C6  UNL     1       6.369  56.741   2.752  1.00  0.00     0.010 C 
HETATM   15  C7  UNL     1       5.793  57.854   2.338  1.00  0.00     0.009 C 
HETATM   16  C8  UNL     1       5.107  57.593   1.056  1.00  0.00     0.073 C 
HETATM   17  C9  UNL     1       5.491  58.611  -0.004  1.00  0.00     0.050 C 
HETATM   18  C10 UNL     1       3.607  57.584   1.186  1.00  0.00     0.050 C 
HETATM   19  O1  UNL     1       5.554  56.326   0.639  1.00  0.00    -0.362 OA
ENDBRANCH   3  12
BRANCH  10  20
HETATM   20  N1  UNL     1      11.981  53.991   1.781  1.00  0.00    -0.049 N 
ATOM     21  H13 UNL     1      12.219  53.037   1.510  1.00  0.00     0.277 HD
ATOM     22  H12 UNL     1      12.892  54.411   1.596  1.00  0.00     0.277 HD
ATOM     23  H11 UNL     1      11.693  54.070   2.756  1.00  0.00     0.277 HD
ENDBRANCH  10  20
TORSDOF 2
ENDMDL
