MODEL 1
REMARK VINA RESULT: -4.362963356      0.000      0.000
REMARK  1 active torsions:
REMARK  status: ('A' for Active; 'I' for Inactive)
REMARK    1  A    between atoms: N1_2  and  C2_4 
ROOT
HETATM    1  C2  UNL     1      10.137  21.966  21.310  1.00  0.00     0.076 A 
HETATM    2  C3  UNL     1       9.229  22.261  22.473  1.00  0.00     0.029 A 
HETATM    3  C4  UNL     1      10.088  22.493  23.681  1.00  0.00    -0.007 A 
HETATM    4  C5  UNL     1      10.323  23.954  24.036  1.00  0.00     0.014 A 
HETATM    5  C6  UNL     1      11.736  23.783  23.551  1.00  0.00    -0.043 A 
HETATM    6  C7  UNL     1      11.988  24.656  22.349  1.00  0.00     0.015 C 
HETATM    7  C8  UNL     1      12.742  24.102  24.632  1.00  0.00     0.015 C 
HETATM    8  C9  UNL     1      11.521  22.325  23.270  1.00  0.00    -0.001 A 
HETATM    9  C10 UNL     1      11.541  21.911  21.826  1.00  0.00     0.030 A 
ENDROOT
BRANCH   1  10
HETATM   10  N1  UNL     1       9.677  20.754  20.695  1.00  0.00    -0.421 N 
HETATM   11  C1  UNL     1       8.272  20.705  20.431  1.00  0.00     0.140 C 
ATOM     12  H1  UNL     1      10.306  19.985  20.463  1.00  0.00     0.153 HD
ENDBRANCH   1  10
TORSDOF 1
ENDMDL
MODEL 2
REMARK VINA RESULT: -4.258893127      1.099      1.918
REMARK  1 active torsions:
REMARK  status: ('A' for Active; 'I' for Inactive)
REMARK    1  A    between atoms: N1_2  and  C2_4 
ROOT
HETATM    1  C2  UNL     1       9.358  22.222  20.890  1.00  0.00     0.076 A 
HETATM    2  C3  UNL     1      10.380  21.167  21.217  1.00  0.00     0.029 A 
HETATM    3  C4  UNL     1      11.598  21.858  21.755  1.00  0.00    -0.007 A 
HETATM    4  C5  UNL     1      11.727  21.854  23.271  1.00  0.00     0.014 A 
HETATM    5  C6  UNL     1      11.391  23.320  23.244  1.00  0.00    -0.043 A 
HETATM    6  C7  UNL     1      10.087  23.573  23.953  1.00  0.00     0.015 C 
HETATM    7  C8  UNL     1      12.482  24.157  23.869  1.00  0.00     0.015 C 
HETATM    8  C9  UNL     1      11.337  23.335  21.744  1.00  0.00    -0.001 A 
HETATM    9  C10 UNL     1       9.986  23.559  21.126  1.00  0.00     0.030 A 
ENDROOT
BRANCH   1  10
HETATM   10  N1  UNL     1       8.915  21.997  19.544  1.00  0.00    -0.421 N 
HETATM   11  C1  UNL     1       7.909  20.991  19.398  1.00  0.00     0.140 C 
ATOM     12  H1  UNL     1       9.289  22.516  18.751  1.00  0.00     0.153 HD
ENDBRANCH   1  10
TORSDOF 1
ENDMDL
MODEL 3
REMARK VINA RESULT: -4.185276195      2.039      3.582
REMARK  1 active torsions:
REMARK  status: ('A' for Active; 'I' for Inactive)
REMARK    1  A    between atoms: N1_2  and  C2_4 
ROOT
HETATM    1  C2  UNL     1      12.645  22.215  22.188  1.00  0.00     0.076 A 
HETATM    2  C3  UNL     1      12.830  23.700  22.347  1.00  0.00     0.029 A 
HETATM    3  C4  UNL     1      11.530  24.365  22.002  1.00  0.00    -0.007 A 
HETATM    4  C5  UNL     1      10.674  24.768  23.193  1.00  0.00     0.014 A 
HETATM    5  C6  UNL     1       9.743  23.645  22.830  1.00  0.00    -0.043 A 
HETATM    6  C7  UNL     1       9.717  22.610  23.923  1.00  0.00     0.015 C 
HETATM    7  C8  UNL     1       8.341  24.142  22.565  1.00  0.00     0.015 C 
HETATM    8  C9  UNL     1      10.551  23.296  21.614  1.00  0.00    -0.001 A 
HETATM    9  C10 UNL     1      11.271  21.978  21.644  1.00  0.00     0.030 A 
ENDROOT
BRANCH   1  10
HETATM   10  N1  UNL     1      13.709  21.730  21.357  1.00  0.00    -0.421 N 
HETATM   11  C1  UNL     1      14.787  22.649  21.156  1.00  0.00     0.140 C 
ATOM     12  H1  UNL     1      13.698  20.799  20.940  1.00  0.00     0.153 HD
ENDBRANCH   1  10
TORSDOF 1
ENDMDL
MODEL 4
REMARK VINA RESULT: -4.155610853      2.013      3.074
REMARK  1 active torsions:
REMARK  status: ('A' for Active; 'I' for Inactive)
REMARK    1  A    between atoms: N1_2  and  C2_4 
ROOT
HETATM    1  C2  UNL     1      12.702  22.693  21.693  1.00  0.00     0.076 A 
HETATM    2  C3  UNL     1      11.638  21.746  22.180  1.00  0.00     0.029 A 
HETATM    3  C4  UNL     1      11.167  22.233  23.518  1.00  0.00    -0.007 A 
HETATM    4  C5  UNL     1       9.866  23.020  23.499  1.00  0.00     0.014 A 
HETATM    5  C6  UNL     1      10.678  24.255  23.776  1.00  0.00    -0.043 A 
HETATM    6  C7  UNL     1      10.581  25.217  22.621  1.00  0.00     0.015 C 
HETATM    7  C8  UNL     1      10.240  24.941  25.049  1.00  0.00     0.015 C 
HETATM    8  C9  UNL     1      11.950  23.464  23.866  1.00  0.00    -0.001 A 
HETATM    9  C10 UNL     1      12.959  23.692  22.777  1.00  0.00     0.030 A 
ENDROOT
BRANCH   1  10
HETATM   10  N1  UNL     1      13.844  21.908  21.319  1.00  0.00    -0.421 N 
HETATM   11  C1  UNL     1      15.038  22.657  21.073  1.00  0.00     0.140 C 
ATOM     12  H1  UNL     1      13.807  20.893  21.236  1.00  0.00     0.153 HD
ENDBRANCH   1  10
TORSDOF 1
ENDMDL
MODEL 5
REMARK VINA RESULT: -4.126252169      1.311      2.417
REMARK  1 active torsions:
REMARK  status: ('A' for Active; 'I' for Inactive)
REMARK    1  A    between atoms: N1_2  and  C2_4 
ROOT
HETATM    1  C2  UNL     1       8.270  21.499  21.270  1.00  0.00     0.076 A 
HETATM    2  C3  UNL     1       9.529  20.688  21.113  1.00  0.00     0.029 A 
HETATM    3  C4  UNL     1      10.693  21.634  21.149  1.00  0.00    -0.007 A 
HETATM    4  C5  UNL     1      11.415  21.719  22.485  1.00  0.00     0.014 A 
HETATM    5  C6  UNL     1      10.807  23.083  22.661  1.00  0.00    -0.043 A 
HETATM    6  C7  UNL     1       9.874  23.094  23.843  1.00  0.00     0.015 C 
HETATM    7  C8  UNL     1      11.862  24.150  22.835  1.00  0.00     0.015 C 
HETATM    8  C9  UNL     1      10.155  23.026  21.310  1.00  0.00    -0.001 A 
HETATM    9  C10 UNL     1       8.655  22.944  21.293  1.00  0.00     0.030 A 
ENDROOT
BRANCH   1  10
HETATM   10  N1  UNL     1       7.382  21.133  20.204  1.00  0.00    -0.421 N 
HETATM   11  C1  UNL     1       7.810  21.525  18.897  1.00  0.00     0.140 C 
ATOM     12  H1  UNL     1       6.509  20.631  20.367  1.00  0.00     0.153 HD
ENDBRANCH   1  10
TORSDOF 1
ENDMDL
