MODEL 1
REMARK VINA RESULT: -4.373378755      0.000      0.000
REMARK  1 active torsions:
REMARK  status: ('A' for Active; 'I' for Inactive)
REMARK    1  A    between atoms: N1_2  and  C2_5 
ROOT
HETATM    1  C2  UNL     1       9.811  21.568  20.802  1.00  0.00     0.190 C 
HETATM    2  C3  UNL     1      11.082  21.524  21.575  1.00  0.00     0.042 C 
HETATM    3  C4  UNL     1      11.184  22.884  22.257  1.00  0.00    -0.042 C 
HETATM    4  C5  UNL     1      12.533  23.491  22.027  1.00  0.00     0.015 C 
HETATM    5  C6  UNL     1      10.814  22.722  23.689  1.00  0.00     0.009 C 
HETATM    6  C7  UNL     1       9.332  22.840  23.955  1.00  0.00     0.001 C 
HETATM    7  C8  UNL     1       8.500  22.259  22.840  1.00  0.00     0.007 C 
HETATM    8  C9  UNL     1       8.992  22.640  21.485  1.00  0.00     0.017 C 
HETATM    9  C10 UNL     1      10.073  23.724  21.613  1.00  0.00     0.015 C 
ENDROOT
BRANCH   1  10
HETATM   10  N1  UNL     1       9.138  20.344  20.592  1.00  0.00    -0.074 N 
HETATM   11  C1  UNL     1       8.069  20.532  19.644  1.00  0.00     0.267 C 
ATOM     12  H12 UNL     1       8.809  19.933  21.466  1.00  0.00     0.277 HD
ATOM     13  H11 UNL     1       9.776  19.600  20.309  1.00  0.00     0.277 HD
ENDBRANCH   1  10
TORSDOF 1
ENDMDL
MODEL 2
REMARK VINA RESULT: -4.136299856      1.198      2.666
REMARK  1 active torsions:
REMARK  status: ('A' for Active; 'I' for Inactive)
REMARK    1  A    between atoms: N1_2  and  C2_5 
ROOT
HETATM    1  C2  UNL     1      10.066  21.818  21.835  1.00  0.00     0.190 C 
HETATM    2  C3  UNL     1       9.848  23.285  21.707  1.00  0.00     0.042 C 
HETATM    3  C4  UNL     1      10.673  23.911  22.826  1.00  0.00    -0.042 C 
HETATM    4  C5  UNL     1       9.848  24.886  23.608  1.00  0.00     0.015 C 
HETATM    5  C6  UNL     1      11.912  24.483  22.235  1.00  0.00     0.009 C 
HETATM    6  C7  UNL     1      13.049  23.494  22.122  1.00  0.00     0.001 C 
HETATM    7  C8  UNL     1      12.569  22.103  21.792  1.00  0.00     0.007 C 
HETATM    8  C9  UNL     1      11.373  21.696  22.584  1.00  0.00     0.017 C 
HETATM    9  C10 UNL     1      11.112  22.725  23.695  1.00  0.00     0.015 C 
ENDROOT
BRANCH   1  10
HETATM   10  N1  UNL     1       9.978  21.045  20.656  1.00  0.00    -0.074 N 
HETATM   11  C1  UNL     1       8.854  20.147  20.745  1.00  0.00     0.267 C 
ATOM     12  H12 UNL     1      10.848  20.553  20.454  1.00  0.00     0.277 HD
ATOM     13  H11 UNL     1       9.939  21.627  19.818  1.00  0.00     0.277 HD
ENDBRANCH   1  10
TORSDOF 1
ENDMDL
MODEL 3
REMARK VINA RESULT: -3.983109618      1.820      3.186
REMARK  1 active torsions:
REMARK  status: ('A' for Active; 'I' for Inactive)
REMARK    1  A    between atoms: N1_2  and  C2_5 
ROOT
HETATM    1  C2  UNL     1      12.322  22.997  22.152  1.00  0.00     0.190 C 
HETATM    2  C3  UNL     1      12.006  22.987  23.607  1.00  0.00     0.042 C 
HETATM    3  C4  UNL     1      10.671  23.714  23.731  1.00  0.00    -0.042 C 
HETATM    4  C5  UNL     1      10.741  24.769  24.792  1.00  0.00     0.015 C 
HETATM    5  C6  UNL     1       9.600  22.702  23.934  1.00  0.00     0.009 C 
HETATM    6  C7  UNL     1       9.033  22.145  22.649  1.00  0.00     0.001 C 
HETATM    7  C8  UNL     1      10.081  22.002  21.574  1.00  0.00     0.007 C 
HETATM    8  C9  UNL     1      10.983  23.185  21.477  1.00  0.00     0.017 C 
HETATM    9  C10 UNL     1      10.433  24.328  22.345  1.00  0.00     0.015 C 
ENDROOT
BRANCH   1  10
HETATM   10  N1  UNL     1      13.100  21.930  21.652  1.00  0.00    -0.074 N 
HETATM   11  C1  UNL     1      14.396  22.417  21.252  1.00  0.00     0.267 C 
ATOM     12  H12 UNL     1      12.627  21.432  20.897  1.00  0.00     0.277 HD
ATOM     13  H11 UNL     1      13.167  21.159  22.317  1.00  0.00     0.277 HD
ENDBRANCH   1  10
TORSDOF 1
ENDMDL
MODEL 4
REMARK VINA RESULT: -3.932266319      1.715      3.527
REMARK  1 active torsions:
REMARK  status: ('A' for Active; 'I' for Inactive)
REMARK    1  A    between atoms: N1_2  and  C2_5 
ROOT
HETATM    1  C2  UNL     1      11.112  22.121  22.723  1.00  0.00     0.190 C 
HETATM    2  C3  UNL     1      10.921  21.435  21.416  1.00  0.00     0.042 C 
HETATM    3  C4  UNL     1       9.426  21.528  21.131  1.00  0.00    -0.042 C 
HETATM    4  C5  UNL     1       8.874  20.185  20.760  1.00  0.00     0.015 C 
HETATM    5  C6  UNL     1       9.206  22.590  20.111  1.00  0.00     0.009 C 
HETATM    6  C7  UNL     1       9.052  23.974  20.695  1.00  0.00     0.001 C 
HETATM    7  C8  UNL     1       9.928  24.190  21.903  1.00  0.00     0.007 C 
HETATM    8  C9  UNL     1       9.914  23.035  22.847  1.00  0.00     0.017 C 
HETATM    9  C10 UNL     1       8.812  22.045  22.438  1.00  0.00     0.015 C 
ENDROOT
BRANCH   1  10
HETATM   10  N1  UNL     1      12.361  22.739  22.953  1.00  0.00    -0.074 N 
HETATM   11  C1  UNL     1      13.227  22.524  21.821  1.00  0.00     0.267 C 
ATOM     12  H12 UNL     1      12.787  22.428  23.827  1.00  0.00     0.277 HD
ATOM     13  H11 UNL     1      12.264  23.729  23.180  1.00  0.00     0.277 HD
ENDBRANCH   1  10
TORSDOF 1
ENDMDL
MODEL 5
REMARK VINA RESULT: -3.745714561      2.235      3.928
REMARK  1 active torsions:
REMARK  status: ('A' for Active; 'I' for Inactive)
REMARK    1  A    between atoms: N1_2  and  C2_5 
ROOT
HETATM    1  C2  UNL     1      10.076  23.931  23.540  1.00  0.00     0.190 C 
HETATM    2  C3  UNL     1      10.339  22.474  23.390  1.00  0.00     0.042 C 
HETATM    3  C4  UNL     1      10.857  22.306  21.966  1.00  0.00    -0.042 C 
HETATM    4  C5  UNL     1      10.120  21.208  21.261  1.00  0.00     0.015 C 
HETATM    5  C6  UNL     1      12.334  22.124  22.019  1.00  0.00     0.009 C 
HETATM    6  C7  UNL     1      13.109  23.420  22.014  1.00  0.00     0.001 C 
HETATM    7  C8  UNL     1      12.406  24.514  22.777  1.00  0.00     0.007 C 
HETATM    8  C9  UNL     1      10.945  24.581  22.487  1.00  0.00     0.017 C 
HETATM    9  C10 UNL     1      10.610  23.665  21.300  1.00  0.00     0.015 C 
ENDROOT
BRANCH   1  10
HETATM   10  N1  UNL     1      10.196  24.480  24.836  1.00  0.00    -0.074 N 
HETATM   11  C1  UNL     1       8.918  24.439  25.502  1.00  0.00     0.267 C 
ATOM     12  H12 UNL     1      10.590  25.421  24.819  1.00  0.00     0.277 HD
ATOM     13  H11 UNL     1      10.927  24.023  25.380  1.00  0.00     0.277 HD
ENDBRANCH   1  10
TORSDOF 1
ENDMDL
