MODEL 1
REMARK VINA RESULT: -4.263520457      0.000      0.000
REMARK  3 active torsions:
REMARK  status: ('A' for Active; 'I' for Inactive)
REMARK    1  A    between atoms: C5_5  and  C7_7 
REMARK    2  A    between atoms: C7_7  and  N1_8 
REMARK    3  A    between atoms: N1_8  and  C8_11 
ROOT
HETATM    1  C1  UNL     1     -13.868  20.117 -22.492  1.00  0.00     0.010 C 
HETATM    2  C2  UNL     1     -12.948  20.370 -23.640  1.00  0.00    -0.019 C 
HETATM    3  C3  UNL     1     -11.857  19.355 -23.784  1.00  0.00     0.005 C 
HETATM    4  C4  UNL     1     -10.813  19.427 -22.722  1.00  0.00     0.011 C 
HETATM    5  C5  UNL     1     -10.235  20.810 -22.568  1.00  0.00    -0.020 C 
HETATM    6  C6  UNL     1      -9.381  21.171 -23.771  1.00  0.00     0.017 C 
HETATM    7  C11 UNL     1     -11.383  21.781 -22.378  1.00  0.00     0.011 C 
HETATM    8  C12 UNL     1     -12.346  21.752 -23.524  1.00  0.00     0.005 C 
ENDROOT
BRANCH   5   9
HETATM    9  C7  UNL     1      -9.404  20.867 -21.315  1.00  0.00     0.241 C 
BRANCH   9  10
HETATM   10  N1  UNL     1      -9.206  19.568 -20.744  1.00  0.00    -0.070 N 
ATOM     11  H12 UNL     1      -9.652  19.491 -19.830  1.00  0.00     0.277 HD
ATOM     12  H11 UNL     1      -9.741  18.857 -21.242  1.00  0.00     0.277 HD
BRANCH  10  13
HETATM   13  C8  UNL     1      -7.810  19.227 -20.678  1.00  0.00     0.186 A 
HETATM   14  C9  UNL     1      -6.919  19.209 -21.834  1.00  0.00     0.035 A 
HETATM   15  C10 UNL     1      -7.452  17.889 -21.405  1.00  0.00     0.035 A 
ENDBRANCH  10  13
ENDBRANCH   9  10
ENDBRANCH   5   9
TORSDOF 3
ENDMDL
MODEL 2
REMARK VINA RESULT: -4.115482254      0.985      1.436
REMARK  3 active torsions:
REMARK  status: ('A' for Active; 'I' for Inactive)
REMARK    1  A    between atoms: C5_5  and  C7_7 
REMARK    2  A    between atoms: C7_7  and  N1_8 
REMARK    3  A    between atoms: N1_8  and  C8_11 
ROOT
HETATM    1  C1  UNL     1     -13.972  21.539 -22.611  1.00  0.00     0.010 C 
HETATM    2  C2  UNL     1     -12.910  21.893 -23.598  1.00  0.00    -0.019 C 
HETATM    3  C3  UNL     1     -12.596  20.802 -24.574  1.00  0.00     0.005 C 
HETATM    4  C4  UNL     1     -11.880  19.638 -23.977  1.00  0.00     0.011 C 
HETATM    5  C5  UNL     1     -10.644  20.043 -23.217  1.00  0.00    -0.020 C 
HETATM    6  C6  UNL     1      -9.564  20.528 -24.168  1.00  0.00     0.017 C 
HETATM    7  C11 UNL     1     -11.037  21.110 -22.215  1.00  0.00     0.011 C 
HETATM    8  C12 UNL     1     -11.649  22.307 -22.873  1.00  0.00     0.005 C 
ENDROOT
BRANCH   5   9
HETATM    9  C7  UNL     1     -10.138  18.867 -22.426  1.00  0.00     0.241 C 
BRANCH   9  10
HETATM   10  N1  UNL     1      -9.195  19.261 -21.422  1.00  0.00    -0.070 N 
ATOM     11  H12 UNL     1      -9.058  20.272 -21.415  1.00  0.00     0.277 HD
ATOM     12  H11 UNL     1      -9.581  19.147 -20.484  1.00  0.00     0.277 HD
BRANCH  10  13
HETATM   13  C8  UNL     1      -7.947  18.562 -21.565  1.00  0.00     0.186 A 
HETATM   14  C9  UNL     1      -6.875  18.593 -20.576  1.00  0.00     0.035 A 
HETATM   15  C10 UNL     1      -6.711  19.505 -21.738  1.00  0.00     0.035 A 
ENDBRANCH  10  13
ENDBRANCH   9  10
ENDBRANCH   5   9
TORSDOF 3
ENDMDL
MODEL 3
REMARK VINA RESULT: -4.042028287      2.166      5.456
REMARK  3 active torsions:
REMARK  status: ('A' for Active; 'I' for Inactive)
REMARK    1  A    between atoms: C5_5  and  C7_7 
REMARK    2  A    between atoms: C7_7  and  N1_8 
REMARK    3  A    between atoms: N1_8  and  C8_11 
ROOT
HETATM    1  C1  UNL     1      -9.233  20.905 -20.682  1.00  0.00     0.010 C 
HETATM    2  C2  UNL     1      -9.270  21.039 -22.168  1.00  0.00    -0.019 C 
HETATM    3  C3  UNL     1     -10.291  22.012 -22.668  1.00  0.00     0.005 C 
HETATM    4  C4  UNL     1     -11.701  21.552 -22.512  1.00  0.00     0.011 C 
HETATM    5  C5  UNL     1     -11.935  20.186 -23.103  1.00  0.00    -0.020 C 
HETATM    6  C6  UNL     1     -11.865  20.239 -24.619  1.00  0.00     0.017 C 
HETATM    7  C11 UNL     1     -10.904  19.239 -22.521  1.00  0.00     0.011 C 
HETATM    8  C12 UNL     1      -9.503  19.685 -22.801  1.00  0.00     0.005 C 
ENDROOT
BRANCH   5   9
HETATM    9  C7  UNL     1     -13.285  19.680 -22.670  1.00  0.00     0.241 C 
BRANCH   9  10
HETATM   10  N1  UNL     1     -14.239  20.740 -22.544  1.00  0.00    -0.070 N 
ATOM     11  H12 UNL     1     -13.811  21.584 -22.163  1.00  0.00     0.277 HD
ATOM     12  H11 UNL     1     -14.517  21.102 -23.456  1.00  0.00     0.277 HD
BRANCH  10  13
HETATM   13  C8  UNL     1     -15.380  20.334 -21.769  1.00  0.00     0.186 A 
HETATM   14  C9  UNL     1     -16.755  20.373 -22.258  1.00  0.00     0.035 A 
HETATM   15  C10 UNL     1     -16.341  21.511 -21.394  1.00  0.00     0.035 A 
ENDBRANCH  10  13
ENDBRANCH   9  10
ENDBRANCH   5   9
TORSDOF 3
ENDMDL
MODEL 4
REMARK VINA RESULT: -4.008464255      1.226      2.680
REMARK  3 active torsions:
REMARK  status: ('A' for Active; 'I' for Inactive)
REMARK    1  A    between atoms: C5_5  and  C7_7 
REMARK    2  A    between atoms: C7_7  and  N1_8 
REMARK    3  A    between atoms: N1_8  and  C8_11 
ROOT
HETATM    1  C1  UNL     1      -9.965  23.183 -24.605  1.00  0.00     0.010 C 
HETATM    2  C2  UNL     1     -11.389  22.835 -24.325  1.00  0.00    -0.019 C 
HETATM    3  C3  UNL     1     -11.704  22.674 -22.870  1.00  0.00     0.005 C 
HETATM    4  C4  UNL     1     -11.115  21.453 -22.250  1.00  0.00     0.011 C 
HETATM    5  C5  UNL     1     -11.452  20.196 -23.009  1.00  0.00    -0.020 C 
HETATM    6  C6  UNL     1     -12.925  19.857 -22.857  1.00  0.00     0.017 C 
HETATM    7  C11 UNL     1     -11.065  20.404 -24.459  1.00  0.00     0.011 C 
HETATM    8  C12 UNL     1     -11.768  21.575 -25.070  1.00  0.00     0.005 C 
ENDROOT
BRANCH   5   9
HETATM    9  C7  UNL     1     -10.610  19.061 -22.491  1.00  0.00     0.241 C 
BRANCH   9  10
HETATM   10  N1  UNL     1      -9.651  19.502 -21.523  1.00  0.00    -0.070 N 
ATOM     11  H12 UNL     1      -9.715  20.508 -21.367  1.00  0.00     0.277 HD
ATOM     12  H11 UNL     1      -9.893  19.180 -20.586  1.00  0.00     0.277 HD
BRANCH  10  13
HETATM   13  C8  UNL     1      -8.316  19.110 -21.885  1.00  0.00     0.186 A 
HETATM   14  C9  UNL     1      -7.806  17.747 -21.773  1.00  0.00     0.035 A 
HETATM   15  C10 UNL     1      -7.434  18.672 -20.670  1.00  0.00     0.035 A 
ENDBRANCH  10  13
ENDBRANCH   9  10
ENDBRANCH   5   9
TORSDOF 3
ENDMDL
MODEL 5
REMARK VINA RESULT: -3.921744703      1.581      2.282
REMARK  3 active torsions:
REMARK  status: ('A' for Active; 'I' for Inactive)
REMARK    1  A    between atoms: C5_5  and  C7_7 
REMARK    2  A    between atoms: C7_7  and  N1_8 
REMARK    3  A    between atoms: N1_8  and  C8_11 
ROOT
HETATM    1  C1  UNL     1     -11.242  21.945 -24.650  1.00  0.00     0.010 C 
HETATM    2  C2  UNL     1     -10.723  20.546 -24.688  1.00  0.00    -0.019 C 
HETATM    3  C3  UNL     1     -11.390  19.621 -23.717  1.00  0.00     0.005 C 
HETATM    4  C4  UNL     1     -11.045  19.883 -22.291  1.00  0.00     0.011 C 
HETATM    5  C5  UNL     1      -9.559  19.924 -22.049  1.00  0.00    -0.020 C 
HETATM    6  C6  UNL     1      -8.954  18.539 -22.193  1.00  0.00     0.017 C 
HETATM    7  C11 UNL     1      -8.952  20.912 -23.026  1.00  0.00     0.011 C 
HETATM    8  C12 UNL     1      -9.230  20.544 -24.450  1.00  0.00     0.005 C 
ENDROOT
BRANCH   5   9
HETATM    9  C7  UNL     1      -9.293  20.458 -20.668  1.00  0.00     0.241 C 
BRANCH   9  10
HETATM   10  N1  UNL     1      -8.522  19.545 -19.879  1.00  0.00    -0.070 N 
ATOM     11  H12 UNL     1      -9.062  19.184 -19.092  1.00  0.00     0.277 HD
ATOM     12  H11 UNL     1      -8.361  18.668 -20.375  1.00  0.00     0.277 HD
BRANCH  10  13
HETATM   13  C8  UNL     1      -7.287  20.136 -19.441  1.00  0.00     0.186 A 
HETATM   14  C9  UNL     1      -6.231  20.584 -20.344  1.00  0.00     0.035 A 
HETATM   15  C10 UNL     1      -6.028  19.249 -19.720  1.00  0.00     0.035 A 
ENDBRANCH  10  13
ENDBRANCH   9  10
ENDBRANCH   5   9
TORSDOF 3
ENDMDL
