MODEL 1
REMARK VINA RESULT: -8.502194311      0.000      0.000
REMARK  10 active torsions:
REMARK  status: ('A' for Active; 'I' for Inactive)
REMARK    1  A    between atoms: C3_3  and  C4_4 
REMARK    2  A    between atoms: C5_5  and  C6_6 
REMARK    3  A    between atoms: C7_7  and  C8_8 
REMARK    4  A    between atoms: C8_8  and  C10_10 
REMARK    5  A    between atoms: C10_10  and  C11_11 
REMARK    6  A    between atoms: C17_17  and  O1_18 
REMARK    7  A    between atoms: O1_18  and  C18_19 
REMARK    8  A    between atoms: C18_19  and  O2_22 
REMARK    9  A    between atoms: C24_29  and  O4_30 
REMARK   10  A    between atoms: C32_40  and  O6_41 
ROOT
HETATM    1  C1  UNL     1      37.520  44.558  27.420  1.00  0.00     0.102 C 
HETATM    2  C2  UNL     1      38.167  45.659  26.842  1.00  0.00    -0.160 C 
HETATM    3  C3  UNL     1      38.741  46.636  26.329  1.00  0.00     0.050 C 
ENDROOT
BRANCH   3   4
HETATM    4  C4  UNL     1      38.284  47.131  24.968  1.00  0.00     0.008 C 
HETATM    5  C5  UNL     1      39.052  47.790  24.159  1.00  0.00     0.001 C 
BRANCH   5   6
HETATM    6  C6  UNL     1      40.435  48.142  24.415  1.00  0.00     0.001 C 
HETATM    7  C7  UNL     1      41.489  47.392  24.263  1.00  0.00     0.006 C 
BRANCH   7   8
HETATM    8  C8  UNL     1      41.676  46.020  23.812  1.00  0.00    -0.065 C 
HETATM    9  C9  UNL     1      42.425  45.154  24.811  1.00  0.00     0.048 C 
BRANCH   8  10
HETATM   10  C10 UNL     1      41.869  45.723  22.399  1.00  0.00    -0.009 C 
BRANCH  10  11
HETATM   11  C11 UNL     1      40.924  44.945  21.554  1.00  0.00     0.065 C 
HETATM   12  C12 UNL     1      41.446  44.753  20.177  1.00  0.00    -0.009 C 
HETATM   13  C13 UNL     1      40.598  44.969  18.967  1.00  0.00    -0.065 C 
HETATM   14  C14 UNL     1      40.381  43.670  18.221  1.00  0.00     0.048 C 
HETATM   15  C15 UNL     1      39.444  45.860  19.105  1.00  0.00     0.011 C 
HETATM   16  C16 UNL     1      38.334  45.994  18.470  1.00  0.00     0.064 C 
HETATM   17  C17 UNL     1      37.750  45.289  17.314  1.00  0.00     0.183 C 
HETATM   18  O3  UNL     1      37.174  44.074  17.502  1.00  0.00    -0.319 OA
HETATM   19  C22 UNL     1      36.097  43.905  18.191  1.00  0.00     0.178 C 
HETATM   20  C23 UNL     1      35.212  45.107  18.474  1.00  0.00     0.148 C 
HETATM   21  C25 UNL     1      36.015  43.355  19.624  1.00  0.00    -0.009 C 
HETATM   22  N1  UNL     1      34.030  44.377  18.957  1.00  0.00    -0.193 NA
HETATM   23 CL1  UNL     1      33.080  44.039  17.521  1.00  0.00    -0.019 Cl
HETATM   24  C24 UNL     1      34.523  43.097  19.476  1.00  0.00     0.240 C 
HETATM   25  C26 UNL     1      36.931  43.210  20.506  1.00  0.00    -0.005 C 
HETATM   26  C27 UNL     1      37.181  42.735  21.925  1.00  0.00     0.079 C 
HETATM   27  C28 UNL     1      37.901  41.394  21.841  1.00  0.00     0.022 C 
HETATM   28  C29 UNL     1      37.903  43.777  22.690  1.00  0.00     0.161 C 
HETATM   29  O5  UNL     1      37.159  44.744  22.956  1.00  0.00    -0.292 OA
HETATM   30  C30 UNL     1      39.286  43.851  23.162  1.00  0.00    -0.008 C 
HETATM   31  C31 UNL     1      39.492  43.147  24.487  1.00  0.00     0.050 C 
HETATM   32  C32 UNL     1      40.372  43.656  22.152  1.00  0.00     0.161 C 
BRANCH  17  33
HETATM   33  O1  UNL     1      37.058  46.129  16.467  1.00  0.00    -0.293 OA
BRANCH  33  34
HETATM   34  C18 UNL     1      37.529  46.330  15.227  1.00  0.00     0.164 C 
HETATM   35  C19 UNL     1      36.855  45.373  14.276  1.00  0.00     0.079 C 
HETATM   36  C20 UNL     1      39.003  46.235  15.020  1.00  0.00     0.079 C 
BRANCH  34  37
HETATM   37  O2  UNL     1      37.159  47.610  14.806  1.00  0.00    -0.360 OA
HETATM   38  C21 UNL     1      37.125  47.735  13.432  1.00  0.00     0.205 C 
ENDBRANCH  34  37
ENDBRANCH  33  34
ENDBRANCH  17  33
BRANCH  24  39
HETATM   39  O4  UNL     1      34.322  42.080  18.531  1.00  0.00    -0.376 OA
ATOM     40  H4  UNL     1      33.477  42.185  18.108  1.00  0.00     0.212 HD
ENDBRANCH  24  39
BRANCH  32  41
HETATM   41  O6  UNL     1      41.351  42.753  22.495  1.00  0.00    -0.390 OA
ATOM     42  H6  UNL     1      41.261  41.916  22.054  1.00  0.00     0.210 HD
ENDBRANCH  32  41
ENDBRANCH  10  11
ENDBRANCH   8  10
ENDBRANCH   7   8
ENDBRANCH   5   6
ENDBRANCH   3   4
TORSDOF 10
ENDMDL
MODEL 2
REMARK VINA RESULT: -8.497672504      4.632      8.990
REMARK  10 active torsions:
REMARK  status: ('A' for Active; 'I' for Inactive)
REMARK    1  A    between atoms: C3_3  and  C4_4 
REMARK    2  A    between atoms: C5_5  and  C6_6 
REMARK    3  A    between atoms: C7_7  and  C8_8 
REMARK    4  A    between atoms: C8_8  and  C10_10 
REMARK    5  A    between atoms: C10_10  and  C11_11 
REMARK    6  A    between atoms: C17_17  and  O1_18 
REMARK    7  A    between atoms: O1_18  and  C18_19 
REMARK    8  A    between atoms: C18_19  and  O2_22 
REMARK    9  A    between atoms: C24_29  and  O4_30 
REMARK   10  A    between atoms: C32_40  and  O6_41 
ROOT
HETATM    1  C1  UNL     1      36.718  43.990  20.061  1.00  0.00     0.102 C 
HETATM    2  C2  UNL     1      37.332  44.357  18.856  1.00  0.00    -0.160 C 
HETATM    3  C3  UNL     1      37.878  44.682  17.786  1.00  0.00     0.050 C 
ENDROOT
BRANCH   3   4
HETATM    4  C4  UNL     1      38.124  46.153  17.500  1.00  0.00     0.008 C 
HETATM    5  C5  UNL     1      39.304  46.648  17.297  1.00  0.00     0.001 C 
BRANCH   5   6
HETATM    6  C6  UNL     1      40.541  45.894  17.300  1.00  0.00     0.001 C 
HETATM    7  C7  UNL     1      41.271  45.564  18.327  1.00  0.00     0.006 C 
BRANCH   7   8
HETATM    8  C8  UNL     1      41.140  45.803  19.758  1.00  0.00    -0.065 C 
HETATM    9  C9  UNL     1      42.274  46.631  20.338  1.00  0.00     0.048 C 
BRANCH   8  10
HETATM   10  C10 UNL     1      40.538  44.799  20.625  1.00  0.00    -0.009 C 
BRANCH  10  11
HETATM   11  C11 UNL     1      40.530  44.852  22.112  1.00  0.00     0.065 C 
HETATM   12  C12 UNL     1      39.152  44.750  22.659  1.00  0.00    -0.009 C 
HETATM   13  C13 UNL     1      38.656  45.654  23.738  1.00  0.00    -0.065 C 
HETATM   14  C14 UNL     1      38.372  44.878  25.005  1.00  0.00     0.048 C 
HETATM   15  C15 UNL     1      39.317  46.953  23.885  1.00  0.00     0.011 C 
HETATM   16  C16 UNL     1      39.445  47.790  24.852  1.00  0.00     0.064 C 
HETATM   17  C17 UNL     1      38.965  47.789  26.246  1.00  0.00     0.183 C 
HETATM   18  O3  UNL     1      39.624  47.046  27.172  1.00  0.00    -0.319 OA
HETATM   19  C22 UNL     1      40.830  47.303  27.551  1.00  0.00     0.178 C 
HETATM   20  C23 UNL     1      41.406  48.682  27.279  1.00  0.00     0.148 C 
HETATM   21  C25 UNL     1      42.098  46.554  27.111  1.00  0.00    -0.009 C 
HETATM   22  N1  UNL     1      42.588  48.582  28.149  1.00  0.00    -0.193 NA
HETATM   23 CL1  UNL     1      42.049  49.139  29.723  1.00  0.00    -0.019 Cl
HETATM   24  C24 UNL     1      42.892  47.152  28.263  1.00  0.00     0.240 C 
HETATM   25  C26 UNL     1      42.284  45.750  26.133  1.00  0.00    -0.005 C 
HETATM   26  C27 UNL     1      43.335  44.893  25.453  1.00  0.00     0.079 C 
HETATM   27  C28 UNL     1      43.034  43.438  25.794  1.00  0.00     0.022 C 
HETATM   28  C29 UNL     1      43.374  45.192  24.003  1.00  0.00     0.161 C 
HETATM   29  O5  UNL     1      43.886  46.309  23.782  1.00  0.00    -0.292 OA
HETATM   30  C30 UNL     1      42.927  44.423  22.841  1.00  0.00    -0.008 C 
HETATM   31  C31 UNL     1      43.962  43.423  22.368  1.00  0.00     0.050 C 
HETATM   32  C32 UNL     1      41.512  43.938  22.836  1.00  0.00     0.161 C 
BRANCH  17  33
HETATM   33  O1  UNL     1      38.577  49.039  26.681  1.00  0.00    -0.293 OA
BRANCH  33  34
HETATM   34  C18 UNL     1      37.290  49.244  26.998  1.00  0.00     0.164 C 
HETATM   35  C19 UNL     1      36.462  49.265  25.739  1.00  0.00     0.079 C 
HETATM   36  C20 UNL     1      36.958  50.460  27.797  1.00  0.00     0.079 C 
BRANCH  34  37
HETATM   37  O2  UNL     1      36.829  48.154  27.741  1.00  0.00    -0.360 OA
HETATM   38  C21 UNL     1      35.680  48.436  28.452  1.00  0.00     0.205 C 
ENDBRANCH  34  37
ENDBRANCH  33  34
ENDBRANCH  17  33
BRANCH  24  39
HETATM   39  O4  UNL     1      42.400  46.646  29.475  1.00  0.00    -0.376 OA
ATOM     40  H4  UNL     1      41.987  45.802  29.336  1.00  0.00     0.212 HD
ENDBRANCH  24  39
BRANCH  32  41
HETATM   41  O6  UNL     1      41.338  42.607  22.537  1.00  0.00    -0.390 OA
ATOM     42  H6  UNL     1      40.809  42.145  23.177  1.00  0.00     0.210 HD
ENDBRANCH  32  41
ENDBRANCH  10  11
ENDBRANCH   8  10
ENDBRANCH   7   8
ENDBRANCH   5   6
ENDBRANCH   3   4
TORSDOF 10
ENDMDL
MODEL 3
REMARK VINA RESULT: -8.360769138      0.973      1.224
REMARK  10 active torsions:
REMARK  status: ('A' for Active; 'I' for Inactive)
REMARK    1  A    between atoms: C3_3  and  C4_4 
REMARK    2  A    between atoms: C5_5  and  C6_6 
REMARK    3  A    between atoms: C7_7  and  C8_8 
REMARK    4  A    between atoms: C8_8  and  C10_10 
REMARK    5  A    between atoms: C10_10  and  C11_11 
REMARK    6  A    between atoms: C17_17  and  O1_18 
REMARK    7  A    between atoms: O1_18  and  C18_19 
REMARK    8  A    between atoms: C18_19  and  O2_22 
REMARK    9  A    between atoms: C24_29  and  O4_30 
REMARK   10  A    between atoms: C32_40  and  O6_41 
ROOT
HETATM    1  C1  UNL     1      36.039  49.925  27.646  1.00  0.00     0.102 C 
HETATM    2  C2  UNL     1      36.642  49.380  26.505  1.00  0.00    -0.160 C 
HETATM    3  C3  UNL     1      37.178  48.897  25.491  1.00  0.00     0.050 C 
ENDROOT
BRANCH   3   4
HETATM    4  C4  UNL     1      37.664  47.459  25.527  1.00  0.00     0.008 C 
HETATM    5  C5  UNL     1      38.825  47.092  25.085  1.00  0.00     0.001 C 
BRANCH   5   6
HETATM    6  C6  UNL     1      39.821  47.975  24.511  1.00  0.00     0.001 C 
HETATM    7  C7  UNL     1      40.952  47.647  23.954  1.00  0.00     0.006 C 
BRANCH   7   8
HETATM    8  C8  UNL     1      41.605  46.368  23.709  1.00  0.00    -0.065 C 
HETATM    9  C9  UNL     1      42.629  46.000  24.769  1.00  0.00     0.048 C 
BRANCH   8  10
HETATM   10  C10 UNL     1      41.865  45.917  22.348  1.00  0.00    -0.009 C 
BRANCH  10  11
HETATM   11  C11 UNL     1      40.929  45.105  21.525  1.00  0.00     0.065 C 
HETATM   12  C12 UNL     1      41.453  44.885  20.152  1.00  0.00    -0.009 C 
HETATM   13  C13 UNL     1      40.601  45.058  18.938  1.00  0.00    -0.065 C 
HETATM   14  C14 UNL     1      40.400  43.738  18.227  1.00  0.00     0.048 C 
HETATM   15  C15 UNL     1      39.435  45.938  19.054  1.00  0.00     0.011 C 
HETATM   16  C16 UNL     1      38.323  46.041  18.418  1.00  0.00     0.064 C 
HETATM   17  C17 UNL     1      37.747  45.299  17.281  1.00  0.00     0.183 C 
HETATM   18  O3  UNL     1      37.187  44.082  17.501  1.00  0.00    -0.319 OA
HETATM   19  C22 UNL     1      36.114  43.918  18.196  1.00  0.00     0.178 C 
HETATM   20  C23 UNL     1      35.213  45.114  18.448  1.00  0.00     0.148 C 
HETATM   21  C25 UNL     1      36.040  43.403  19.642  1.00  0.00    -0.009 C 
HETATM   22  N1  UNL     1      34.041  44.382  18.952  1.00  0.00    -0.193 NA
HETATM   23 CL1  UNL     1      33.094  43.995  17.527  1.00  0.00    -0.019 Cl
HETATM   24  C24 UNL     1      34.551  43.122  19.503  1.00  0.00     0.240 C 
HETATM   25  C26 UNL     1      36.958  43.293  20.527  1.00  0.00    -0.005 C 
HETATM   26  C27 UNL     1      37.216  42.857  21.957  1.00  0.00     0.079 C 
HETATM   27  C28 UNL     1      37.953  41.524  21.907  1.00  0.00     0.022 C 
HETATM   28  C29 UNL     1      37.925  43.928  22.694  1.00  0.00     0.161 C 
HETATM   29  O5  UNL     1      37.169  44.892  22.936  1.00  0.00    -0.292 OA
HETATM   30  C30 UNL     1      39.307  44.033  23.163  1.00  0.00    -0.008 C 
HETATM   31  C31 UNL     1      39.523  43.365  24.505  1.00  0.00     0.050 C 
HETATM   32  C32 UNL     1      40.394  43.825  22.156  1.00  0.00     0.161 C 
BRANCH  17  33
HETATM   33  O1  UNL     1      37.044  46.108  16.413  1.00  0.00    -0.293 OA
BRANCH  33  34
HETATM   34  C18 UNL     1      37.545  46.336  15.190  1.00  0.00     0.164 C 
HETATM   35  C19 UNL     1      36.913  45.384  14.206  1.00  0.00     0.079 C 
HETATM   36  C20 UNL     1      39.026  46.268  15.022  1.00  0.00     0.079 C 
BRANCH  34  37
HETATM   37  O2  UNL     1      37.165  47.617  14.779  1.00  0.00    -0.360 OA
HETATM   38  C21 UNL     1      37.148  47.757  13.406  1.00  0.00     0.205 C 
ENDBRANCH  34  37
ENDBRANCH  33  34
ENDBRANCH  17  33
BRANCH  24  39
HETATM   39  O4  UNL     1      34.362  42.079  18.584  1.00  0.00    -0.376 OA
ATOM     40  H4  UNL     1      34.973  41.372  18.759  1.00  0.00     0.212 HD
ENDBRANCH  24  39
BRANCH  32  41
HETATM   41  O6  UNL     1      41.386  42.944  22.521  1.00  0.00    -0.390 OA
ATOM     42  H6  UNL     1      41.152  42.035  22.375  1.00  0.00     0.210 HD
ENDBRANCH  32  41
ENDBRANCH  10  11
ENDBRANCH   8  10
ENDBRANCH   7   8
ENDBRANCH   5   6
ENDBRANCH   3   4
TORSDOF 10
ENDMDL
MODEL 4
REMARK VINA RESULT: -8.269489818      4.753      8.749
REMARK  10 active torsions:
REMARK  status: ('A' for Active; 'I' for Inactive)
REMARK    1  A    between atoms: C3_3  and  C4_4 
REMARK    2  A    between atoms: C5_5  and  C6_6 
REMARK    3  A    between atoms: C7_7  and  C8_8 
REMARK    4  A    between atoms: C8_8  and  C10_10 
REMARK    5  A    between atoms: C10_10  and  C11_11 
REMARK    6  A    between atoms: C17_17  and  O1_18 
REMARK    7  A    between atoms: O1_18  and  C18_19 
REMARK    8  A    between atoms: C18_19  and  O2_22 
REMARK    9  A    between atoms: C24_29  and  O4_30 
REMARK   10  A    between atoms: C32_40  and  O6_41 
ROOT
HETATM    1  C1  UNL     1      36.785  41.805  23.055  1.00  0.00     0.102 C 
HETATM    2  C2  UNL     1      36.740  42.298  21.744  1.00  0.00    -0.160 C 
HETATM    3  C3  UNL     1      36.700  42.735  20.579  1.00  0.00     0.050 C 
ENDROOT
BRANCH   3   4
HETATM    4  C4  UNL     1      36.506  44.224  20.355  1.00  0.00     0.008 C 
HETATM    5  C5  UNL     1      37.151  44.896  19.455  1.00  0.00     0.001 C 
BRANCH   5   6
HETATM    6  C6  UNL     1      38.127  44.344  18.537  1.00  0.00     0.001 C 
HETATM    7  C7  UNL     1      39.420  44.504  18.556  1.00  0.00     0.006 C 
BRANCH   7   8
HETATM    8  C8  UNL     1      40.317  45.238  19.437  1.00  0.00    -0.065 C 
HETATM    9  C9  UNL     1      40.871  46.507  18.813  1.00  0.00     0.048 C 
BRANCH   8  10
HETATM   10  C10 UNL     1      41.176  44.530  20.378  1.00  0.00    -0.009 C 
BRANCH  10  11
HETATM   11  C11 UNL     1      41.066  44.609  21.859  1.00  0.00     0.065 C 
HETATM   12  C12 UNL     1      39.656  44.491  22.313  1.00  0.00    -0.009 C 
HETATM   13  C13 UNL     1      39.071  45.405  23.338  1.00  0.00    -0.065 C 
HETATM   14  C14 UNL     1      38.714  44.646  24.597  1.00  0.00     0.048 C 
HETATM   15  C15 UNL     1      39.698  46.718  23.505  1.00  0.00     0.011 C 
HETATM   16  C16 UNL     1      39.745  47.575  24.462  1.00  0.00     0.064 C 
HETATM   17  C17 UNL     1      39.171  47.589  25.821  1.00  0.00     0.183 C 
HETATM   18  O3  UNL     1      39.778  46.875  26.803  1.00  0.00    -0.319 OA
HETATM   19  C22 UNL     1      40.950  47.162  27.258  1.00  0.00     0.178 C 
HETATM   20  C23 UNL     1      41.519  48.547  27.000  1.00  0.00     0.148 C 
HETATM   21  C25 UNL     1      42.258  46.429  26.920  1.00  0.00    -0.009 C 
HETATM   22  N1  UNL     1      42.641  48.484  27.949  1.00  0.00    -0.193 NA
HETATM   23 CL1  UNL     1      41.986  49.059  29.472  1.00  0.00    -0.019 Cl
HETATM   24  C24 UNL     1      42.962  47.063  28.111  1.00  0.00     0.240 C 
HETATM   25  C26 UNL     1      42.525  45.612  25.972  1.00  0.00    -0.005 C 
HETATM   26  C27 UNL     1      43.635  44.762  25.381  1.00  0.00     0.079 C 
HETATM   27  C28 UNL     1      43.336  43.308  25.729  1.00  0.00     0.022 C 
HETATM   28  C29 UNL     1      43.767  45.036  23.932  1.00  0.00     0.161 C 
HETATM   29  O5  UNL     1      44.273  46.158  23.725  1.00  0.00    -0.292 OA
HETATM   30  C30 UNL     1      43.415  44.238  22.757  1.00  0.00    -0.008 C 
HETATM   31  C31 UNL     1      44.496  43.250  22.374  1.00  0.00     0.050 C 
HETATM   32  C32 UNL     1      42.011  43.727  22.666  1.00  0.00     0.161 C 
BRANCH  17  33
HETATM   33  O1  UNL     1      38.732  48.840  26.204  1.00  0.00    -0.293 OA
BRANCH  33  34
HETATM   34  C18 UNL     1      37.498  48.965  26.714  1.00  0.00     0.164 C 
HETATM   35  C19 UNL     1      36.987  47.608  27.127  1.00  0.00     0.079 C 
HETATM   36  C20 UNL     1      36.460  49.618  25.866  1.00  0.00     0.079 C 
BRANCH  34  37
HETATM   37  O2  UNL     1      37.571  49.719  27.889  1.00  0.00    -0.360 OA
HETATM   38  C21 UNL     1      36.328  50.059  28.386  1.00  0.00     0.205 C 
ENDBRANCH  34  37
ENDBRANCH  33  34
ENDBRANCH  17  33
BRANCH  24  39
HETATM   39  O4  UNL     1      42.397  46.569  29.297  1.00  0.00    -0.376 OA
ATOM     40  H4  UNL     1      41.767  47.190  29.644  1.00  0.00     0.212 HD
ENDBRANCH  24  39
BRANCH  32  41
HETATM   41  O6  UNL     1      41.882  42.387  22.381  1.00  0.00    -0.390 OA
ATOM     42  H6  UNL     1      42.241  41.824  23.056  1.00  0.00     0.210 HD
ENDBRANCH  32  41
ENDBRANCH  10  11
ENDBRANCH   8  10
ENDBRANCH   7   8
ENDBRANCH   5   6
ENDBRANCH   3   4
TORSDOF 10
ENDMDL
MODEL 5
REMARK VINA RESULT: -8.261425744      4.750      9.024
REMARK  10 active torsions:
REMARK  status: ('A' for Active; 'I' for Inactive)
REMARK    1  A    between atoms: C3_3  and  C4_4 
REMARK    2  A    between atoms: C5_5  and  C6_6 
REMARK    3  A    between atoms: C7_7  and  C8_8 
REMARK    4  A    between atoms: C8_8  and  C10_10 
REMARK    5  A    between atoms: C10_10  and  C11_11 
REMARK    6  A    between atoms: C17_17  and  O1_18 
REMARK    7  A    between atoms: O1_18  and  C18_19 
REMARK    8  A    between atoms: C18_19  and  O2_22 
REMARK    9  A    between atoms: C24_29  and  O4_30 
REMARK   10  A    between atoms: C32_40  and  O6_41 
ROOT
HETATM    1  C1  UNL     1      34.900  42.866  16.519  1.00  0.00     0.102 C 
HETATM    2  C2  UNL     1      35.325  43.778  17.496  1.00  0.00    -0.160 C 
HETATM    3  C3  UNL     1      35.702  44.588  18.362  1.00  0.00     0.050 C 
ENDROOT
BRANCH   3   4
HETATM    4  C4  UNL     1      36.644  44.115  19.455  1.00  0.00     0.008 C 
HETATM    5  C5  UNL     1      37.916  44.359  19.450  1.00  0.00     0.001 C 
BRANCH   5   6
HETATM    6  C6  UNL     1      38.620  45.113  18.431  1.00  0.00     0.001 C 
HETATM    7  C7  UNL     1      39.792  45.675  18.522  1.00  0.00     0.006 C 
BRANCH   7   8
HETATM    8  C8  UNL     1      40.773  45.758  19.595  1.00  0.00    -0.065 C 
HETATM    9  C9  UNL     1      41.985  46.603  19.239  1.00  0.00     0.048 C 
BRANCH   8  10
HETATM   10  C10 UNL     1      40.989  44.631  20.492  1.00  0.00    -0.009 C 
BRANCH  10  11
HETATM   11  C11 UNL     1      40.916  44.697  21.977  1.00  0.00     0.065 C 
HETATM   12  C12 UNL     1      39.520  44.554  22.466  1.00  0.00    -0.009 C 
HETATM   13  C13 UNL     1      38.948  45.452  23.513  1.00  0.00    -0.065 C 
HETATM   14  C14 UNL     1      38.636  44.678  24.775  1.00  0.00     0.048 C 
HETATM   15  C15 UNL     1      39.560  46.773  23.674  1.00  0.00     0.011 C 
HETATM   16  C16 UNL     1      39.618  47.623  24.636  1.00  0.00     0.064 C 
HETATM   17  C17 UNL     1      39.080  47.619  26.009  1.00  0.00     0.183 C 
HETATM   18  O3  UNL     1      39.723  46.907  26.970  1.00  0.00    -0.319 OA
HETATM   19  C22 UNL     1      40.902  47.208  27.397  1.00  0.00     0.178 C 
HETATM   20  C23 UNL     1      41.443  48.603  27.135  1.00  0.00     0.148 C 
HETATM   21  C25 UNL     1      42.212  46.498  27.019  1.00  0.00    -0.009 C 
HETATM   22  N1  UNL     1      42.590  48.550  28.054  1.00  0.00    -0.193 NA
HETATM   23 CL1  UNL     1      41.966  49.104  29.598  1.00  0.00    -0.019 Cl
HETATM   24  C24 UNL     1      42.936  47.133  28.197  1.00  0.00     0.240 C 
HETATM   25  C26 UNL     1      42.466  45.692  26.058  1.00  0.00    -0.005 C 
HETATM   26  C27 UNL     1      43.573  44.863  25.432  1.00  0.00     0.079 C 
HETATM   27  C28 UNL     1      43.306  43.403  25.776  1.00  0.00     0.022 C 
HETATM   28  C29 UNL     1      43.663  45.150  23.982  1.00  0.00     0.161 C 
HETATM   29  O5  UNL     1      44.147  46.282  23.771  1.00  0.00    -0.292 OA
HETATM   30  C30 UNL     1      43.293  44.356  22.811  1.00  0.00    -0.008 C 
HETATM   31  C31 UNL     1      44.379  43.387  22.392  1.00  0.00     0.050 C 
HETATM   32  C32 UNL     1      41.895  43.824  22.752  1.00  0.00     0.161 C 
BRANCH  17  33
HETATM   33  O1  UNL     1      38.633  48.860  26.414  1.00  0.00    -0.293 OA
BRANCH  33  34
HETATM   34  C18 UNL     1      37.325  49.029  26.657  1.00  0.00     0.164 C 
HETATM   35  C19 UNL     1      36.787  47.816  27.372  1.00  0.00     0.079 C 
HETATM   36  C20 UNL     1      36.435  49.320  25.495  1.00  0.00     0.079 C 
BRANCH  34  37
HETATM   37  O2  UNL     1      37.166  50.097  27.545  1.00  0.00    -0.360 OA
HETATM   38  C21 UNL     1      38.231  50.237  28.412  1.00  0.00     0.205 C 
ENDBRANCH  34  37
ENDBRANCH  33  34
ENDBRANCH  17  33
BRANCH  24  39
HETATM   39  O4  UNL     1      42.410  46.622  29.393  1.00  0.00    -0.376 OA
ATOM     40  H4  UNL     1      42.871  45.830  29.644  1.00  0.00     0.212 HD
ENDBRANCH  24  39
BRANCH  32  41
HETATM   41  O6  UNL     1      41.778  42.485  22.460  1.00  0.00    -0.390 OA
ATOM     42  H6  UNL     1      41.725  42.307  21.528  1.00  0.00     0.210 HD
ENDBRANCH  32  41
ENDBRANCH  10  11
ENDBRANCH   8  10
ENDBRANCH   7   8
ENDBRANCH   5   6
ENDBRANCH   3   4
TORSDOF 10
ENDMDL
