MODEL 1
REMARK VINA RESULT: -7.326622476      0.000      0.000
REMARK  12 active torsions:
REMARK  status: ('A' for Active; 'I' for Inactive)
REMARK    1  A    between atoms: C2_2  and  C3_3 
REMARK    2  A    between atoms: C4_4  and  C5_5 
REMARK    3  A    between atoms: N2_11  and  C9_12 
REMARK    4  A    between atoms: C9_12  and  C10_13 
REMARK    5  A    between atoms: C10_13  and  C11_14 
REMARK    6  A    between atoms: C11_14  and  C12_15 
REMARK    7  A    between atoms: C12_15  and  C13_16 
REMARK       I    between atoms: C13_16  and  N3_18 
REMARK    8  A    between atoms: N3_18  and  N4_20 
REMARK    9  A    between atoms: N4_20  and  N5_21 
REMARK   10  A    between atoms: C15_25  and  O2_26 
REMARK   11  A    between atoms: C21_34  and  O3_35 
REMARK   12  A    between atoms: C21_34  and  C22_37 
ROOT
HETATM    1  C10 UNL     1      19.799 -26.900   0.501  1.00  0.00     0.004 C 
HETATM    2  C14 UNL     1      19.378 -25.578  -0.232  1.00  0.00     0.048 C 
HETATM    3  C15 UNL     1      19.226 -24.522   0.844  1.00  0.00     0.134 C 
HETATM    4  C16 UNL     1      18.513 -25.316   1.885  1.00  0.00     0.059 C 
HETATM    5  C17 UNL     1      17.100 -25.445   1.549  1.00  0.00     0.025 C 
HETATM    6  C18 UNL     1      19.423 -26.495   1.872  1.00  0.00     0.059 C 
HETATM    7  C19 UNL     1      18.976 -27.266   2.977  1.00  0.00     0.152 C 
HETATM    8  C20 UNL     1      19.931 -28.287   3.558  1.00  0.00     0.056 C 
HETATM    9  F1  UNL     1      17.723 -27.813   3.017  1.00  0.00    -0.239 F 
HETATM   10  C21 UNL     1      19.013 -26.124   4.055  1.00  0.00     0.249 C 
HETATM   11  C23 UNL     1      18.669 -24.868   3.288  1.00  0.00     0.297 C 
HETATM   12  F2  UNL     1      19.642 -23.890   3.454  1.00  0.00    -0.201 F 
HETATM   13  F3  UNL     1      17.435 -24.360   3.723  1.00  0.00    -0.201 F 
ENDROOT
BRANCH   1  14
HETATM   14  C9  UNL     1      21.271 -26.946   0.445  1.00  0.00     0.103 C 
BRANCH  14  15
HETATM   15  N2  UNL     1      22.052 -27.881  -0.255  1.00  0.00    -0.235 N 
HETATM   16  N1  UNL     1      21.899 -28.151  -1.553  1.00  0.00    -0.303 N 
HETATM   17  C8  UNL     1      22.602 -29.045  -2.216  1.00  0.00     0.116 A 
ATOM     18  H1  UNL     1      21.189 -27.629  -2.067  1.00  0.00     0.186 HD
HETATM   19  C4  UNL     1      23.598 -29.817  -1.618  1.00  0.00    -0.026 A 
HETATM   20  C3  UNL     1      23.791 -29.572  -0.293  1.00  0.00     0.019 A 
HETATM   21  C24 UNL     1      22.999 -28.595   0.357  1.00  0.00     0.272 A 
HETATM   22  O6  UNL     1      23.279 -28.448   1.596  1.00  0.00    -0.266 OA
BRANCH  19  23
HETATM   23  C5  UNL     1      24.364 -30.826  -2.337  1.00  0.00     0.012 C 
HETATM   24  C6  UNL     1      25.529 -30.207  -3.120  1.00  0.00     0.015 C 
HETATM   25  C7  UNL     1      23.521 -31.675  -3.266  1.00  0.00     0.015 C 
ENDBRANCH  19  23
BRANCH  20  26
HETATM   26  C2  UNL     1      24.807 -30.269   0.476  1.00  0.00     0.040 C 
HETATM   27  C1  UNL     1      26.166 -29.549   0.423  1.00  0.00     0.010 C 
ENDBRANCH  20  26
ENDBRANCH  14  15
ENDBRANCH   1  14
BRANCH   1  28
HETATM   28  C11 UNL     1      19.059 -27.970  -0.158  1.00  0.00     0.025 C 
BRANCH  28  29
HETATM   29  C12 UNL     1      18.098 -27.818  -1.238  1.00  0.00     0.106 C 
BRANCH  29  30
HETATM   30  C13 UNL     1      18.179 -29.078  -2.104  1.00  0.00     0.247 C 
HETATM   31  O1  UNL     1      19.289 -29.519  -2.471  1.00  0.00    -0.271 OA
HETATM   32  N3  UNL     1      17.007 -29.766  -2.502  1.00  0.00    -0.183 N 
ATOM     33  H3  UNL     1      16.295 -29.298  -3.064  1.00  0.00     0.207 HD
BRANCH  32  34
HETATM   34  N4  UNL     1      16.864 -30.937  -2.158  1.00  0.00    -0.241 NA
BRANCH  34  35
HETATM   35  N5  UNL     1      16.598 -32.106  -1.830  1.00  0.00    -0.260 N 
ATOM     36  H52 UNL     1      17.489 -32.284  -2.295  1.00  0.00     0.193 HD
ATOM     37  H51 UNL     1      16.294 -33.029  -1.519  1.00  0.00     0.193 HD
ENDBRANCH  34  35
ENDBRANCH  32  34
ENDBRANCH  29  30
ENDBRANCH  28  29
ENDBRANCH   1  28
BRANCH   3  38
HETATM   38  O2  UNL     1      20.419 -23.967   1.211  1.00  0.00    -0.395 OA
ATOM     39  H2  UNL     1      21.068 -24.620   1.449  1.00  0.00     0.210 HD
ENDBRANCH   3  38
BRANCH  10  40
HETATM   40  O3  UNL     1      20.324 -25.978   4.498  1.00  0.00    -0.371 OA
ATOM     41  H3  UNL     1      20.356 -26.197   5.421  1.00  0.00     0.211 HD
ENDBRANCH  10  40
BRANCH  10  42
HETATM   42  C22 UNL     1      18.145 -26.424   5.172  1.00  0.00     0.219 C 
HETATM   43  O4  UNL     1      16.894 -26.572   5.114  1.00  0.00    -0.645 OA
HETATM   44  O5  UNL     1      18.699 -26.571   6.435  1.00  0.00    -0.645 OA
ENDBRANCH  10  42
TORSDOF 12
ENDMDL
MODEL 2
REMARK VINA RESULT: -7.204950009      4.201      8.487
REMARK  12 active torsions:
REMARK  status: ('A' for Active; 'I' for Inactive)
REMARK    1  A    between atoms: C2_2  and  C3_3 
REMARK    2  A    between atoms: C4_4  and  C5_5 
REMARK    3  A    between atoms: N2_11  and  C9_12 
REMARK    4  A    between atoms: C9_12  and  C10_13 
REMARK    5  A    between atoms: C10_13  and  C11_14 
REMARK    6  A    between atoms: C11_14  and  C12_15 
REMARK    7  A    between atoms: C12_15  and  C13_16 
REMARK       I    between atoms: C13_16  and  N3_18 
REMARK    8  A    between atoms: N3_18  and  N4_20 
REMARK    9  A    between atoms: N4_20  and  N5_21 
REMARK   10  A    between atoms: C15_25  and  O2_26 
REMARK   11  A    between atoms: C21_34  and  O3_35 
REMARK   12  A    between atoms: C21_34  and  C22_37 
ROOT
HETATM    1  C10 UNL     1      24.288 -29.943  -1.451  1.00  0.00     0.004 C 
HETATM    2  C14 UNL     1      23.655 -30.447  -0.106  1.00  0.00     0.048 C 
HETATM    3  C15 UNL     1      24.601 -30.022   0.998  1.00  0.00     0.134 C 
HETATM    4  C16 UNL     1      25.907 -30.357   0.362  1.00  0.00     0.059 C 
HETATM    5  C17 UNL     1      26.160 -31.791   0.442  1.00  0.00     0.025 C 
HETATM    6  C18 UNL     1      25.652 -29.686  -0.944  1.00  0.00     0.059 C 
HETATM    7  C19 UNL     1      26.912 -29.752  -1.596  1.00  0.00     0.152 C 
HETATM    8  C20 UNL     1      27.169 -28.784  -2.731  1.00  0.00     0.056 C 
HETATM    9  F1  UNL     1      27.486 -30.945  -1.941  1.00  0.00    -0.239 F 
HETATM   10  C21 UNL     1      27.778 -29.142  -0.436  1.00  0.00     0.249 C 
HETATM   11  C23 UNL     1      27.090 -29.599   0.830  1.00  0.00     0.297 C 
HETATM   12  F2  UNL     1      26.773 -28.524   1.651  1.00  0.00    -0.201 F 
HETATM   13  F3  UNL     1      27.921 -30.482   1.538  1.00  0.00    -0.201 F 
ENDROOT
BRANCH   1  14
HETATM   14  C9  UNL     1      23.669 -28.634  -1.726  1.00  0.00     0.103 C 
BRANCH  14  15
HETATM   15  N2  UNL     1      22.438 -28.172  -1.231  1.00  0.00    -0.235 N 
HETATM   16  N1  UNL     1      22.293 -27.575  -0.046  1.00  0.00    -0.303 N 
HETATM   17  C8  UNL     1      21.143 -27.164   0.445  1.00  0.00     0.116 A 
ATOM     18  H1  UNL     1      23.130 -27.429   0.518  1.00  0.00     0.186 HD
HETATM   19  C4  UNL     1      19.935 -27.311  -0.236  1.00  0.00    -0.026 A 
HETATM   20  C3  UNL     1      20.037 -27.912  -1.453  1.00  0.00     0.019 A 
HETATM   21  C24 UNL     1      21.306 -28.329  -1.920  1.00  0.00     0.272 A 
HETATM   22  O6  UNL     1      21.276 -28.871  -3.078  1.00  0.00    -0.266 OA
BRANCH  19  23
HETATM   23  C5  UNL     1      18.654 -26.881   0.310  1.00  0.00     0.012 C 
HETATM   24  C6  UNL     1      18.324 -25.435  -0.082  1.00  0.00     0.015 C 
HETATM   25  C7  UNL     1      18.557 -27.035   1.814  1.00  0.00     0.015 C 
ENDBRANCH  19  23
BRANCH  20  26
HETATM   26  C2  UNL     1      18.878 -28.119  -2.306  1.00  0.00     0.040 C 
HETATM   27  C1  UNL     1      18.171 -29.451  -2.004  1.00  0.00     0.010 C 
ENDBRANCH  20  26
ENDBRANCH  14  15
ENDBRANCH   1  14
BRANCH   1  28
HETATM   28  C11 UNL     1      24.072 -31.015  -2.416  1.00  0.00     0.025 C 
BRANCH  28  29
HETATM   29  C12 UNL     1      23.296 -30.930  -3.643  1.00  0.00     0.106 C 
BRANCH  29  30
HETATM   30  C13 UNL     1      24.213 -31.354  -4.794  1.00  0.00     0.247 C 
HETATM   31  O1  UNL     1      23.752 -31.489  -5.948  1.00  0.00    -0.271 OA
HETATM   32  N3  UNL     1      25.591 -31.597  -4.577  1.00  0.00    -0.183 N 
ATOM     33  H3  UNL     1      25.895 -32.323  -3.928  1.00  0.00     0.207 HD
BRANCH  32  34
HETATM   34  N4  UNL     1      26.413 -30.916  -5.186  1.00  0.00    -0.241 NA
BRANCH  34  35
HETATM   35  N5  UNL     1      27.306 -30.216  -5.694  1.00  0.00    -0.260 N 
ATOM     36  H52 UNL     1      27.748 -31.128  -5.816  1.00  0.00     0.193 HD
ATOM     37  H51 UNL     1      27.980 -29.561  -6.090  1.00  0.00     0.193 HD
ENDBRANCH  34  35
ENDBRANCH  32  34
ENDBRANCH  29  30
ENDBRANCH  28  29
ENDBRANCH   1  28
BRANCH   3  38
HETATM   38  O2  UNL     1      24.422 -28.721   1.373  1.00  0.00    -0.395 OA
ATOM     39  H2  UNL     1      23.924 -28.637   2.178  1.00  0.00     0.210 HD
ENDBRANCH   3  38
BRANCH  10  40
HETATM   40  O3  UNL     1      27.661 -27.757  -0.480  1.00  0.00    -0.371 OA
ATOM     41  H3  UNL     1      27.596 -27.432   0.410  1.00  0.00     0.211 HD
ENDBRANCH  10  40
BRANCH  10  42
HETATM   42  C22 UNL     1      29.167 -29.525  -0.558  1.00  0.00     0.219 C 
HETATM   43  O4  UNL     1      29.609 -30.706  -0.559  1.00  0.00    -0.645 OA
HETATM   44  O5  UNL     1      30.130 -28.534  -0.688  1.00  0.00    -0.645 OA
ENDBRANCH  10  42
TORSDOF 12
ENDMDL
MODEL 3
REMARK VINA RESULT: -7.140476576      2.733      5.010
REMARK  12 active torsions:
REMARK  status: ('A' for Active; 'I' for Inactive)
REMARK    1  A    between atoms: C2_2  and  C3_3 
REMARK    2  A    between atoms: C4_4  and  C5_5 
REMARK    3  A    between atoms: N2_11  and  C9_12 
REMARK    4  A    between atoms: C9_12  and  C10_13 
REMARK    5  A    between atoms: C10_13  and  C11_14 
REMARK    6  A    between atoms: C11_14  and  C12_15 
REMARK    7  A    between atoms: C12_15  and  C13_16 
REMARK       I    between atoms: C13_16  and  N3_18 
REMARK    8  A    between atoms: N3_18  and  N4_20 
REMARK    9  A    between atoms: N4_20  and  N5_21 
REMARK   10  A    between atoms: C15_25  and  O2_26 
REMARK   11  A    between atoms: C21_34  and  O3_35 
REMARK   12  A    between atoms: C21_34  and  C22_37 
ROOT
HETATM    1  C10 UNL     1      20.178 -25.730   2.153  1.00  0.00     0.004 C 
HETATM    2  C14 UNL     1      19.402 -27.058   2.467  1.00  0.00     0.048 C 
HETATM    3  C15 UNL     1      18.123 -26.650   3.170  1.00  0.00     0.134 C 
HETATM    4  C16 UNL     1      18.656 -25.605   4.089  1.00  0.00     0.059 C 
HETATM    5  C17 UNL     1      19.311 -26.222   5.237  1.00  0.00     0.025 C 
HETATM    6  C18 UNL     1      19.433 -24.843   3.071  1.00  0.00     0.059 C 
HETATM    7  C19 UNL     1      19.844 -23.681   3.776  1.00  0.00     0.152 C 
HETATM    8  C20 UNL     1      20.251 -22.471   2.963  1.00  0.00     0.056 C 
HETATM    9  F1  UNL     1      20.684 -23.749   4.854  1.00  0.00    -0.239 F 
HETATM   10  C21 UNL     1      18.431 -23.258   4.319  1.00  0.00     0.249 C 
HETATM   11  C23 UNL     1      17.704 -24.564   4.539  1.00  0.00     0.297 C 
HETATM   12  F2  UNL     1      16.492 -24.590   3.861  1.00  0.00    -0.201 F 
HETATM   13  F3  UNL     1      17.462 -24.757   5.908  1.00  0.00    -0.201 F 
ENDROOT
BRANCH   1  14
HETATM   14  C9  UNL     1      19.803 -25.354   0.779  1.00  0.00     0.103 C 
BRANCH  14  15
HETATM   15  N2  UNL     1      19.358 -26.222  -0.232  1.00  0.00    -0.235 N 
HETATM   16  N1  UNL     1      18.073 -26.490  -0.468  1.00  0.00    -0.303 N 
HETATM   17  C8  UNL     1      17.642 -27.323  -1.391  1.00  0.00     0.116 A 
ATOM     18  H1  UNL     1      17.375 -26.016   0.107  1.00  0.00     0.186 HD
HETATM   19  C4  UNL     1      18.501 -28.025  -2.236  1.00  0.00    -0.026 A 
HETATM   20  C3  UNL     1      19.825 -27.780  -2.033  1.00  0.00     0.019 A 
HETATM   21  C24 UNL     1      20.218 -26.871  -1.022  1.00  0.00     0.272 A 
HETATM   22  O6  UNL     1      21.484 -26.716  -0.933  1.00  0.00    -0.266 OA
BRANCH  19  23
HETATM   23  C5  UNL     1      18.035 -28.968  -3.243  1.00  0.00     0.012 C 
HETATM   24  C6  UNL     1      16.936 -28.362  -4.126  1.00  0.00     0.015 C 
HETATM   25  C7  UNL     1      17.554 -30.282  -2.664  1.00  0.00     0.015 C 
ENDBRANCH  19  23
BRANCH  20  26
HETATM   26  C2  UNL     1      20.854 -28.408  -2.843  1.00  0.00     0.040 C 
HETATM   27  C1  UNL     1      21.339 -29.735  -2.233  1.00  0.00     0.010 C 
ENDBRANCH  20  26
ENDBRANCH  14  15
ENDBRANCH   1  14
BRANCH   1  28
HETATM   28  C11 UNL     1      21.582 -26.021   2.421  1.00  0.00     0.025 C 
BRANCH  28  29
HETATM   29  C12 UNL     1      22.135 -27.297   2.844  1.00  0.00     0.106 C 
BRANCH  29  30
HETATM   30  C13 UNL     1      23.359 -27.579   1.968  1.00  0.00     0.247 C 
HETATM   31  O1  UNL     1      24.498 -27.231   2.347  1.00  0.00    -0.271 OA
HETATM   32  N3  UNL     1      23.227 -28.236   0.720  1.00  0.00    -0.183 N 
ATOM     33  H3  UNL     1      22.657 -27.832  -0.023  1.00  0.00     0.207 HD
BRANCH  32  34
HETATM   34  N4  UNL     1      23.813 -29.304   0.551  1.00  0.00    -0.241 NA
BRANCH  34  35
HETATM   35  N5  UNL     1      24.498 -30.316   0.328  1.00  0.00    -0.260 N 
ATOM     36  H52 UNL     1      25.223 -29.614   0.181  1.00  0.00     0.193 HD
ATOM     37  H51 UNL     1      24.976 -31.202   0.164  1.00  0.00     0.193 HD
ENDBRANCH  34  35
ENDBRANCH  32  34
ENDBRANCH  29  30
ENDBRANCH  28  29
ENDBRANCH   1  28
BRANCH   3  38
HETATM   38  O2  UNL     1      17.146 -26.255   2.300  1.00  0.00    -0.395 OA
ATOM     39  H2  UNL     1      16.858 -26.959   1.729  1.00  0.00     0.210 HD
ENDBRANCH   3  38
BRANCH  10  40
HETATM   40  O3  UNL     1      17.754 -22.586   3.307  1.00  0.00    -0.371 OA
ATOM     41  H3  UNL     1      17.384 -23.228   2.713  1.00  0.00     0.211 HD
ENDBRANCH  10  40
BRANCH  10  42
HETATM   42  C22 UNL     1      18.547 -22.410   5.485  1.00  0.00     0.219 C 
HETATM   43  O4  UNL     1      19.154 -22.702   6.551  1.00  0.00    -0.645 OA
HETATM   44  O5  UNL     1      17.953 -21.157   5.468  1.00  0.00    -0.645 OA
ENDBRANCH  10  42
TORSDOF 12
ENDMDL
MODEL 4
REMARK VINA RESULT: -7.118220733      3.971      6.264
REMARK  12 active torsions:
REMARK  status: ('A' for Active; 'I' for Inactive)
REMARK    1  A    between atoms: C2_2  and  C3_3 
REMARK    2  A    between atoms: C4_4  and  C5_5 
REMARK    3  A    between atoms: N2_11  and  C9_12 
REMARK    4  A    between atoms: C9_12  and  C10_13 
REMARK    5  A    between atoms: C10_13  and  C11_14 
REMARK    6  A    between atoms: C11_14  and  C12_15 
REMARK    7  A    between atoms: C12_15  and  C13_16 
REMARK       I    between atoms: C13_16  and  N3_18 
REMARK    8  A    between atoms: N3_18  and  N4_20 
REMARK    9  A    between atoms: N4_20  and  N5_21 
REMARK   10  A    between atoms: C15_25  and  O2_26 
REMARK   11  A    between atoms: C21_34  and  O3_35 
REMARK   12  A    between atoms: C21_34  and  C22_37 
ROOT
HETATM    1  C10 UNL     1      18.683 -25.873   1.690  1.00  0.00     0.004 C 
HETATM    2  C14 UNL     1      17.162 -25.789   2.070  1.00  0.00     0.048 C 
HETATM    3  C15 UNL     1      16.879 -24.334   2.386  1.00  0.00     0.134 C 
HETATM    4  C16 UNL     1      18.093 -24.004   3.186  1.00  0.00     0.059 C 
HETATM    5  C17 UNL     1      17.963 -24.518   4.545  1.00  0.00     0.025 C 
HETATM    6  C18 UNL     1      19.097 -24.565   2.238  1.00  0.00     0.059 C 
HETATM    7  C19 UNL     1      20.336 -24.137   2.784  1.00  0.00     0.152 C 
HETATM    8  C20 UNL     1      21.540 -24.116   1.867  1.00  0.00     0.056 C 
HETATM    9  F1  UNL     1      20.768 -24.557   4.012  1.00  0.00    -0.239 F 
HETATM   10  C21 UNL     1      19.989 -22.610   2.914  1.00  0.00     0.249 C 
HETATM   11  C23 UNL     1      18.508 -22.582   3.212  1.00  0.00     0.297 C 
HETATM   12  F2  UNL     1      17.823 -21.787   2.302  1.00  0.00    -0.201 F 
HETATM   13  F3  UNL     1      18.285 -22.087   4.506  1.00  0.00    -0.201 F 
ENDROOT
BRANCH   1  14
HETATM   14  C9  UNL     1      18.741 -25.772   0.221  1.00  0.00     0.103 C 
BRANCH  14  15
HETATM   15  N2  UNL     1      18.002 -26.535  -0.698  1.00  0.00    -0.235 N 
HETATM   16  N1  UNL     1      18.292 -27.797  -1.018  1.00  0.00    -0.303 N 
HETATM   17  C8  UNL     1      17.627 -28.515  -1.899  1.00  0.00     0.116 A 
ATOM     18  H1  UNL     1      19.084 -28.236  -0.548  1.00  0.00     0.186 HD
HETATM   19  C4  UNL     1      16.529 -28.020  -2.602  1.00  0.00    -0.026 A 
HETATM   20  C3  UNL     1      16.194 -26.734  -2.304  1.00  0.00     0.019 A 
HETATM   21  C24 UNL     1      16.953 -26.021  -1.346  1.00  0.00     0.272 A 
HETATM   22  O6  UNL     1      16.537 -24.828  -1.144  1.00  0.00    -0.266 OA
BRANCH  19  23
HETATM   23  C5  UNL     1      15.803 -28.798  -3.597  1.00  0.00     0.012 C 
HETATM   24  C6  UNL     1      15.475 -30.208  -3.089  1.00  0.00     0.015 C 
HETATM   25  C7  UNL     1      16.517 -28.891  -4.929  1.00  0.00     0.015 C 
ENDBRANCH  19  23
BRANCH  20  26
HETATM   26  C2  UNL     1      15.060 -26.074  -2.927  1.00  0.00     0.040 C 
HETATM   27  C1  UNL     1      13.783 -26.199  -2.078  1.00  0.00     0.010 C 
ENDBRANCH  20  26
ENDBRANCH  14  15
ENDBRANCH   1  14
BRANCH   1  28
HETATM   28  C11 UNL     1      19.177 -27.098   2.309  1.00  0.00     0.025 C 
BRANCH  28  29
HETATM   29  C12 UNL     1      18.474 -27.922   3.278  1.00  0.00     0.106 C 
BRANCH  29  30
HETATM   30  C13 UNL     1      19.281 -27.888   4.579  1.00  0.00     0.247 C 
HETATM   31  O1  UNL     1      18.704 -27.712   5.673  1.00  0.00    -0.271 OA
HETATM   32  N3  UNL     1      20.687 -28.055   4.569  1.00  0.00    -0.183 N 
ATOM     33  H3  UNL     1      21.285 -27.405   4.057  1.00  0.00     0.207 HD
BRANCH  32  34
HETATM   34  N4  UNL     1      21.173 -29.000   5.188  1.00  0.00    -0.241 NA
BRANCH  34  35
HETATM   35  N5  UNL     1      21.582 -30.027   5.755  1.00  0.00    -0.260 N 
ATOM     36  H52 UNL     1      21.047 -30.475   5.010  1.00  0.00     0.193 HD
ATOM     37  H51 UNL     1      21.965 -30.809   6.287  1.00  0.00     0.193 HD
ENDBRANCH  34  35
ENDBRANCH  32  34
ENDBRANCH  29  30
ENDBRANCH  28  29
ENDBRANCH   1  28
BRANCH   3  38
HETATM   38  O2  UNL     1      16.666 -23.583   1.264  1.00  0.00    -0.395 OA
ATOM     39  H2  UNL     1      16.158 -22.800   1.440  1.00  0.00     0.210 HD
ENDBRANCH   3  38
BRANCH  10  40
HETATM   40  O3  UNL     1      20.161 -22.012   1.670  1.00  0.00    -0.371 OA
ATOM     41  H3  UNL     1      19.671 -21.199   1.657  1.00  0.00     0.211 HD
ENDBRANCH  10  40
BRANCH  10  42
HETATM   42  C22 UNL     1      20.830 -21.961   3.896  1.00  0.00     0.219 C 
HETATM   43  O4  UNL     1      20.880 -22.241   5.125  1.00  0.00    -0.645 OA
HETATM   44  O5  UNL     1      21.671 -20.936   3.490  1.00  0.00    -0.645 OA
ENDBRANCH  10  42
TORSDOF 12
ENDMDL
MODEL 5
REMARK VINA RESULT: -7.099443136      3.660      6.287
REMARK  12 active torsions:
REMARK  status: ('A' for Active; 'I' for Inactive)
REMARK    1  A    between atoms: C2_2  and  C3_3 
REMARK    2  A    between atoms: C4_4  and  C5_5 
REMARK    3  A    between atoms: N2_11  and  C9_12 
REMARK    4  A    between atoms: C9_12  and  C10_13 
REMARK    5  A    between atoms: C10_13  and  C11_14 
REMARK    6  A    between atoms: C11_14  and  C12_15 
REMARK    7  A    between atoms: C12_15  and  C13_16 
REMARK       I    between atoms: C13_16  and  N3_18 
REMARK    8  A    between atoms: N3_18  and  N4_20 
REMARK    9  A    between atoms: N4_20  and  N5_21 
REMARK   10  A    between atoms: C15_25  and  O2_26 
REMARK   11  A    between atoms: C21_34  and  O3_35 
REMARK   12  A    between atoms: C21_34  and  C22_37 
ROOT
HETATM    1  C10 UNL     1      18.599 -25.236   1.895  1.00  0.00     0.004 C 
HETATM    2  C14 UNL     1      18.033 -23.794   2.147  1.00  0.00     0.048 C 
HETATM    3  C15 UNL     1      19.219 -22.925   2.511  1.00  0.00     0.134 C 
HETATM    4  C16 UNL     1      19.944 -23.851   3.429  1.00  0.00     0.059 C 
HETATM    5  C17 UNL     1      19.312 -23.863   4.743  1.00  0.00     0.025 C 
HETATM    6  C18 UNL     1      19.914 -25.049   2.543  1.00  0.00     0.059 C 
HETATM    7  C19 UNL     1      20.758 -25.972   3.215  1.00  0.00     0.152 C 
HETATM    8  C20 UNL     1      21.336 -27.114   2.407  1.00  0.00     0.056 C 
HETATM    9  F1  UNL     1      20.449 -26.465   4.453  1.00  0.00    -0.239 F 
HETATM   10  C21 UNL     1      21.999 -25.027   3.393  1.00  0.00     0.249 C 
HETATM   11  C23 UNL     1      21.405 -23.648   3.562  1.00  0.00     0.297 C 
HETATM   12  F2  UNL     1      21.928 -22.752   2.638  1.00  0.00    -0.201 F 
HETATM   13  F3  UNL     1      21.661 -23.168   4.856  1.00  0.00    -0.201 F 
ENDROOT
BRANCH   1  14
HETATM   14  C9  UNL     1      18.835 -25.333   0.444  1.00  0.00     0.103 C 
BRANCH  14  15
HETATM   15  N2  UNL     1      18.136 -26.148  -0.463  1.00  0.00    -0.235 N 
HETATM   16  N1  UNL     1      18.509 -27.388  -0.785  1.00  0.00    -0.303 N 
HETATM   17  C8  UNL     1      17.883 -28.153  -1.654  1.00  0.00     0.116 A 
ATOM     18  H1  UNL     1      19.336 -27.770  -0.325  1.00  0.00     0.186 HD
HETATM   19  C4  UNL     1      16.743 -27.738  -2.341  1.00  0.00    -0.026 A 
HETATM   20  C3  UNL     1      16.324 -26.478  -2.042  1.00  0.00     0.019 A 
HETATM   21  C24 UNL     1      17.045 -25.711  -1.096  1.00  0.00     0.272 A 
HETATM   22  O6  UNL     1      16.550 -24.549  -0.891  1.00  0.00    -0.266 OA
BRANCH  19  23
HETATM   23  C5  UNL     1      16.058 -28.568  -3.324  1.00  0.00     0.012 C 
HETATM   24  C6  UNL     1      15.902 -30.014  -2.838  1.00  0.00     0.015 C 
HETATM   25  C7  UNL     1      16.717 -28.557  -4.687  1.00  0.00     0.015 C 
ENDBRANCH  19  23
BRANCH  20  26
HETATM   26  C2  UNL     1      15.137 -25.899  -2.648  1.00  0.00     0.040 C 
HETATM   27  C1  UNL     1      13.894 -26.067  -1.757  1.00  0.00     0.010 C 
ENDBRANCH  20  26
ENDBRANCH  14  15
ENDBRANCH   1  14
BRANCH   1  28
HETATM   28  C11 UNL     1      17.631 -26.150   2.490  1.00  0.00     0.025 C 
BRANCH  28  29
HETATM   29  C12 UNL     1      16.569 -25.800   3.419  1.00  0.00     0.106 C 
BRANCH  29  30
HETATM   30  C13 UNL     1      16.723 -26.698   4.650  1.00  0.00     0.247 C 
HETATM   31  O1  UNL     1      17.706 -27.462   4.752  1.00  0.00    -0.271 OA
HETATM   32  N3  UNL     1      15.762 -26.680   5.690  1.00  0.00    -0.183 N 
ATOM     33  H3  UNL     1      14.789 -26.924   5.504  1.00  0.00     0.207 HD
BRANCH  32  34
HETATM   34  N4  UNL     1      16.124 -26.366   6.823  1.00  0.00    -0.241 NA
BRANCH  34  35
HETATM   35  N5  UNL     1      16.394 -25.969   7.969  1.00  0.00    -0.260 N 
ATOM     36  H52 UNL     1      16.582 -25.101   7.466  1.00  0.00     0.193 HD
ATOM     37  H51 UNL     1      16.592 -25.737   8.942  1.00  0.00     0.193 HD
ENDBRANCH  34  35
ENDBRANCH  32  34
ENDBRANCH  29  30
ENDBRANCH  28  29
ENDBRANCH   1  28
BRANCH   3  38
HETATM   38  O2  UNL     1      19.909 -22.490   1.415  1.00  0.00    -0.395 OA
ATOM     39  H2  UNL     1      19.346 -22.089   0.764  1.00  0.00     0.210 HD
ENDBRANCH   3  38
BRANCH  10  40
HETATM   40  O3  UNL     1      22.716 -25.011   2.200  1.00  0.00    -0.371 OA
ATOM     41  H3  UNL     1      23.626 -24.825   2.399  1.00  0.00     0.211 HD
ENDBRANCH  10  40
BRANCH  10  42
HETATM   42  C22 UNL     1      22.850 -25.472   4.475  1.00  0.00     0.219 C 
HETATM   43  O4  UNL     1      22.519 -25.545   5.690  1.00  0.00    -0.645 OA
HETATM   44  O5  UNL     1      24.151 -25.861   4.193  1.00  0.00    -0.645 OA
ENDBRANCH  10  42
TORSDOF 12
ENDMDL
