MODEL 1
REMARK VINA RESULT: -4.312818132      0.000      0.000
REMARK  4 active torsions:
REMARK  status: ('A' for Active; 'I' for Inactive)
REMARK    1  A    between atoms: N1_1  and  C1_5 
REMARK    2  A    between atoms: C1_5  and  C2_6 
REMARK    3  A    between atoms: C2_6  and  C3_8 
REMARK    4  A    between atoms: C3_8  and  C4_9 
ROOT
HETATM    1  C2  UNL     1      28.698   0.633  45.756  1.00  0.00     0.152 C 
HETATM    2  O1  UNL     1      29.774   0.157  46.048  1.00  0.00    -0.296 OA
ENDROOT
BRANCH   1   3
HETATM    3  C1  UNL     1      27.667   0.605  46.849  1.00  0.00     0.307 C 
BRANCH   3   4
HETATM    4  N1  UNL     1      27.584   1.863  47.505  1.00  0.00    -0.073 N 
ATOM      5  H13 UNL     1      27.787   1.782  48.501  1.00  0.00     0.274 HD
ATOM      6  H12 UNL     1      28.354   2.477  47.238  1.00  0.00     0.274 HD
ATOM      7  H11 UNL     1      26.678   2.303  47.341  1.00  0.00     0.274 HD
ENDBRANCH   3   4
ENDBRANCH   1   3
BRANCH   1   8
HETATM    8  C3  UNL     1      28.342   1.212  44.453  1.00  0.00     0.086 C 
BRANCH   8   9
HETATM    9  C4  UNL     1      27.255   0.480  43.771  1.00  0.00     0.013 C 
HETATM   10  C5  UNL     1      26.934   1.154  42.442  1.00  0.00     0.091 C 
HETATM   11  S1  UNL     1      28.417   0.896  41.386  1.00  0.00    -0.097 SA
HETATM   12  S2  UNL     1      28.980  -0.970  42.337  1.00  0.00    -0.097 SA
HETATM   13  C6  UNL     1      27.527  -0.961  43.468  1.00  0.00     0.091 C 
ENDBRANCH   8   9
ENDBRANCH   1   8
TORSDOF 4
ENDMDL
MODEL 2
REMARK VINA RESULT: -4.259946352      9.611     10.613
REMARK  4 active torsions:
REMARK  status: ('A' for Active; 'I' for Inactive)
REMARK    1  A    between atoms: N1_1  and  C1_5 
REMARK    2  A    between atoms: C1_5  and  C2_6 
REMARK    3  A    between atoms: C2_6  and  C3_8 
REMARK    4  A    between atoms: C3_8  and  C4_9 
ROOT
HETATM    1  C2  UNL     1      30.961   6.543  38.276  1.00  0.00     0.152 C 
HETATM    2  O1  UNL     1      31.258   5.829  37.342  1.00  0.00    -0.296 OA
ENDROOT
BRANCH   1   3
HETATM    3  C1  UNL     1      30.026   5.928  39.279  1.00  0.00     0.307 C 
BRANCH   3   4
HETATM    4  N1  UNL     1      28.901   5.342  38.638  1.00  0.00    -0.073 N 
ATOM      5  H13 UNL     1      28.335   6.043  38.159  1.00  0.00     0.274 HD
ATOM      6  H12 UNL     1      29.178   4.786  37.829  1.00  0.00     0.274 HD
ATOM      7  H11 UNL     1      28.346   4.797  39.297  1.00  0.00     0.274 HD
ENDBRANCH   3   4
ENDBRANCH   1   3
BRANCH   1   8
HETATM    8  C3  UNL     1      31.433   7.918  38.489  1.00  0.00     0.086 C 
BRANCH   8   9
HETATM    9  C4  UNL     1      30.358   8.924  38.371  1.00  0.00     0.013 C 
HETATM   10  C5  UNL     1      30.938  10.323  38.551  1.00  0.00     0.091 C 
HETATM   11  S1  UNL     1      32.014  10.603  37.086  1.00  0.00    -0.097 SA
HETATM   12  S2  UNL     1      30.857   9.318  35.777  1.00  0.00    -0.097 SA
HETATM   13  C6  UNL     1      29.609   8.932  37.074  1.00  0.00     0.091 C 
ENDBRANCH   8   9
ENDBRANCH   1   8
TORSDOF 4
ENDMDL
MODEL 3
REMARK VINA RESULT: -4.220029637     11.650     12.453
REMARK  4 active torsions:
REMARK  status: ('A' for Active; 'I' for Inactive)
REMARK    1  A    between atoms: N1_1  and  C1_5 
REMARK    2  A    between atoms: C1_5  and  C2_6 
REMARK    3  A    between atoms: C2_6  and  C3_8 
REMARK    4  A    between atoms: C3_8  and  C4_9 
ROOT
HETATM    1  C2  UNL     1      33.338  10.830  38.475  1.00  0.00     0.152 C 
HETATM    2  O1  UNL     1      34.144  10.032  38.902  1.00  0.00    -0.296 OA
ENDROOT
BRANCH   1   3
HETATM    3  C1  UNL     1      33.320  12.160  39.176  1.00  0.00     0.307 C 
BRANCH   3   4
HETATM    4  N1  UNL     1      34.135  12.135  40.339  1.00  0.00    -0.073 N 
ATOM      5  H13 UNL     1      33.707  11.589  41.087  1.00  0.00     0.274 HD
ATOM      6  H12 UNL     1      34.975  11.574  40.198  1.00  0.00     0.274 HD
ATOM      7  H11 UNL     1      34.362  13.080  40.648  1.00  0.00     0.274 HD
ENDBRANCH   3   4
ENDBRANCH   1   3
BRANCH   1   8
HETATM    8  C3  UNL     1      32.409  10.598  37.361  1.00  0.00     0.086 C 
BRANCH   8   9
HETATM    9  C4  UNL     1      30.998  10.510  37.792  1.00  0.00     0.013 C 
HETATM   10  C5  UNL     1      30.086  10.491  36.570  1.00  0.00     0.091 C 
HETATM   11  S1  UNL     1      30.425   8.894  35.725  1.00  0.00    -0.097 SA
HETATM   12  S2  UNL     1      30.971   7.850  37.547  1.00  0.00    -0.097 SA
HETATM   13  C6  UNL     1      30.639   9.313  38.615  1.00  0.00     0.091 C 
ENDBRANCH   8   9
ENDBRANCH   1   8
TORSDOF 4
ENDMDL
MODEL 4
REMARK VINA RESULT: -4.194505808      1.332      1.646
REMARK  4 active torsions:
REMARK  status: ('A' for Active; 'I' for Inactive)
REMARK    1  A    between atoms: N1_1  and  C1_5 
REMARK    2  A    between atoms: C1_5  and  C2_6 
REMARK    3  A    between atoms: C2_6  and  C3_8 
REMARK    4  A    between atoms: C3_8  and  C4_9 
ROOT
HETATM    1  C2  UNL     1      28.650   0.725  45.662  1.00  0.00     0.152 C 
HETATM    2  O1  UNL     1      29.666   0.207  46.072  1.00  0.00    -0.296 OA
ENDROOT
BRANCH   1   3
HETATM    3  C1  UNL     1      27.508   0.757  46.640  1.00  0.00     0.307 C 
BRANCH   3   4
HETATM    4  N1  UNL     1      27.609   1.877  47.507  1.00  0.00    -0.073 N 
ATOM      5  H13 UNL     1      28.026   1.623  48.403  1.00  0.00     0.274 HD
ATOM      6  H12 UNL     1      28.318   2.538  47.187  1.00  0.00     0.274 HD
ATOM      7  H11 UNL     1      26.703   2.329  47.630  1.00  0.00     0.274 HD
ENDBRANCH   3   4
ENDBRANCH   1   3
BRANCH   1   8
HETATM    8  C3  UNL     1      28.461   1.304  44.325  1.00  0.00     0.086 C 
BRANCH   8   9
HETATM    9  C4  UNL     1      28.600   0.312  43.240  1.00  0.00     0.013 C 
HETATM   10  C5  UNL     1      27.229  -0.015  42.660  1.00  0.00     0.091 C 
HETATM   11  S1  UNL     1      26.664   1.524  41.828  1.00  0.00    -0.097 SA
HETATM   12  S2  UNL     1      28.669   2.209  41.361  1.00  0.00    -0.097 SA
HETATM   13  C6  UNL     1      29.468   0.718  42.089  1.00  0.00     0.091 C 
ENDBRANCH   8   9
ENDBRANCH   1   8
TORSDOF 4
ENDMDL
MODEL 5
REMARK VINA RESULT: -4.183655492      3.829      4.580
REMARK  4 active torsions:
REMARK  status: ('A' for Active; 'I' for Inactive)
REMARK    1  A    between atoms: N1_1  and  C1_5 
REMARK    2  A    between atoms: C1_5  and  C2_6 
REMARK    3  A    between atoms: C2_6  and  C3_8 
REMARK    4  A    between atoms: C3_8  and  C4_9 
ROOT
HETATM    1  C2  UNL     1      27.026   0.358  41.542  1.00  0.00     0.152 C 
HETATM    2  O1  UNL     1      26.109  -0.265  41.050  1.00  0.00    -0.296 OA
ENDROOT
BRANCH   1   3
HETATM    3  C1  UNL     1      28.236   0.514  40.665  1.00  0.00     0.307 C 
BRANCH   3   4
HETATM    4  N1  UNL     1      28.731  -0.750  40.246  1.00  0.00    -0.073 N 
ATOM      5  H13 UNL     1      29.373  -0.661  39.459  1.00  0.00     0.274 HD
ATOM      6  H12 UNL     1      29.376  -1.146  40.930  1.00  0.00     0.274 HD
ATOM      7  H11 UNL     1      27.966  -1.392  40.035  1.00  0.00     0.274 HD
ENDBRANCH   3   4
ENDBRANCH   1   3
BRANCH   1   8
HETATM    8  C3  UNL     1      27.038   0.948  42.888  1.00  0.00     0.086 C 
BRANCH   8   9
HETATM    9  C4  UNL     1      28.301   0.707  43.614  1.00  0.00     0.013 C 
HETATM   10  C5  UNL     1      28.468   1.747  44.717  1.00  0.00     0.091 C 
HETATM   11  S1  UNL     1      27.142   1.388  45.939  1.00  0.00    -0.097 SA
HETATM   12  S2  UNL     1      27.075  -0.735  45.498  1.00  0.00    -0.097 SA
HETATM   13  C6  UNL     1      28.437  -0.635  44.264  1.00  0.00     0.091 C 
ENDBRANCH   8   9
ENDBRANCH   1   8
TORSDOF 4
ENDMDL
