MODEL 1
REMARK VINA RESULT: -9.274594728      0.000      0.000
REMARK  6 active torsions:
REMARK  status: ('A' for Active; 'I' for Inactive)
REMARK    1  A    between atoms: S1_2  and  N1_4 
REMARK    2  A    between atoms: S1_2  and  C16_27 
REMARK    3  A    between atoms: N1_4  and  C1_6 
REMARK    4  A    between atoms: C2_9  and  N3_10 
REMARK    5  A    between atoms: N3_10  and  C3_12 
REMARK    6  A    between atoms: C3_12  and  C4_13 
ROOT
HETATM    1  C1  UNL     1       7.771  37.165  74.997  1.00  0.00     0.143 A 
HETATM    2  N2  UNL     1       6.564  37.682  75.254  1.00  0.00    -0.175 N 
ATOM      3  H2  UNL     1       5.989  37.269  75.989  1.00  0.00     0.186 HD
HETATM    4  C2  UNL     1       6.086  38.754  74.549  1.00  0.00     0.680 A 
HETATM    5  N4  UNL     1       6.818  39.321  73.576  1.00  0.00    -0.191 N 
ATOM      6  H4  UNL     1       6.446  40.119  73.062  1.00  0.00     0.184 HD
HETATM    7  C10 UNL     1       8.024  38.846  73.280  1.00  0.00     0.063 A 
HETATM    8  C11 UNL     1       8.800  39.387  72.304  1.00  0.00     0.031 A 
HETATM    9  C12 UNL     1      10.045  38.880  72.014  1.00  0.00     0.002 A 
HETATM   10  C13 UNL     1      10.536  37.801  72.719  1.00  0.00     0.001 A 
HETATM   11  C14 UNL     1       9.772  37.235  73.709  1.00  0.00     0.017 A 
HETATM   12  C15 UNL     1       8.518  37.751  73.997  1.00  0.00     0.036 A 
ENDROOT
BRANCH   1  13
HETATM   13  N1  UNL     1       8.263  36.172  75.619  1.00  0.00    -0.265 N 
ATOM     14  H1  UNL     1       9.157  36.341  76.079  1.00  0.00     0.180 HD
BRANCH  13  15
HETATM   15  S1  UNL     1       7.637  34.606  75.789  1.00  0.00     0.264 S 
HETATM   16  O1  UNL     1       6.325  34.530  76.495  1.00  0.00    -0.200 OA
HETATM   17  O2  UNL     1       8.613  33.744  76.581  1.00  0.00    -0.200 OA
BRANCH  15  18
HETATM   18  C16 UNL     1       7.563  33.869  74.185  1.00  0.00     0.079 A 
HETATM   19  C17 UNL     1       6.342  33.807  73.517  1.00  0.00     0.025 A 
HETATM   20  C18 UNL     1       6.202  33.251  72.268  1.00  0.00     0.002 A 
HETATM   21  C19 UNL     1       7.315  32.732  71.646  1.00  0.00     0.000 A 
HETATM   22  C20 UNL     1       8.526  32.797  72.315  1.00  0.00     0.002 A 
HETATM   23  C21 UNL     1       8.679  33.351  73.566  1.00  0.00     0.025 A 
ENDBRANCH  15  18
ENDBRANCH  13  15
ENDBRANCH   1  13
BRANCH   4  24
HETATM   24  N3  UNL     1       4.919  39.219  74.830  1.00  0.00    -0.222 N 
ATOM     25  H3  UNL     1       4.323  39.587  74.089  1.00  0.00     0.178 HD
BRANCH  24  26
HETATM   26  C3  UNL     1       4.458  39.216  76.194  1.00  0.00     0.176 C 
BRANCH  26  27
HETATM   27  C4  UNL     1       3.764  40.482  76.551  1.00  0.00    -0.040 A 
HETATM   28  C5  UNL     1       4.475  41.657  76.428  1.00  0.00     0.009 A 
HETATM   29  C6  UNL     1       3.909  42.871  76.737  1.00  0.00     0.001 A 
HETATM   30  C7  UNL     1       2.602  42.929  77.181  1.00  0.00     0.000 A 
HETATM   31  C8  UNL     1       1.910  41.749  77.297  1.00  0.00     0.001 A 
HETATM   32  C9  UNL     1       2.473  40.523  76.987  1.00  0.00     0.009 A 
ENDBRANCH  26  27
ENDBRANCH  24  26
ENDBRANCH   4  24
TORSDOF 6
ENDMDL
MODEL 2
REMARK VINA RESULT: -9.024152753      3.151      4.742
REMARK  6 active torsions:
REMARK  status: ('A' for Active; 'I' for Inactive)
REMARK    1  A    between atoms: S1_2  and  N1_4 
REMARK    2  A    between atoms: S1_2  and  C16_27 
REMARK    3  A    between atoms: N1_4  and  C1_6 
REMARK    4  A    between atoms: C2_9  and  N3_10 
REMARK    5  A    between atoms: N3_10  and  C3_12 
REMARK    6  A    between atoms: C3_12  and  C4_13 
ROOT
HETATM    1  C1  UNL     1       7.527  37.903  76.146  1.00  0.00     0.143 A 
HETATM    2  N2  UNL     1       6.330  38.499  76.111  1.00  0.00    -0.175 N 
ATOM      3  H2  UNL     1       5.763  38.533  76.959  1.00  0.00     0.186 HD
HETATM    4  C2  UNL     1       5.850  39.065  74.960  1.00  0.00     0.680 A 
HETATM    5  N4  UNL     1       6.572  39.037  73.827  1.00  0.00    -0.191 N 
ATOM      6  H4  UNL     1       6.199  39.464  72.979  1.00  0.00     0.184 HD
HETATM    7  C10 UNL     1       7.768  38.457  73.806  1.00  0.00     0.063 A 
HETATM    8  C11 UNL     1       8.533  38.406  72.684  1.00  0.00     0.031 A 
HETATM    9  C12 UNL     1       9.768  37.801  72.685  1.00  0.00     0.002 A 
HETATM   10  C13 UNL     1      10.259  37.229  73.840  1.00  0.00     0.001 A 
HETATM   11  C14 UNL     1       9.506  37.267  74.987  1.00  0.00     0.017 A 
HETATM   12  C15 UNL     1       8.263  37.878  74.980  1.00  0.00     0.036 A 
ENDROOT
BRANCH   1  13
HETATM   13  N1  UNL     1       8.019  37.363  77.185  1.00  0.00    -0.265 N 
ATOM     14  H1  UNL     1       9.013  37.529  77.338  1.00  0.00     0.180 HD
BRANCH  13  15
HETATM   15  S1  UNL     1       7.250  36.405  78.352  1.00  0.00     0.264 S 
HETATM   16  O1  UNL     1       7.427  34.934  78.171  1.00  0.00    -0.200 OA
HETATM   17  O2  UNL     1       5.749  36.671  78.333  1.00  0.00    -0.200 OA
BRANCH  15  18
HETATM   18  C16 UNL     1       7.795  36.940  79.945  1.00  0.00     0.079 A 
HETATM   19  C17 UNL     1       8.944  37.721  80.048  1.00  0.00     0.025 A 
HETATM   20  C18 UNL     1       9.432  38.177  81.249  1.00  0.00     0.002 A 
HETATM   21  C19 UNL     1       8.758  37.850  82.404  1.00  0.00     0.000 A 
HETATM   22  C20 UNL     1       7.617  37.073  82.295  1.00  0.00     0.002 A 
HETATM   23  C21 UNL     1       7.119  36.610  81.099  1.00  0.00     0.025 A 
ENDBRANCH  15  18
ENDBRANCH  13  15
ENDBRANCH   1  13
BRANCH   4  24
HETATM   24  N3  UNL     1       4.693  39.627  74.972  1.00  0.00    -0.222 N 
ATOM     25  H3  UNL     1       4.364  40.138  74.154  1.00  0.00     0.178 HD
BRANCH  24  26
HETATM   26  C3  UNL     1       3.865  39.532  76.146  1.00  0.00     0.176 C 
BRANCH  26  27
HETATM   27  C4  UNL     1       3.395  40.865  76.607  1.00  0.00    -0.040 A 
HETATM   28  C5  UNL     1       2.145  40.936  77.187  1.00  0.00     0.009 A 
HETATM   29  C6  UNL     1       1.634  42.130  77.640  1.00  0.00     0.001 A 
HETATM   30  C7  UNL     1       2.377  43.288  77.519  1.00  0.00     0.000 A 
HETATM   31  C8  UNL     1       3.618  43.197  76.939  1.00  0.00     0.001 A 
HETATM   32  C9  UNL     1       4.140  42.000  76.480  1.00  0.00     0.009 A 
ENDBRANCH  26  27
ENDBRANCH  24  26
ENDBRANCH   4  24
TORSDOF 6
ENDMDL
MODEL 3
REMARK VINA RESULT: -9.010962778      3.150      4.603
REMARK  6 active torsions:
REMARK  status: ('A' for Active; 'I' for Inactive)
REMARK    1  A    between atoms: S1_2  and  N1_4 
REMARK    2  A    between atoms: S1_2  and  C16_27 
REMARK    3  A    between atoms: N1_4  and  C1_6 
REMARK    4  A    between atoms: C2_9  and  N3_10 
REMARK    5  A    between atoms: N3_10  and  C3_12 
REMARK    6  A    between atoms: C3_12  and  C4_13 
ROOT
HETATM    1  C1  UNL     1       7.561  37.919  76.109  1.00  0.00     0.143 A 
HETATM    2  N2  UNL     1       6.359  38.508  76.100  1.00  0.00    -0.175 N 
ATOM      3  H2  UNL     1       5.810  38.538  76.960  1.00  0.00     0.186 HD
HETATM    4  C2  UNL     1       5.853  39.071  74.959  1.00  0.00     0.680 A 
HETATM    5  N4  UNL     1       6.550  39.049  73.812  1.00  0.00    -0.191 N 
ATOM      6  H4  UNL     1       6.158  39.474  72.972  1.00  0.00     0.184 HD
HETATM    7  C10 UNL     1       7.750  38.477  73.766  1.00  0.00     0.063 A 
HETATM    8  C11 UNL     1       8.492  38.431  72.628  1.00  0.00     0.031 A 
HETATM    9  C12 UNL     1       9.730  37.834  72.603  1.00  0.00     0.002 A 
HETATM   10  C13 UNL     1      10.249  37.264  73.747  1.00  0.00     0.001 A 
HETATM   11  C14 UNL     1       9.520  37.297  74.909  1.00  0.00     0.017 A 
HETATM   12  C15 UNL     1       8.273  37.900  74.928  1.00  0.00     0.036 A 
ENDROOT
BRANCH   1  13
HETATM   13  N1  UNL     1       8.077  37.382  77.138  1.00  0.00    -0.265 N 
ATOM     14  H1  UNL     1       9.079  37.536  77.259  1.00  0.00     0.180 HD
BRANCH  13  15
HETATM   15  S1  UNL     1       7.333  36.444  78.337  1.00  0.00     0.264 S 
HETATM   16  O1  UNL     1       7.506  34.971  78.177  1.00  0.00    -0.200 OA
HETATM   17  O2  UNL     1       5.832  36.712  78.344  1.00  0.00    -0.200 OA
BRANCH  15  18
HETATM   18  C16 UNL     1       7.912  37.006  79.909  1.00  0.00     0.079 A 
HETATM   19  C17 UNL     1       7.171  36.718  81.053  1.00  0.00     0.025 A 
HETATM   20  C18 UNL     1       7.554  37.118  82.311  1.00  0.00     0.002 A 
HETATM   21  C19 UNL     1       8.721  37.835  82.450  1.00  0.00     0.000 A 
HETATM   22  C20 UNL     1       9.454  38.117  81.309  1.00  0.00     0.002 A 
HETATM   23  C21 UNL     1       9.080  37.722  80.045  1.00  0.00     0.025 A 
ENDBRANCH  15  18
ENDBRANCH  13  15
ENDBRANCH   1  13
BRANCH   4  24
HETATM   24  N3  UNL     1       4.693  39.626  74.996  1.00  0.00    -0.222 N 
ATOM     25  H3  UNL     1       4.359  40.167  74.200  1.00  0.00     0.178 HD
BRANCH  24  26
HETATM   26  C3  UNL     1       3.867  39.480  76.167  1.00  0.00     0.176 C 
BRANCH  26  27
HETATM   27  C4  UNL     1       3.327  40.784  76.635  1.00  0.00    -0.040 A 
HETATM   28  C5  UNL     1       4.127  41.898  76.487  1.00  0.00     0.009 A 
HETATM   29  C6  UNL     1       3.704  43.141  76.893  1.00  0.00     0.001 A 
HETATM   30  C7  UNL     1       2.454  43.292  77.463  1.00  0.00     0.000 A 
HETATM   31  C8  UNL     1       1.672  42.173  77.602  1.00  0.00     0.001 A 
HETATM   32  C9  UNL     1       2.091  40.917  77.195  1.00  0.00     0.009 A 
ENDBRANCH  26  27
ENDBRANCH  24  26
ENDBRANCH   4  24
TORSDOF 6
ENDMDL
MODEL 4
REMARK VINA RESULT: -8.611152705      1.727      2.425
REMARK  6 active torsions:
REMARK  status: ('A' for Active; 'I' for Inactive)
REMARK    1  A    between atoms: S1_2  and  N1_4 
REMARK    2  A    between atoms: S1_2  and  C16_27 
REMARK    3  A    between atoms: N1_4  and  C1_6 
REMARK    4  A    between atoms: C2_9  and  N3_10 
REMARK    5  A    between atoms: N3_10  and  C3_12 
REMARK    6  A    between atoms: C3_12  and  C4_13 
ROOT
HETATM    1  C1  UNL     1       7.413  37.973  76.088  1.00  0.00     0.143 A 
HETATM    2  N2  UNL     1       6.234  38.603  76.044  1.00  0.00    -0.175 N 
ATOM      3  H2  UNL     1       5.663  38.656  76.889  1.00  0.00     0.186 HD
HETATM    4  C2  UNL     1       5.777  39.177  74.888  1.00  0.00     0.680 A 
HETATM    5  N4  UNL     1       6.503  39.126  73.760  1.00  0.00    -0.191 N 
ATOM      6  H4  UNL     1       6.148  39.560  72.908  1.00  0.00     0.184 HD
HETATM    7  C10 UNL     1       7.683  38.513  73.748  1.00  0.00     0.063 A 
HETATM    8  C11 UNL     1       8.453  38.436  72.630  1.00  0.00     0.031 A 
HETATM    9  C12 UNL     1       9.670  37.797  72.640  1.00  0.00     0.002 A 
HETATM   10  C13 UNL     1      10.139  37.216  73.800  1.00  0.00     0.001 A 
HETATM   11  C14 UNL     1       9.381  37.278  74.942  1.00  0.00     0.017 A 
HETATM   12  C15 UNL     1       8.155  37.924  74.926  1.00  0.00     0.036 A 
ENDROOT
BRANCH   1  13
HETATM   13  N1  UNL     1       7.884  37.424  77.131  1.00  0.00    -0.265 N 
ATOM     14  H1  UNL     1       8.751  37.827  77.488  1.00  0.00     0.180 HD
BRANCH  13  15
HETATM   15  S1  UNL     1       7.271  36.113  78.014  1.00  0.00     0.264 S 
HETATM   16  O1  UNL     1       6.395  36.487  79.162  1.00  0.00    -0.200 OA
HETATM   17  O2  UNL     1       8.421  35.294  78.588  1.00  0.00    -0.200 OA
BRANCH  15  18
HETATM   18  C16 UNL     1       6.448  35.031  76.886  1.00  0.00     0.079 A 
HETATM   19  C17 UNL     1       7.203  34.223  76.039  1.00  0.00     0.025 A 
HETATM   20  C18 UNL     1       6.639  33.355  75.135  1.00  0.00     0.002 A 
HETATM   21  C19 UNL     1       5.267  33.277  75.061  1.00  0.00     0.000 A 
HETATM   22  C20 UNL     1       4.521  34.083  75.906  1.00  0.00     0.002 A 
HETATM   23  C21 UNL     1       5.075  34.956  76.814  1.00  0.00     0.025 A 
ENDBRANCH  15  18
ENDBRANCH  13  15
ENDBRANCH   1  13
BRANCH   4  24
HETATM   24  N3  UNL     1       4.636  39.772  74.892  1.00  0.00    -0.222 N 
ATOM     25  H3  UNL     1       4.353  40.340  74.095  1.00  0.00     0.178 HD
BRANCH  24  26
HETATM   26  C3  UNL     1       3.761  39.631  76.026  1.00  0.00     0.176 C 
BRANCH  26  27
HETATM   27  C4  UNL     1       3.313  40.948  76.553  1.00  0.00    -0.040 A 
HETATM   28  C5  UNL     1       2.072  41.008  77.152  1.00  0.00     0.009 A 
HETATM   29  C6  UNL     1       1.582  42.186  77.665  1.00  0.00     0.001 A 
HETATM   30  C7  UNL     1       2.338  43.340  77.586  1.00  0.00     0.000 A 
HETATM   31  C8  UNL     1       3.570  43.260  76.986  1.00  0.00     0.001 A 
HETATM   32  C9  UNL     1       4.071  42.078  76.467  1.00  0.00     0.009 A 
ENDBRANCH  26  27
ENDBRANCH  24  26
ENDBRANCH   4  24
TORSDOF 6
ENDMDL
MODEL 5
REMARK VINA RESULT: -8.572184984      2.586      3.184
REMARK  6 active torsions:
REMARK  status: ('A' for Active; 'I' for Inactive)
REMARK    1  A    between atoms: S1_2  and  N1_4 
REMARK    2  A    between atoms: S1_2  and  C16_27 
REMARK    3  A    between atoms: N1_4  and  C1_6 
REMARK    4  A    between atoms: C2_9  and  N3_10 
REMARK    5  A    between atoms: N3_10  and  C3_12 
REMARK    6  A    between atoms: C3_12  and  C4_13 
ROOT
HETATM    1  C1  UNL     1       7.783  37.427  75.301  1.00  0.00     0.143 A 
HETATM    2  N2  UNL     1       6.576  37.976  75.479  1.00  0.00    -0.175 N 
ATOM      3  H2  UNL     1       6.007  37.685  76.274  1.00  0.00     0.186 HD
HETATM    4  C2  UNL     1       6.090  38.920  74.614  1.00  0.00     0.680 A 
HETATM    5  N4  UNL     1       6.814  39.324  73.558  1.00  0.00    -0.191 N 
ATOM      6  H4  UNL     1       6.437  40.029  72.925  1.00  0.00     0.184 HD
HETATM    7  C10 UNL     1       8.021  38.811  73.334  1.00  0.00     0.063 A 
HETATM    8  C11 UNL     1       8.789  39.191  72.279  1.00  0.00     0.031 A 
HETATM    9  C12 UNL     1      10.034  38.647  72.067  1.00  0.00     0.002 A 
HETATM   10  C13 UNL     1      10.532  37.695  72.933  1.00  0.00     0.001 A 
HETATM   11  C14 UNL     1       9.776  37.294  74.006  1.00  0.00     0.017 A 
HETATM   12  C15 UNL     1       8.522  37.846  74.215  1.00  0.00     0.036 A 
ENDROOT
BRANCH   1  13
HETATM   13  N1  UNL     1       8.281  36.548  76.071  1.00  0.00    -0.265 N 
ATOM     14  H1  UNL     1       8.490  35.649  75.636  1.00  0.00     0.180 HD
BRANCH  13  15
HETATM   15  S1  UNL     1       8.647  36.663  77.721  1.00  0.00     0.264 S 
HETATM   16  O1  UNL     1       7.578  37.283  78.558  1.00  0.00    -0.200 OA
HETATM   17  O2  UNL     1       9.900  37.510  77.915  1.00  0.00    -0.200 OA
BRANCH  15  18
HETATM   18  C16 UNL     1       9.082  35.052  78.299  1.00  0.00     0.079 A 
HETATM   19  C17 UNL     1       8.739  33.937  77.539  1.00  0.00     0.025 A 
HETATM   20  C18 UNL     1       9.042  32.651  77.919  1.00  0.00     0.002 A 
HETATM   21  C19 UNL     1       9.714  32.453  79.103  1.00  0.00     0.000 A 
HETATM   22  C20 UNL     1      10.053  33.566  79.856  1.00  0.00     0.002 A 
HETATM   23  C21 UNL     1       9.754  34.857  79.485  1.00  0.00     0.025 A 
ENDBRANCH  15  18
ENDBRANCH  13  15
ENDBRANCH   1  13
BRANCH   4  24
HETATM   24  N3  UNL     1       4.924  39.421  74.824  1.00  0.00    -0.222 N 
ATOM     25  H3  UNL     1       4.422  39.884  74.067  1.00  0.00     0.178 HD
BRANCH  24  26
HETATM   26  C3  UNL     1       4.329  39.324  76.132  1.00  0.00     0.176 C 
BRANCH  26  27
HETATM   27  C4  UNL     1       3.679  40.596  76.545  1.00  0.00    -0.040 A 
HETATM   28  C5  UNL     1       4.416  41.757  76.432  1.00  0.00     0.009 A 
HETATM   29  C6  UNL     1       3.891  42.975  76.792  1.00  0.00     0.001 A 
HETATM   30  C7  UNL     1       2.601  43.053  77.278  1.00  0.00     0.000 A 
HETATM   31  C8  UNL     1       1.883  41.888  77.384  1.00  0.00     0.001 A 
HETATM   32  C9  UNL     1       2.404  40.657  77.023  1.00  0.00     0.009 A 
ENDBRANCH  26  27
ENDBRANCH  24  26
ENDBRANCH   4  24
TORSDOF 6
ENDMDL
