MODEL 1
REMARK VINA RESULT: -5.197203284      0.000      0.000
REMARK  2 active torsions:
REMARK  status: ('A' for Active; 'I' for Inactive)
REMARK    1  A    between atoms: O1_1  and  C1_3 
REMARK    2  A    between atoms: C5_8  and  O3_9 
ROOT
HETATM    1  C1  UNL     1      29.621   9.404  36.943  1.00  0.00     0.178 C 
HETATM    2  C2  UNL     1      29.333   7.956  37.194  1.00  0.00     0.107 C 
HETATM    3  C3  UNL     1      29.111   7.654  38.658  1.00  0.00     0.188 C 
HETATM    4  C4  UNL     1      30.033   8.425  39.550  1.00  0.00     0.239 C 
HETATM    5  O2  UNL     1      30.197   9.739  39.217  1.00  0.00    -0.354 OA
HETATM    6  C5  UNL     1      30.600   9.978  37.933  1.00  0.00     0.285 C 
HETATM    7  O4  UNL     1      29.348   6.300  38.842  1.00  0.00    -0.351 OA
HETATM    8  C6  UNL     1      28.276   5.766  39.515  1.00  0.00     0.198 C 
HETATM    9  C7  UNL     1      27.522   6.978  40.011  1.00  0.00     0.198 C 
HETATM   10  O5  UNL     1      27.809   7.913  39.021  1.00  0.00    -0.351 OA
ENDROOT
BRANCH   1  11
HETATM   11  O1  UNL     1      30.094   9.524  35.636  1.00  0.00    -0.390 OA
ATOM     12  H1  UNL     1      29.541  10.150  35.184  1.00  0.00     0.210 HD
ENDBRANCH   1  11
BRANCH   6  13
HETATM   13  O3  UNL     1      31.897   9.572  37.652  1.00  0.00    -0.369 OA
ATOM     14  H3  UNL     1      32.299   9.156  38.406  1.00  0.00     0.212 HD
ENDBRANCH   6  13
TORSDOF 2
ENDMDL
MODEL 2
REMARK VINA RESULT: -5.140372841      1.858      2.682
REMARK  2 active torsions:
REMARK  status: ('A' for Active; 'I' for Inactive)
REMARK    1  A    between atoms: O1_1  and  C1_3 
REMARK    2  A    between atoms: C5_8  and  O3_9 
ROOT
HETATM    1  C1  UNL     1      30.874   9.268  38.247  1.00  0.00     0.178 C 
HETATM    2  C2  UNL     1      30.096   8.545  39.302  1.00  0.00     0.107 C 
HETATM    3  C3  UNL     1      30.406   7.066  39.339  1.00  0.00     0.188 C 
HETATM    4  C4  UNL     1      30.586   6.482  37.973  1.00  0.00     0.239 C 
HETATM    5  O2  UNL     1      31.328   7.239  37.112  1.00  0.00    -0.354 OA
HETATM    6  C5  UNL     1      30.902   8.525  36.938  1.00  0.00     0.285 C 
HETATM    7  O4  UNL     1      29.335   6.434  39.953  1.00  0.00    -0.351 OA
HETATM    8  C6  UNL     1      29.828   5.627  40.949  1.00  0.00     0.198 C 
HETATM    9  C7  UNL     1      31.312   5.573  40.667  1.00  0.00     0.198 C 
HETATM   10  O5  UNL     1      31.534   6.819  40.089  1.00  0.00    -0.351 OA
ENDROOT
BRANCH   1  11
HETATM   11  O1  UNL     1      30.311  10.536  38.097  1.00  0.00    -0.390 OA
ATOM     12  H1  UNL     1      29.369  10.430  38.036  1.00  0.00     0.210 HD
ENDBRANCH   1  11
BRANCH   6  13
HETATM   13  O3  UNL     1      29.694   8.644  36.264  1.00  0.00    -0.369 OA
ATOM     14  H3  UNL     1      28.961   8.434  36.830  1.00  0.00     0.212 HD
ENDBRANCH   6  13
TORSDOF 2
ENDMDL
MODEL 3
REMARK VINA RESULT: -5.093098468      4.463      7.255
REMARK  2 active torsions:
REMARK  status: ('A' for Active; 'I' for Inactive)
REMARK    1  A    between atoms: O1_1  and  C1_3 
REMARK    2  A    between atoms: C5_8  and  O3_9 
ROOT
HETATM    1  C1  UNL     1      27.056   2.209  42.135  1.00  0.00     0.178 C 
HETATM    2  C2  UNL     1      27.207   3.415  41.260  1.00  0.00     0.107 C 
HETATM    3  C3  UNL     1      28.266   4.367  41.766  1.00  0.00     0.188 C 
HETATM    4  C4  UNL     1      28.267   4.488  43.258  1.00  0.00     0.239 C 
HETATM    5  O2  UNL     1      28.134   3.310  43.935  1.00  0.00    -0.354 OA
HETATM    6  C5  UNL     1      27.046   2.555  43.600  1.00  0.00     0.285 C 
HETATM    7  O4  UNL     1      27.996   5.614  41.221  1.00  0.00    -0.351 OA
HETATM    8  C6  UNL     1      29.149   6.089  40.646  1.00  0.00     0.198 C 
HETATM    9  C7  UNL     1      30.222   5.168  41.178  1.00  0.00     0.198 C 
HETATM   10  O5  UNL     1      29.518   3.980  41.343  1.00  0.00    -0.351 OA
ENDROOT
BRANCH   1  11
HETATM   11  O1  UNL     1      25.881   1.556  41.761  1.00  0.00    -0.390 OA
ATOM     12  H1  UNL     1      25.705   0.882  42.407  1.00  0.00     0.210 HD
ENDBRANCH   1  11
BRANCH   6  13
HETATM   13  O3  UNL     1      25.828   3.102  43.981  1.00  0.00    -0.369 OA
ATOM     14  H3  UNL     1      25.769   3.192  44.925  1.00  0.00     0.212 HD
ENDBRANCH   6  13
TORSDOF 2
ENDMDL
MODEL 4
REMARK VINA RESULT: -5.030374013      1.341      4.292
REMARK  2 active torsions:
REMARK  status: ('A' for Active; 'I' for Inactive)
REMARK    1  A    between atoms: O1_1  and  C1_3 
REMARK    2  A    between atoms: C5_8  and  O3_9 
ROOT
HETATM    1  C1  UNL     1      27.556   6.812  39.981  1.00  0.00     0.178 C 
HETATM    2  C2  UNL     1      28.516   7.954  40.106  1.00  0.00     0.107 C 
HETATM    3  C3  UNL     1      29.440   8.067  38.916  1.00  0.00     0.188 C 
HETATM    4  C4  UNL     1      29.887   6.732  38.406  1.00  0.00     0.239 C 
HETATM    5  O2  UNL     1      28.908   5.783  38.329  1.00  0.00    -0.354 OA
HETATM    6  C5  UNL     1      28.216   5.553  39.485  1.00  0.00     0.285 C 
HETATM    7  O4  UNL     1      30.556   8.781  39.325  1.00  0.00    -0.351 OA
HETATM    8  C6  UNL     1      30.770   9.795  38.424  1.00  0.00     0.198 C 
HETATM    9  C7  UNL     1      29.881   9.432  37.256  1.00  0.00     0.198 C 
HETATM   10  O5  UNL     1      28.840   8.764  37.892  1.00  0.00    -0.351 OA
ENDROOT
BRANCH   1  11
HETATM   11  O1  UNL     1      26.964   6.614  41.229  1.00  0.00    -0.390 OA
ATOM     12  H1  UNL     1      26.501   7.411  41.460  1.00  0.00     0.210 HD
ENDBRANCH   1  11
BRANCH   6  13
HETATM   13  O3  UNL     1      28.959   4.944  40.487  1.00  0.00    -0.369 OA
ATOM     14  H3  UNL     1      29.142   5.548  41.197  1.00  0.00     0.212 HD
ENDBRANCH   6  13
TORSDOF 2
ENDMDL
MODEL 5
REMARK VINA RESULT: -5.014219030      5.607      8.113
REMARK  2 active torsions:
REMARK  status: ('A' for Active; 'I' for Inactive)
REMARK    1  A    between atoms: O1_1  and  C1_3 
REMARK    2  A    between atoms: C5_8  and  O3_9 
ROOT
HETATM    1  C1  UNL     1      28.453   0.512  41.162  1.00  0.00     0.178 C 
HETATM    2  C2  UNL     1      28.473   1.945  40.726  1.00  0.00     0.107 C 
HETATM    3  C3  UNL     1      27.816   2.864  41.730  1.00  0.00     0.188 C 
HETATM    4  C4  UNL     1      26.595   2.260  42.350  1.00  0.00     0.239 C 
HETATM    5  O2  UNL     1      26.716   0.950  42.713  1.00  0.00    -0.354 OA
HETATM    6  C5  UNL     1      27.119   0.097  41.725  1.00  0.00     0.285 C 
HETATM    7  O4  UNL     1      27.445   4.017  41.054  1.00  0.00    -0.351 OA
HETATM    8  C6  UNL     1      27.923   5.097  41.756  1.00  0.00     0.198 C 
HETATM    9  C7  UNL     1      28.330   4.509  43.087  1.00  0.00     0.198 C 
HETATM   10  O5  UNL     1      28.700   3.218  42.724  1.00  0.00    -0.351 OA
ENDROOT
BRANCH   1  11
HETATM   11  O1  UNL     1      28.804  -0.272  40.062  1.00  0.00    -0.390 OA
ATOM     12  H1  UNL     1      28.542   0.195  39.278  1.00  0.00     0.210 HD
ENDBRANCH   1  11
BRANCH   6  13
HETATM   13  O3  UNL     1      26.185  -0.097  40.716  1.00  0.00    -0.369 OA
ATOM     14  H3  UNL     1      26.448   0.337  39.913  1.00  0.00     0.212 HD
ENDBRANCH   6  13
TORSDOF 2
ENDMDL
