MODEL 1
REMARK VINA RESULT: -7.846895626      0.000      0.000
REMARK  12 active torsions:
REMARK  status: ('A' for Active; 'I' for Inactive)
REMARK    1  A    between atoms: C5_5  and  C6_6 
REMARK    2  A    between atoms: C6_6  and  C7_7 
REMARK    3  A    between atoms: C11_11  and  C12_12 
REMARK    4  A    between atoms: C15_15  and  C16_16 
REMARK    5  A    between atoms: C16_16  and  O1_17 
REMARK    6  A    between atoms: O1_17  and  C17_18 
REMARK    7  A    between atoms: C17_18  and  C18_19 
REMARK    8  A    between atoms: C18_19  and  O2_20 
REMARK    9  A    between atoms: C18_19  and  C19_22 
REMARK   10  A    between atoms: C19_22  and  N1_23 
REMARK   11  A    between atoms: C23_30  and  N2_31 
REMARK   12  A    between atoms: N3_34  and  O5_35 
ROOT
HETATM    1  C7  UNL     1      23.093 -10.723   8.150  1.00  0.00    -0.053 A 
HETATM    2  C8  UNL     1      22.133 -10.912   9.090  1.00  0.00     0.007 A 
HETATM    3  C9  UNL     1      21.716  -9.880   9.949  1.00  0.00     0.001 A 
HETATM    4  C10 UNL     1      22.308  -8.661   9.816  1.00  0.00     0.012 A 
HETATM    5  C11 UNL     1      23.290  -8.445   8.863  1.00  0.00    -0.025 A 
HETATM    6  C22 UNL     1      23.666  -9.461   8.054  1.00  0.00     0.019 A 
ENDROOT
BRANCH   5   7
HETATM    7  C12 UNL     1      23.853  -7.099   8.799  1.00  0.00    -0.026 A 
HETATM    8  C13 UNL     1      23.109  -5.954   8.979  1.00  0.00     0.013 A 
HETATM    9  C14 UNL     1      23.654  -4.697   8.909  1.00  0.00     0.010 A 
HETATM   10  C15 UNL     1      24.985  -4.513   8.654  1.00  0.00    -0.035 A 
HETATM   11  C20 UNL     1      25.763  -5.660   8.469  1.00  0.00     0.010 A 
HETATM   12  C21 UNL     1      25.195  -6.914   8.542  1.00  0.00     0.013 A 
BRANCH  10  13
HETATM   13  C16 UNL     1      25.601  -3.161   8.572  1.00  0.00     0.206 C 
BRANCH  13  14
HETATM   14  O1  UNL     1      26.359  -3.103   7.419  1.00  0.00    -0.384 OA
BRANCH  14  15
HETATM   15  C17 UNL     1      25.614  -2.701   6.320  1.00  0.00     0.201 C 
BRANCH  15  16
HETATM   16  C18 UNL     1      25.938  -3.721   5.219  1.00  0.00     0.167 C 
BRANCH  16  17
HETATM   17  O2  UNL     1      25.615  -3.110   4.012  1.00  0.00    -0.392 OA
ATOM     18  H2  UNL     1      25.319  -3.803   3.432  1.00  0.00     0.210 HD
ENDBRANCH  16  17
BRANCH  16  19
HETATM   19  C19 UNL     1      27.461  -3.882   5.243  1.00  0.00     0.263 C 
BRANCH  19  20
HETATM   20  N1  UNL     1      28.133  -2.632   4.945  1.00  0.00    -0.077 N 
ATOM     21  H13 UNL     1      27.508  -1.834   5.063  1.00  0.00     0.274 HD
ATOM     22  H12 UNL     1      28.823  -2.400   5.659  1.00  0.00     0.274 HD
ATOM     23  H11 UNL     1      28.550  -2.644   4.014  1.00  0.00     0.274 HD
ENDBRANCH  19  20
ENDBRANCH  16  19
ENDBRANCH  15  16
ENDBRANCH  14  15
ENDBRANCH  13  14
ENDBRANCH  10  13
ENDBRANCH   5   7
BRANCH   1  24
HETATM   24  C6  UNL     1      23.549 -11.810   7.221  1.00  0.00     0.081 C 
BRANCH  24  25
HETATM   25  C5  UNL     1      24.818 -12.385   7.701  1.00  0.00    -0.001 A 
HETATM   26  C4  UNL     1      24.819 -12.774   9.061  1.00  0.00     0.013 A 
HETATM   27  C3  UNL     1      25.896 -13.432   9.564  1.00  0.00     0.028 A 
HETATM   28  C2  UNL     1      27.001 -13.740   8.806  1.00  0.00     0.038 A 
HETATM   29  C1  UNL     1      28.161 -14.466   9.401  1.00  0.00     0.071 C 
HETATM   30  N3  UNL     1      26.979 -13.363   7.528  1.00  0.00    -0.206 N 
HETATM   31  C23 UNL     1      25.914 -12.692   6.962  1.00  0.00     0.206 A 
BRANCH  30  32
HETATM   32  O5  UNL     1      28.068 -13.661   6.757  1.00  0.00    -0.281 OA
ATOM     33  H5  UNL     1      28.509 -12.943   6.319  1.00  0.00     0.245 HD
ENDBRANCH  30  32
BRANCH  31  34
HETATM   34  N2  UNL     1      26.105 -12.235   5.641  1.00  0.00    -0.095 N 
HETATM   35  O3  UNL     1      26.538 -11.132   5.309  1.00  0.00    -0.530 OA
HETATM   36  O4  UNL     1      25.857 -13.108   4.566  1.00  0.00    -0.530 OA
ENDBRANCH  31  34
ENDBRANCH  24  25
ENDBRANCH   1  24
TORSDOF 12
ENDMDL
MODEL 2
REMARK VINA RESULT: -7.274243728      1.800      3.271
REMARK  12 active torsions:
REMARK  status: ('A' for Active; 'I' for Inactive)
REMARK    1  A    between atoms: C5_5  and  C6_6 
REMARK    2  A    between atoms: C6_6  and  C7_7 
REMARK    3  A    between atoms: C11_11  and  C12_12 
REMARK    4  A    between atoms: C15_15  and  C16_16 
REMARK    5  A    between atoms: C16_16  and  O1_17 
REMARK    6  A    between atoms: O1_17  and  C17_18 
REMARK    7  A    between atoms: C17_18  and  C18_19 
REMARK    8  A    between atoms: C18_19  and  O2_20 
REMARK    9  A    between atoms: C18_19  and  C19_22 
REMARK   10  A    between atoms: C19_22  and  N1_23 
REMARK   11  A    between atoms: C23_30  and  N2_31 
REMARK   12  A    between atoms: N3_34  and  O5_35 
ROOT
HETATM    1  C7  UNL     1      23.436 -10.790   8.123  1.00  0.00    -0.053 A 
HETATM    2  C8  UNL     1      22.418 -11.035   8.985  1.00  0.00     0.007 A 
HETATM    3  C9  UNL     1      21.878 -10.030   9.807  1.00  0.00     0.001 A 
HETATM    4  C10 UNL     1      22.408  -8.780   9.719  1.00  0.00     0.012 A 
HETATM    5  C11 UNL     1      23.448  -8.506   8.845  1.00  0.00    -0.025 A 
HETATM    6  C22 UNL     1      23.943  -9.497   8.069  1.00  0.00     0.019 A 
ENDROOT
BRANCH   5   7
HETATM    7  C12 UNL     1      23.937  -7.130   8.824  1.00  0.00    -0.026 A 
HETATM    8  C13 UNL     1      23.126  -6.031   9.007  1.00  0.00     0.013 A 
HETATM    9  C14 UNL     1      23.603  -4.745   8.977  1.00  0.00     0.010 A 
HETATM   10  C15 UNL     1      24.928  -4.483   8.761  1.00  0.00    -0.035 A 
HETATM   11  C20 UNL     1      25.773  -5.582   8.573  1.00  0.00     0.010 A 
HETATM   12  C21 UNL     1      25.273  -6.867   8.607  1.00  0.00     0.013 A 
BRANCH  10  13
HETATM   13  C16 UNL     1      25.470  -3.098   8.723  1.00  0.00     0.206 C 
BRANCH  13  14
HETATM   14  O1  UNL     1      26.264  -2.978   7.599  1.00  0.00    -0.384 OA
BRANCH  14  15
HETATM   15  C17 UNL     1      25.536  -2.595   6.481  1.00  0.00     0.201 C 
BRANCH  15  16
HETATM   16  C18 UNL     1      25.853  -3.650   5.413  1.00  0.00     0.167 C 
BRANCH  16  17
HETATM   17  O2  UNL     1      25.510  -3.085   4.189  1.00  0.00    -0.392 OA
ATOM     18  H2  UNL     1      24.627  -2.748   4.288  1.00  0.00     0.210 HD
ENDBRANCH  16  17
BRANCH  16  19
HETATM   19  C19 UNL     1      27.377  -3.800   5.423  1.00  0.00     0.263 C 
BRANCH  19  20
HETATM   20  N1  UNL     1      28.036  -2.569   5.032  1.00  0.00    -0.077 N 
ATOM     21  H13 UNL     1      27.475  -1.752   5.277  1.00  0.00     0.274 HD
ATOM     22  H12 UNL     1      28.851  -2.382   5.615  1.00  0.00     0.274 HD
ATOM     23  H11 UNL     1      28.278  -2.572   4.042  1.00  0.00     0.274 HD
ENDBRANCH  19  20
ENDBRANCH  16  19
ENDBRANCH  15  16
ENDBRANCH  14  15
ENDBRANCH  13  14
ENDBRANCH  10  13
ENDBRANCH   5   7
BRANCH   1  24
HETATM   24  C6  UNL     1      24.023 -11.846   7.234  1.00  0.00     0.081 C 
BRANCH  24  25
HETATM   25  C5  UNL     1      23.686 -11.566   5.826  1.00  0.00    -0.001 A 
HETATM   26  C4  UNL     1      22.315 -11.696   5.505  1.00  0.00     0.013 A 
HETATM   27  C3  UNL     1      21.884 -11.336   4.267  1.00  0.00     0.028 A 
HETATM   28  C2  UNL     1      22.729 -10.847   3.299  1.00  0.00     0.038 A 
HETATM   29  C1  UNL     1      22.211 -10.463   1.953  1.00  0.00     0.071 C 
HETATM   30  N3  UNL     1      24.017 -10.735   3.623  1.00  0.00    -0.206 N 
HETATM   31  C23 UNL     1      24.512 -11.086   4.862  1.00  0.00     0.206 A 
BRANCH  30  32
HETATM   32  O5  UNL     1      24.872 -10.251   2.673  1.00  0.00    -0.281 OA
ATOM     33  H5  UNL     1      25.520 -10.848   2.315  1.00  0.00     0.245 HD
ENDBRANCH  30  32
BRANCH  31  34
HETATM   34  N2  UNL     1      25.915 -11.046   4.999  1.00  0.00    -0.095 N 
HETATM   35  O3  UNL     1      26.661 -12.017   5.125  1.00  0.00    -0.530 OA
HETATM   36  O4  UNL     1      26.582  -9.810   4.923  1.00  0.00    -0.530 OA
ENDBRANCH  31  34
ENDBRANCH  24  25
ENDBRANCH   1  24
TORSDOF 12
ENDMDL
MODEL 3
REMARK VINA RESULT: -7.180952894      5.749      8.433
REMARK  12 active torsions:
REMARK  status: ('A' for Active; 'I' for Inactive)
REMARK    1  A    between atoms: C5_5  and  C6_6 
REMARK    2  A    between atoms: C6_6  and  C7_7 
REMARK    3  A    between atoms: C11_11  and  C12_12 
REMARK    4  A    between atoms: C15_15  and  C16_16 
REMARK    5  A    between atoms: C16_16  and  O1_17 
REMARK    6  A    between atoms: O1_17  and  C17_18 
REMARK    7  A    between atoms: C17_18  and  C18_19 
REMARK    8  A    between atoms: C18_19  and  O2_20 
REMARK    9  A    between atoms: C18_19  and  C19_22 
REMARK   10  A    between atoms: C19_22  and  N1_23 
REMARK   11  A    between atoms: C23_30  and  N2_31 
REMARK   12  A    between atoms: N3_34  and  O5_35 
ROOT
HETATM    1  C7  UNL     1      24.815  -7.454   5.537  1.00  0.00    -0.053 A 
HETATM    2  C8  UNL     1      24.874  -8.801   5.688  1.00  0.00     0.007 A 
HETATM    3  C9  UNL     1      23.752  -9.624   5.491  1.00  0.00     0.001 A 
HETATM    4  C10 UNL     1      22.578  -9.030   5.139  1.00  0.00     0.012 A 
HETATM    5  C11 UNL     1      22.494  -7.656   4.980  1.00  0.00    -0.025 A 
HETATM    6  C22 UNL     1      23.595  -6.896   5.178  1.00  0.00     0.019 A 
ENDROOT
BRANCH   5   7
HETATM    7  C12 UNL     1      21.191  -7.123   4.595  1.00  0.00    -0.026 A 
HETATM    8  C13 UNL     1      20.029  -7.374   5.292  1.00  0.00     0.013 A 
HETATM    9  C14 UNL     1      18.812  -6.869   4.910  1.00  0.00     0.010 A 
HETATM   10  C15 UNL     1      18.686  -6.079   3.802  1.00  0.00    -0.035 A 
HETATM   11  C20 UNL     1      19.851  -5.808   3.076  1.00  0.00     0.010 A 
HETATM   12  C21 UNL     1      21.064  -6.326   3.477  1.00  0.00     0.013 A 
BRANCH  10  13
HETATM   13  C16 UNL     1      17.378  -5.520   3.366  1.00  0.00     0.206 C 
BRANCH  13  14
HETATM   14  O1  UNL     1      17.490  -5.147   2.041  1.00  0.00    -0.384 OA
BRANCH  14  15
HETATM   15  C17 UNL     1      16.261  -5.123   1.397  1.00  0.00     0.201 C 
BRANCH  15  16
HETATM   16  C18 UNL     1      16.320  -6.267   0.375  1.00  0.00     0.167 C 
BRANCH  16  17
HETATM   17  O2  UNL     1      15.565  -5.856  -0.718  1.00  0.00    -0.392 OA
ATOM     18  H2  UNL     1      15.916  -6.313  -1.473  1.00  0.00     0.210 HD
ENDBRANCH  16  17
BRANCH  16  19
HETATM   19  C19 UNL     1      17.779  -6.329  -0.088  1.00  0.00     0.263 C 
BRANCH  19  20
HETATM   20  N1  UNL     1      18.407  -7.578   0.296  1.00  0.00    -0.077 N 
ATOM     21  H13 UNL     1      17.717  -8.316   0.435  1.00  0.00     0.274 HD
ATOM     22  H12 UNL     1      18.925  -7.989  -0.481  1.00  0.00     0.274 HD
ATOM     23  H11 UNL     1      18.999  -7.461   1.118  1.00  0.00     0.274 HD
ENDBRANCH  19  20
ENDBRANCH  16  19
ENDBRANCH  15  16
ENDBRANCH  14  15
ENDBRANCH  13  14
ENDBRANCH  10  13
ENDBRANCH   5   7
BRANCH   1  24
HETATM   24  C6  UNL     1      26.002  -6.559   5.738  1.00  0.00     0.081 C 
BRANCH  24  25
HETATM   25  C5  UNL     1      25.756  -5.639   6.863  1.00  0.00    -0.001 A 
HETATM   26  C4  UNL     1      25.415  -6.268   8.083  1.00  0.00     0.013 A 
HETATM   27  C3  UNL     1      25.295  -5.517   9.209  1.00  0.00     0.028 A 
HETATM   28  C2  UNL     1      25.490  -4.156   9.220  1.00  0.00     0.038 A 
HETATM   29  C1  UNL     1      25.350  -3.371  10.481  1.00  0.00     0.071 C 
HETATM   30  N3  UNL     1      25.809  -3.584   8.059  1.00  0.00    -0.206 N 
HETATM   31  C23 UNL     1      25.944  -4.295   6.884  1.00  0.00     0.206 A 
BRANCH  30  32
HETATM   32  O5  UNL     1      26.008  -2.232   8.049  1.00  0.00    -0.281 OA
ATOM     33  H5  UNL     1      26.780  -1.901   7.604  1.00  0.00     0.245 HD
ENDBRANCH  30  32
BRANCH  31  34
HETATM   34  N2  UNL     1      26.141  -3.527   5.718  1.00  0.00    -0.095 N 
HETATM   35  O3  UNL     1      25.260  -3.031   5.017  1.00  0.00    -0.530 OA
HETATM   36  O4  UNL     1      27.450  -3.211   5.312  1.00  0.00    -0.530 OA
ENDBRANCH  31  34
ENDBRANCH  24  25
ENDBRANCH   1  24
TORSDOF 12
ENDMDL
MODEL 4
REMARK VINA RESULT: -7.145160761      5.251      8.359
REMARK  12 active torsions:
REMARK  status: ('A' for Active; 'I' for Inactive)
REMARK    1  A    between atoms: C5_5  and  C6_6 
REMARK    2  A    between atoms: C6_6  and  C7_7 
REMARK    3  A    between atoms: C11_11  and  C12_12 
REMARK    4  A    between atoms: C15_15  and  C16_16 
REMARK    5  A    between atoms: C16_16  and  O1_17 
REMARK    6  A    between atoms: O1_17  and  C17_18 
REMARK    7  A    between atoms: C17_18  and  C18_19 
REMARK    8  A    between atoms: C18_19  and  O2_20 
REMARK    9  A    between atoms: C18_19  and  C19_22 
REMARK   10  A    between atoms: C19_22  and  N1_23 
REMARK   11  A    between atoms: C23_30  and  N2_31 
REMARK   12  A    between atoms: N3_34  and  O5_35 
ROOT
HETATM    1  C7  UNL     1      25.087  -7.386   5.090  1.00  0.00    -0.053 A 
HETATM    2  C8  UNL     1      25.246  -8.711   4.846  1.00  0.00     0.007 A 
HETATM    3  C9  UNL     1      24.157  -9.551   4.553  1.00  0.00     0.001 A 
HETATM    4  C10 UNL     1      22.914  -8.996   4.520  1.00  0.00     0.012 A 
HETATM    5  C11 UNL     1      22.728  -7.646   4.767  1.00  0.00    -0.025 A 
HETATM    6  C22 UNL     1      23.799  -6.868   5.045  1.00  0.00     0.019 A 
ENDROOT
BRANCH   5   7
HETATM    7  C12 UNL     1      21.355  -7.153   4.699  1.00  0.00    -0.026 A 
HETATM    8  C13 UNL     1      20.824  -6.530   3.591  1.00  0.00     0.013 A 
HETATM    9  C14 UNL     1      19.534  -6.066   3.548  1.00  0.00     0.010 A 
HETATM   10  C15 UNL     1      18.694  -6.201   4.620  1.00  0.00    -0.035 A 
HETATM   11  C20 UNL     1      19.209  -6.832   5.757  1.00  0.00     0.010 A 
HETATM   12  C21 UNL     1      20.509  -7.289   5.779  1.00  0.00     0.013 A 
BRANCH  10  13
HETATM   13  C16 UNL     1      17.291  -5.707   4.599  1.00  0.00     0.206 C 
BRANCH  13  14
HETATM   14  O1  UNL     1      16.620  -6.275   5.664  1.00  0.00    -0.384 OA
BRANCH  14  15
HETATM   15  C17 UNL     1      15.602  -5.460   6.137  1.00  0.00     0.201 C 
BRANCH  15  16
HETATM   16  C18 UNL     1      16.270  -4.543   7.173  1.00  0.00     0.167 C 
BRANCH  16  17
HETATM   17  O2  UNL     1      15.417  -3.457   7.342  1.00  0.00    -0.392 OA
ATOM     18  H2  UNL     1      15.381  -3.288   8.276  1.00  0.00     0.210 HD
ENDBRANCH  16  17
BRANCH  16  19
HETATM   19  C19 UNL     1      16.257  -5.329   8.487  1.00  0.00     0.263 C 
BRANCH  19  20
HETATM   20  N1  UNL     1      17.329  -6.305   8.534  1.00  0.00    -0.077 N 
ATOM     21  H13 UNL     1      17.376  -6.850   7.673  1.00  0.00     0.274 HD
ATOM     22  H12 UNL     1      18.244  -5.856   8.487  1.00  0.00     0.274 HD
ATOM     23  H11 UNL     1      17.251  -6.907   9.353  1.00  0.00     0.274 HD
ENDBRANCH  19  20
ENDBRANCH  16  19
ENDBRANCH  15  16
ENDBRANCH  14  15
ENDBRANCH  13  14
ENDBRANCH  10  13
ENDBRANCH   5   7
BRANCH   1  24
HETATM   24  C6  UNL     1      26.236  -6.471   5.399  1.00  0.00     0.081 C 
BRANCH  24  25
HETATM   25  C5  UNL     1      25.909  -5.625   6.561  1.00  0.00    -0.001 A 
HETATM   26  C4  UNL     1      25.552  -6.333   7.732  1.00  0.00     0.013 A 
HETATM   27  C3  UNL     1      25.357  -5.650   8.890  1.00  0.00     0.028 A 
HETATM   28  C2  UNL     1      25.492  -4.284   8.980  1.00  0.00     0.038 A 
HETATM   29  C1  UNL     1      25.271  -3.575  10.274  1.00  0.00     0.071 C 
HETATM   30  N3  UNL     1      25.828  -3.637   7.864  1.00  0.00    -0.206 N 
HETATM   31  C23 UNL     1      26.036  -4.277   6.660  1.00  0.00     0.206 A 
BRANCH  30  32
HETATM   32  O5  UNL     1      25.967  -2.279   7.933  1.00  0.00    -0.281 OA
ATOM     33  H5  UNL     1      26.736  -1.935   8.373  1.00  0.00     0.245 HD
ENDBRANCH  30  32
BRANCH  31  34
HETATM   34  N2  UNL     1      26.242  -3.439   5.544  1.00  0.00    -0.095 N 
HETATM   35  O3  UNL     1      25.366  -2.950   4.831  1.00  0.00    -0.530 OA
HETATM   36  O4  UNL     1      27.549  -3.039   5.212  1.00  0.00    -0.530 OA
ENDBRANCH  31  34
ENDBRANCH  24  25
ENDBRANCH   1  24
TORSDOF 12
ENDMDL
MODEL 5
REMARK VINA RESULT: -7.135037998      6.195      8.803
REMARK  12 active torsions:
REMARK  status: ('A' for Active; 'I' for Inactive)
REMARK    1  A    between atoms: C5_5  and  C6_6 
REMARK    2  A    between atoms: C6_6  and  C7_7 
REMARK    3  A    between atoms: C11_11  and  C12_12 
REMARK    4  A    between atoms: C15_15  and  C16_16 
REMARK    5  A    between atoms: C16_16  and  O1_17 
REMARK    6  A    between atoms: O1_17  and  C17_18 
REMARK    7  A    between atoms: C17_18  and  C18_19 
REMARK    8  A    between atoms: C18_19  and  O2_20 
REMARK    9  A    between atoms: C18_19  and  C19_22 
REMARK   10  A    between atoms: C19_22  and  N1_23 
REMARK   11  A    between atoms: C23_30  and  N2_31 
REMARK   12  A    between atoms: N3_34  and  O5_35 
ROOT
HETATM    1  C7  UNL     1      24.726  -7.573   5.434  1.00  0.00    -0.053 A 
HETATM    2  C8  UNL     1      24.628  -8.805   5.994  1.00  0.00     0.007 A 
HETATM    3  C9  UNL     1      23.505  -9.627   5.797  1.00  0.00     0.001 A 
HETATM    4  C10 UNL     1      22.496  -9.152   5.016  1.00  0.00     0.012 A 
HETATM    5  C11 UNL     1      22.574  -7.897   4.434  1.00  0.00    -0.025 A 
HETATM    6  C22 UNL     1      23.670  -7.134   4.646  1.00  0.00     0.019 A 
ENDROOT
BRANCH   5   7
HETATM    7  C12 UNL     1      21.440  -7.488   3.610  1.00  0.00    -0.026 A 
HETATM    8  C13 UNL     1      20.718  -8.359   2.823  1.00  0.00     0.013 A 
HETATM    9  C14 UNL     1      19.660  -7.954   2.049  1.00  0.00     0.010 A 
HETATM   10  C15 UNL     1      19.260  -6.647   2.019  1.00  0.00    -0.035 A 
HETATM   11  C20 UNL     1      19.975  -5.743   2.811  1.00  0.00     0.010 A 
HETATM   12  C21 UNL     1      21.037  -6.170   3.581  1.00  0.00     0.013 A 
BRANCH  10  13
HETATM   13  C16 UNL     1      18.116  -6.183   1.188  1.00  0.00     0.206 C 
BRANCH  13  14
HETATM   14  O1  UNL     1      18.203  -6.799  -0.045  1.00  0.00    -0.384 OA
BRANCH  14  15
HETATM   15  C17 UNL     1      17.013  -6.724  -0.754  1.00  0.00     0.201 C 
BRANCH  15  16
HETATM   16  C18 UNL     1      17.131  -7.792  -1.851  1.00  0.00     0.167 C 
BRANCH  16  17
HETATM   17  O2  UNL     1      17.236  -7.105  -3.056  1.00  0.00    -0.392 OA
ATOM     18  H2  UNL     1      17.643  -6.271  -2.854  1.00  0.00     0.210 HD
ENDBRANCH  16  17
BRANCH  16  19
HETATM   19  C19 UNL     1      18.478  -8.480  -1.612  1.00  0.00     0.263 C 
BRANCH  19  20
HETATM   20  N1  UNL     1      19.374  -8.302  -2.737  1.00  0.00    -0.077 N 
ATOM     21  H13 UNL     1      19.000  -8.730  -3.584  1.00  0.00     0.274 HD
ATOM     22  H12 UNL     1      19.395  -7.330  -3.047  1.00  0.00     0.274 HD
ATOM     23  H11 UNL     1      20.311  -8.646  -2.528  1.00  0.00     0.274 HD
ENDBRANCH  19  20
ENDBRANCH  16  19
ENDBRANCH  15  16
ENDBRANCH  14  15
ENDBRANCH  13  14
ENDBRANCH  10  13
ENDBRANCH   5   7
BRANCH   1  24
HETATM   24  C6  UNL     1      25.918  -6.682   5.629  1.00  0.00     0.081 C 
BRANCH  24  25
HETATM   25  C5  UNL     1      25.676  -5.752   6.746  1.00  0.00    -0.001 A 
HETATM   26  C4  UNL     1      25.294  -6.367   7.961  1.00  0.00     0.013 A 
HETATM   27  C3  UNL     1      25.173  -5.608   9.082  1.00  0.00     0.028 A 
HETATM   28  C2  UNL     1      25.406  -4.254   9.092  1.00  0.00     0.038 A 
HETATM   29  C1  UNL     1      25.263  -3.460  10.347  1.00  0.00     0.071 C 
HETATM   30  N3  UNL     1      25.763  -3.695   7.936  1.00  0.00    -0.206 N 
HETATM   31  C23 UNL     1      25.900  -4.414   6.766  1.00  0.00     0.206 A 
BRANCH  30  32
HETATM   32  O5  UNL     1      25.999  -2.348   7.925  1.00  0.00    -0.281 OA
ATOM     33  H5  UNL     1      25.369  -1.786   8.361  1.00  0.00     0.245 HD
ENDBRANCH  30  32
BRANCH  31  34
HETATM   34  N2  UNL     1      26.141  -3.656   5.601  1.00  0.00    -0.095 N 
HETATM   35  O3  UNL     1      25.287  -3.216   4.831  1.00  0.00    -0.530 OA
HETATM   36  O4  UNL     1      27.458  -3.282   5.281  1.00  0.00    -0.530 OA
ENDBRANCH  31  34
ENDBRANCH  24  25
ENDBRANCH   1  24
TORSDOF 12
ENDMDL
