MODEL 1
REMARK VINA RESULT: -7.193213885      0.000      0.000
REMARK  6 active torsions:
REMARK  status: ('A' for Active; 'I' for Inactive)
REMARK    1  A    between atoms: C1_2  and  C2_4 
REMARK    2  A    between atoms: C2_4  and  N1_5 
REMARK    3  A    between atoms: N1_5  and  C3_6 
REMARK    4  A    between atoms: C3_6  and  O3_7 
REMARK    5  A    between atoms: C3_6  and  C4_9 
REMARK       I    between atoms: N2_13  and  C8_14 
REMARK       I    between atoms: C8_14  and  N3_16 
REMARK    6  A    between atoms: N3_16  and  C9_18 
ROOT
HETATM    1  C4  UNL     1      25.836  -2.083  15.235  1.00  0.00     0.103 C 
HETATM    2  C5  UNL     1      26.280  -3.424  14.667  1.00  0.00     0.021 C 
HETATM    3  C6  UNL     1      24.790  -3.621  14.408  1.00  0.00     0.033 C 
HETATM    4  C7  UNL     1      24.875  -2.107  14.085  1.00  0.00     0.102 C 
HETATM    5  N2  UNL     1      25.670  -2.171  12.913  1.00  0.00    -0.328 N 
HETATM    6  C8  UNL     1      25.415  -1.597  11.655  1.00  0.00     0.319 C 
HETATM    7  O4  UNL     1      26.236  -1.749  10.690  1.00  0.00    -0.247 OA
HETATM    8  N3  UNL     1      24.251  -0.836  11.387  1.00  0.00    -0.334 N 
ATOM      9  H3  UNL     1      23.608  -0.709  12.168  1.00  0.00     0.165 HD
HETATM   10  C19 UNL     1      26.785  -2.989  13.314  1.00  0.00     0.133 C 
ENDROOT
BRANCH   1  11
HETATM   11  C3  UNL     1      26.930  -1.030  15.139  1.00  0.00     0.190 C 
BRANCH  11  12
HETATM   12  N1  UNL     1      28.131  -1.310  15.520  1.00  0.00    -0.418 NA
BRANCH  12  13
HETATM   13  C2  UNL     1      29.449  -1.619  15.941  1.00  0.00     0.333 C 
BRANCH  13  14
HETATM   14  C1  UNL     1      30.297  -0.416  16.262  1.00  0.00     0.204 C 
HETATM   15  O1  UNL     1      30.244   0.109  17.358  1.00  0.00    -0.646 OA
HETATM   16  O2  UNL     1      31.116   0.044  15.261  1.00  0.00    -0.646 OA
ENDBRANCH  13  14
ENDBRANCH  12  13
ENDBRANCH  11  12
BRANCH  11  17
HETATM   17  O3  UNL     1      26.501   0.109  14.651  1.00  0.00    -0.339 OA
ATOM     18  H3  UNL     1      26.126   0.835  15.137  1.00  0.00     0.220 HD
ENDBRANCH  11  17
ENDBRANCH   1  11
BRANCH   8  19
HETATM   19  C9  UNL     1      23.870  -0.227  10.160  1.00  0.00     0.035 C 
HETATM   20  C10 UNL     1      24.993   0.494   9.470  1.00  0.00     0.035 C 
HETATM   21  C11 UNL     1      24.516   1.136   8.180  1.00  0.00    -0.012 C 
HETATM   22  C12 UNL     1      23.848   0.116   7.260  1.00  0.00     0.009 C 
HETATM   23  C16 UNL     1      23.511   2.203   8.533  1.00  0.00     0.009 C 
HETATM   24  C13 UNL     1      22.723  -0.553   7.996  1.00  0.00    -0.012 C 
HETATM   25  C14 UNL     1      21.694   0.478   8.363  1.00  0.00     0.009 C 
HETATM   26  C18 UNL     1      23.298  -1.248   9.185  1.00  0.00     0.035 C 
HETATM   27  C15 UNL     1      22.360   1.520   9.233  1.00  0.00    -0.012 C 
HETATM   28  C17 UNL     1      22.817   0.828  10.475  1.00  0.00     0.035 C 
ENDBRANCH   8  19
TORSDOF 6
ENDMDL
MODEL 2
REMARK VINA RESULT: -7.178337854      1.795      2.855
REMARK  6 active torsions:
REMARK  status: ('A' for Active; 'I' for Inactive)
REMARK    1  A    between atoms: C1_2  and  C2_4 
REMARK    2  A    between atoms: C2_4  and  N1_5 
REMARK    3  A    between atoms: N1_5  and  C3_6 
REMARK    4  A    between atoms: C3_6  and  O3_7 
REMARK    5  A    between atoms: C3_6  and  C4_9 
REMARK       I    between atoms: N2_13  and  C8_14 
REMARK       I    between atoms: C8_14  and  N3_16 
REMARK    6  A    between atoms: N3_16  and  C9_18 
ROOT
HETATM    1  C4  UNL     1      27.167  -1.481  15.025  1.00  0.00     0.103 C 
HETATM    2  C5  UNL     1      26.514  -2.840  15.232  1.00  0.00     0.021 C 
HETATM    3  C6  UNL     1      25.235  -2.020  15.368  1.00  0.00     0.033 C 
HETATM    4  C7  UNL     1      25.917  -1.188  14.252  1.00  0.00     0.102 C 
HETATM    5  N2  UNL     1      25.874  -2.140  13.202  1.00  0.00    -0.328 N 
HETATM    6  C8  UNL     1      25.377  -1.976  11.898  1.00  0.00     0.319 C 
HETATM    7  O4  UNL     1      25.408  -2.940  11.062  1.00  0.00    -0.247 OA
HETATM    8  N3  UNL     1      24.816  -0.757  11.444  1.00  0.00    -0.334 N 
ATOM      9  H3  UNL     1      24.808   0.010  12.115  1.00  0.00     0.165 HD
HETATM   10  C19 UNL     1      26.435  -3.321  13.805  1.00  0.00     0.133 C 
ENDROOT
BRANCH   1  11
HETATM   11  C3  UNL     1      28.435  -1.576  14.188  1.00  0.00     0.190 C 
BRANCH  11  12
HETATM   12  N1  UNL     1      28.501  -0.982  13.045  1.00  0.00    -0.418 NA
BRANCH  12  13
HETATM   13  C2  UNL     1      28.574  -0.333  11.786  1.00  0.00     0.333 C 
BRANCH  13  14
HETATM   14  C1  UNL     1      27.957   1.041  11.760  1.00  0.00     0.204 C 
HETATM   15  O1  UNL     1      26.851   1.236  12.231  1.00  0.00    -0.646 OA
HETATM   16  O2  UNL     1      28.700   2.039  11.182  1.00  0.00    -0.646 OA
ENDBRANCH  13  14
ENDBRANCH  12  13
ENDBRANCH  11  12
BRANCH  11  17
HETATM   17  O3  UNL     1      29.371  -2.296  14.760  1.00  0.00    -0.339 OA
ATOM     18  H3  UNL     1      29.394  -2.592  15.662  1.00  0.00     0.220 HD
ENDBRANCH  11  17
ENDBRANCH   1  11
BRANCH   8  19
HETATM   19  C9  UNL     1      24.263  -0.474  10.165  1.00  0.00     0.035 C 
HETATM   20  C10 UNL     1      23.655  -1.671   9.492  1.00  0.00     0.035 C 
HETATM   21  C11 UNL     1      23.102  -1.306   8.127  1.00  0.00    -0.012 C 
HETATM   22  C12 UNL     1      22.114  -0.143   8.215  1.00  0.00     0.009 C 
HETATM   23  C16 UNL     1      24.257  -0.896   7.249  1.00  0.00     0.009 C 
HETATM   24  C13 UNL     1      22.785   1.028   8.874  1.00  0.00    -0.012 C 
HETATM   25  C14 UNL     1      23.943   1.472   8.026  1.00  0.00     0.009 C 
HETATM   26  C18 UNL     1      23.197   0.612  10.247  1.00  0.00     0.035 C 
HETATM   27  C15 UNL     1      24.901   0.309   7.891  1.00  0.00    -0.012 C 
HETATM   28  C17 UNL     1      25.400  -0.010   9.263  1.00  0.00     0.035 C 
ENDBRANCH   8  19
TORSDOF 6
ENDMDL
MODEL 3
REMARK VINA RESULT: -7.081049124      0.406      1.483
REMARK  6 active torsions:
REMARK  status: ('A' for Active; 'I' for Inactive)
REMARK    1  A    between atoms: C1_2  and  C2_4 
REMARK    2  A    between atoms: C2_4  and  N1_5 
REMARK    3  A    between atoms: N1_5  and  C3_6 
REMARK    4  A    between atoms: C3_6  and  O3_7 
REMARK    5  A    between atoms: C3_6  and  C4_9 
REMARK       I    between atoms: N2_13  and  C8_14 
REMARK       I    between atoms: C8_14  and  N3_16 
REMARK    6  A    between atoms: N3_16  and  C9_18 
ROOT
HETATM    1  C4  UNL     1      25.891  -2.112  15.369  1.00  0.00     0.103 C 
HETATM    2  C5  UNL     1      26.390  -3.456  14.857  1.00  0.00     0.021 C 
HETATM    3  C6  UNL     1      24.916  -3.698  14.546  1.00  0.00     0.033 C 
HETATM    4  C7  UNL     1      24.977  -2.192  14.183  1.00  0.00     0.102 C 
HETATM    5  N2  UNL     1      25.819  -2.268  13.046  1.00  0.00    -0.328 N 
HETATM    6  C8  UNL     1      25.600  -1.736  11.763  1.00  0.00     0.319 C 
HETATM    7  O4  UNL     1      26.462  -1.894  10.835  1.00  0.00    -0.247 OA
HETATM    8  N3  UNL     1      24.429  -1.013  11.428  1.00  0.00    -0.334 N 
ATOM      9  H3  UNL     1      23.753  -0.881  12.180  1.00  0.00     0.165 HD
HETATM   10  C19 UNL     1      26.937  -3.046  13.513  1.00  0.00     0.133 C 
ENDROOT
BRANCH   1  11
HETATM   11  C3  UNL     1      26.962  -1.035  15.285  1.00  0.00     0.190 C 
BRANCH  11  12
HETATM   12  N1  UNL     1      28.175  -1.300  15.638  1.00  0.00    -0.418 NA
BRANCH  12  13
HETATM   13  C2  UNL     1      29.505  -1.594  16.028  1.00  0.00     0.333 C 
BRANCH  13  14
HETATM   14  C1  UNL     1      30.329  -0.385  16.388  1.00  0.00     0.204 C 
HETATM   15  O1  UNL     1      30.251   0.115  17.495  1.00  0.00    -0.646 OA
HETATM   16  O2  UNL     1      31.154   0.111  15.410  1.00  0.00    -0.646 OA
ENDBRANCH  13  14
ENDBRANCH  12  13
ENDBRANCH  11  12
BRANCH  11  17
HETATM   17  O3  UNL     1      26.502   0.110  14.838  1.00  0.00    -0.339 OA
ATOM     18  H3  UNL     1      26.970   0.750  14.315  1.00  0.00     0.220 HD
ENDBRANCH  11  17
ENDBRANCH   1  11
BRANCH   8  19
HETATM   19  C9  UNL     1      24.082  -0.448  10.171  1.00  0.00     0.035 C 
HETATM   20  C10 UNL     1      23.022   0.613  10.258  1.00  0.00     0.035 C 
HETATM   21  C11 UNL     1      22.686   1.159   8.882  1.00  0.00    -0.012 C 
HETATM   22  C12 UNL     1      23.933   1.663   8.158  1.00  0.00     0.009 C 
HETATM   23  C16 UNL     1      22.071   0.045   8.074  1.00  0.00     0.009 C 
HETATM   24  C13 UNL     1      24.943   0.554   8.082  1.00  0.00    -0.012 C 
HETATM   25  C14 UNL     1      24.371  -0.579   7.279  1.00  0.00     0.009 C 
HETATM   26  C18 UNL     1      25.296   0.156   9.476  1.00  0.00     0.035 C 
HETATM   27  C15 UNL     1      23.106  -1.049   7.962  1.00  0.00    -0.012 C 
HETATM   28  C17 UNL     1      23.500  -1.562   9.309  1.00  0.00     0.035 C 
ENDBRANCH   8  19
TORSDOF 6
ENDMDL
MODEL 4
REMARK VINA RESULT: -7.078197779      2.150      2.657
REMARK  6 active torsions:
REMARK  status: ('A' for Active; 'I' for Inactive)
REMARK    1  A    between atoms: C1_2  and  C2_4 
REMARK    2  A    between atoms: C2_4  and  N1_5 
REMARK    3  A    between atoms: N1_5  and  C3_6 
REMARK    4  A    between atoms: C3_6  and  O3_7 
REMARK    5  A    between atoms: C3_6  and  C4_9 
REMARK       I    between atoms: N2_13  and  C8_14 
REMARK       I    between atoms: C8_14  and  N3_16 
REMARK    6  A    between atoms: N3_16  and  C9_18 
ROOT
HETATM    1  C4  UNL     1      26.238  -3.808  13.782  1.00  0.00     0.103 C 
HETATM    2  C5  UNL     1      25.797  -5.100  13.109  1.00  0.00     0.021 C 
HETATM    3  C6  UNL     1      24.394  -4.587  13.416  1.00  0.00     0.033 C 
HETATM    4  C7  UNL     1      25.056  -3.230  13.063  1.00  0.00     0.102 C 
HETATM    5  N2  UNL     1      25.294  -3.447  11.683  1.00  0.00    -0.328 N 
HETATM    6  C8  UNL     1      24.934  -2.630  10.598  1.00  0.00     0.319 C 
HETATM    7  O4  UNL     1      25.220  -2.970   9.402  1.00  0.00    -0.247 OA
HETATM    8  N3  UNL     1      24.238  -1.407  10.763  1.00  0.00    -0.334 N 
ATOM      9  H3  UNL     1      24.026  -1.139  11.723  1.00  0.00     0.165 HD
HETATM   10  C19 UNL     1      25.967  -4.721  11.660  1.00  0.00     0.133 C 
ENDROOT
BRANCH   1  11
HETATM   11  C3  UNL     1      27.594  -3.334  13.278  1.00  0.00     0.190 C 
BRANCH  11  12
HETATM   12  N1  UNL     1      27.743  -2.119  12.870  1.00  0.00    -0.418 NA
BRANCH  12  13
HETATM   13  C2  UNL     1      27.908  -0.786  12.417  1.00  0.00     0.333 C 
BRANCH  13  14
HETATM   14  C1  UNL     1      26.813   0.156  12.846  1.00  0.00     0.204 C 
HETATM   15  O1  UNL     1      26.273   0.891  12.040  1.00  0.00    -0.646 OA
HETATM   16  O2  UNL     1      26.469   0.136  14.175  1.00  0.00    -0.646 OA
ENDBRANCH  13  14
ENDBRANCH  12  13
ENDBRANCH  11  12
BRANCH  11  17
HETATM   17  O3  UNL     1      28.510  -4.272  13.319  1.00  0.00    -0.339 OA
ATOM     18  H3  UNL     1      28.948  -4.676  12.579  1.00  0.00     0.220 HD
ENDBRANCH  11  17
ENDBRANCH   1  11
BRANCH   8  19
HETATM   19  C9  UNL     1      23.801  -0.509   9.752  1.00  0.00     0.035 C 
HETATM   20  C10 UNL     1      24.923   0.120   8.977  1.00  0.00     0.035 C 
HETATM   21  C11 UNL     1      24.389   1.080   7.930  1.00  0.00    -0.012 C 
HETATM   22  C12 UNL     1      23.377   0.401   7.010  1.00  0.00     0.009 C 
HETATM   23  C16 UNL     1      23.708   2.220   8.644  1.00  0.00     0.009 C 
HETATM   24  C13 UNL     1      22.271  -0.188   7.838  1.00  0.00    -0.012 C 
HETATM   25  C14 UNL     1      21.561   0.918   8.566  1.00  0.00     0.009 C 
HETATM   26  C18 UNL     1      22.871  -1.196   8.759  1.00  0.00     0.035 C 
HETATM   27  C15 UNL     1      22.568   1.630   9.440  1.00  0.00    -0.012 C 
HETATM   28  C17 UNL     1      23.063   0.634  10.438  1.00  0.00     0.035 C 
ENDBRANCH   8  19
TORSDOF 6
ENDMDL
MODEL 5
REMARK VINA RESULT: -7.046941499      1.058      1.282
REMARK  6 active torsions:
REMARK  status: ('A' for Active; 'I' for Inactive)
REMARK    1  A    between atoms: C1_2  and  C2_4 
REMARK    2  A    between atoms: C2_4  and  N1_5 
REMARK    3  A    between atoms: N1_5  and  C3_6 
REMARK    4  A    between atoms: C3_6  and  O3_7 
REMARK    5  A    between atoms: C3_6  and  C4_9 
REMARK       I    between atoms: N2_13  and  C8_14 
REMARK       I    between atoms: C8_14  and  N3_16 
REMARK    6  A    between atoms: N3_16  and  C9_18 
ROOT
HETATM    1  C4  UNL     1      25.884  -2.094  15.187  1.00  0.00     0.103 C 
HETATM    2  C5  UNL     1      26.366  -3.412  14.597  1.00  0.00     0.021 C 
HETATM    3  C6  UNL     1      24.881  -3.648  14.338  1.00  0.00     0.033 C 
HETATM    4  C7  UNL     1      24.921  -2.128  14.039  1.00  0.00     0.102 C 
HETATM    5  N2  UNL     1      25.714  -2.149  12.865  1.00  0.00    -0.328 N 
HETATM    6  C8  UNL     1      25.439  -1.564  11.617  1.00  0.00     0.319 C 
HETATM    7  O4  UNL     1      26.261  -1.677  10.648  1.00  0.00    -0.247 OA
HETATM    8  N3  UNL     1      24.252  -0.833  11.364  1.00  0.00    -0.334 N 
ATOM      9  H3  UNL     1      23.608  -0.738  12.149  1.00  0.00     0.165 HD
HETATM   10  C19 UNL     1      26.854  -2.941  13.250  1.00  0.00     0.133 C 
ENDROOT
BRANCH   1  11
HETATM   11  C3  UNL     1      26.947  -1.008  15.106  1.00  0.00     0.190 C 
BRANCH  11  12
HETATM   12  N1  UNL     1      28.143  -1.240  15.532  1.00  0.00    -0.418 NA
BRANCH  12  13
HETATM   13  C2  UNL     1      29.456  -1.492  16.002  1.00  0.00     0.333 C 
BRANCH  13  14
HETATM   14  C1  UNL     1      29.967  -2.877  15.704  1.00  0.00     0.204 C 
HETATM   15  O1  UNL     1      30.117  -3.252  14.556  1.00  0.00    -0.646 OA
HETATM   16  O2  UNL     1      30.247  -3.676  16.785  1.00  0.00    -0.646 OA
ENDBRANCH  13  14
ENDBRANCH  12  13
ENDBRANCH  11  12
BRANCH  11  17
HETATM   17  O3  UNL     1      26.498   0.107  14.580  1.00  0.00    -0.339 OA
ATOM     18  H3  UNL     1      26.591   0.984  14.933  1.00  0.00     0.220 HD
ENDBRANCH  11  17
ENDBRANCH   1  11
BRANCH   8  19
HETATM   19  C9  UNL     1      23.850  -0.216  10.148  1.00  0.00     0.035 C 
HETATM   20  C10 UNL     1      24.966   0.486   9.430  1.00  0.00     0.035 C 
HETATM   21  C11 UNL     1      24.467   1.138   8.153  1.00  0.00    -0.012 C 
HETATM   22  C12 UNL     1      23.758   0.130   7.250  1.00  0.00     0.009 C 
HETATM   23  C16 UNL     1      23.490   2.222   8.533  1.00  0.00     0.009 C 
HETATM   24  C13 UNL     1      22.641  -0.520   8.014  1.00  0.00    -0.012 C 
HETATM   25  C14 UNL     1      21.639   0.528   8.409  1.00  0.00     0.009 C 
HETATM   26  C18 UNL     1      23.234  -1.226   9.187  1.00  0.00     0.035 C 
HETATM   27  C15 UNL     1      22.346   1.558   9.262  1.00  0.00    -0.012 C 
HETATM   28  C17 UNL     1      22.823   0.856  10.491  1.00  0.00     0.035 C 
ENDBRANCH   8  19
TORSDOF 6
ENDMDL
