MODEL 1
REMARK VINA RESULT: -6.510901139      0.000      0.000
REMARK  4 active torsions:
REMARK  status: ('A' for Active; 'I' for Inactive)
REMARK    1  A    between atoms: C2_2  and  C3_3 
REMARK    2  A    between atoms: C3_3  and  C4_4 
REMARK    3  A    between atoms: C3_3  and  N2_10 
REMARK    4  A    between atoms: C4_4  and  N1_5 
REMARK       I    between atoms: N1_5  and  C5_7 
REMARK       I    between atoms: N2_10  and  C7_12 
REMARK       I    between atoms: C7_12  and  N3_14 
REMARK       I    between atoms: N4_25  and  C18_26 
ROOT
HETATM    1  N2  UNL     1      24.592   0.080   9.939  1.00  0.00    -0.337 N 
ATOM      2  H2  UNL     1      24.100  -0.092  10.815  1.00  0.00     0.164 HD
HETATM    3  C7  UNL     1      26.014   0.047   9.934  1.00  0.00     0.320 C 
HETATM    4  O2  UNL     1      26.594   0.263   8.838  1.00  0.00    -0.247 OA
HETATM    5  N3  UNL     1      26.771  -0.214  11.094  1.00  0.00    -0.301 N 
HETATM    6  C8  UNL     1      28.024  -0.382  11.746  1.00  0.00     0.217 A 
HETATM    7  C9  UNL     1      26.766  -0.498  12.516  1.00  0.00     0.142 A 
HETATM    8  C10 UNL     1      26.418  -1.846  13.044  1.00  0.00    -0.014 C 
HETATM    9  C11 UNL     1      25.773  -2.750  12.037  1.00  0.00     0.012 C 
HETATM   10  C12 UNL     1      25.472  -4.117  12.622  1.00  0.00     0.001 C 
HETATM   11  C13 UNL     1      24.738  -4.030  13.921  1.00  0.00     0.000 C 
HETATM   12  C14 UNL     1      24.248  -2.614  14.092  1.00  0.00     0.001 C 
HETATM   13  C15 UNL     1      25.367  -1.632  14.146  1.00  0.00     0.012 C 
HETATM   14  C16 UNL     1      27.599  -2.466  13.748  1.00  0.00     0.031 C 
HETATM   15  C17 UNL     1      28.914  -2.237  13.097  1.00  0.00     0.128 C 
HETATM   16  N4  UNL     1      28.757  -1.600  11.798  1.00  0.00    -0.332 N 
HETATM   17  C18 UNL     1      29.369  -2.256  10.699  1.00  0.00     0.185 C 
HETATM   18  N5  UNL     1      30.571  -2.747  10.862  1.00  0.00    -0.374 N 
ATOM     19  H51 UNL     1      31.011  -3.218  10.071  1.00  0.00     0.158 HD
ATOM     20  H52 UNL     1      30.989  -2.621  11.784  1.00  0.00     0.158 HD
HETATM   21  N6  UNL     1      28.791  -2.431   9.424  1.00  0.00    -0.064 NA
ENDROOT
BRANCH   1  22
HETATM   22  C3  UNL     1      23.811   0.350   8.737  1.00  0.00     0.103 C 
BRANCH  22  23
HETATM   23  C2  UNL     1      22.612   1.223   9.058  1.00  0.00     0.022 C 
HETATM   24  C1  UNL     1      22.703   1.895  10.386  1.00  0.00     0.007 C 
ENDBRANCH  22  23
BRANCH  22  25
HETATM   25  C4  UNL     1      23.381  -0.897   8.047  1.00  0.00     0.147 C 
BRANCH  25  26
HETATM   26  N1  UNL     1      24.272  -1.254   6.997  1.00  0.00    -0.359 N 
HETATM   27  C5  UNL     1      25.194  -2.324   7.098  1.00  0.00     0.213 C 
HETATM   28  C6  UNL     1      26.125  -2.666   5.961  1.00  0.00     0.117 C 
HETATM   29  O1  UNL     1      25.311  -3.057   8.111  1.00  0.00    -0.274 OA
ATOM     30  H1  UNL     1      24.246  -0.715   6.132  1.00  0.00     0.162 HD
ENDBRANCH  25  26
ENDBRANCH  22  25
ENDBRANCH   1  22
TORSDOF 4
ENDMDL
MODEL 2
REMARK VINA RESULT: -6.414211666      2.884      4.304
REMARK  4 active torsions:
REMARK  status: ('A' for Active; 'I' for Inactive)
REMARK    1  A    between atoms: C2_2  and  C3_3 
REMARK    2  A    between atoms: C3_3  and  C4_4 
REMARK    3  A    between atoms: C3_3  and  N2_10 
REMARK    4  A    between atoms: C4_4  and  N1_5 
REMARK       I    between atoms: N1_5  and  C5_7 
REMARK       I    between atoms: N2_10  and  C7_12 
REMARK       I    between atoms: C7_12  and  N3_14 
REMARK       I    between atoms: N4_25  and  C18_26 
ROOT
HETATM    1  N2  UNL     1      25.908  -2.080   9.648  1.00  0.00    -0.337 N 
ATOM      2  H2  UNL     1      26.266  -1.498  10.405  1.00  0.00     0.164 HD
HETATM    3  C7  UNL     1      25.990  -3.495   9.774  1.00  0.00     0.320 C 
HETATM    4  O2  UNL     1      25.540  -4.188   8.825  1.00  0.00    -0.247 OA
HETATM    5  N3  UNL     1      26.549  -4.124  10.905  1.00  0.00    -0.301 N 
HETATM    6  C8  UNL     1      26.912  -5.301  11.618  1.00  0.00     0.217 A 
HETATM    7  C9  UNL     1      27.189  -3.968  12.197  1.00  0.00     0.142 A 
HETATM    8  C10 UNL     1      26.417  -3.585  13.412  1.00  0.00    -0.014 C 
HETATM    9  C11 UNL     1      25.040  -3.067  13.124  1.00  0.00     0.012 C 
HETATM   10  C12 UNL     1      24.292  -2.724  14.399  1.00  0.00     0.001 C 
HETATM   11  C13 UNL     1      25.093  -1.852  15.310  1.00  0.00     0.000 C 
HETATM   12  C14 UNL     1      26.277  -1.325  14.539  1.00  0.00     0.001 C 
HETATM   13  C15 UNL     1      27.174  -2.417  14.066  1.00  0.00     0.012 C 
HETATM   14  C16 UNL     1      26.448  -4.691  14.437  1.00  0.00     0.031 C 
HETATM   15  C17 UNL     1      26.337  -6.065  13.886  1.00  0.00     0.128 C 
HETATM   16  N4  UNL     1      26.038  -6.042  12.462  1.00  0.00    -0.332 N 
HETATM   17  C18 UNL     1      24.900  -6.780  12.046  1.00  0.00     0.185 C 
HETATM   18  N5  UNL     1      24.705  -7.964  12.569  1.00  0.00    -0.374 N 
ATOM     19  H51 UNL     1      23.887  -8.495  12.270  1.00  0.00     0.158 HD
ATOM     20  H52 UNL     1      25.398  -8.277  13.249  1.00  0.00     0.158 HD
HETATM   21  N6  UNL     1      23.941  -6.347  11.106  1.00  0.00    -0.064 NA
ENDROOT
BRANCH   1  22
HETATM   22  C3  UNL     1      25.329  -1.431   8.477  1.00  0.00     0.103 C 
BRANCH  22  23
HETATM   23  C2  UNL     1      26.048  -0.131   8.172  1.00  0.00     0.022 C 
HETATM   24  C1  UNL     1      25.676   0.461   6.854  1.00  0.00     0.007 C 
ENDBRANCH  22  23
BRANCH  22  25
HETATM   25  C4  UNL     1      23.866  -1.199   8.622  1.00  0.00     0.147 C 
BRANCH  25  26
HETATM   26  N1  UNL     1      23.580  -0.238   9.631  1.00  0.00    -0.359 N 
HETATM   27  C5  UNL     1      22.831   0.939   9.385  1.00  0.00     0.213 C 
HETATM   28  C6  UNL     1      22.556   1.936  10.483  1.00  0.00     0.117 C 
HETATM   29  O1  UNL     1      22.349   1.244   8.266  1.00  0.00    -0.274 OA
ATOM     30  H1  UNL     1      23.929  -0.403  10.574  1.00  0.00     0.162 HD
ENDBRANCH  25  26
ENDBRANCH  22  25
ENDBRANCH   1  22
TORSDOF 4
ENDMDL
MODEL 3
REMARK VINA RESULT: -6.387593797      1.559      2.325
REMARK  4 active torsions:
REMARK  status: ('A' for Active; 'I' for Inactive)
REMARK    1  A    between atoms: C2_2  and  C3_3 
REMARK    2  A    between atoms: C3_3  and  C4_4 
REMARK    3  A    between atoms: C3_3  and  N2_10 
REMARK    4  A    between atoms: C4_4  and  N1_5 
REMARK       I    between atoms: N1_5  and  C5_7 
REMARK       I    between atoms: N2_10  and  C7_12 
REMARK       I    between atoms: C7_12  and  N3_14 
REMARK       I    between atoms: N4_25  and  C18_26 
ROOT
HETATM    1  N2  UNL     1      23.908  -0.948  10.367  1.00  0.00    -0.337 N 
ATOM      2  H2  UNL     1      23.440  -1.841  10.512  1.00  0.00     0.164 HD
HETATM    3  C7  UNL     1      24.844  -0.499  11.340  1.00  0.00     0.320 C 
HETATM    4  O2  UNL     1      25.407   0.607  11.135  1.00  0.00    -0.247 OA
HETATM    5  N3  UNL     1      25.149  -1.243  12.498  1.00  0.00    -0.301 N 
HETATM    6  C8  UNL     1      25.866  -1.403  13.717  1.00  0.00     0.217 A 
HETATM    7  C9  UNL     1      24.901  -2.437  13.283  1.00  0.00     0.142 A 
HETATM    8  C10 UNL     1      25.457  -3.761  12.891  1.00  0.00    -0.014 C 
HETATM    9  C11 UNL     1      25.993  -3.810  11.492  1.00  0.00     0.012 C 
HETATM   10  C12 UNL     1      26.576  -5.172  11.162  1.00  0.00     0.001 C 
HETATM   11  C13 UNL     1      25.638  -6.287  11.495  1.00  0.00     0.000 C 
HETATM   12  C14 UNL     1      24.278  -5.695  11.766  1.00  0.00     0.001 C 
HETATM   13  C15 UNL     1      24.290  -4.761  12.926  1.00  0.00     0.012 C 
HETATM   14  C16 UNL     1      26.429  -4.261  13.931  1.00  0.00     0.031 C 
HETATM   15  C17 UNL     1      27.315  -3.224  14.518  1.00  0.00     0.128 C 
HETATM   16  N4  UNL     1      27.173  -1.953  13.824  1.00  0.00    -0.332 N 
HETATM   17  C18 UNL     1      28.369  -1.372  13.329  1.00  0.00     0.185 C 
HETATM   18  N5  UNL     1      29.433  -1.399  14.091  1.00  0.00    -0.374 N 
ATOM     19  H51 UNL     1      30.292  -0.981  13.734  1.00  0.00     0.158 HD
ATOM     20  H52 UNL     1      29.324  -1.844  15.003  1.00  0.00     0.158 HD
HETATM   21  N6  UNL     1      28.520  -0.757  12.068  1.00  0.00    -0.064 NA
ENDROOT
BRANCH   1  22
HETATM   22  C3  UNL     1      23.593  -0.176   9.170  1.00  0.00     0.103 C 
BRANCH  22  23
HETATM   23  C2  UNL     1      22.608   0.933   9.486  1.00  0.00     0.022 C 
HETATM   24  C1  UNL     1      21.654   1.217   8.376  1.00  0.00     0.007 C 
ENDBRANCH  22  23
BRANCH  22  25
HETATM   25  C4  UNL     1      23.082  -1.031   8.063  1.00  0.00     0.147 C 
BRANCH  25  26
HETATM   26  N1  UNL     1      24.069  -1.244   7.061  1.00  0.00    -0.359 N 
HETATM   27  C5  UNL     1      25.094  -2.215   7.181  1.00  0.00     0.213 C 
HETATM   28  C6  UNL     1      26.125  -2.404   6.096  1.00  0.00     0.117 C 
HETATM   29  O1  UNL     1      25.228  -2.975   8.171  1.00  0.00    -0.274 OA
ATOM     30  H1  UNL     1      24.038  -0.673   6.217  1.00  0.00     0.162 HD
ENDBRANCH  25  26
ENDBRANCH  22  25
ENDBRANCH   1  22
TORSDOF 4
ENDMDL
MODEL 4
REMARK VINA RESULT: -6.291996165      2.707      4.079
REMARK  4 active torsions:
REMARK  status: ('A' for Active; 'I' for Inactive)
REMARK    1  A    between atoms: C2_2  and  C3_3 
REMARK    2  A    between atoms: C3_3  and  C4_4 
REMARK    3  A    between atoms: C3_3  and  N2_10 
REMARK    4  A    between atoms: C4_4  and  N1_5 
REMARK       I    between atoms: N1_5  and  C5_7 
REMARK       I    between atoms: N2_10  and  C7_12 
REMARK       I    between atoms: C7_12  and  N3_14 
REMARK       I    between atoms: N4_25  and  C18_26 
ROOT
HETATM    1  N2  UNL     1      25.953  -1.905   9.066  1.00  0.00    -0.337 N 
ATOM      2  H2  UNL     1      26.276  -1.338   9.849  1.00  0.00     0.164 HD
HETATM    3  C7  UNL     1      26.111  -3.318   9.132  1.00  0.00     0.320 C 
HETATM    4  O2  UNL     1      25.703  -3.993   8.152  1.00  0.00    -0.247 OA
HETATM    5  N3  UNL     1      26.698  -3.964  10.239  1.00  0.00    -0.301 N 
HETATM    6  C8  UNL     1      27.122  -5.149  10.903  1.00  0.00     0.217 A 
HETATM    7  C9  UNL     1      27.324  -3.829  11.540  1.00  0.00     0.142 A 
HETATM    8  C10 UNL     1      26.529  -3.540  12.765  1.00  0.00    -0.014 C 
HETATM    9  C11 UNL     1      25.127  -3.085  12.491  1.00  0.00     0.012 C 
HETATM   10  C12 UNL     1      24.356  -2.838  13.775  1.00  0.00     0.001 C 
HETATM   11  C13 UNL     1      25.106  -1.963  14.727  1.00  0.00     0.000 C 
HETATM   12  C14 UNL     1      26.262  -1.341  13.987  1.00  0.00     0.001 C 
HETATM   13  C15 UNL     1      27.218  -2.362  13.473  1.00  0.00     0.012 C 
HETATM   14  C16 UNL     1      26.615  -4.686  13.742  1.00  0.00     0.031 C 
HETATM   15  C17 UNL     1      26.579  -6.039  13.133  1.00  0.00     0.128 C 
HETATM   16  N4  UNL     1      26.286  -5.971  11.709  1.00  0.00    -0.332 N 
HETATM   17  C18 UNL     1      25.190  -6.751  11.256  1.00  0.00     0.185 C 
HETATM   18  N5  UNL     1      25.058  -7.965  11.726  1.00  0.00    -0.374 N 
ATOM     19  H51 UNL     1      24.270  -8.525  11.400  1.00  0.00     0.158 HD
ATOM     20  H52 UNL     1      25.764  -8.269  12.396  1.00  0.00     0.158 HD
HETATM   21  N6  UNL     1      24.213  -6.330  10.329  1.00  0.00    -0.064 NA
ENDROOT
BRANCH   1  22
HETATM   22  C3  UNL     1      25.345  -1.239   7.920  1.00  0.00     0.103 C 
BRANCH  22  23
HETATM   23  C2  UNL     1      25.969   0.126   7.697  1.00  0.00     0.022 C 
HETATM   24  C1  UNL     1      27.149   0.391   8.569  1.00  0.00     0.007 C 
ENDBRANCH  22  23
BRANCH  22  25
HETATM   25  C4  UNL     1      23.866  -1.124   8.049  1.00  0.00     0.147 C 
BRANCH  25  26
HETATM   26  N1  UNL     1      23.476   0.153   8.539  1.00  0.00    -0.359 N 
HETATM   27  C5  UNL     1      23.479   0.485   9.916  1.00  0.00     0.213 C 
HETATM   28  C6  UNL     1      23.051   1.850  10.394  1.00  0.00     0.117 C 
HETATM   29  O1  UNL     1      23.826  -0.305  10.828  1.00  0.00    -0.274 OA
ATOM     30  H1  UNL     1      23.180   0.863   7.869  1.00  0.00     0.162 HD
ENDBRANCH  25  26
ENDBRANCH  22  25
ENDBRANCH   1  22
TORSDOF 4
ENDMDL
MODEL 5
REMARK VINA RESULT: -6.220289447      1.218      1.515
REMARK  4 active torsions:
REMARK  status: ('A' for Active; 'I' for Inactive)
REMARK    1  A    between atoms: C2_2  and  C3_3 
REMARK    2  A    between atoms: C3_3  and  C4_4 
REMARK    3  A    between atoms: C3_3  and  N2_10 
REMARK    4  A    between atoms: C4_4  and  N1_5 
REMARK       I    between atoms: N1_5  and  C5_7 
REMARK       I    between atoms: N2_10  and  C7_12 
REMARK       I    between atoms: C7_12  and  N3_14 
REMARK       I    between atoms: N4_25  and  C18_26 
ROOT
HETATM    1  N2  UNL     1      24.182  -0.406  10.641  1.00  0.00    -0.337 N 
ATOM      2  H2  UNL     1      23.628  -1.077  11.172  1.00  0.00     0.164 HD
HETATM    3  C7  UNL     1      25.426   0.031  11.177  1.00  0.00     0.320 C 
HETATM    4  O2  UNL     1      26.088   0.860  10.500  1.00  0.00    -0.247 OA
HETATM    5  N3  UNL     1      25.923  -0.429  12.413  1.00  0.00    -0.301 N 
HETATM    6  C8  UNL     1      26.926  -0.436  13.422  1.00  0.00     0.217 A 
HETATM    7  C9  UNL     1      25.711  -1.265  13.579  1.00  0.00     0.142 A 
HETATM    8  C10 UNL     1      25.887  -2.743  13.525  1.00  0.00    -0.014 C 
HETATM    9  C11 UNL     1      25.971  -3.299  12.136  1.00  0.00     0.012 C 
HETATM   10  C12 UNL     1      26.184  -4.801  12.145  1.00  0.00     0.001 C 
HETATM   11  C13 UNL     1      25.206  -5.508  13.027  1.00  0.00     0.000 C 
HETATM   12  C14 UNL     1      24.111  -4.538  13.389  1.00  0.00     0.001 C 
HETATM   13  C15 UNL     1      24.625  -3.363  14.147  1.00  0.00     0.012 C 
HETATM   14  C16 UNL     1      27.019  -3.179  14.423  1.00  0.00     0.031 C 
HETATM   15  C17 UNL     1      28.205  -2.286  14.424  1.00  0.00     0.128 C 
HETATM   16  N4  UNL     1      28.090  -1.254  13.404  1.00  0.00    -0.332 N 
HETATM   17  C18 UNL     1      29.170  -1.152  12.490  1.00  0.00     0.185 C 
HETATM   18  N5  UNL     1      30.389  -1.247  12.957  1.00  0.00    -0.374 N 
ATOM     19  H51 UNL     1      31.165  -1.173  12.299  1.00  0.00     0.158 HD
ATOM     20  H52 UNL     1      30.477  -1.388  13.964  1.00  0.00     0.158 HD
HETATM   21  N6  UNL     1      29.049  -0.957  11.097  1.00  0.00    -0.064 NA
ENDROOT
BRANCH   1  22
HETATM   22  C3  UNL     1      23.669   0.072   9.362  1.00  0.00     0.103 C 
BRANCH  22  23
HETATM   23  C2  UNL     1      22.698   1.219   9.565  1.00  0.00     0.022 C 
HETATM   24  C1  UNL     1      21.626   1.282   8.530  1.00  0.00     0.007 C 
ENDBRANCH  22  23
BRANCH  22  25
HETATM   25  C4  UNL     1      23.038  -1.015   8.563  1.00  0.00     0.147 C 
BRANCH  25  26
HETATM   26  N1  UNL     1      23.823  -1.361   7.428  1.00  0.00    -0.359 N 
HETATM   27  C5  UNL     1      25.001  -2.142   7.514  1.00  0.00     0.213 C 
HETATM   28  C6  UNL     1      25.807  -2.481   6.284  1.00  0.00     0.117 C 
HETATM   29  O1  UNL     1      25.461  -2.603   8.587  1.00  0.00    -0.274 OA
ATOM     30  H1  UNL     1      23.523  -1.031   6.510  1.00  0.00     0.162 HD
ENDBRANCH  25  26
ENDBRANCH  22  25
ENDBRANCH   1  22
TORSDOF 4
ENDMDL
