MODEL 1
REMARK VINA RESULT: -4.134198448      0.000      0.000
REMARK  2 active torsions:
REMARK  status: ('A' for Active; 'I' for Inactive)
REMARK    1  A    between atoms: C1_4  and  N2_5 
REMARK    2  A    between atoms: N2_5  and  C2_7 
ROOT
HETATM    1  C2  UNL     1       6.197 -13.182   8.682  1.00  0.00     0.133 C 
HETATM    2  C3  UNL     1       5.026 -12.693   9.507  1.00  0.00     0.259 C 
HETATM    3  N3  UNL     1       4.507 -12.097   8.286  1.00  0.00    -0.071 N 
ATOM      4  H31 UNL     1       3.844 -11.322   8.309  1.00  0.00     0.277 HD
ATOM      5  H32 UNL     1       3.850 -12.596   7.685  1.00  0.00     0.277 HD
HETATM    6  C4  UNL     1       5.905 -11.899   7.896  1.00  0.00     0.259 C 
ENDROOT
BRANCH   1   7
HETATM    7  N2  UNL     1       7.461 -13.183   9.362  1.00  0.00    -0.379 N 
ATOM      8  H2  UNL     1       7.891 -12.279   9.557  1.00  0.00     0.160 HD
BRANCH   7   9
HETATM    9  C1  UNL     1       8.152 -14.335   9.778  1.00  0.00     0.169 C 
HETATM   10  N1  UNL     1       8.109 -14.655  11.010  1.00  0.00    -0.396 N 
ATOM     11  H12 UNL     1       7.581 -14.078  11.666  1.00  0.00     0.156 HD
ATOM     12  H11 UNL     1       8.610 -15.490  11.313  1.00  0.00     0.156 HD
ENDBRANCH   7   9
ENDBRANCH   1   7
TORSDOF 2
ENDMDL
MODEL 2
REMARK VINA RESULT: -4.075105341      1.177      3.600
REMARK  2 active torsions:
REMARK  status: ('A' for Active; 'I' for Inactive)
REMARK    1  A    between atoms: C1_4  and  N2_5 
REMARK    2  A    between atoms: N2_5  and  C2_7 
ROOT
HETATM    1  C2  UNL     1       6.938 -12.909   9.254  1.00  0.00     0.133 C 
HETATM    2  C3  UNL     1       6.296 -13.411  10.529  1.00  0.00     0.259 C 
HETATM    3  N3  UNL     1       7.596 -13.962  10.882  1.00  0.00    -0.071 N 
ATOM      4  H31 UNL     1       7.687 -14.730  11.547  1.00  0.00     0.277 HD
ATOM      5  H32 UNL     1       8.262 -13.436  11.448  1.00  0.00     0.277 HD
HETATM    6  C4  UNL     1       7.799 -14.163   9.444  1.00  0.00     0.259 C 
ENDROOT
BRANCH   1   7
HETATM    7  N2  UNL     1       6.095 -12.944   8.093  1.00  0.00    -0.379 N 
ATOM      8  H2  UNL     1       6.207 -13.730   7.453  1.00  0.00     0.160 HD
BRANCH   7   9
HETATM    9  C1  UNL     1       5.126 -11.976   7.770  1.00  0.00     0.169 C 
HETATM   10  N1  UNL     1       3.898 -12.310   7.816  1.00  0.00    -0.396 N 
ATOM     11  H12 UNL     1       3.641 -13.261   8.082  1.00  0.00     0.156 HD
ATOM     12  H11 UNL     1       3.196 -11.609   7.582  1.00  0.00     0.156 HD
ENDBRANCH   7   9
ENDBRANCH   1   7
TORSDOF 2
ENDMDL
MODEL 3
REMARK VINA RESULT: -3.980729504      0.788      1.293
REMARK  2 active torsions:
REMARK  status: ('A' for Active; 'I' for Inactive)
REMARK    1  A    between atoms: C1_4  and  N2_5 
REMARK    2  A    between atoms: N2_5  and  C2_7 
ROOT
HETATM    1  C2  UNL     1       6.083 -12.283   8.569  1.00  0.00     0.133 C 
HETATM    2  C3  UNL     1       5.358 -12.607   7.281  1.00  0.00     0.259 C 
HETATM    3  N3  UNL     1       4.163 -12.052   7.897  1.00  0.00    -0.071 N 
ATOM      4  H31 UNL     1       3.229 -12.306   7.575  1.00  0.00     0.277 HD
ATOM      5  H32 UNL     1       3.904 -11.073   7.774  1.00  0.00     0.277 HD
HETATM    6  C4  UNL     1       4.698 -12.551   9.167  1.00  0.00     0.259 C 
ENDROOT
BRANCH   1   7
HETATM    7  N2  UNL     1       7.087 -13.232   8.958  1.00  0.00    -0.379 N 
ATOM      8  H2  UNL     1       7.770 -13.510   8.254  1.00  0.00     0.160 HD
BRANCH   7   9
HETATM    9  C1  UNL     1       7.199 -13.808  10.237  1.00  0.00     0.169 C 
HETATM   10  N1  UNL     1       8.282 -14.408  10.538  1.00  0.00    -0.396 N 
ATOM     11  H12 UNL     1       9.040 -14.460   9.856  1.00  0.00     0.156 HD
ATOM     12  H11 UNL     1       8.364 -14.825  11.464  1.00  0.00     0.156 HD
ENDBRANCH   7   9
ENDBRANCH   1   7
TORSDOF 2
ENDMDL
MODEL 4
REMARK VINA RESULT: -3.919786819      1.167      3.676
REMARK  2 active torsions:
REMARK  status: ('A' for Active; 'I' for Inactive)
REMARK    1  A    between atoms: C1_4  and  N2_5 
REMARK    2  A    between atoms: N2_5  and  C2_7 
ROOT
HETATM    1  C2  UNL     1       6.407 -13.447   9.183  1.00  0.00     0.133 C 
HETATM    2  C3  UNL     1       7.869 -13.745   9.441  1.00  0.00     0.259 C 
HETATM    3  N3  UNL     1       7.479 -14.120  10.792  1.00  0.00    -0.071 N 
ATOM      4  H31 UNL     1       8.148 -14.114  11.562  1.00  0.00     0.277 HD
ATOM      5  H32 UNL     1       7.259 -15.086  11.035  1.00  0.00     0.277 HD
HETATM    6  C4  UNL     1       6.433 -13.100  10.676  1.00  0.00     0.259 C 
ENDROOT
BRANCH   1   7
HETATM    7  N2  UNL     1       6.158 -12.325   8.322  1.00  0.00    -0.379 N 
ATOM      8  H2  UNL     1       6.789 -11.527   8.394  1.00  0.00     0.160 HD
BRANCH   7   9
HETATM    9  C1  UNL     1       5.110 -12.244   7.387  1.00  0.00     0.169 C 
HETATM   10  N1  UNL     1       3.912 -12.263   7.817  1.00  0.00    -0.396 N 
ATOM     11  H12 UNL     1       3.733 -12.337   8.819  1.00  0.00     0.156 HD
ATOM     12  H11 UNL     1       3.152 -12.204   7.139  1.00  0.00     0.156 HD
ENDBRANCH   7   9
ENDBRANCH   1   7
TORSDOF 2
ENDMDL
MODEL 5
REMARK VINA RESULT: -3.656014996      9.120      9.373
REMARK  2 active torsions:
REMARK  status: ('A' for Active; 'I' for Inactive)
REMARK    1  A    between atoms: C1_4  and  N2_5 
REMARK    2  A    between atoms: N2_5  and  C2_7 
ROOT
HETATM    1  C2  UNL     1      12.891 -19.764   6.586  1.00  0.00     0.133 C 
HETATM    2  C3  UNL     1      11.885 -19.433   5.505  1.00  0.00     0.259 C 
HETATM    3  N3  UNL     1      13.000 -18.920   4.724  1.00  0.00    -0.071 N 
ATOM      4  H31 UNL     1      12.861 -18.242   3.975  1.00  0.00     0.277 HD
ATOM      5  H32 UNL     1      13.498 -19.508   4.055  1.00  0.00     0.277 HD
HETATM    6  C4  UNL     1      13.602 -18.537   6.004  1.00  0.00     0.259 C 
ENDROOT
BRANCH   1   7
HETATM    7  N2  UNL     1      12.419 -19.588   7.930  1.00  0.00    -0.379 N 
ATOM      8  H2  UNL     1      11.750 -18.838   8.100  1.00  0.00     0.160 HD
BRANCH   7   9
HETATM    9  C1  UNL     1      12.810 -20.373   9.031  1.00  0.00     0.169 C 
HETATM   10  N1  UNL     1      12.067 -20.377  10.066  1.00  0.00    -0.396 N 
ATOM     11  H12 UNL     1      11.213 -19.819  10.079  1.00  0.00     0.156 HD
ATOM     12  H11 UNL     1      12.351 -20.945  10.864  1.00  0.00     0.156 HD
ENDBRANCH   7   9
ENDBRANCH   1   7
TORSDOF 2
ENDMDL
