MODEL 1
REMARK VINA RESULT: -6.445962799      0.000      0.000
REMARK  11 active torsions:
REMARK  status: ('A' for Active; 'I' for Inactive)
REMARK    1  A    between atoms: N1_2  and  C2_3 
REMARK    2  A    between atoms: N1_2  and  C10_20 
REMARK    3  A    between atoms: C2_3  and  C3_4 
REMARK    4  A    between atoms: C3_4  and  C4_5 
REMARK    5  A    between atoms: C4_5  and  C5_6 
REMARK    6  A    between atoms: C5_6  and  C6_7 
REMARK    7  A    between atoms: C6_7  and  O1_8 
REMARK    8  A    between atoms: O1_8  and  C7_9 
REMARK    9  A    between atoms: C8_10  and  N2_11 
REMARK   10  A    between atoms: C10_20  and  C11_21 
REMARK   11  A    between atoms: C13_28  and  N9_29 
ROOT
HETATM    1  C2  UNL     1      12.829  21.851  17.203  1.00  0.00     0.058 C 
ENDROOT
BRANCH   1   2
HETATM    2  N1  UNL     1      11.813  21.953  18.150  1.00  0.00    -0.391 N 
HETATM    3  C1  UNL     1      11.953  21.486  19.458  1.00  0.00     0.149 C 
BRANCH   2   4
HETATM    4  C10 UNL     1      10.512  21.867  17.551  1.00  0.00     0.198 C 
BRANCH   4   5
HETATM    5  C11 UNL     1      10.286  20.715  16.679  1.00  0.00     0.119 A 
HETATM    6  N7  UNL     1      10.627  19.446  17.025  1.00  0.00    -0.296 N 
HETATM    7  C12 UNL     1      10.415  18.409  16.208  1.00  0.00     0.340 A 
ATOM      8  H7  UNL     1      11.056  19.279  17.936  1.00  0.00     0.172 HD
HETATM    9  O2  UNL     1      10.729  17.245  16.529  1.00  0.00    -0.246 OA
HETATM   10  N8  UNL     1       9.851  18.630  15.015  1.00  0.00    -0.141 N 
HETATM   11  C13 UNL     1       9.499  19.886  14.637  1.00  0.00     0.681 A 
ATOM     12  H8  UNL     1       9.684  17.847  14.384  1.00  0.00     0.189 HD
HETATM   13  N10 UNL     1       9.723  20.898  15.476  1.00  0.00    -0.179 N 
ATOM     14  H10 UNL     1       9.458  21.841  15.193  1.00  0.00     0.185 HD
BRANCH  11  15
HETATM   15  N9  UNL     1       8.959  20.099  13.496  1.00  0.00    -0.234 N 
ATOM     16  H92 UNL     1       9.539  20.206  12.664  1.00  0.00     0.174 HD
ATOM     17  H91 UNL     1       7.946  20.166  13.403  1.00  0.00     0.174 HD
ENDBRANCH  11  15
ENDBRANCH   4   5
ENDBRANCH   2   4
ENDBRANCH   1   2
BRANCH   1  18
HETATM   18  C3  UNL     1      13.498  23.113  16.790  1.00  0.00     0.044 C 
BRANCH  18  19
HETATM   19  C4  UNL     1      13.631  23.266  15.331  1.00  0.00     0.007 C 
BRANCH  19  20
HETATM   20  C5  UNL     1      12.935  22.097  14.624  1.00  0.00     0.027 C 
BRANCH  20  21
HETATM   21  C6  UNL     1      12.080  22.617  13.524  1.00  0.00     0.170 C 
BRANCH  21  22
HETATM   22  O1  UNL     1      11.128  23.462  14.132  1.00  0.00    -0.366 OA
BRANCH  22  23
HETATM   23  C7  UNL     1      10.235  23.856  13.134  1.00  0.00     0.260 C 
HETATM   24  C8  UNL     1      10.193  25.368  13.156  1.00  0.00     0.337 C 
HETATM   25  N3  UNL     1       9.286  25.797  14.176  1.00  0.00    -0.091 NA
HETATM   26  N4  UNL     1       9.105  24.836  15.155  1.00  0.00    -0.020 NA
HETATM   27  N5  UNL     1       8.457  23.682  14.668  1.00  0.00    -0.036 NA
HETATM   28  N6  UNL     1       8.961  23.260  13.457  1.00  0.00    -0.189 NA
HETATM   29  C9  UNL     1       8.030  23.234  12.379  1.00  0.00     0.136 C 
BRANCH  24  30
HETATM   30  N2  UNL     1      11.556  25.823  13.380  1.00  0.00    -0.056 N 
ATOM     31  H23 UNL     1      11.669  26.830  13.260  1.00  0.00     0.276 HD
ATOM     32  H22 UNL     1      11.839  25.779  14.360  1.00  0.00     0.276 HD
ATOM     33  H21 UNL     1      12.155  25.275  12.763  1.00  0.00     0.276 HD
ENDBRANCH  24  30
ENDBRANCH  22  23
ENDBRANCH  21  22
ENDBRANCH  20  21
ENDBRANCH  19  20
ENDBRANCH  18  19
ENDBRANCH   1  18
TORSDOF 11
ENDMDL
MODEL 2
REMARK VINA RESULT: -6.353469347      2.253      6.055
REMARK  11 active torsions:
REMARK  status: ('A' for Active; 'I' for Inactive)
REMARK    1  A    between atoms: N1_2  and  C2_3 
REMARK    2  A    between atoms: N1_2  and  C10_20 
REMARK    3  A    between atoms: C2_3  and  C3_4 
REMARK    4  A    between atoms: C3_4  and  C4_5 
REMARK    5  A    between atoms: C4_5  and  C5_6 
REMARK    6  A    between atoms: C5_6  and  C6_7 
REMARK    7  A    between atoms: C6_7  and  O1_8 
REMARK    8  A    between atoms: O1_8  and  C7_9 
REMARK    9  A    between atoms: C8_10  and  N2_11 
REMARK   10  A    between atoms: C10_20  and  C11_21 
REMARK   11  A    between atoms: C13_28  and  N9_29 
ROOT
HETATM    1  C2  UNL     1       8.870  20.725  12.691  1.00  0.00     0.058 C 
ENDROOT
BRANCH   1   2
HETATM    2  N1  UNL     1       7.950  21.756  12.514  1.00  0.00    -0.391 N 
HETATM    3  C1  UNL     1       6.776  21.598  11.775  1.00  0.00     0.149 C 
BRANCH   2   4
HETATM    4  C10 UNL     1       8.586  23.041  12.484  1.00  0.00     0.198 C 
BRANCH   4   5
HETATM    5  C11 UNL     1       9.340  23.409  13.681  1.00  0.00     0.119 A 
HETATM    6  N7  UNL     1       8.746  23.796  14.840  1.00  0.00    -0.296 N 
HETATM    7  C12 UNL     1       9.458  24.133  15.921  1.00  0.00     0.340 A 
ATOM      8  H7  UNL     1       7.727  23.831  14.888  1.00  0.00     0.172 HD
HETATM    9  O2  UNL     1       8.909  24.488  16.984  1.00  0.00    -0.246 OA
HETATM   10  N8  UNL     1      10.793  24.087  15.857  1.00  0.00    -0.141 N 
HETATM   11  C13 UNL     1      11.419  23.705  14.713  1.00  0.00     0.681 A 
ATOM     12  H8  UNL     1      11.346  24.341  16.675  1.00  0.00     0.189 HD
HETATM   13  N10 UNL     1      10.680  23.375  13.654  1.00  0.00    -0.179 N 
ATOM     14  H10 UNL     1      11.149  23.087  12.796  1.00  0.00     0.185 HD
BRANCH  11  15
HETATM   15  N9  UNL     1      12.696  23.659  14.650  1.00  0.00    -0.234 N 
ATOM     16  H92 UNL     1      13.256  24.446  14.977  1.00  0.00     0.174 HD
ATOM     17  H91 UNL     1      13.171  22.839  14.273  1.00  0.00     0.174 HD
ENDBRANCH  11  15
ENDBRANCH   4   5
ENDBRANCH   2   4
ENDBRANCH   1   2
BRANCH   1  18
HETATM   18  C3  UNL     1       8.628  19.790  13.821  1.00  0.00     0.044 C 
BRANCH  18  19
HETATM   19  C4  UNL     1       9.837  19.477  14.603  1.00  0.00     0.007 C 
BRANCH  19  20
HETATM   20  C5  UNL     1       9.937  20.425  15.802  1.00  0.00     0.027 C 
BRANCH  20  21
HETATM   21  C6  UNL     1      11.353  20.523  16.245  1.00  0.00     0.170 C 
BRANCH  21  22
HETATM   22  O1  UNL     1      11.357  21.390  17.358  1.00  0.00    -0.366 OA
BRANCH  22  23
HETATM   23  C7  UNL     1      12.620  21.293  17.946  1.00  0.00     0.260 C 
HETATM   24  C8  UNL     1      12.406  21.285  19.444  1.00  0.00     0.337 C 
HETATM   25  N3  UNL     1      12.263  22.631  19.904  1.00  0.00    -0.091 NA
HETATM   26  N4  UNL     1      11.851  23.489  18.900  1.00  0.00    -0.020 NA
HETATM   27  N5  UNL     1      12.819  23.639  17.885  1.00  0.00    -0.036 NA
HETATM   28  N6  UNL     1      13.375  22.440  17.500  1.00  0.00    -0.189 NA
HETATM   29  C9  UNL     1      14.783  22.328  17.684  1.00  0.00     0.136 C 
BRANCH  24  30
HETATM   30  N2  UNL     1      11.226  20.471  19.695  1.00  0.00    -0.056 N 
ATOM     31  H23 UNL     1      11.214  19.604  19.158  1.00  0.00     0.276 HD
ATOM     32  H22 UNL     1      11.221  20.047  20.622  1.00  0.00     0.276 HD
ATOM     33  H21 UNL     1      10.416  21.065  19.519  1.00  0.00     0.276 HD
ENDBRANCH  24  30
ENDBRANCH  22  23
ENDBRANCH  21  22
ENDBRANCH  20  21
ENDBRANCH  19  20
ENDBRANCH  18  19
ENDBRANCH   1  18
TORSDOF 11
ENDMDL
MODEL 3
REMARK VINA RESULT: -6.281343836      4.147      5.616
REMARK  11 active torsions:
REMARK  status: ('A' for Active; 'I' for Inactive)
REMARK    1  A    between atoms: N1_2  and  C2_3 
REMARK    2  A    between atoms: N1_2  and  C10_20 
REMARK    3  A    between atoms: C2_3  and  C3_4 
REMARK    4  A    between atoms: C3_4  and  C4_5 
REMARK    5  A    between atoms: C4_5  and  C5_6 
REMARK    6  A    between atoms: C5_6  and  C6_7 
REMARK    7  A    between atoms: C6_7  and  O1_8 
REMARK    8  A    between atoms: O1_8  and  C7_9 
REMARK    9  A    between atoms: C8_10  and  N2_11 
REMARK   10  A    between atoms: C10_20  and  C11_21 
REMARK   11  A    between atoms: C13_28  and  N9_29 
ROOT
HETATM    1  C2  UNL     1      11.972  19.870  19.279  1.00  0.00     0.058 C 
ENDROOT
BRANCH   1   2
HETATM    2  N1  UNL     1      13.259  19.941  19.806  1.00  0.00    -0.391 N 
HETATM    3  C1  UNL     1      13.864  21.150  20.156  1.00  0.00     0.149 C 
BRANCH   2   4
HETATM    4  C10 UNL     1      14.104  18.899  19.297  1.00  0.00     0.198 C 
BRANCH   4   5
HETATM    5  C11 UNL     1      15.251  18.543  20.130  1.00  0.00     0.119 A 
HETATM    6  N7  UNL     1      15.127  18.038  21.386  1.00  0.00    -0.296 N 
HETATM    7  C12 UNL     1      16.191  17.725  22.130  1.00  0.00     0.340 A 
ATOM      8  H7  UNL     1      14.193  17.895  21.771  1.00  0.00     0.172 HD
HETATM    9  O2  UNL     1      16.073  17.262  23.283  1.00  0.00    -0.246 OA
HETATM   10  N8  UNL     1      17.414  17.914  21.623  1.00  0.00    -0.141 N 
HETATM   11  C13 UNL     1      17.576  18.417  20.371  1.00  0.00     0.681 A 
ATOM     12  H8  UNL     1      18.234  17.678  22.181  1.00  0.00     0.189 HD
HETATM   13  N10 UNL     1      16.493  18.718  19.654  1.00  0.00    -0.179 N 
ATOM     14  H10 UNL     1      16.612  19.095  18.714  1.00  0.00     0.185 HD
BRANCH  11  15
HETATM   15  N9  UNL     1      18.745  18.597  19.884  1.00  0.00    -0.234 N 
ATOM     16  H92 UNL     1      19.470  19.049  20.440  1.00  0.00     0.174 HD
ATOM     17  H91 UNL     1      18.967  18.295  18.935  1.00  0.00     0.174 HD
ENDBRANCH  11  15
ENDBRANCH   4   5
ENDBRANCH   2   4
ENDBRANCH   1   2
BRANCH   1  18
HETATM   18  C3  UNL     1      11.636  18.663  18.478  1.00  0.00     0.044 C 
BRANCH  18  19
HETATM   19  C4  UNL     1      10.866  18.956  17.257  1.00  0.00     0.007 C 
BRANCH  19  20
HETATM   20  C5  UNL     1      11.142  20.394  16.806  1.00  0.00     0.027 C 
BRANCH  20  21
HETATM   21  C6  UNL     1       9.974  20.911  16.045  1.00  0.00     0.170 C 
BRANCH  21  22
HETATM   22  O1  UNL     1      10.141  22.310  15.970  1.00  0.00    -0.366 OA
BRANCH  22  23
HETATM   23  C7  UNL     1      10.197  22.642  14.615  1.00  0.00     0.260 C 
HETATM   24  C8  UNL     1      11.080  23.866  14.500  1.00  0.00     0.337 C 
HETATM   25  N3  UNL     1      10.302  25.033  14.784  1.00  0.00    -0.091 NA
HETATM   26  N4  UNL     1       9.185  24.746  15.549  1.00  0.00    -0.020 NA
HETATM   27  N5  UNL     1       8.250  23.943  14.862  1.00  0.00    -0.036 NA
HETATM   28  N6  UNL     1       8.841  22.894  14.193  1.00  0.00    -0.189 NA
HETATM   29  C9  UNL     1       8.649  22.881  12.781  1.00  0.00     0.136 C 
BRANCH  24  30
HETATM   30  N2  UNL     1      12.182  23.679  15.431  1.00  0.00    -0.056 N 
ATOM     31  H23 UNL     1      12.326  24.477  16.049  1.00  0.00     0.276 HD
ATOM     32  H22 UNL     1      11.982  22.990  16.157  1.00  0.00     0.276 HD
ATOM     33  H21 UNL     1      13.003  23.448  14.872  1.00  0.00     0.276 HD
ENDBRANCH  24  30
ENDBRANCH  22  23
ENDBRANCH  21  22
ENDBRANCH  20  21
ENDBRANCH  19  20
ENDBRANCH  18  19
ENDBRANCH   1  18
TORSDOF 11
ENDMDL
MODEL 4
REMARK VINA RESULT: -6.231985447      1.194      1.501
REMARK  11 active torsions:
REMARK  status: ('A' for Active; 'I' for Inactive)
REMARK    1  A    between atoms: N1_2  and  C2_3 
REMARK    2  A    between atoms: N1_2  and  C10_20 
REMARK    3  A    between atoms: C2_3  and  C3_4 
REMARK    4  A    between atoms: C3_4  and  C4_5 
REMARK    5  A    between atoms: C4_5  and  C5_6 
REMARK    6  A    between atoms: C5_6  and  C6_7 
REMARK    7  A    between atoms: C6_7  and  O1_8 
REMARK    8  A    between atoms: O1_8  and  C7_9 
REMARK    9  A    between atoms: C8_10  and  N2_11 
REMARK   10  A    between atoms: C10_20  and  C11_21 
REMARK   11  A    between atoms: C13_28  and  N9_29 
ROOT
HETATM    1  C2  UNL     1      12.267  22.258  17.810  1.00  0.00     0.058 C 
ENDROOT
BRANCH   1   2
HETATM    2  N1  UNL     1      11.593  21.429  18.704  1.00  0.00    -0.391 N 
HETATM    3  C1  UNL     1      12.253  20.505  19.517  1.00  0.00     0.149 C 
BRANCH   2   4
HETATM    4  C10 UNL     1      10.286  21.079  18.228  1.00  0.00     0.198 C 
BRANCH   4   5
HETATM    5  C11 UNL     1      10.242  20.090  17.152  1.00  0.00     0.119 A 
HETATM    6  N7  UNL     1      10.693  18.816  17.298  1.00  0.00    -0.296 N 
HETATM    7  C12 UNL     1      10.647  17.932  16.297  1.00  0.00     0.340 A 
ATOM      8  H7  UNL     1      11.078  18.527  18.198  1.00  0.00     0.172 HD
HETATM    9  O2  UNL     1      11.062  16.763  16.434  1.00  0.00    -0.246 OA
HETATM   10  N8  UNL     1      10.142  18.313  15.119  1.00  0.00    -0.141 N 
HETATM   11  C13 UNL     1       9.683  19.578  14.938  1.00  0.00     0.681 A 
ATOM     12  H8  UNL     1      10.101  17.646  14.348  1.00  0.00     0.189 HD
HETATM   13  N10 UNL     1       9.742  20.437  15.957  1.00  0.00    -0.179 N 
ATOM     14  H10 UNL     1       9.397  21.386  15.822  1.00  0.00     0.185 HD
BRANCH  11  15
HETATM   15  N9  UNL     1       9.199  19.945  13.812  1.00  0.00    -0.234 N 
ATOM     16  H92 UNL     1       9.638  19.646  12.941  1.00  0.00     0.174 HD
ATOM     17  H91 UNL     1       8.371  20.539  13.768  1.00  0.00     0.174 HD
ENDBRANCH  11  15
ENDBRANCH   4   5
ENDBRANCH   2   4
ENDBRANCH   1   2
BRANCH   1  18
HETATM   18  C3  UNL     1      13.518  21.727  17.207  1.00  0.00     0.044 C 
BRANCH  18  19
HETATM   19  C4  UNL     1      13.774  22.216  15.841  1.00  0.00     0.007 C 
BRANCH  19  20
HETATM   20  C5  UNL     1      12.883  21.462  14.848  1.00  0.00     0.027 C 
BRANCH  20  21
HETATM   21  C6  UNL     1      12.292  22.423  13.879  1.00  0.00     0.170 C 
BRANCH  21  22
HETATM   22  O1  UNL     1      10.968  22.651  14.311  1.00  0.00    -0.366 OA
BRANCH  22  23
HETATM   23  C7  UNL     1      10.598  23.914  13.842  1.00  0.00     0.260 C 
HETATM   24  C8  UNL     1       9.545  24.442  14.791  1.00  0.00     0.337 C 
HETATM   25  N3  UNL     1       8.272  23.901  14.426  1.00  0.00    -0.091 NA
HETATM   26  N4  UNL     1       8.387  22.722  13.710  1.00  0.00    -0.020 NA
HETATM   27  N5  UNL     1       8.986  22.913  12.447  1.00  0.00    -0.036 NA
HETATM   28  N6  UNL     1      10.095  23.728  12.502  1.00  0.00    -0.189 NA
HETATM   29  C9  UNL     1      10.019  24.922  11.728  1.00  0.00     0.136 C 
BRANCH  24  30
HETATM   30  N2  UNL     1       9.959  24.061  16.133  1.00  0.00    -0.056 N 
ATOM     31  H23 UNL     1       9.403  23.302  16.525  1.00  0.00     0.276 HD
ATOM     32  H22 UNL     1      10.861  23.584  16.155  1.00  0.00     0.276 HD
ATOM     33  H21 UNL     1       9.938  24.909  16.699  1.00  0.00     0.276 HD
ENDBRANCH  24  30
ENDBRANCH  22  23
ENDBRANCH  21  22
ENDBRANCH  20  21
ENDBRANCH  19  20
ENDBRANCH  18  19
ENDBRANCH   1  18
TORSDOF 11
ENDMDL
MODEL 5
REMARK VINA RESULT: -6.185048393      4.332      5.809
REMARK  11 active torsions:
REMARK  status: ('A' for Active; 'I' for Inactive)
REMARK    1  A    between atoms: N1_2  and  C2_3 
REMARK    2  A    between atoms: N1_2  and  C10_20 
REMARK    3  A    between atoms: C2_3  and  C3_4 
REMARK    4  A    between atoms: C3_4  and  C4_5 
REMARK    5  A    between atoms: C4_5  and  C5_6 
REMARK    6  A    between atoms: C5_6  and  C6_7 
REMARK    7  A    between atoms: C6_7  and  O1_8 
REMARK    8  A    between atoms: O1_8  and  C7_9 
REMARK    9  A    between atoms: C8_10  and  N2_11 
REMARK   10  A    between atoms: C10_20  and  C11_21 
REMARK   11  A    between atoms: C13_28  and  N9_29 
ROOT
HETATM    1  C2  UNL     1      12.973  20.033  18.600  1.00  0.00     0.058 C 
ENDROOT
BRANCH   1   2
HETATM    2  N1  UNL     1      13.511  18.905  19.215  1.00  0.00    -0.391 N 
HETATM    3  C1  UNL     1      13.114  17.607  18.888  1.00  0.00     0.149 C 
BRANCH   2   4
HETATM    4  C10 UNL     1      13.877  19.163  20.578  1.00  0.00     0.198 C 
BRANCH   4   5
HETATM    5  C11 UNL     1      15.185  18.659  20.994  1.00  0.00     0.119 A 
HETATM    6  N7  UNL     1      15.387  17.999  22.164  1.00  0.00    -0.296 N 
HETATM    7  C12 UNL     1      16.594  17.553  22.524  1.00  0.00     0.340 A 
ATOM      8  H7  UNL     1      14.594  17.839  22.785  1.00  0.00     0.172 HD
HETATM    9  O2  UNL     1      16.776  16.946  23.599  1.00  0.00    -0.246 OA
HETATM   10  N8  UNL     1      17.633  17.764  21.708  1.00  0.00    -0.141 N 
HETATM   11  C13 UNL     1      17.467  18.421  20.531  1.00  0.00     0.681 A 
ATOM     12  H8  UNL     1      18.558  17.427  21.972  1.00  0.00     0.189 HD
HETATM   13  N10 UNL     1      16.249  18.853  20.201  1.00  0.00    -0.179 N 
ATOM     14  H10 UNL     1      16.124  19.345  19.317  1.00  0.00     0.185 HD
BRANCH  11  15
HETATM   15  N9  UNL     1      18.459  18.623  19.749  1.00  0.00    -0.234 N 
ATOM     16  H92 UNL     1      19.178  19.302  19.995  1.00  0.00     0.174 HD
ATOM     17  H91 UNL     1      18.544  18.111  18.871  1.00  0.00     0.174 HD
ENDBRANCH  11  15
ENDBRANCH   4   5
ENDBRANCH   2   4
ENDBRANCH   1   2
BRANCH   1  18
HETATM   18  C3  UNL     1      11.872  20.732  19.315  1.00  0.00     0.044 C 
BRANCH  18  19
HETATM   19  C4  UNL     1      10.589  20.716  18.591  1.00  0.00     0.007 C 
BRANCH  19  20
HETATM   20  C5  UNL     1      10.820  20.278  17.141  1.00  0.00     0.027 C 
BRANCH  20  21
HETATM   21  C6  UNL     1       9.711  20.778  16.286  1.00  0.00     0.170 C 
BRANCH  21  22
HETATM   22  O1  UNL     1       9.835  22.183  16.263  1.00  0.00    -0.366 OA
BRANCH  22  23
HETATM   23  C7  UNL     1      10.150  22.544  14.952  1.00  0.00     0.260 C 
HETATM   24  C8  UNL     1      11.040  23.765  15.036  1.00  0.00     0.337 C 
HETATM   25  N3  UNL     1      10.224  24.930  15.192  1.00  0.00    -0.091 NA
HETATM   26  N4  UNL     1       8.981  24.634  15.722  1.00  0.00    -0.020 NA
HETATM   27  N5  UNL     1       8.194  23.852  14.851  1.00  0.00    -0.036 NA
HETATM   28  N6  UNL     1       8.900  22.814  14.284  1.00  0.00    -0.189 NA
HETATM   29  C9  UNL     1       8.982  22.833  12.861  1.00  0.00     0.136 C 
BRANCH  24  30
HETATM   30  N2  UNL     1      11.943  23.551  16.157  1.00  0.00    -0.056 N 
ATOM     31  H23 UNL     1      11.461  23.284  17.016  1.00  0.00     0.276 HD
ATOM     32  H22 UNL     1      12.510  22.709  16.061  1.00  0.00     0.276 HD
ATOM     33  H21 UNL     1      12.498  24.401  16.255  1.00  0.00     0.276 HD
ENDBRANCH  24  30
ENDBRANCH  22  23
ENDBRANCH  21  22
ENDBRANCH  20  21
ENDBRANCH  19  20
ENDBRANCH  18  19
ENDBRANCH   1  18
TORSDOF 11
ENDMDL
