MODEL 1
REMARK VINA RESULT: -5.159454765      0.000      0.000
REMARK  3 active torsions:
REMARK  status: ('A' for Active; 'I' for Inactive)
REMARK    1  A    between atoms: O1_2  and  C2_3 
REMARK    2  A    between atoms: C2_3  and  C3_4 
REMARK    3  A    between atoms: N1_5  and  C4_7 
ROOT
HETATM    1  C4  UNL     1     -41.612   4.637  -1.381  1.00  0.00     0.135 A 
HETATM    2  N2  UNL     1     -42.275   4.140  -0.283  1.00  0.00    -0.330 N 
ATOM      3  H2  UNL     1     -41.991   3.225   0.065  1.00  0.00     0.168 HD
HETATM    4  C5  UNL     1     -43.247   4.758   0.353  1.00  0.00     0.079 A 
HETATM    5  C6  UNL     1     -43.949   4.189   1.548  1.00  0.00     0.089 C 
HETATM    6  N3  UNL     1     -43.632   5.963  -0.093  1.00  0.00    -0.344 N 
ATOM      7  H3  UNL     1     -44.385   6.460   0.383  1.00  0.00     0.167 HD
HETATM    8  C7  UNL     1     -43.032   6.527  -1.171  1.00  0.00     0.071 A 
HETATM    9  C8  UNL     1     -43.252   7.730  -1.799  1.00  0.00    -0.017 A 
HETATM   10  C9  UNL     1     -44.253   8.752  -1.426  1.00  0.00     0.052 C 
HETATM   11  C10 UNL     1     -42.355   7.779  -2.833  1.00  0.00     0.097 A 
HETATM   12  N4  UNL     1     -41.612   6.672  -2.859  1.00  0.00    -0.360 N 
ATOM     13  H4  UNL     1     -40.872   6.459  -3.529  1.00  0.00     0.165 HD
HETATM   14  C11 UNL     1     -42.010   5.892  -1.850  1.00  0.00     0.104 A 
ENDROOT
BRANCH   1  15
HETATM   15  N1  UNL     1     -40.720   3.998  -1.912  1.00  0.00    -0.352 N 
HETATM   16  C3  UNL     1     -40.345   2.892  -2.620  1.00  0.00     0.088 C 
ATOM     17  H1  UNL     1     -39.865   4.532  -1.756  1.00  0.00     0.166 HD
BRANCH  16  18
HETATM   18  C2  UNL     1     -40.615   2.906  -4.107  1.00  0.00     0.211 C 
BRANCH  18  19
HETATM   19  O1  UNL     1     -40.498   4.167  -4.662  1.00  0.00    -0.391 OA
HETATM   20  C1  UNL     1     -41.480   4.429  -5.607  1.00  0.00     0.201 C 
ENDBRANCH  18  19
ENDBRANCH  16  18
ENDBRANCH   1  15
TORSDOF 3
ENDMDL
MODEL 2
REMARK VINA RESULT: -4.904949890      1.073      3.291
REMARK  3 active torsions:
REMARK  status: ('A' for Active; 'I' for Inactive)
REMARK    1  A    between atoms: O1_2  and  C2_3 
REMARK    2  A    between atoms: C2_3  and  C3_4 
REMARK    3  A    between atoms: N1_5  and  C4_7 
ROOT
HETATM    1  C4  UNL     1     -42.199   6.381  -2.590  1.00  0.00     0.135 A 
HETATM    2  N2  UNL     1     -42.712   7.600  -2.210  1.00  0.00    -0.330 N 
ATOM      3  H2  UNL     1     -42.581   8.386  -2.846  1.00  0.00     0.168 HD
HETATM    4  C5  UNL     1     -43.359   7.828  -1.087  1.00  0.00     0.079 A 
HETATM    5  C6  UNL     1     -43.907   9.168  -0.703  1.00  0.00     0.089 C 
HETATM    6  N3  UNL     1     -43.539   6.804  -0.239  1.00  0.00    -0.344 N 
ATOM      7  H3  UNL     1     -44.037   6.957   0.637  1.00  0.00     0.167 HD
HETATM    8  C7  UNL     1     -43.066   5.568  -0.535  1.00  0.00     0.071 A 
HETATM    9  C8  UNL     1     -43.128   4.386   0.165  1.00  0.00    -0.017 A 
HETATM   10  C9  UNL     1     -43.763   4.172   1.483  1.00  0.00     0.052 C 
HETATM   11  C10 UNL     1     -42.483   3.460  -0.611  1.00  0.00     0.097 A 
HETATM   12  N4  UNL     1     -42.037   4.022  -1.736  1.00  0.00    -0.360 N 
ATOM     13  H4  UNL     1     -41.525   3.551  -2.482  1.00  0.00     0.165 HD
HETATM   14  C11 UNL     1     -42.384   5.312  -1.710  1.00  0.00     0.104 A 
ENDROOT
BRANCH   1  15
HETATM   15  N1  UNL     1     -41.611   6.257  -3.650  1.00  0.00    -0.352 N 
HETATM   16  C3  UNL     1     -40.876   5.465  -4.486  1.00  0.00     0.088 C 
ATOM     17  H1  UNL     1     -41.714   7.150  -4.132  1.00  0.00     0.166 HD
BRANCH  16  18
HETATM   18  C2  UNL     1     -41.631   4.434  -5.292  1.00  0.00     0.211 C 
BRANCH  18  19
HETATM   19  O1  UNL     1     -41.630   3.184  -4.701  1.00  0.00    -0.391 OA
HETATM   20  C1  UNL     1     -40.350   2.675  -4.528  1.00  0.00     0.201 C 
ENDBRANCH  18  19
ENDBRANCH  16  18
ENDBRANCH   1  15
TORSDOF 3
ENDMDL
MODEL 3
REMARK VINA RESULT: -4.830886476      1.014      1.285
REMARK  3 active torsions:
REMARK  status: ('A' for Active; 'I' for Inactive)
REMARK    1  A    between atoms: O1_2  and  C2_3 
REMARK    2  A    between atoms: C2_3  and  C3_4 
REMARK    3  A    between atoms: N1_5  and  C4_7 
ROOT
HETATM    1  C4  UNL     1     -41.744   4.770  -1.425  1.00  0.00     0.135 A 
HETATM    2  N2  UNL     1     -42.370   4.190  -0.345  1.00  0.00    -0.330 N 
ATOM      3  H2  UNL     1     -42.090   3.243  -0.091  1.00  0.00     0.168 HD
HETATM    4  C5  UNL     1     -43.303   4.765   0.383  1.00  0.00     0.079 A 
HETATM    5  C6  UNL     1     -43.965   4.105   1.553  1.00  0.00     0.089 C 
HETATM    6  N3  UNL     1     -43.683   6.009   0.060  1.00  0.00    -0.344 N 
ATOM      7  H3  UNL     1     -44.405   6.475   0.609  1.00  0.00     0.167 HD
HETATM    8  C7  UNL     1     -43.118   6.656  -0.990  1.00  0.00     0.071 A 
HETATM    9  C8  UNL     1     -43.340   7.913  -1.502  1.00  0.00    -0.017 A 
HETATM   10  C9  UNL     1     -44.305   8.914  -0.998  1.00  0.00     0.052 C 
HETATM   11  C10 UNL     1     -42.487   8.038  -2.566  1.00  0.00     0.097 A 
HETATM   12  N4  UNL     1     -41.767   6.926  -2.720  1.00  0.00    -0.360 N 
ATOM     13  H4  UNL     1     -41.060   6.761  -3.437  1.00  0.00     0.165 HD
HETATM   14  C11 UNL     1     -42.137   6.067  -1.765  1.00  0.00     0.104 A 
ENDROOT
BRANCH   1  15
HETATM   15  N1  UNL     1     -40.887   4.166  -2.047  1.00  0.00    -0.352 N 
HETATM   16  C3  UNL     1     -40.484   3.004  -2.642  1.00  0.00     0.088 C 
ATOM     17  H1  UNL     1     -40.125   4.829  -2.186  1.00  0.00     0.166 HD
BRANCH  16  18
HETATM   18  C2  UNL     1     -41.062   2.696  -4.004  1.00  0.00     0.211 C 
BRANCH  18  19
HETATM   19  O1  UNL     1     -42.387   2.308  -3.950  1.00  0.00    -0.391 OA
HETATM   20  C1  UNL     1     -42.581   1.173  -3.174  1.00  0.00     0.201 C 
ENDBRANCH  18  19
ENDBRANCH  16  18
ENDBRANCH   1  15
TORSDOF 3
ENDMDL
MODEL 4
REMARK VINA RESULT: -4.806228314      0.946      3.054
REMARK  3 active torsions:
REMARK  status: ('A' for Active; 'I' for Inactive)
REMARK    1  A    between atoms: O1_2  and  C2_3 
REMARK    2  A    between atoms: C2_3  and  C3_4 
REMARK    3  A    between atoms: N1_5  and  C4_7 
ROOT
HETATM    1  C4  UNL     1     -41.477   4.584  -1.729  1.00  0.00     0.135 A 
HETATM    2  N2  UNL     1     -41.548   5.823  -2.324  1.00  0.00    -0.330 N 
ATOM      3  H2  UNL     1     -40.913   6.010  -3.100  1.00  0.00     0.168 HD
HETATM    4  C5  UNL     1     -42.373   6.784  -1.968  1.00  0.00     0.079 A 
HETATM    5  C6  UNL     1     -42.425   8.123  -2.638  1.00  0.00     0.089 C 
HETATM    6  N3  UNL     1     -43.213   6.554  -0.949  1.00  0.00    -0.344 N 
ATOM      7  H3  UNL     1     -43.861   7.285  -0.654  1.00  0.00     0.167 HD
HETATM    8  C7  UNL     1     -43.211   5.360  -0.305  1.00  0.00     0.071 A 
HETATM    9  C8  UNL     1     -43.967   4.901   0.748  1.00  0.00    -0.017 A 
HETATM   10  C9  UNL     1     -45.022   5.645   1.468  1.00  0.00     0.052 C 
HETATM   11  C10 UNL     1     -43.538   3.622   0.985  1.00  0.00     0.097 A 
HETATM   12  N4  UNL     1     -42.567   3.290   0.132  1.00  0.00    -0.360 N 
ATOM     13  H4  UNL     1     -42.077   2.396   0.096  1.00  0.00     0.165 HD
HETATM   14  C11 UNL     1     -42.351   4.340  -0.666  1.00  0.00     0.104 A 
ENDROOT
BRANCH   1  15
HETATM   15  N1  UNL     1     -40.682   3.749  -2.121  1.00  0.00    -0.352 N 
HETATM   16  C3  UNL     1     -40.453   2.605  -2.832  1.00  0.00     0.088 C 
ATOM     17  H1  UNL     1     -39.775   4.033  -1.752  1.00  0.00     0.166 HD
BRANCH  16  18
HETATM   18  C2  UNL     1     -40.382   2.734  -4.336  1.00  0.00     0.211 C 
BRANCH  18  19
HETATM   19  O1  UNL     1     -40.379   4.050  -4.761  1.00  0.00    -0.391 OA
HETATM   20  C1  UNL     1     -41.436   4.339  -5.613  1.00  0.00     0.201 C 
ENDBRANCH  18  19
ENDBRANCH  16  18
ENDBRANCH   1  15
TORSDOF 3
ENDMDL
MODEL 5
REMARK VINA RESULT: -4.798807755      3.264      5.452
REMARK  3 active torsions:
REMARK  status: ('A' for Active; 'I' for Inactive)
REMARK    1  A    between atoms: O1_2  and  C2_3 
REMARK    2  A    between atoms: C2_3  and  C3_4 
REMARK    3  A    between atoms: N1_5  and  C4_7 
ROOT
HETATM    1  C4  UNL     1     -44.979   8.777  -0.957  1.00  0.00     0.135 A 
HETATM    2  N2  UNL     1     -45.583  10.009  -1.068  1.00  0.00    -0.330 N 
ATOM      3  H2  UNL     1     -45.413  10.542  -1.920  1.00  0.00     0.168 HD
HETATM    4  C5  UNL     1     -46.362  10.550  -0.156  1.00  0.00     0.079 A 
HETATM    5  C6  UNL     1     -47.005  11.895  -0.308  1.00  0.00     0.089 C 
HETATM    6  N3  UNL     1     -46.594   9.862   0.971  1.00  0.00    -0.344 N 
ATOM      7  H3  UNL     1     -47.195  10.262   1.691  1.00  0.00     0.167 HD
HETATM    8  C7  UNL     1     -46.039   8.639   1.163  1.00  0.00     0.071 A 
HETATM    9  C8  UNL     1     -46.131   7.761   2.217  1.00  0.00    -0.017 A 
HETATM   10  C9  UNL     1     -46.902   7.955   3.463  1.00  0.00     0.052 C 
HETATM   11  C10 UNL     1     -45.364   6.681   1.870  1.00  0.00     0.097 A 
HETATM   12  N4  UNL     1     -44.817   6.864   0.667  1.00  0.00    -0.360 N 
ATOM     13  H4  UNL     1     -44.204   6.210   0.178  1.00  0.00     0.165 HD
HETATM   14  C11 UNL     1     -45.218   8.056   0.216  1.00  0.00     0.104 A 
ENDROOT
BRANCH   1  15
HETATM   15  N1  UNL     1     -44.270   8.349  -1.851  1.00  0.00    -0.352 N 
HETATM   16  C3  UNL     1     -43.019   8.232  -2.388  1.00  0.00     0.088 C 
ATOM     17  H1  UNL     1     -44.894   7.852  -2.487  1.00  0.00     0.166 HD
BRANCH  16  18
HETATM   18  C2  UNL     1     -42.102   7.203  -1.769  1.00  0.00     0.211 C 
BRANCH  18  19
HETATM   19  O1  UNL     1     -41.126   6.759  -2.642  1.00  0.00    -0.391 OA
HETATM   20  C1  UNL     1     -41.643   5.990  -3.676  1.00  0.00     0.201 C 
ENDBRANCH  18  19
ENDBRANCH  16  18
ENDBRANCH   1  15
TORSDOF 3
ENDMDL
