MODEL 1
REMARK VINA RESULT: -5.466761388      0.000      0.000
REMARK  5 active torsions:
REMARK  status: ('A' for Active; 'I' for Inactive)
REMARK    1  A    between atoms: S1_2  and  C2_3 
REMARK    2  A    between atoms: C2_3  and  N1_4 
REMARK    3  A    between atoms: C2_3  and  N3_11 
REMARK    4  A    between atoms: N1_4  and  N2_6 
REMARK    5  A    between atoms: N2_6  and  C3_8 
ROOT
HETATM    1  C2  UNL     1      11.937   5.602  10.642  1.00  0.00     0.167 C 
ENDROOT
BRANCH   1   2
HETATM    2  S1  UNL     1      11.320   5.364   9.143  1.00  0.00    -0.096 SA
HETATM    3  C1  UNL     1       9.917   4.195   8.959  1.00  0.00     0.099 C 
ENDBRANCH   1   2
BRANCH   1   4
HETATM    4  N1  UNL     1      11.491   4.821  11.754  1.00  0.00    -0.278 N 
ATOM      5  H1  UNL     1      11.032   5.300  12.529  1.00  0.00     0.189 HD
BRANCH   4   6
HETATM    6  N2  UNL     1      11.650   3.450  11.830  1.00  0.00    -0.292 N 
ATOM      7  H2  UNL     1      10.885   2.878  12.185  1.00  0.00     0.187 HD
BRANCH   6   8
HETATM    8  C3  UNL     1      12.868   2.817  11.419  1.00  0.00     0.088 C 
HETATM    9  C4  UNL     1      14.149   3.026  12.112  1.00  0.00     0.083 C 
HETATM   10  S2  UNL     1      12.838   1.826  10.131  1.00  0.00    -0.064 SA
ENDBRANCH   6   8
ENDBRANCH   4   6
ENDBRANCH   1   4
BRANCH   1  11
HETATM   11  N3  UNL     1      12.917   6.605  10.784  1.00  0.00    -0.299 N 
HETATM   12  C5  UNL     1      13.014   7.649  11.772  1.00  0.00     0.149 C 
HETATM   13  C6  UNL     1      13.545   8.854  11.069  1.00  0.00    -0.013 A 
HETATM   14  C7  UNL     1      12.556   9.501  10.077  1.00  0.00     0.013 A 
HETATM   15  C8  UNL     1      13.113  10.208  11.265  1.00  0.00     0.013 A 
HETATM   16  C9  UNL     1      14.859   8.446  10.449  1.00  0.00     0.108 C 
HETATM   17  S3  UNL     1      14.319   6.827   9.738  1.00  0.00    -0.051 SA
ENDBRANCH   1  11
TORSDOF 5
ENDMDL
MODEL 2
REMARK VINA RESULT: -5.315278991      2.932      3.956
REMARK  5 active torsions:
REMARK  status: ('A' for Active; 'I' for Inactive)
REMARK    1  A    between atoms: S1_2  and  C2_3 
REMARK    2  A    between atoms: C2_3  and  N1_4 
REMARK    3  A    between atoms: C2_3  and  N3_11 
REMARK    4  A    between atoms: N1_4  and  N2_6 
REMARK    5  A    between atoms: N2_6  and  C3_8 
ROOT
HETATM    1  C2  UNL     1      11.920   6.754   9.973  1.00  0.00     0.167 C 
ENDROOT
BRANCH   1   2
HETATM    2  S1  UNL     1      11.464   6.029  11.369  1.00  0.00    -0.096 SA
HETATM    3  C1  UNL     1      11.368   7.056  12.887  1.00  0.00     0.099 C 
ENDBRANCH   1   2
BRANCH   1   4
HETATM    4  N1  UNL     1      11.176   6.563   8.767  1.00  0.00    -0.278 N 
ATOM      5  H1  UNL     1      10.993   7.375   8.176  1.00  0.00     0.189 HD
BRANCH   4   6
HETATM    6  N2  UNL     1      10.692   5.333   8.362  1.00  0.00    -0.292 N 
ATOM      7  H2  UNL     1      10.620   4.576   9.042  1.00  0.00     0.187 HD
BRANCH   6   8
HETATM    8  C3  UNL     1      10.289   5.099   7.006  1.00  0.00     0.088 C 
HETATM    9  C4  UNL     1      11.141   5.427   5.853  1.00  0.00     0.083 C 
HETATM   10  S2  UNL     1       8.828   4.446   6.727  1.00  0.00    -0.064 SA
ENDBRANCH   6   8
ENDBRANCH   4   6
ENDBRANCH   1   4
BRANCH   1  11
HETATM   11  N3  UNL     1      13.072   7.566  10.014  1.00  0.00    -0.299 N 
HETATM   12  C5  UNL     1      14.447   7.207   9.776  1.00  0.00     0.149 C 
HETATM   13  C6  UNL     1      15.267   8.001  10.738  1.00  0.00    -0.013 A 
HETATM   14  C7  UNL     1      15.118   7.569  12.212  1.00  0.00     0.013 A 
HETATM   15  C8  UNL     1      16.409   7.529  11.468  1.00  0.00     0.013 A 
HETATM   16  C9  UNL     1      14.940   9.452  10.486  1.00  0.00     0.108 C 
HETATM   17  S3  UNL     1      13.102   9.290  10.382  1.00  0.00    -0.051 SA
ENDBRANCH   1  11
TORSDOF 5
ENDMDL
MODEL 3
REMARK VINA RESULT: -5.297077230      1.349      1.935
REMARK  5 active torsions:
REMARK  status: ('A' for Active; 'I' for Inactive)
REMARK    1  A    between atoms: S1_2  and  C2_3 
REMARK    2  A    between atoms: C2_3  and  N1_4 
REMARK    3  A    between atoms: C2_3  and  N3_11 
REMARK    4  A    between atoms: N1_4  and  N2_6 
REMARK    5  A    between atoms: N2_6  and  C3_8 
ROOT
HETATM    1  C2  UNL     1      11.658   5.234  10.342  1.00  0.00     0.167 C 
ENDROOT
BRANCH   1   2
HETATM    2  S1  UNL     1      10.819   4.748   9.022  1.00  0.00    -0.096 SA
HETATM    3  C1  UNL     1      11.739   3.917   7.669  1.00  0.00     0.099 C 
ENDBRANCH   1   2
BRANCH   1   4
HETATM    4  N1  UNL     1      11.461   4.606  11.612  1.00  0.00    -0.278 N 
ATOM      5  H1  UNL     1      11.091   5.169  12.378  1.00  0.00     0.189 HD
BRANCH   4   6
HETATM    6  N2  UNL     1      11.747   3.275  11.852  1.00  0.00    -0.292 N 
ATOM      7  H2  UNL     1      11.041   2.683  12.288  1.00  0.00     0.187 HD
BRANCH   6   8
HETATM    8  C3  UNL     1      13.017   2.710  11.500  1.00  0.00     0.088 C 
HETATM    9  C4  UNL     1      14.284   3.167  12.090  1.00  0.00     0.083 C 
HETATM   10  S2  UNL     1      13.061   1.513  10.401  1.00  0.00    -0.064 SA
ENDBRANCH   6   8
ENDBRANCH   4   6
ENDBRANCH   1   4
BRANCH   1  11
HETATM   11  N3  UNL     1      12.575   6.292  10.171  1.00  0.00    -0.299 N 
HETATM   12  C5  UNL     1      13.972   6.238   9.826  1.00  0.00     0.149 C 
HETATM   13  C6  UNL     1      14.645   7.322  10.602  1.00  0.00    -0.013 A 
HETATM   14  C7  UNL     1      14.723   7.062  12.122  1.00  0.00     0.013 A 
HETATM   15  C8  UNL     1      15.921   7.230  11.251  1.00  0.00     0.013 A 
HETATM   16  C9  UNL     1      13.951   8.609  10.233  1.00  0.00     0.108 C 
HETATM   17  S3  UNL     1      12.207   8.007  10.347  1.00  0.00    -0.051 SA
ENDBRANCH   1  11
TORSDOF 5
ENDMDL
MODEL 4
REMARK VINA RESULT: -5.292819059      2.904      4.924
REMARK  5 active torsions:
REMARK  status: ('A' for Active; 'I' for Inactive)
REMARK    1  A    between atoms: S1_2  and  C2_3 
REMARK    2  A    between atoms: C2_3  and  N1_4 
REMARK    3  A    between atoms: C2_3  and  N3_11 
REMARK    4  A    between atoms: N1_4  and  N2_6 
REMARK    5  A    between atoms: N2_6  and  C3_8 
ROOT
HETATM    1  C2  UNL     1      14.126   9.362  10.706  1.00  0.00     0.167 C 
ENDROOT
BRANCH   1   2
HETATM    2  S1  UNL     1      14.386  10.940  11.062  1.00  0.00    -0.096 SA
HETATM    3  C1  UNL     1      12.953  12.086  11.013  1.00  0.00     0.099 C 
ENDBRANCH   1   2
BRANCH   1   4
HETATM    4  N1  UNL     1      12.905   8.936  10.097  1.00  0.00    -0.278 N 
ATOM      5  H1  UNL     1      12.867   8.873   9.079  1.00  0.00     0.189 HD
BRANCH   4   6
HETATM    6  N2  UNL     1      11.773   8.606  10.819  1.00  0.00    -0.292 N 
ATOM      7  H2  UNL     1      11.060   9.316  10.982  1.00  0.00     0.187 HD
BRANCH   6   8
HETATM    8  C3  UNL     1      11.581   7.285  11.343  1.00  0.00     0.088 C 
HETATM    9  C4  UNL     1      11.319   7.022  12.766  1.00  0.00     0.083 C 
HETATM   10  S2  UNL     1      11.659   6.022  10.323  1.00  0.00    -0.064 SA
ENDBRANCH   6   8
ENDBRANCH   4   6
ENDBRANCH   1   4
BRANCH   1  11
HETATM   11  N3  UNL     1      15.153   8.451  11.028  1.00  0.00    -0.299 N 
HETATM   12  C5  UNL     1      15.323   7.085  10.605  1.00  0.00     0.149 C 
HETATM   13  C6  UNL     1      15.885   6.343  11.772  1.00  0.00    -0.013 A 
HETATM   14  C7  UNL     1      14.897   6.150  12.941  1.00  0.00     0.013 A 
HETATM   15  C8  UNL     1      15.517   5.021  12.192  1.00  0.00     0.013 A 
HETATM   16  C9  UNL     1      17.162   7.049  12.155  1.00  0.00     0.108 C 
HETATM   17  S3  UNL     1      16.533   8.785  12.074  1.00  0.00    -0.051 SA
ENDBRANCH   1  11
TORSDOF 5
ENDMDL
MODEL 5
REMARK VINA RESULT: -5.270099976      1.946      3.376
REMARK  5 active torsions:
REMARK  status: ('A' for Active; 'I' for Inactive)
REMARK    1  A    between atoms: S1_2  and  C2_3 
REMARK    2  A    between atoms: C2_3  and  N1_4 
REMARK    3  A    between atoms: C2_3  and  N3_11 
REMARK    4  A    between atoms: N1_4  and  N2_6 
REMARK    5  A    between atoms: N2_6  and  C3_8 
ROOT
HETATM    1  C2  UNL     1      12.054   5.899  10.073  1.00  0.00     0.167 C 
ENDROOT
BRANCH   1   2
HETATM    2  S1  UNL     1      12.048   4.483  10.897  1.00  0.00    -0.096 SA
HETATM    3  C1  UNL     1      13.659   3.785  11.431  1.00  0.00     0.099 C 
ENDBRANCH   1   2
BRANCH   1   4
HETATM    4  N1  UNL     1      11.163   6.115   8.975  1.00  0.00    -0.278 N 
ATOM      5  H1  UNL     1      11.099   7.054   8.581  1.00  0.00     0.189 HD
BRANCH   4   6
HETATM    6  N2  UNL     1      10.386   5.114   8.421  1.00  0.00    -0.292 N 
ATOM      7  H2  UNL     1       9.936   4.435   9.034  1.00  0.00     0.187 HD
BRANCH   6   8
HETATM    8  C3  UNL     1      10.201   5.012   7.004  1.00  0.00     0.088 C 
HETATM    9  C4  UNL     1      11.253   5.357   6.035  1.00  0.00     0.083 C 
HETATM   10  S2  UNL     1       8.768   4.494   6.439  1.00  0.00    -0.064 SA
ENDBRANCH   6   8
ENDBRANCH   4   6
ENDBRANCH   1   4
BRANCH   1  11
HETATM   11  N3  UNL     1      12.971   6.885  10.491  1.00  0.00    -0.299 N 
HETATM   12  C5  UNL     1      12.859   7.832  11.569  1.00  0.00     0.149 C 
HETATM   13  C6  UNL     1      13.492   9.098  11.093  1.00  0.00    -0.013 A 
HETATM   14  C7  UNL     1      12.698   9.833   9.993  1.00  0.00     0.013 A 
HETATM   15  C8  UNL     1      13.006  10.427  11.325  1.00  0.00     0.013 A 
HETATM   16  C9  UNL     1      14.907   8.750  10.701  1.00  0.00     0.108 C 
HETATM   17  S3  UNL     1      14.542   7.204   9.756  1.00  0.00    -0.051 SA
ENDBRANCH   1  11
TORSDOF 5
ENDMDL
