MODEL 1
REMARK VINA RESULT: -7.177053686      0.000      0.000
REMARK  7 active torsions:
REMARK  status: ('A' for Active; 'I' for Inactive)
REMARK    1  A    between atoms: C2_2  and  N1_3 
REMARK    2  A    between atoms: N1_3  and  C3_5 
REMARK    3  A    between atoms: C4_8  and  N3_9 
REMARK    4  A    between atoms: C6_14  and  N5_15 
REMARK    5  A    between atoms: N5_15  and  C7_17 
REMARK    6  A    between atoms: C7_17  and  C8_18 
REMARK    7  A    between atoms: C8_18  and  C9_19 
ROOT
HETATM    1  C3  UNL     1       3.721   9.372  -4.782  1.00  0.00     0.707 A 
HETATM    2  N2  UNL     1       4.546  10.432  -4.763  1.00  0.00    -0.022 N 
ATOM      3  H2  UNL     1       4.758  10.882  -5.653  1.00  0.00     0.203 HD
HETATM    4  C4  UNL     1       5.110  10.943  -3.656  1.00  0.00     0.706 A 
HETATM    5  N4  UNL     1       4.801  10.317  -2.486  1.00  0.00    -0.022 N 
ATOM      6  H4  UNL     1       5.201  10.663  -1.613  1.00  0.00     0.203 HD
HETATM    7  C6  UNL     1       3.981   9.252  -2.456  1.00  0.00     0.707 A 
HETATM    8  N6  UNL     1       3.441   8.779  -3.592  1.00  0.00    -0.022 N 
ATOM      9  H6  UNL     1       2.818   7.972  -3.561  1.00  0.00     0.203 HD
ENDROOT
BRANCH   7  10
HETATM   10  N5  UNL     1       3.675   8.644  -1.363  1.00  0.00    -0.225 N 
ATOM     11  H5  UNL     1       4.183   7.814  -1.059  1.00  0.00     0.177 HD
BRANCH  10  12
HETATM   12  C7  UNL     1       2.582   9.184  -0.579  1.00  0.00     0.138 C 
BRANCH  12  13
HETATM   13  C8  UNL     1       1.295   8.438  -0.810  1.00  0.00     0.025 C 
BRANCH  13  14
HETATM   14  C9  UNL     1       0.297   8.888   0.223  1.00  0.00    -0.013 A 
HETATM   15  C10 UNL     1       0.700   9.820   1.306  1.00  0.00     0.005 A 
HETATM   16  C11 UNL     1       0.547   8.339   1.618  1.00  0.00     0.005 A 
ENDBRANCH  13  14
ENDBRANCH  12  13
ENDBRANCH  10  12
ENDBRANCH   7  10
BRANCH   4  17
HETATM   17  N3  UNL     1       5.894  11.965  -3.705  1.00  0.00    -0.229 N 
HETATM   18  C5  UNL     1       7.122  12.013  -4.427  1.00  0.00     0.165 C 
ATOM     19  H3  UNL     1       5.615  12.801  -3.191  1.00  0.00     0.177 HD
ENDBRANCH   4  17
BRANCH   1  20
HETATM   20  N1  UNL     1       3.207   8.927  -5.897  1.00  0.00    -0.225 N 
ATOM     21  H1  UNL     1       2.934   7.950  -6.003  1.00  0.00     0.177 HD
BRANCH  20  22
HETATM   22  C2  UNL     1       3.039   9.876  -6.981  1.00  0.00     0.133 C 
HETATM   23  C1  UNL     1       4.002   9.456  -8.080  1.00  0.00     0.027 C 
ENDBRANCH  20  22
ENDBRANCH   1  20
TORSDOF 7
ENDMDL
MODEL 2
REMARK VINA RESULT: -7.069469223      0.891      3.172
REMARK  7 active torsions:
REMARK  status: ('A' for Active; 'I' for Inactive)
REMARK    1  A    between atoms: C2_2  and  N1_3 
REMARK    2  A    between atoms: N1_3  and  C3_5 
REMARK    3  A    between atoms: C4_8  and  N3_9 
REMARK    4  A    between atoms: C6_14  and  N5_15 
REMARK    5  A    between atoms: N5_15  and  C7_17 
REMARK    6  A    between atoms: C7_17  and  C8_18 
REMARK    7  A    between atoms: C8_18  and  C9_19 
ROOT
HETATM    1  C3  UNL     1       5.175  10.688  -3.473  1.00  0.00     0.707 A 
HETATM    2  N2  UNL     1       4.379  10.473  -4.534  1.00  0.00    -0.022 N 
ATOM      3  H2  UNL     1       4.620  10.937  -5.409  1.00  0.00     0.203 HD
HETATM    4  C4  UNL     1       3.287   9.689  -4.525  1.00  0.00     0.706 A 
HETATM    5  N4  UNL     1       2.997   9.084  -3.339  1.00  0.00    -0.022 N 
ATOM      6  H4  UNL     1       2.180   8.477  -3.275  1.00  0.00     0.203 HD
HETATM    7  C6  UNL     1       3.764   9.271  -2.251  1.00  0.00     0.707 A 
HETATM    8  N6  UNL     1       4.847  10.065  -2.312  1.00  0.00    -0.022 N 
ATOM      9  H6  UNL     1       5.425  10.200  -1.483  1.00  0.00     0.203 HD
ENDROOT
BRANCH   7  10
HETATM   10  N5  UNL     1       3.509   8.710  -1.120  1.00  0.00    -0.225 N 
ATOM     11  H5  UNL     1       4.179   8.079  -0.680  1.00  0.00     0.177 HD
BRANCH  10  12
HETATM   12  C7  UNL     1       2.236   9.010  -0.496  1.00  0.00     0.138 C 
BRANCH  12  13
HETATM   13  C8  UNL     1       2.382   9.954   0.668  1.00  0.00     0.025 C 
BRANCH  13  14
HETATM   14  C9  UNL     1       1.129   9.878   1.498  1.00  0.00    -0.013 A 
HETATM   15  C10 UNL     1       0.575   8.563   1.909  1.00  0.00     0.005 A 
HETATM   16  C11 UNL     1      -0.078   9.320   0.762  1.00  0.00     0.005 A 
ENDBRANCH  13  14
ENDBRANCH  12  13
ENDBRANCH  10  12
ENDBRANCH   7  10
BRANCH   4  17
HETATM   17  N3  UNL     1       2.564   9.523  -5.579  1.00  0.00    -0.229 N 
HETATM   18  C5  UNL     1       2.984   9.823  -6.908  1.00  0.00     0.165 C 
ATOM     19  H3  UNL     1       1.623   9.150  -5.454  1.00  0.00     0.177 HD
ENDBRANCH   4  17
BRANCH   1  20
HETATM   20  N1  UNL     1       6.222  11.464  -3.554  1.00  0.00    -0.225 N 
ATOM     21  H1  UNL     1       7.085  11.243  -3.055  1.00  0.00     0.177 HD
BRANCH  20  22
HETATM   22  C2  UNL     1       6.113  12.652  -4.378  1.00  0.00     0.133 C 
HETATM   23  C1  UNL     1       5.573  13.755  -3.482  1.00  0.00     0.027 C 
ENDBRANCH  20  22
ENDBRANCH   1  20
TORSDOF 7
ENDMDL
MODEL 3
REMARK VINA RESULT: -6.996454458      0.965      3.133
REMARK  7 active torsions:
REMARK  status: ('A' for Active; 'I' for Inactive)
REMARK    1  A    between atoms: C2_2  and  N1_3 
REMARK    2  A    between atoms: N1_3  and  C3_5 
REMARK    3  A    between atoms: C4_8  and  N3_9 
REMARK    4  A    between atoms: C6_14  and  N5_15 
REMARK    5  A    between atoms: N5_15  and  C7_17 
REMARK    6  A    between atoms: C7_17  and  C8_18 
REMARK    7  A    between atoms: C8_18  and  C9_19 
ROOT
HETATM    1  C3  UNL     1       5.009  10.992  -3.625  1.00  0.00     0.707 A 
HETATM    2  N2  UNL     1       4.473  10.477  -4.743  1.00  0.00    -0.022 N 
ATOM      3  H2  UNL     1       4.664  10.955  -5.623  1.00  0.00     0.203 HD
HETATM    4  C4  UNL     1       3.704   9.376  -4.786  1.00  0.00     0.706 A 
HETATM    5  N4  UNL     1       3.473   8.763  -3.592  1.00  0.00    -0.022 N 
ATOM      6  H4  UNL     1       2.896   7.922  -3.566  1.00  0.00     0.203 HD
HETATM    7  C6  UNL     1       3.988   9.243  -2.447  1.00  0.00     0.707 A 
HETATM    8  N6  UNL     1       4.752  10.348  -2.457  1.00  0.00    -0.022 N 
ATOM      9  H6  UNL     1       5.141  10.706  -1.584  1.00  0.00     0.203 HD
ENDROOT
BRANCH   7  10
HETATM   10  N5  UNL     1       3.783   8.681  -1.307  1.00  0.00    -0.225 N 
ATOM     11  H5  UNL     1       4.388   7.932  -0.969  1.00  0.00     0.177 HD
BRANCH  10  12
HETATM   12  C7  UNL     1       2.660   9.151  -0.521  1.00  0.00     0.138 C 
BRANCH  12  13
HETATM   13  C8  UNL     1       1.377   8.452  -0.886  1.00  0.00     0.025 C 
BRANCH  13  14
HETATM   14  C9  UNL     1       0.338   8.802   0.145  1.00  0.00    -0.013 A 
HETATM   15  C10 UNL     1       0.653   9.753   1.241  1.00  0.00     0.005 A 
HETATM   16  C11 UNL     1       0.624   8.260   1.535  1.00  0.00     0.005 A 
ENDBRANCH  13  14
ENDBRANCH  12  13
ENDBRANCH  10  12
ENDBRANCH   7  10
BRANCH   4  17
HETATM   17  N3  UNL     1       3.219   8.932  -5.895  1.00  0.00    -0.229 N 
HETATM   18  C5  UNL     1       3.204   9.655  -7.123  1.00  0.00     0.165 C 
ATOM     19  H3  UNL     1       2.817   7.994  -5.894  1.00  0.00     0.177 HD
ENDBRANCH   4  17
BRANCH   1  20
HETATM   20  N1  UNL     1       5.749  12.068  -3.656  1.00  0.00    -0.225 N 
ATOM     21  H1  UNL     1       6.709  12.061  -3.311  1.00  0.00     0.177 HD
BRANCH  20  22
HETATM   22  C2  UNL     1       5.154  13.273  -4.201  1.00  0.00     0.133 C 
HETATM   23  C1  UNL     1       5.407  14.379  -3.188  1.00  0.00     0.027 C 
ENDBRANCH  20  22
ENDBRANCH   1  20
TORSDOF 7
ENDMDL
MODEL 4
REMARK VINA RESULT: -6.906392778      1.054      3.167
REMARK  7 active torsions:
REMARK  status: ('A' for Active; 'I' for Inactive)
REMARK    1  A    between atoms: C2_2  and  N1_3 
REMARK    2  A    between atoms: N1_3  and  C3_5 
REMARK    3  A    between atoms: C4_8  and  N3_9 
REMARK    4  A    between atoms: C6_14  and  N5_15 
REMARK    5  A    between atoms: N5_15  and  C7_17 
REMARK    6  A    between atoms: C7_17  and  C8_18 
REMARK    7  A    between atoms: C8_18  and  C9_19 
ROOT
HETATM    1  C3  UNL     1       5.177  10.635  -3.683  1.00  0.00     0.707 A 
HETATM    2  N2  UNL     1       4.429  10.438  -4.781  1.00  0.00    -0.022 N 
ATOM      3  H2  UNL     1       4.741  10.870  -5.650  1.00  0.00     0.203 HD
HETATM    4  C4  UNL     1       3.299   9.712  -4.816  1.00  0.00     0.706 A 
HETATM    5  N4  UNL     1       2.914   9.149  -3.637  1.00  0.00    -0.022 N 
ATOM      6  H4  UNL     1       2.064   8.586  -3.606  1.00  0.00     0.203 HD
HETATM    7  C6  UNL     1       3.631   9.320  -2.513  1.00  0.00     0.707 A 
HETATM    8  N6  UNL     1       4.756  10.055  -2.530  1.00  0.00    -0.022 N 
ATOM      9  H6  UNL     1       5.295  10.179  -1.673  1.00  0.00     0.203 HD
ENDROOT
BRANCH   7  10
HETATM   10  N5  UNL     1       3.287   8.798  -1.387  1.00  0.00    -0.225 N 
ATOM     11  H5  UNL     1       3.984   8.422  -0.744  1.00  0.00     0.177 HD
BRANCH  10  12
HETATM   12  C7  UNL     1       1.874   8.764  -1.068  1.00  0.00     0.138 C 
BRANCH  12  13
HETATM   13  C8  UNL     1       1.628   8.529   0.399  1.00  0.00     0.025 C 
BRANCH  13  14
HETATM   14  C9  UNL     1       1.433   9.864   1.065  1.00  0.00    -0.013 A 
HETATM   15  C10 UNL     1       2.594  10.617   1.602  1.00  0.00     0.005 A 
HETATM   16  C11 UNL     1       1.688   9.862   2.563  1.00  0.00     0.005 A 
ENDBRANCH  13  14
ENDBRANCH  12  13
ENDBRANCH  10  12
ENDBRANCH   7  10
BRANCH   4  17
HETATM   17  N3  UNL     1       2.626   9.561  -5.906  1.00  0.00    -0.229 N 
HETATM   18  C5  UNL     1       3.072   9.957  -7.199  1.00  0.00     0.165 C 
ATOM     19  H3  UNL     1       1.705   9.125  -5.836  1.00  0.00     0.177 HD
ENDBRANCH   4  17
BRANCH   1  20
HETATM   20  N1  UNL     1       6.267  11.355  -3.721  1.00  0.00    -0.225 N 
ATOM     21  H1  UNL     1       7.115  11.057  -3.239  1.00  0.00     0.177 HD
BRANCH  20  22
HETATM   22  C2  UNL     1       6.225  12.593  -4.474  1.00  0.00     0.133 C 
HETATM   23  C1  UNL     1       5.626  13.643  -3.552  1.00  0.00     0.027 C 
ENDBRANCH  20  22
ENDBRANCH   1  20
TORSDOF 7
ENDMDL
MODEL 5
REMARK VINA RESULT: -6.816760965      1.280      3.230
REMARK  7 active torsions:
REMARK  status: ('A' for Active; 'I' for Inactive)
REMARK    1  A    between atoms: C2_2  and  N1_3 
REMARK    2  A    between atoms: N1_3  and  C3_5 
REMARK    3  A    between atoms: C4_8  and  N3_9 
REMARK    4  A    between atoms: C6_14  and  N5_15 
REMARK    5  A    between atoms: N5_15  and  C7_17 
REMARK    6  A    between atoms: C7_17  and  C8_18 
REMARK    7  A    between atoms: C8_18  and  C9_19 
ROOT
HETATM    1  C3  UNL     1       5.043  10.758  -4.423  1.00  0.00     0.707 A 
HETATM    2  N2  UNL     1       4.441  10.822  -5.622  1.00  0.00    -0.022 N 
ATOM      3  H2  UNL     1       4.910  11.348  -6.360  1.00  0.00     0.203 HD
HETATM    4  C4  UNL     1       3.265  10.244  -5.920  1.00  0.00     0.706 A 
HETATM    5  N4  UNL     1       2.669   9.550  -4.911  1.00  0.00    -0.022 N 
ATOM      6  H4  UNL     1       1.775   9.089  -5.081  1.00  0.00     0.203 HD
HETATM    7  C6  UNL     1       3.234   9.459  -3.694  1.00  0.00     0.707 A 
HETATM    8  N6  UNL     1       4.413  10.055  -3.447  1.00  0.00    -0.022 N 
ATOM      9  H6  UNL     1       4.836   9.981  -2.522  1.00  0.00     0.203 HD
ENDROOT
BRANCH   7  10
HETATM   10  N5  UNL     1       2.690   8.809  -2.725  1.00  0.00    -0.225 N 
ATOM     11  H5  UNL     1       1.985   8.092  -2.899  1.00  0.00     0.177 HD
BRANCH  10  12
HETATM   12  C7  UNL     1       3.116   9.132  -1.379  1.00  0.00     0.138 C 
BRANCH  12  13
HETATM   13  C8  UNL     1       2.180   8.577  -0.338  1.00  0.00     0.025 C 
BRANCH  13  14
HETATM   14  C9  UNL     1       1.730   9.711   0.544  1.00  0.00    -0.013 A 
HETATM   15  C10 UNL     1       1.436   9.479   1.981  1.00  0.00     0.005 A 
HETATM   16  C11 UNL     1       0.283   9.616   0.999  1.00  0.00     0.005 A 
ENDBRANCH  13  14
ENDBRANCH  12  13
ENDBRANCH  10  12
ENDBRANCH   7  10
BRANCH   4  17
HETATM   17  N3  UNL     1       2.740  10.343  -7.093  1.00  0.00    -0.229 N 
HETATM   18  C5  UNL     1       2.744  11.526  -7.888  1.00  0.00     0.165 C 
ATOM     19  H3  UNL     1       2.288   9.515  -7.481  1.00  0.00     0.177 HD
ENDBRANCH   4  17
BRANCH   1  20
HETATM   20  N1  UNL     1       6.189  11.346  -4.203  1.00  0.00    -0.225 N 
ATOM     21  H1  UNL     1       6.969  10.844  -3.779  1.00  0.00     0.177 HD
BRANCH  20  22
HETATM   22  C2  UNL     1       6.309  12.740  -4.584  1.00  0.00     0.133 C 
HETATM   23  C1  UNL     1       5.516  13.540  -3.562  1.00  0.00     0.027 C 
ENDBRANCH  20  22
ENDBRANCH   1  20
TORSDOF 7
ENDMDL
