MODEL 1
REMARK VINA RESULT: -4.981489003      0.000      0.000
REMARK  6 active torsions:
REMARK  status: ('A' for Active; 'I' for Inactive)
REMARK    1  A    between atoms: O1_2  and  C2_3 
REMARK    2  A    between atoms: C3_4  and  C4_5 
REMARK    3  A    between atoms: C4_5  and  O2_6 
REMARK    4  A    between atoms: C5_9  and  N1_10 
REMARK    5  A    between atoms: N1_10  and  O4_12 
REMARK    6  A    between atoms: C7_14  and  O5_15 
ROOT
HETATM    1  C2  UNL     1      -1.285  -3.855 -16.593  1.00  0.00     0.185 C 
HETATM    2  C3  UNL     1      -0.783  -5.274 -16.728  1.00  0.00     0.179 C 
HETATM    3  O3  UNL     1       0.338  -5.297 -15.938  1.00  0.00    -0.352 OA
HETATM    4  C5  UNL     1       1.043  -4.169 -16.326  1.00  0.00     0.275 C 
HETATM    5  C7  UNL     1       0.033  -3.089 -16.547  1.00  0.00     0.200 C 
ENDROOT
BRANCH   4   6
HETATM    6  N1  UNL     1       1.878  -3.799 -15.208  1.00  0.00    -0.269 N 
HETATM    7  C6  UNL     1       3.106  -4.517 -15.109  1.00  0.00     0.181 C 
BRANCH   6   8
HETATM    8  O4  UNL     1       1.930  -2.499 -14.942  1.00  0.00    -0.290 OA
ATOM      9  H4  UNL     1       2.760  -2.078 -15.132  1.00  0.00     0.244 HD
ENDBRANCH   6   8
ENDBRANCH   4   6
BRANCH   5  10
HETATM   10  O5  UNL     1       0.273  -2.468 -17.794  1.00  0.00    -0.388 OA
ATOM     11  H5  UNL     1       1.167  -2.150 -17.831  1.00  0.00     0.210 HD
ENDBRANCH   5  10
BRANCH   2  12
HETATM   12  C4  UNL     1      -1.819  -6.297 -16.390  1.00  0.00     0.198 C 
BRANCH  12  13
HETATM   13  O2  UNL     1      -2.763  -6.477 -17.391  1.00  0.00    -0.398 OA
ATOM     14  H2  UNL     1      -3.081  -7.370 -17.453  1.00  0.00     0.209 HD
ENDBRANCH  12  13
ENDBRANCH   2  12
BRANCH   1  15
HETATM   15  O1  UNL     1      -1.940  -3.652 -15.406  1.00  0.00    -0.385 OA
HETATM   16  C1  UNL     1      -2.916  -2.681 -15.443  1.00  0.00     0.202 C 
ENDBRANCH   1  15
TORSDOF 6
ENDMDL
MODEL 2
REMARK VINA RESULT: -4.306025159      1.068      1.331
REMARK  6 active torsions:
REMARK  status: ('A' for Active; 'I' for Inactive)
REMARK    1  A    between atoms: O1_2  and  C2_3 
REMARK    2  A    between atoms: C3_4  and  C4_5 
REMARK    3  A    between atoms: C4_5  and  O2_6 
REMARK    4  A    between atoms: C5_9  and  N1_10 
REMARK    5  A    between atoms: N1_10  and  O4_12 
REMARK    6  A    between atoms: C7_14  and  O5_15 
ROOT
HETATM    1  C2  UNL     1      -0.999  -3.972 -16.452  1.00  0.00     0.185 C 
HETATM    2  C3  UNL     1      -0.985  -5.402 -16.939  1.00  0.00     0.179 C 
HETATM    3  O3  UNL     1      -0.053  -6.008 -16.135  1.00  0.00    -0.352 OA
HETATM    4  C5  UNL     1       1.033  -5.149 -16.175  1.00  0.00     0.275 C 
HETATM    5  C7  UNL     1       0.480  -3.761 -16.144  1.00  0.00     0.200 C 
ENDROOT
BRANCH   4   6
HETATM    6  N1  UNL     1       1.783  -5.374 -14.962  1.00  0.00    -0.269 N 
HETATM    7  C6  UNL     1       2.644  -4.303 -14.578  1.00  0.00     0.181 C 
BRANCH   6   8
HETATM    8  O4  UNL     1       1.118  -5.977 -13.985  1.00  0.00    -0.290 OA
ATOM      9  H4  UNL     1       1.651  -6.475 -13.375  1.00  0.00     0.244 HD
ENDBRANCH   6   8
ENDBRANCH   4   6
BRANCH   5  10
HETATM   10  O5  UNL     1       1.080  -2.991 -17.167  1.00  0.00    -0.388 OA
ATOM     11  H5  UNL     1       0.412  -2.652 -17.751  1.00  0.00     0.210 HD
ENDBRANCH   5  10
BRANCH   2  12
HETATM   12  C4  UNL     1      -2.337  -6.037 -16.932  1.00  0.00     0.198 C 
BRANCH  12  13
HETATM   13  O2  UNL     1      -2.295  -7.422 -16.853  1.00  0.00    -0.398 OA
ATOM     14  H2  UNL     1      -2.525  -7.757 -15.994  1.00  0.00     0.209 HD
ENDBRANCH  12  13
ENDBRANCH   2  12
BRANCH   1  15
HETATM   15  O1  UNL     1      -1.704  -3.833 -15.284  1.00  0.00    -0.385 OA
HETATM   16  C1  UNL     1      -2.665  -2.846 -15.303  1.00  0.00     0.202 C 
ENDBRANCH   1  15
TORSDOF 6
ENDMDL
MODEL 3
REMARK VINA RESULT: -4.300730900      1.832      2.266
REMARK  6 active torsions:
REMARK  status: ('A' for Active; 'I' for Inactive)
REMARK    1  A    between atoms: O1_2  and  C2_3 
REMARK    2  A    between atoms: C3_4  and  C4_5 
REMARK    3  A    between atoms: C4_5  and  O2_6 
REMARK    4  A    between atoms: C5_9  and  N1_10 
REMARK    5  A    between atoms: N1_10  and  O4_12 
REMARK    6  A    between atoms: C7_14  and  O5_15 
ROOT
HETATM    1  C2  UNL     1       0.292  -4.921 -16.149  1.00  0.00     0.185 C 
HETATM    2  C3  UNL     1       1.351  -5.946 -16.483  1.00  0.00     0.179 C 
HETATM    3  O3  UNL     1       2.343  -5.695 -15.570  1.00  0.00    -0.352 OA
HETATM    4  C5  UNL     1       2.521  -4.322 -15.639  1.00  0.00     0.275 C 
HETATM    5  C7  UNL     1       1.161  -3.721 -15.784  1.00  0.00     0.200 C 
ENDROOT
BRANCH   4   6
HETATM    6  N1  UNL     1       3.075  -3.913 -14.370  1.00  0.00    -0.269 N 
HETATM    7  C6  UNL     1       4.452  -4.235 -14.181  1.00  0.00     0.181 C 
BRANCH   6   8
HETATM    8  O4  UNL     1       2.682  -2.722 -13.935  1.00  0.00    -0.290 OA
ATOM      9  H4  UNL     1       2.757  -2.014 -14.564  1.00  0.00     0.244 HD
ENDBRANCH   6   8
ENDBRANCH   4   6
BRANCH   5  10
HETATM   10  O5  UNL     1       1.167  -2.790 -16.847  1.00  0.00    -0.388 OA
ATOM     11  H5  UNL     1       0.922  -1.930 -16.526  1.00  0.00     0.210 HD
ENDBRANCH   5  10
BRANCH   2  12
HETATM   12  C4  UNL     1       0.830  -7.346 -16.485  1.00  0.00     0.198 C 
BRANCH  12  13
HETATM   13  O2  UNL     1       1.302  -8.107 -17.546  1.00  0.00    -0.398 OA
ATOM     14  H2  UNL     1       2.238  -8.020 -17.685  1.00  0.00     0.209 HD
ENDBRANCH  12  13
ENDBRANCH   2  12
BRANCH   1  15
HETATM   15  O1  UNL     1      -0.436  -5.275 -15.043  1.00  0.00    -0.385 OA
HETATM   16  C1  UNL     1      -1.803  -5.255 -15.219  1.00  0.00     0.202 C 
ENDBRANCH   1  15
TORSDOF 6
ENDMDL
MODEL 4
REMARK VINA RESULT: -4.289140449      2.056      4.093
REMARK  6 active torsions:
REMARK  status: ('A' for Active; 'I' for Inactive)
REMARK    1  A    between atoms: O1_2  and  C2_3 
REMARK    2  A    between atoms: C3_4  and  C4_5 
REMARK    3  A    between atoms: C4_5  and  O2_6 
REMARK    4  A    between atoms: C5_9  and  N1_10 
REMARK    5  A    between atoms: N1_10  and  O4_12 
REMARK    6  A    between atoms: C7_14  and  O5_15 
ROOT
HETATM    1  C2  UNL     1      -0.224  -3.661 -15.783  1.00  0.00     0.185 C 
HETATM    2  C3  UNL     1      -0.035  -5.055 -15.232  1.00  0.00     0.179 C 
HETATM    3  O3  UNL     1      -0.838  -5.829 -16.029  1.00  0.00    -0.352 OA
HETATM    4  C5  UNL     1      -2.043  -5.146 -16.053  1.00  0.00     0.275 C 
HETATM    5  C7  UNL     1      -1.708  -3.692 -16.134  1.00  0.00     0.200 C 
ENDROOT
BRANCH   4   6
HETATM    6  N1  UNL     1      -2.714  -5.534 -17.272  1.00  0.00    -0.269 N 
HETATM    7  C6  UNL     1      -2.395  -4.740 -18.414  1.00  0.00     0.181 C 
BRANCH   6   8
HETATM    8  O4  UNL     1      -2.819  -6.842 -17.472  1.00  0.00    -0.290 OA
ATOM      9  H4  UNL     1      -3.651  -7.134 -17.825  1.00  0.00     0.244 HD
ENDBRANCH   6   8
ENDBRANCH   4   6
BRANCH   5  10
HETATM   10  O5  UNL     1      -2.448  -2.982 -15.161  1.00  0.00    -0.388 OA
ATOM     11  H5  UNL     1      -3.062  -3.566 -14.732  1.00  0.00     0.210 HD
ENDBRANCH   5  10
BRANCH   2  12
HETATM   12  C4  UNL     1       1.399  -5.474 -15.178  1.00  0.00     0.198 C 
BRANCH  12  13
HETATM   13  O2  UNL     1       1.686  -6.314 -14.111  1.00  0.00    -0.398 OA
ATOM     14  H2  UNL     1       2.471  -6.834 -14.242  1.00  0.00     0.209 HD
ENDBRANCH  12  13
ENDBRANCH   2  12
BRANCH   1  15
HETATM   15  O1  UNL     1       0.486  -3.464 -16.939  1.00  0.00    -0.385 OA
HETATM   16  C1  UNL     1       0.021  -2.441 -17.737  1.00  0.00     0.202 C 
ENDBRANCH   1  15
TORSDOF 6
ENDMDL
MODEL 5
REMARK VINA RESULT: -4.177260607      1.993      3.376
REMARK  6 active torsions:
REMARK  status: ('A' for Active; 'I' for Inactive)
REMARK    1  A    between atoms: O1_2  and  C2_3 
REMARK    2  A    between atoms: C3_4  and  C4_5 
REMARK    3  A    between atoms: C4_5  and  O2_6 
REMARK    4  A    between atoms: C5_9  and  N1_10 
REMARK    5  A    between atoms: N1_10  and  O4_12 
REMARK    6  A    between atoms: C7_14  and  O5_15 
ROOT
HETATM    1  C2  UNL     1       0.337  -5.844 -15.720  1.00  0.00     0.185 C 
HETATM    2  C3  UNL     1       0.047  -4.363 -15.779  1.00  0.00     0.179 C 
HETATM    3  O3  UNL     1       1.292  -3.793 -15.855  1.00  0.00    -0.352 OA
HETATM    4  C5  UNL     1       2.008  -4.419 -14.847  1.00  0.00     0.275 C 
HETATM    5  C7  UNL     1       1.595  -5.855 -14.859  1.00  0.00     0.200 C 
ENDROOT
BRANCH   4   6
HETATM    6  N1  UNL     1       3.401  -4.335 -15.216  1.00  0.00    -0.269 N 
HETATM    7  C6  UNL     1       4.278  -3.923 -14.168  1.00  0.00     0.181 C 
BRANCH   6   8
HETATM    8  O4  UNL     1       3.840  -5.306 -16.007  1.00  0.00    -0.290 OA
ATOM      9  H4  UNL     1       4.734  -5.587 -15.850  1.00  0.00     0.244 HD
ENDBRANCH   6   8
ENDBRANCH   4   6
BRANCH   5  10
HETATM   10  O5  UNL     1       1.276  -6.266 -13.545  1.00  0.00    -0.388 OA
ATOM     11  H5  UNL     1       1.624  -7.135 -13.383  1.00  0.00     0.210 HD
ENDBRANCH   5  10
BRANCH   2  12
HETATM   12  C4  UNL     1      -0.889  -3.992 -16.884  1.00  0.00     0.198 C 
BRANCH  12  13
HETATM   13  O2  UNL     1      -1.928  -4.896 -17.052  1.00  0.00    -0.398 OA
ATOM     14  H2  UNL     1      -1.932  -5.591 -16.403  1.00  0.00     0.209 HD
ENDBRANCH  12  13
ENDBRANCH   2  12
BRANCH   1  15
HETATM   15  O1  UNL     1       0.655  -6.356 -16.952  1.00  0.00    -0.385 OA
HETATM   16  C1  UNL     1       0.778  -7.728 -16.995  1.00  0.00     0.202 C 
ENDBRANCH   1  15
TORSDOF 6
ENDMDL
