MODEL 1
REMARK VINA RESULT: -7.336641606      0.000      0.000
REMARK  6 active torsions:
REMARK  status: ('A' for Active; 'I' for Inactive)
REMARK    1  A    between atoms: N1_2  and  N2_4 
REMARK    2  A    between atoms: C2_6  and  N3_7 
REMARK    3  A    between atoms: C2_6  and  C5_14 
REMARK    4  A    between atoms: N3_7  and  N4_9 
REMARK       I    between atoms: N4_9  and  C3_11 
REMARK    5  A    between atoms: C8_17  and  N5_18 
REMARK    6  A    between atoms: N5_18  and  S1_20 
ROOT
HETATM    1  N2  UNL     1       5.266 -17.584 -10.654  1.00  0.00    -0.288 N 
ATOM      2  H2  UNL     1       4.340 -17.526 -11.077  1.00  0.00     0.188 HD
HETATM    3  C2  UNL     1       5.983 -18.612 -10.867  1.00  0.00     0.144 C 
ENDROOT
BRANCH   3   4
HETATM    4  N3  UNL     1       5.426 -19.655 -11.712  1.00  0.00    -0.281 N 
ATOM      5  H3  UNL     1       5.764 -19.767 -12.668  1.00  0.00     0.188 HD
BRANCH   4   6
HETATM    6  N4  UNL     1       4.432 -20.506 -11.228  1.00  0.00    -0.269 N 
HETATM    7  C3  UNL     1       3.616 -21.203 -12.135  1.00  0.00     0.232 C 
HETATM    8  C4  UNL     1       2.564 -22.103 -11.627  1.00  0.00     0.119 C 
HETATM    9  O1  UNL     1       3.776 -21.067 -13.362  1.00  0.00    -0.272 OA
ATOM     10  H4  UNL     1       4.300 -20.620 -10.223  1.00  0.00     0.190 HD
ENDBRANCH   4   6
ENDBRANCH   3   4
BRANCH   3  11
HETATM   11  C5  UNL     1       7.319 -18.791 -10.336  1.00  0.00     0.011 A 
HETATM   12  C6  UNL     1       8.387 -18.172 -10.893  1.00  0.00     0.017 A 
HETATM   13  C7  UNL     1       9.673 -18.336 -10.371  1.00  0.00     0.031 A 
HETATM   14  C8  UNL     1       9.880 -19.133  -9.279  1.00  0.00     0.042 A 
HETATM   15  C10 UNL     1       8.783 -19.769  -8.709  1.00  0.00     0.031 A 
HETATM   16  C11 UNL     1       7.518 -19.594  -9.240  1.00  0.00     0.017 A 
BRANCH  14  17
HETATM   17  N5  UNL     1      11.169 -19.316  -8.738  1.00  0.00    -0.285 N 
ATOM     18  H5  UNL     1      11.224 -19.646  -7.774  1.00  0.00     0.178 HD
BRANCH  17  19
HETATM   19  S1  UNL     1      12.652 -19.035  -9.551  1.00  0.00     0.227 S 
HETATM   20  C9  UNL     1      13.096 -17.337  -9.670  1.00  0.00     0.186 C 
HETATM   21  O2  UNL     1      12.516 -19.553 -10.976  1.00  0.00    -0.206 OA
HETATM   22  O3  UNL     1      13.791 -19.787  -8.916  1.00  0.00    -0.206 OA
ENDBRANCH  17  19
ENDBRANCH  14  17
ENDBRANCH   3  11
BRANCH   1  23
HETATM   23  N1  UNL     1       5.713 -16.547  -9.866  1.00  0.00    -0.339 N 
HETATM   24  C1  UNL     1       6.185 -15.306 -10.494  1.00  0.00     0.167 C 
ATOM     25  H1  UNL     1       5.716 -16.641  -8.850  1.00  0.00     0.179 HD
ENDBRANCH   1  23
TORSDOF 6
ENDMDL
MODEL 2
REMARK VINA RESULT: -7.297710147      0.042      1.055
REMARK  6 active torsions:
REMARK  status: ('A' for Active; 'I' for Inactive)
REMARK    1  A    between atoms: N1_2  and  N2_4 
REMARK    2  A    between atoms: C2_6  and  N3_7 
REMARK    3  A    between atoms: C2_6  and  C5_14 
REMARK    4  A    between atoms: N3_7  and  N4_9 
REMARK       I    between atoms: N4_9  and  C3_11 
REMARK    5  A    between atoms: C8_17  and  N5_18 
REMARK    6  A    between atoms: N5_18  and  S1_20 
ROOT
HETATM    1  N2  UNL     1       5.273 -17.561 -10.672  1.00  0.00    -0.288 N 
ATOM      2  H2  UNL     1       4.359 -17.493 -11.119  1.00  0.00     0.188 HD
HETATM    3  C2  UNL     1       5.980 -18.601 -10.856  1.00  0.00     0.144 C 
ENDROOT
BRANCH   3   4
HETATM    4  N3  UNL     1       5.430 -19.644 -11.706  1.00  0.00    -0.281 N 
ATOM      5  H3  UNL     1       5.781 -19.759 -12.657  1.00  0.00     0.188 HD
BRANCH   4   6
HETATM    6  N4  UNL     1       4.426 -20.489 -11.233  1.00  0.00    -0.269 N 
HETATM    7  C3  UNL     1       3.633 -21.201 -12.149  1.00  0.00     0.232 C 
HETATM    8  C4  UNL     1       2.571 -22.095 -11.654  1.00  0.00     0.119 C 
HETATM    9  O1  UNL     1       3.823 -21.082 -13.374  1.00  0.00    -0.272 OA
ATOM     10  H4  UNL     1       4.269 -20.589 -10.230  1.00  0.00     0.190 HD
ENDBRANCH   4   6
ENDBRANCH   3   4
BRANCH   3  11
HETATM   11  C5  UNL     1       7.299 -18.794 -10.288  1.00  0.00     0.011 A 
HETATM   12  C6  UNL     1       7.489 -19.580  -9.202  1.00  0.00     0.017 A 
HETATM   13  C7  UNL     1       8.764 -19.775  -8.664  1.00  0.00     0.031 A 
HETATM   14  C8  UNL     1       9.854 -19.172  -9.229  1.00  0.00     0.042 A 
HETATM   15  C10 UNL     1       9.657 -18.365 -10.344  1.00  0.00     0.031 A 
HETATM   16  C11 UNL     1       8.387 -18.183 -10.862  1.00  0.00     0.017 A 
BRANCH  14  17
HETATM   17  N5  UNL     1      11.148 -19.352  -8.701  1.00  0.00    -0.285 N 
ATOM     18  H5  UNL     1      11.214 -19.698  -7.744  1.00  0.00     0.178 HD
BRANCH  17  19
HETATM   19  S1  UNL     1      12.622 -19.044  -9.522  1.00  0.00     0.227 S 
HETATM   20  C9  UNL     1      13.053 -17.341  -9.610  1.00  0.00     0.186 C 
HETATM   21  O2  UNL     1      12.477 -19.534 -10.956  1.00  0.00    -0.206 OA
HETATM   22  O3  UNL     1      13.773 -19.801  -8.912  1.00  0.00    -0.206 OA
ENDBRANCH  17  19
ENDBRANCH  14  17
ENDBRANCH   3  11
BRANCH   1  23
HETATM   23  N1  UNL     1       5.714 -16.523  -9.881  1.00  0.00    -0.339 N 
HETATM   24  C1  UNL     1       6.214 -15.291 -10.508  1.00  0.00     0.167 C 
ATOM     25  H1  UNL     1       5.693 -16.609  -8.865  1.00  0.00     0.179 HD
ENDBRANCH   1  23
TORSDOF 6
ENDMDL
MODEL 3
REMARK VINA RESULT: -7.249761954      1.056      1.558
REMARK  6 active torsions:
REMARK  status: ('A' for Active; 'I' for Inactive)
REMARK    1  A    between atoms: N1_2  and  N2_4 
REMARK    2  A    between atoms: C2_6  and  N3_7 
REMARK    3  A    between atoms: C2_6  and  C5_14 
REMARK    4  A    between atoms: N3_7  and  N4_9 
REMARK       I    between atoms: N4_9  and  C3_11 
REMARK    5  A    between atoms: C8_17  and  N5_18 
REMARK    6  A    between atoms: N5_18  and  S1_20 
ROOT
HETATM    1  N2  UNL     1       5.035 -17.578 -10.826  1.00  0.00    -0.288 N 
ATOM      2  H2  UNL     1       4.116 -17.507 -11.264  1.00  0.00     0.188 HD
HETATM    3  C2  UNL     1       5.688 -18.663 -10.926  1.00  0.00     0.144 C 
ENDROOT
BRANCH   3   4
HETATM    4  N3  UNL     1       5.074 -19.751 -11.670  1.00  0.00    -0.281 N 
ATOM      5  H3  UNL     1       5.282 -19.865 -12.662  1.00  0.00     0.188 HD
BRANCH   4   6
HETATM    6  N4  UNL     1       4.204 -20.639 -11.040  1.00  0.00    -0.269 N 
HETATM    7  C3  UNL     1       3.285 -21.372 -11.811  1.00  0.00     0.232 C 
HETATM    8  C4  UNL     1       2.363 -22.312 -11.149  1.00  0.00     0.119 C 
HETATM    9  O1  UNL     1       3.247 -21.233 -13.047  1.00  0.00    -0.272 OA
ATOM     10  H4  UNL     1       4.233 -20.755 -10.027  1.00  0.00     0.190 HD
ENDBRANCH   4   6
ENDBRANCH   3   4
BRANCH   3  11
HETATM   11  C5  UNL     1       7.007 -18.869 -10.362  1.00  0.00     0.011 A 
HETATM   12  C6  UNL     1       7.222 -18.790  -9.027  1.00  0.00     0.017 A 
HETATM   13  C7  UNL     1       8.493 -19.001  -8.485  1.00  0.00     0.031 A 
HETATM   14  C8  UNL     1       9.553 -19.294  -9.298  1.00  0.00     0.042 A 
HETATM   15  C10 UNL     1       9.330 -19.374 -10.668  1.00  0.00     0.031 A 
HETATM   16  C11 UNL     1       8.066 -19.161 -11.187  1.00  0.00     0.017 A 
BRANCH  14  17
HETATM   17  N5  UNL     1      10.843 -19.508  -8.773  1.00  0.00    -0.285 N 
ATOM     18  H5  UNL     1      10.942 -20.242  -8.071  1.00  0.00     0.178 HD
BRANCH  17  19
HETATM   19  S1  UNL     1      12.262 -18.648  -9.206  1.00  0.00     0.227 S 
HETATM   20  C9  UNL     1      13.686 -19.662  -9.399  1.00  0.00     0.186 C 
HETATM   21  O2  UNL     1      12.575 -17.658  -8.093  1.00  0.00    -0.206 OA
HETATM   22  O3  UNL     1      12.068 -17.846 -10.467  1.00  0.00    -0.206 OA
ENDBRANCH  17  19
ENDBRANCH  14  17
ENDBRANCH   3  11
BRANCH   1  23
HETATM   23  N1  UNL     1       5.538 -16.496 -10.139  1.00  0.00    -0.339 N 
HETATM   24  C1  UNL     1       6.055 -15.338 -10.881  1.00  0.00     0.167 C 
ATOM     25  H1  UNL     1       5.553 -16.498  -9.119  1.00  0.00     0.179 HD
ENDBRANCH   1  23
TORSDOF 6
ENDMDL
MODEL 4
REMARK VINA RESULT: -7.200826915      0.835      1.006
REMARK  6 active torsions:
REMARK  status: ('A' for Active; 'I' for Inactive)
REMARK    1  A    between atoms: N1_2  and  N2_4 
REMARK    2  A    between atoms: C2_6  and  N3_7 
REMARK    3  A    between atoms: C2_6  and  C5_14 
REMARK    4  A    between atoms: N3_7  and  N4_9 
REMARK       I    between atoms: N4_9  and  C3_11 
REMARK    5  A    between atoms: C8_17  and  N5_18 
REMARK    6  A    between atoms: N5_18  and  S1_20 
ROOT
HETATM    1  N2  UNL     1       5.263 -17.574 -10.649  1.00  0.00    -0.288 N 
ATOM      2  H2  UNL     1       4.331 -17.508 -11.057  1.00  0.00     0.188 HD
HETATM    3  C2  UNL     1       5.971 -18.605 -10.879  1.00  0.00     0.144 C 
ENDROOT
BRANCH   3   4
HETATM    4  N3  UNL     1       5.396 -19.639 -11.723  1.00  0.00    -0.281 N 
ATOM      5  H3  UNL     1       5.706 -19.733 -12.690  1.00  0.00     0.188 HD
BRANCH   4   6
HETATM    6  N4  UNL     1       4.423 -20.504 -11.223  1.00  0.00    -0.269 N 
HETATM    7  C3  UNL     1       3.574 -21.181 -12.115  1.00  0.00     0.232 C 
HETATM    8  C4  UNL     1       2.544 -22.096 -11.591  1.00  0.00     0.119 C 
HETATM    9  O1  UNL     1       3.687 -21.012 -13.344  1.00  0.00    -0.272 OA
ATOM     10  H4  UNL     1       4.329 -20.645 -10.217  1.00  0.00     0.190 HD
ENDBRANCH   4   6
ENDBRANCH   3   4
BRANCH   3  11
HETATM   11  C5  UNL     1       7.313 -18.795 -10.368  1.00  0.00     0.011 A 
HETATM   12  C6  UNL     1       8.372 -18.150 -10.912  1.00  0.00     0.017 A 
HETATM   13  C7  UNL     1       9.663 -18.326 -10.409  1.00  0.00     0.031 A 
HETATM   14  C8  UNL     1       9.886 -19.160  -9.349  1.00  0.00     0.042 A 
HETATM   15  C10 UNL     1       8.798 -19.823  -8.791  1.00  0.00     0.031 A 
HETATM   16  C11 UNL     1       7.527 -19.636  -9.303  1.00  0.00     0.017 A 
BRANCH  14  17
HETATM   17  N5  UNL     1      11.181 -19.354  -8.827  1.00  0.00    -0.285 N 
ATOM     18  H5  UNL     1      11.250 -19.806  -7.915  1.00  0.00     0.178 HD
BRANCH  17  19
HETATM   19  S1  UNL     1      12.651 -18.902  -9.586  1.00  0.00     0.227 S 
HETATM   20  C9  UNL     1      12.791 -19.436 -11.257  1.00  0.00     0.186 C 
HETATM   21  O2  UNL     1      13.797 -19.549  -8.822  1.00  0.00    -0.206 OA
HETATM   22  O3  UNL     1      12.873 -17.413  -9.537  1.00  0.00    -0.206 OA
ENDBRANCH  17  19
ENDBRANCH  14  17
ENDBRANCH   3  11
BRANCH   1  23
HETATM   23  N1  UNL     1       5.726 -16.546  -9.859  1.00  0.00    -0.339 N 
HETATM   24  C1  UNL     1       6.171 -15.292 -10.483  1.00  0.00     0.167 C 
ATOM     25  H1  UNL     1       5.761 -16.653  -8.845  1.00  0.00     0.179 HD
ENDBRANCH   1  23
TORSDOF 6
ENDMDL
MODEL 5
REMARK VINA RESULT: -7.155865907      1.328      1.600
REMARK  6 active torsions:
REMARK  status: ('A' for Active; 'I' for Inactive)
REMARK    1  A    between atoms: N1_2  and  N2_4 
REMARK    2  A    between atoms: C2_6  and  N3_7 
REMARK    3  A    between atoms: C2_6  and  C5_14 
REMARK    4  A    between atoms: N3_7  and  N4_9 
REMARK       I    between atoms: N4_9  and  C3_11 
REMARK    5  A    between atoms: C8_17  and  N5_18 
REMARK    6  A    between atoms: N5_18  and  S1_20 
ROOT
HETATM    1  N2  UNL     1       5.441 -17.462 -12.512  1.00  0.00    -0.288 N 
ATOM      2  H2  UNL     1       4.631 -17.435 -13.131  1.00  0.00     0.188 HD
HETATM    3  C2  UNL     1       5.807 -18.573 -12.015  1.00  0.00     0.144 C 
ENDROOT
BRANCH   3   4
HETATM    4  N3  UNL     1       5.034 -19.752 -12.367  1.00  0.00    -0.281 N 
ATOM      5  H3  UNL     1       5.090 -20.130 -13.312  1.00  0.00     0.188 HD
BRANCH   4   6
HETATM    6  N4  UNL     1       4.215 -20.372 -11.423  1.00  0.00    -0.269 N 
HETATM    7  C3  UNL     1       3.283 -21.337 -11.842  1.00  0.00     0.232 C 
HETATM    8  C4  UNL     1       2.415 -21.994 -10.848  1.00  0.00     0.119 C 
HETATM    9  O1  UNL     1       3.187 -21.640 -13.046  1.00  0.00    -0.272 OA
ATOM     10  H4  UNL     1       4.292 -20.126 -10.436  1.00  0.00     0.190 HD
ENDBRANCH   4   6
ENDBRANCH   3   4
BRANCH   3  11
HETATM   11  C5  UNL     1       6.952 -18.731 -11.141  1.00  0.00     0.011 A 
HETATM   12  C6  UNL     1       6.977 -18.175  -9.907  1.00  0.00     0.017 A 
HETATM   13  C7  UNL     1       8.078 -18.341  -9.061  1.00  0.00     0.031 A 
HETATM   14  C8  UNL     1       9.160 -19.072  -9.467  1.00  0.00     0.042 A 
HETATM   15  C10 UNL     1       9.132 -19.641 -10.736  1.00  0.00     0.031 A 
HETATM   16  C11 UNL     1       8.034 -19.467 -11.558  1.00  0.00     0.017 A 
BRANCH  14  17
HETATM   17  N5  UNL     1      10.282 -19.248  -8.632  1.00  0.00    -0.285 N 
ATOM     18  H5  UNL     1      10.134 -19.753  -7.758  1.00  0.00     0.178 HD
BRANCH  17  19
HETATM   19  S1  UNL     1      11.872 -18.693  -8.952  1.00  0.00     0.227 S 
HETATM   20  C9  UNL     1      12.164 -18.282 -10.638  1.00  0.00     0.186 C 
HETATM   21  O2  UNL     1      12.844 -19.810  -8.599  1.00  0.00    -0.206 OA
HETATM   22  O3  UNL     1      12.235 -17.507  -8.098  1.00  0.00    -0.206 OA
ENDBRANCH  17  19
ENDBRANCH  14  17
ENDBRANCH   3  11
BRANCH   1  23
HETATM   23  N1  UNL     1       6.113 -16.293 -12.233  1.00  0.00    -0.339 N 
HETATM   24  C1  UNL     1       5.537 -15.329 -11.285  1.00  0.00     0.167 C 
ATOM     25  H1  UNL     1       7.008 -16.097 -12.682  1.00  0.00     0.179 HD
ENDBRANCH   1  23
TORSDOF 6
ENDMDL
