MODEL 1
REMARK VINA RESULT: -8.442588004      0.000      0.000
REMARK  5 active torsions:
REMARK  status: ('A' for Active; 'I' for Inactive)
REMARK       I    between atoms: C1_4  and  N3_6 
REMARK    1  A    between atoms: C3_9  and  C4_10 
REMARK    2  A    between atoms: C4_10  and  C5_12 
REMARK       I    between atoms: C5_12  and  N4_14 
REMARK    3  A    between atoms: N4_14  and  C6_16 
REMARK    4  A    between atoms: C6_16  and  C7_17 
REMARK    5  A    between atoms: C7_17  and  N5_18 
ROOT
HETATM    1  C5  UNL     1       6.412 -17.294 -11.380  1.00  0.00     0.290 C 
HETATM    2  O3  UNL     1       6.367 -16.144 -10.819  1.00  0.00    -0.264 OA
HETATM    3  N4  UNL     1       7.465 -18.164 -11.000  1.00  0.00    -0.352 N 
ATOM      4  H4  UNL     1       7.536 -19.089 -11.423  1.00  0.00     0.162 HD
ENDROOT
BRANCH   1   5
HETATM    5  C4  UNL     1       5.412 -17.680 -12.368  1.00  0.00     0.246 C 
HETATM    6  O2  UNL     1       4.590 -16.828 -12.758  1.00  0.00    -0.284 OA
BRANCH   5   7
HETATM    7  C3  UNL     1       5.383 -19.039 -12.886  1.00  0.00     0.221 C 
HETATM    8  O1  UNL     1       4.727 -19.141 -14.112  1.00  0.00    -0.357 OA
HETATM    9  C2  UNL     1       4.682 -20.530 -14.273  1.00  0.00     0.296 C 
HETATM   10  N3  UNL     1       4.223 -21.014 -12.990  1.00  0.00    -0.332 N 
HETATM   11  C1  UNL     1       3.573 -22.260 -12.782  1.00  0.00     0.185 C 
HETATM   12  C13 UNL     1       4.564 -19.988 -12.024  1.00  0.00     0.168 C 
HETATM   13  N1  UNL     1       3.780 -23.288 -13.532  1.00  0.00    -0.374 N 
HETATM   14  N2  UNL     1       2.650 -22.383 -11.696  1.00  0.00    -0.064 NA
ATOM     15  H12 UNL     1       3.313 -24.183 -13.383  1.00  0.00     0.158 HD
ATOM     16  H11 UNL     1       4.438 -23.201 -14.306  1.00  0.00     0.158 HD
ENDBRANCH   5   7
ENDBRANCH   1   5
BRANCH   3  17
HETATM   17  C6  UNL     1       8.437 -17.750 -10.018  1.00  0.00     0.161 C 
BRANCH  17  18
HETATM   18  C7  UNL     1       9.576 -18.746  -9.904  1.00  0.00     0.139 C 
HETATM   19  C8  UNL     1      10.792 -18.115 -10.528  1.00  0.00     0.040 C 
HETATM   20  C9  UNL     1      11.997 -19.010 -10.380  1.00  0.00     0.002 C 
HETATM   21  C10 UNL     1      12.255 -19.412  -8.962  1.00  0.00     0.000 C 
HETATM   22  C11 UNL     1      11.195 -18.989  -8.005  1.00  0.00     0.002 C 
HETATM   23  C12 UNL     1       9.791 -19.223  -8.511  1.00  0.00     0.040 C 
BRANCH  18  24
HETATM   24  N5  UNL     1       9.205 -19.895 -10.723  1.00  0.00    -0.069 N 
ATOM     25  H53 UNL     1       9.281 -20.784 -10.229  1.00  0.00     0.275 HD
ATOM     26  H52 UNL     1       8.206 -19.945 -10.920  1.00  0.00     0.275 HD
ATOM     27  H51 UNL     1       9.781 -19.850 -11.563  1.00  0.00     0.275 HD
ENDBRANCH  18  24
ENDBRANCH  17  18
ENDBRANCH   3  17
TORSDOF 5
ENDMDL
MODEL 2
REMARK VINA RESULT: -7.914778753      1.248      1.595
REMARK  5 active torsions:
REMARK  status: ('A' for Active; 'I' for Inactive)
REMARK       I    between atoms: C1_4  and  N3_6 
REMARK    1  A    between atoms: C3_9  and  C4_10 
REMARK    2  A    between atoms: C4_10  and  C5_12 
REMARK       I    between atoms: C5_12  and  N4_14 
REMARK    3  A    between atoms: N4_14  and  C6_16 
REMARK    4  A    between atoms: C6_16  and  C7_17 
REMARK    5  A    between atoms: C7_17  and  N5_18 
ROOT
HETATM    1  C5  UNL     1       5.832 -16.585 -11.333  1.00  0.00     0.290 C 
HETATM    2  O3  UNL     1       5.994 -15.423 -10.820  1.00  0.00    -0.264 OA
HETATM    3  N4  UNL     1       6.775 -17.587 -10.989  1.00  0.00    -0.352 N 
ATOM      4  H4  UNL     1       6.680 -18.525 -11.377  1.00  0.00     0.162 HD
ENDROOT
BRANCH   1   5
HETATM    5  C4  UNL     1       4.718 -16.852 -12.235  1.00  0.00     0.246 C 
HETATM    6  O2  UNL     1       4.488 -16.052 -13.163  1.00  0.00    -0.284 OA
BRANCH   5   7
HETATM    7  C3  UNL     1       3.893 -18.035 -12.046  1.00  0.00     0.221 C 
HETATM    8  O1  UNL     1       4.229 -18.756 -10.902  1.00  0.00    -0.357 OA
HETATM    9  C2  UNL     1       3.437 -19.898 -11.066  1.00  0.00     0.296 C 
HETATM   10  N3  UNL     1       3.663 -20.281 -12.443  1.00  0.00    -0.332 N 
HETATM   11  C1  UNL     1       3.482 -21.593 -12.957  1.00  0.00     0.185 C 
HETATM   12  C13 UNL     1       4.091 -19.081 -13.133  1.00  0.00     0.168 C 
HETATM   13  N1  UNL     1       2.635 -22.427 -12.457  1.00  0.00    -0.374 N 
HETATM   14  N2  UNL     1       4.271 -22.011 -14.075  1.00  0.00    -0.064 NA
ATOM     15  H12 UNL     1       2.504 -23.369 -12.825  1.00  0.00     0.158 HD
ATOM     16  H11 UNL     1       2.072 -22.129 -11.659  1.00  0.00     0.158 HD
ENDBRANCH   5   7
ENDBRANCH   1   5
BRANCH   3  17
HETATM   17  C6  UNL     1       7.865 -17.288 -10.094  1.00  0.00     0.161 C 
BRANCH  17  18
HETATM   18  C7  UNL     1       8.813 -18.465  -9.955  1.00  0.00     0.139 C 
HETATM   19  C8  UNL     1      10.186 -17.988 -10.348  1.00  0.00     0.040 C 
HETATM   20  C9  UNL     1      11.209 -19.080 -10.155  1.00  0.00     0.002 C 
HETATM   21  C10 UNL     1      11.202 -19.650  -8.773  1.00  0.00     0.000 C 
HETATM   22  C11 UNL     1      10.095 -19.149  -7.911  1.00  0.00     0.002 C 
HETATM   23  C12 UNL     1       8.756 -19.100  -8.610  1.00  0.00     0.040 C 
BRANCH  18  24
HETATM   24  N5  UNL     1       8.391 -19.456 -10.940  1.00  0.00    -0.069 N 
ATOM     25  H53 UNL     1       7.516 -19.216 -11.405  1.00  0.00     0.275 HD
ATOM     26  H52 UNL     1       8.979 -19.470 -11.774  1.00  0.00     0.275 HD
ATOM     27  H51 UNL     1       8.358 -20.352 -10.454  1.00  0.00     0.275 HD
ENDBRANCH  18  24
ENDBRANCH  17  18
ENDBRANCH   3  17
TORSDOF 5
ENDMDL
MODEL 3
REMARK VINA RESULT: -7.714121399      2.004      7.190
REMARK  5 active torsions:
REMARK  status: ('A' for Active; 'I' for Inactive)
REMARK       I    between atoms: C1_4  and  N3_6 
REMARK    1  A    between atoms: C3_9  and  C4_10 
REMARK    2  A    between atoms: C4_10  and  C5_12 
REMARK       I    between atoms: C5_12  and  N4_14 
REMARK    3  A    between atoms: N4_14  and  C6_16 
REMARK    4  A    between atoms: C6_16  and  C7_17 
REMARK    5  A    between atoms: C7_17  and  N5_18 
ROOT
HETATM    1  C5  UNL     1       6.544 -18.024 -11.778  1.00  0.00     0.290 C 
HETATM    2  O3  UNL     1       6.141 -17.136 -12.609  1.00  0.00    -0.264 OA
HETATM    3  N4  UNL     1       6.171 -19.369 -12.029  1.00  0.00    -0.352 N 
ATOM      4  H4  UNL     1       6.472 -20.105 -11.391  1.00  0.00     0.162 HD
ENDROOT
BRANCH   1   5
HETATM    5  C4  UNL     1       7.355 -17.651 -10.626  1.00  0.00     0.246 C 
HETATM    6  O2  UNL     1       7.106 -16.583 -10.033  1.00  0.00    -0.284 OA
BRANCH   5   7
HETATM    7  C3  UNL     1       8.436 -18.518 -10.182  1.00  0.00     0.221 C 
HETATM    8  O1  UNL     1       8.417 -18.751  -8.807  1.00  0.00    -0.357 OA
HETATM    9  C2  UNL     1       9.629 -19.429  -8.637  1.00  0.00     0.296 C 
HETATM   10  N3  UNL     1      10.581 -18.631  -9.379  1.00  0.00    -0.332 N 
HETATM   11  C1  UNL     1      11.981 -18.615  -9.141  1.00  0.00     0.185 C 
HETATM   12  C13 UNL     1       9.813 -17.897 -10.365  1.00  0.00     0.168 C 
HETATM   13  N1  UNL     1      12.618 -19.626  -8.657  1.00  0.00    -0.374 N 
HETATM   14  N2  UNL     1      12.719 -17.428  -9.449  1.00  0.00    -0.064 NA
ATOM     15  H12 UNL     1      13.623 -19.615  -8.486  1.00  0.00     0.158 HD
ATOM     16  H11 UNL     1      12.092 -20.472  -8.437  1.00  0.00     0.158 HD
ENDBRANCH   5   7
ENDBRANCH   1   5
BRANCH   3  17
HETATM   17  C6  UNL     1       5.367 -19.702 -13.179  1.00  0.00     0.161 C 
BRANCH  17  18
HETATM   18  C7  UNL     1       4.071 -20.380 -12.778  1.00  0.00     0.139 C 
HETATM   19  C8  UNL     1       4.110 -21.785 -13.319  1.00  0.00     0.040 C 
HETATM   20  C9  UNL     1       2.889 -22.560 -12.889  1.00  0.00     0.002 C 
HETATM   21  C10 UNL     1       2.681 -22.549 -11.408  1.00  0.00     0.000 C 
HETATM   22  C11 UNL     1       3.615 -21.655 -10.667  1.00  0.00     0.002 C 
HETATM   23  C12 UNL     1       3.804 -20.303 -11.316  1.00  0.00     0.040 C 
BRANCH  18  24
HETATM   24  N5  UNL     1       3.000 -19.671 -13.470  1.00  0.00    -0.069 N 
ATOM     25  H53 UNL     1       3.019 -18.663 -13.318  1.00  0.00     0.275 HD
ATOM     26  H52 UNL     1       3.119 -19.649 -14.484  1.00  0.00     0.275 HD
ATOM     27  H51 UNL     1       2.126 -20.108 -13.176  1.00  0.00     0.275 HD
ENDBRANCH  18  24
ENDBRANCH  17  18
ENDBRANCH   3  17
TORSDOF 5
ENDMDL
MODEL 4
REMARK VINA RESULT: -7.695218974      2.273      6.418
REMARK  5 active torsions:
REMARK  status: ('A' for Active; 'I' for Inactive)
REMARK       I    between atoms: C1_4  and  N3_6 
REMARK    1  A    between atoms: C3_9  and  C4_10 
REMARK    2  A    between atoms: C4_10  and  C5_12 
REMARK       I    between atoms: C5_12  and  N4_14 
REMARK    3  A    between atoms: N4_14  and  C6_16 
REMARK    4  A    between atoms: C6_16  and  C7_17 
REMARK    5  A    between atoms: C7_17  and  N5_18 
ROOT
HETATM    1  C5  UNL     1       4.514 -17.377 -11.625  1.00  0.00     0.290 C 
HETATM    2  O3  UNL     1       3.492 -17.575 -10.879  1.00  0.00    -0.264 OA
HETATM    3  N4  UNL     1       4.629 -18.168 -12.796  1.00  0.00    -0.352 N 
ATOM      4  H4  UNL     1       5.428 -18.041 -13.416  1.00  0.00     0.162 HD
ENDROOT
BRANCH   1   5
HETATM    5  C4  UNL     1       5.511 -16.374 -11.271  1.00  0.00     0.246 C 
HETATM    6  O2  UNL     1       5.197 -15.168 -11.321  1.00  0.00    -0.284 OA
BRANCH   5   7
HETATM    7  C3  UNL     1       6.847 -16.783 -10.866  1.00  0.00     0.221 C 
HETATM    8  O1  UNL     1       7.363 -17.811 -11.654  1.00  0.00    -0.357 OA
HETATM    9  C2  UNL     1       8.531 -18.122 -10.950  1.00  0.00     0.296 C 
HETATM   10  N3  UNL     1       8.095 -18.206  -9.573  1.00  0.00    -0.332 N 
HETATM   11  C1  UNL     1       8.764 -18.939  -8.557  1.00  0.00     0.185 C 
HETATM   12  C13 UNL     1       6.885 -17.413  -9.482  1.00  0.00     0.168 C 
HETATM   13  N1  UNL     1      10.036 -19.152  -8.573  1.00  0.00    -0.374 N 
HETATM   14  N2  UNL     1       7.999 -19.464  -7.467  1.00  0.00    -0.064 NA
ATOM     15  H12 UNL     1      10.517 -19.677  -7.843  1.00  0.00     0.158 HD
ATOM     16  H11 UNL     1      10.582 -18.778  -9.350  1.00  0.00     0.158 HD
ENDBRANCH   5   7
ENDBRANCH   1   5
BRANCH   3  17
HETATM   17  C6  UNL     1       3.624 -19.152 -13.116  1.00  0.00     0.161 C 
BRANCH  17  18
HETATM   18  C7  UNL     1       3.949 -20.502 -12.505  1.00  0.00     0.139 C 
HETATM   19  C8  UNL     1       2.730 -20.959 -11.747  1.00  0.00     0.040 C 
HETATM   20  C9  UNL     1       2.940 -22.340 -11.177  1.00  0.00     0.002 C 
HETATM   21  C10 UNL     1       3.351 -23.342 -12.208  1.00  0.00     0.000 C 
HETATM   22  C11 UNL     1       3.626 -22.758 -13.551  1.00  0.00     0.002 C 
HETATM   23  C12 UNL     1       4.442 -21.487 -13.506  1.00  0.00     0.040 C 
BRANCH  18  24
HETATM   24  N5  UNL     1       5.013 -20.273 -11.534  1.00  0.00    -0.069 N 
ATOM     25  H53 UNL     1       4.672 -19.930 -10.636  1.00  0.00     0.275 HD
ATOM     26  H52 UNL     1       5.437 -21.135 -11.189  1.00  0.00     0.275 HD
ATOM     27  H51 UNL     1       5.681 -19.644 -11.979  1.00  0.00     0.275 HD
ENDBRANCH  18  24
ENDBRANCH  17  18
ENDBRANCH   3  17
TORSDOF 5
ENDMDL
MODEL 5
REMARK VINA RESULT: -7.301658501      2.824      7.595
REMARK  5 active torsions:
REMARK  status: ('A' for Active; 'I' for Inactive)
REMARK       I    between atoms: C1_4  and  N3_6 
REMARK    1  A    between atoms: C3_9  and  C4_10 
REMARK    2  A    between atoms: C4_10  and  C5_12 
REMARK       I    between atoms: C5_12  and  N4_14 
REMARK    3  A    between atoms: N4_14  and  C6_16 
REMARK    4  A    between atoms: C6_16  and  C7_17 
REMARK    5  A    between atoms: C7_17  and  N5_18 
ROOT
HETATM    1  C5  UNL     1       7.596 -18.203 -10.104  1.00  0.00     0.290 C 
HETATM    2  O3  UNL     1       7.191 -17.036  -9.767  1.00  0.00    -0.264 OA
HETATM    3  N4  UNL     1       7.140 -18.719 -11.345  1.00  0.00    -0.352 N 
ATOM      4  H4  UNL     1       7.441 -19.644 -11.649  1.00  0.00     0.162 HD
ENDROOT
BRANCH   1   5
HETATM    5  C4  UNL     1       8.490 -18.961  -9.237  1.00  0.00     0.246 C 
HETATM    6  O2  UNL     1       8.012 -19.560  -8.254  1.00  0.00    -0.284 OA
BRANCH   5   7
HETATM    7  C3  UNL     1       9.915 -19.010  -9.521  1.00  0.00     0.221 C 
HETATM    8  O1  UNL     1      10.639 -19.711  -8.558  1.00  0.00    -0.357 OA
HETATM    9  C2  UNL     1      11.950 -19.446  -8.966  1.00  0.00     0.296 C 
HETATM   10  N3  UNL     1      11.958 -18.019  -9.203  1.00  0.00    -0.332 N 
HETATM   11  C1  UNL     1      13.119 -17.200  -9.170  1.00  0.00     0.185 C 
HETATM   12  C13 UNL     1      10.583 -17.644  -9.467  1.00  0.00     0.168 C 
HETATM   13  N1  UNL     1      14.295 -17.646  -9.455  1.00  0.00    -0.374 N 
HETATM   14  N2  UNL     1      12.982 -15.823  -8.805  1.00  0.00    -0.064 NA
ATOM     15  H12 UNL     1      15.128 -17.059  -9.431  1.00  0.00     0.158 HD
ATOM     16  H11 UNL     1      14.393 -18.628  -9.715  1.00  0.00     0.158 HD
ENDBRANCH   5   7
ENDBRANCH   1   5
BRANCH   3  17
HETATM   17  C6  UNL     1       6.256 -17.942 -12.178  1.00  0.00     0.161 C 
BRANCH  17  18
HETATM   18  C7  UNL     1       5.013 -18.725 -12.555  1.00  0.00     0.139 C 
HETATM   19  C8  UNL     1       5.456 -19.910 -13.372  1.00  0.00     0.040 C 
HETATM   20  C9  UNL     1       4.282 -20.792 -13.718  1.00  0.00     0.002 C 
HETATM   21  C10 UNL     1       3.497 -21.217 -12.518  1.00  0.00     0.000 C 
HETATM   22  C11 UNL     1       3.925 -20.567 -11.247  1.00  0.00     0.002 C 
HETATM   23  C12 UNL     1       4.174 -19.082 -11.379  1.00  0.00     0.040 C 
BRANCH  18  24
HETATM   24  N5  UNL     1       4.225 -17.859 -13.425  1.00  0.00    -0.069 N 
ATOM     25  H53 UNL     1       3.635 -17.201 -12.914  1.00  0.00     0.275 HD
ATOM     26  H52 UNL     1       4.786 -17.166 -13.922  1.00  0.00     0.275 HD
ATOM     27  H51 UNL     1       3.699 -18.473 -14.047  1.00  0.00     0.275 HD
ENDBRANCH  18  24
ENDBRANCH  17  18
ENDBRANCH   3  17
TORSDOF 5
ENDMDL
