MODEL 1
REMARK VINA RESULT: -6.840894127      0.000      0.000
REMARK  6 active torsions:
REMARK  status: ('A' for Active; 'I' for Inactive)
REMARK       I    between atoms: N1_2  and  C2_4 
REMARK    1  A    between atoms: C2_4  and  C3_6 
REMARK    2  A    between atoms: C3_6  and  C4_7 
REMARK    3  A    between atoms: C3_6  and  N2_9 
REMARK       I    between atoms: N2_9  and  C5_11 
REMARK       I    between atoms: C5_11  and  N3_13 
REMARK    4  A    between atoms: N3_13  and  S2_15 
REMARK    5  A    between atoms: S2_15  and  C6_18 
REMARK    6  A    between atoms: C6_18  and  C7_19 
ROOT
HETATM    1  N2  UNL     1     -35.095  -2.162   7.435  1.00  0.00    -0.328 N 
ATOM      2  H2  UNL     1     -34.331  -2.120   8.109  1.00  0.00     0.165 HD
HETATM    3  C5  UNL     1     -34.914  -1.525   6.192  1.00  0.00     0.330 C 
HETATM    4  O2  UNL     1     -35.837  -1.552   5.322  1.00  0.00    -0.246 OA
HETATM    5  N3  UNL     1     -33.685  -0.855   5.931  1.00  0.00    -0.236 N 
ATOM      6  H3  UNL     1     -32.963  -0.848   6.651  1.00  0.00     0.183 HD
ENDROOT
BRANCH   1   7
HETATM    7  C3  UNL     1     -36.288  -2.868   7.814  1.00  0.00     0.188 C 
BRANCH   7   8
HETATM    8  C2  UNL     1     -36.106  -4.293   7.588  1.00  0.00     0.240 C 
HETATM    9  N1  UNL     1     -34.880  -4.932   7.287  1.00  0.00    -0.364 N 
HETATM   10  C1  UNL     1     -34.776  -6.354   7.078  1.00  0.00     0.149 C 
ATOM     11  H1  UNL     1     -34.036  -4.363   7.214  1.00  0.00     0.161 HD
HETATM   12  O1  UNL     1     -37.120  -5.032   7.666  1.00  0.00    -0.271 OA
ENDBRANCH   7   8
BRANCH   7  13
HETATM   13  C4  UNL     1     -36.629  -2.457   9.204  1.00  0.00     0.121 C 
HETATM   14  S1  UNL     1     -36.091  -0.826   9.673  1.00  0.00    -0.095 SA
ENDBRANCH   7  13
ENDBRANCH   1   7
BRANCH   5  15
HETATM   15  S2  UNL     1     -33.381  -0.054   4.434  1.00  0.00     0.238 S 
HETATM   16  O3  UNL     1     -33.463  -1.054   3.312  1.00  0.00    -0.205 OA
HETATM   17  O4  UNL     1     -31.975   0.498   4.399  1.00  0.00    -0.205 OA
BRANCH  15  18
HETATM   18  C6  UNL     1     -34.522   1.260   4.224  1.00  0.00     0.202 C 
BRANCH  18  19
HETATM   19  C7  UNL     1     -34.474   1.884   2.884  1.00  0.00    -0.043 A 
HETATM   20  C8  UNL     1     -35.654   2.030   2.193  1.00  0.00     0.008 A 
HETATM   21  C9  UNL     1     -35.667   2.620   0.932  1.00  0.00     0.001 A 
HETATM   22  C10 UNL     1     -34.460   3.041   0.422  1.00  0.00     0.000 A 
HETATM   23  C11 UNL     1     -33.274   2.896   1.114  1.00  0.00     0.001 A 
HETATM   24  C12 UNL     1     -33.291   2.311   2.355  1.00  0.00     0.008 A 
ENDBRANCH  18  19
ENDBRANCH  15  18
ENDBRANCH   5  15
TORSDOF 6
ENDMDL
MODEL 2
REMARK VINA RESULT: -6.661057085      2.866      7.944
REMARK  6 active torsions:
REMARK  status: ('A' for Active; 'I' for Inactive)
REMARK       I    between atoms: N1_2  and  C2_4 
REMARK    1  A    between atoms: C2_4  and  C3_6 
REMARK    2  A    between atoms: C3_6  and  C4_7 
REMARK    3  A    between atoms: C3_6  and  N2_9 
REMARK       I    between atoms: N2_9  and  C5_11 
REMARK       I    between atoms: C5_11  and  N3_13 
REMARK    4  A    between atoms: N3_13  and  S2_15 
REMARK    5  A    between atoms: S2_15  and  C6_18 
REMARK    6  A    between atoms: C6_18  and  C7_19 
ROOT
HETATM    1  N2  UNL     1     -34.802   2.170   3.014  1.00  0.00    -0.328 N 
ATOM      2  H2  UNL     1     -35.595   2.727   3.332  1.00  0.00     0.165 HD
HETATM    3  C5  UNL     1     -34.393   1.086   3.814  1.00  0.00     0.330 C 
HETATM    4  O2  UNL     1     -33.412   0.364   3.456  1.00  0.00    -0.246 OA
HETATM    5  N3  UNL     1     -35.094   0.816   5.023  1.00  0.00    -0.236 N 
ATOM      6  H3  UNL     1     -35.877   1.415   5.285  1.00  0.00     0.183 HD
ENDROOT
BRANCH   1   7
HETATM    7  C3  UNL     1     -34.173   2.540   1.775  1.00  0.00     0.188 C 
BRANCH   7   8
HETATM    8  C2  UNL     1     -35.186   2.951   0.816  1.00  0.00     0.240 C 
HETATM    9  N1  UNL     1     -36.578   3.026   1.065  1.00  0.00    -0.364 N 
HETATM   10  C1  UNL     1     -37.523   3.446   0.062  1.00  0.00     0.149 C 
ATOM     11  H1  UNL     1     -36.924   2.773   1.990  1.00  0.00     0.161 HD
HETATM   12  O1  UNL     1     -34.804   3.270  -0.338  1.00  0.00    -0.271 OA
ENDBRANCH   7   8
BRANCH   7  13
HETATM   13  C4  UNL     1     -33.119   3.543   2.092  1.00  0.00     0.121 C 
HETATM   14  S1  UNL     1     -33.705   5.081   2.771  1.00  0.00    -0.095 SA
ENDBRANCH   7  13
ENDBRANCH   1   7
BRANCH   5  15
HETATM   15  S2  UNL     1     -34.661  -0.495   6.059  1.00  0.00     0.238 S 
HETATM   16  O3  UNL     1     -33.510  -0.075   6.932  1.00  0.00    -0.205 OA
HETATM   17  O4  UNL     1     -34.167  -1.673   5.252  1.00  0.00    -0.205 OA
BRANCH  15  18
HETATM   18  C6  UNL     1     -36.054  -0.986   7.004  1.00  0.00     0.202 C 
BRANCH  18  19
HETATM   19  C7  UNL     1     -36.214  -2.453   7.111  1.00  0.00    -0.043 A 
HETATM   20  C8  UNL     1     -37.407  -3.006   6.708  1.00  0.00     0.008 A 
HETATM   21  C9  UNL     1     -37.607  -4.382   6.779  1.00  0.00     0.001 A 
HETATM   22  C10 UNL     1     -36.569  -5.145   7.264  1.00  0.00     0.000 A 
HETATM   23  C11 UNL     1     -35.371  -4.591   7.668  1.00  0.00     0.001 A 
HETATM   24  C12 UNL     1     -35.201  -3.232   7.587  1.00  0.00     0.008 A 
ENDBRANCH  18  19
ENDBRANCH  15  18
ENDBRANCH   5  15
TORSDOF 6
ENDMDL
MODEL 3
REMARK VINA RESULT: -6.642767590      2.857      7.994
REMARK  6 active torsions:
REMARK  status: ('A' for Active; 'I' for Inactive)
REMARK       I    between atoms: N1_2  and  C2_4 
REMARK    1  A    between atoms: C2_4  and  C3_6 
REMARK    2  A    between atoms: C3_6  and  C4_7 
REMARK    3  A    between atoms: C3_6  and  N2_9 
REMARK       I    between atoms: N2_9  and  C5_11 
REMARK       I    between atoms: C5_11  and  N3_13 
REMARK    4  A    between atoms: N3_13  and  S2_15 
REMARK    5  A    between atoms: S2_15  and  C6_18 
REMARK    6  A    between atoms: C6_18  and  C7_19 
ROOT
HETATM    1  N2  UNL     1     -34.827   2.139   3.046  1.00  0.00    -0.328 N 
ATOM      2  H2  UNL     1     -35.609   2.708   3.369  1.00  0.00     0.165 HD
HETATM    3  C5  UNL     1     -34.425   1.053   3.847  1.00  0.00     0.330 C 
HETATM    4  O2  UNL     1     -33.458   0.317   3.484  1.00  0.00    -0.246 OA
HETATM    5  N3  UNL     1     -35.120   0.797   5.063  1.00  0.00    -0.236 N 
ATOM      6  H3  UNL     1     -35.892   1.408   5.330  1.00  0.00     0.183 HD
ENDROOT
BRANCH   1   7
HETATM    7  C3  UNL     1     -34.204   2.496   1.801  1.00  0.00     0.188 C 
BRANCH   7   8
HETATM    8  C2  UNL     1     -35.221   2.910   0.846  1.00  0.00     0.240 C 
HETATM    9  N1  UNL     1     -36.608   3.014   1.109  1.00  0.00    -0.364 N 
HETATM   10  C1  UNL     1     -37.557   3.435   0.110  1.00  0.00     0.149 C 
ATOM     11  H1  UNL     1     -36.948   2.781   2.042  1.00  0.00     0.161 HD
HETATM   12  O1  UNL     1     -34.846   3.205  -0.317  1.00  0.00    -0.271 OA
ENDBRANCH   7   8
BRANCH   7  13
HETATM   13  C4  UNL     1     -33.138   3.491   2.103  1.00  0.00     0.121 C 
HETATM   14  S1  UNL     1     -33.706   5.042   2.768  1.00  0.00    -0.095 SA
ENDBRANCH   7  13
ENDBRANCH   1   7
BRANCH   5  15
HETATM   15  S2  UNL     1     -34.695  -0.515   6.100  1.00  0.00     0.238 S 
HETATM   16  O3  UNL     1     -33.552  -0.096   6.984  1.00  0.00    -0.205 OA
HETATM   17  O4  UNL     1     -34.193  -1.692   5.296  1.00  0.00    -0.205 OA
BRANCH  15  18
HETATM   18  C6  UNL     1     -36.096  -1.008   7.032  1.00  0.00     0.202 C 
BRANCH  18  19
HETATM   19  C7  UNL     1     -36.285  -2.474   7.093  1.00  0.00    -0.043 A 
HETATM   20  C8  UNL     1     -35.241  -3.245   7.548  1.00  0.00     0.008 A 
HETATM   21  C9  UNL     1     -35.369  -4.628   7.635  1.00  0.00     0.001 A 
HETATM   22  C10 UNL     1     -36.572  -5.174   7.250  1.00  0.00     0.000 A 
HETATM   23  C11 UNL     1     -37.622  -4.402   6.794  1.00  0.00     0.001 A 
HETATM   24  C12 UNL     1     -37.468  -3.040   6.719  1.00  0.00     0.008 A 
ENDBRANCH  18  19
ENDBRANCH  15  18
ENDBRANCH   5  15
TORSDOF 6
ENDMDL
MODEL 4
REMARK VINA RESULT: -6.151117835      3.464      8.432
REMARK  6 active torsions:
REMARK  status: ('A' for Active; 'I' for Inactive)
REMARK       I    between atoms: N1_2  and  C2_4 
REMARK    1  A    between atoms: C2_4  and  C3_6 
REMARK    2  A    between atoms: C3_6  and  C4_7 
REMARK    3  A    between atoms: C3_6  and  N2_9 
REMARK       I    between atoms: N2_9  and  C5_11 
REMARK       I    between atoms: C5_11  and  N3_13 
REMARK    4  A    between atoms: N3_13  and  S2_15 
REMARK    5  A    between atoms: S2_15  and  C6_18 
REMARK    6  A    between atoms: C6_18  and  C7_19 
ROOT
HETATM    1  N2  UNL     1     -33.261   3.039   2.082  1.00  0.00    -0.328 N 
ATOM      2  H2  UNL     1     -32.246   2.954   2.030  1.00  0.00     0.165 HD
HETATM    3  C5  UNL     1     -33.970   2.060   2.805  1.00  0.00     0.330 C 
HETATM    4  O2  UNL     1     -35.234   2.126   2.897  1.00  0.00    -0.246 OA
HETATM    5  N3  UNL     1     -33.248   1.003   3.427  1.00  0.00    -0.236 N 
ATOM      6  H3  UNL     1     -32.232   0.976   3.334  1.00  0.00     0.183 HD
ENDROOT
BRANCH   1   7
HETATM    7  C3  UNL     1     -33.879   4.151   1.411  1.00  0.00     0.188 C 
BRANCH   7   8
HETATM    8  C2  UNL     1     -33.386   5.397   1.976  1.00  0.00     0.240 C 
HETATM    9  N1  UNL     1     -33.291   5.699   3.355  1.00  0.00    -0.364 N 
HETATM   10  C1  UNL     1     -32.788   6.959   3.841  1.00  0.00     0.149 C 
ATOM     11  H1  UNL     1     -33.590   4.998   4.032  1.00  0.00     0.161 HD
HETATM   12  O1  UNL     1     -33.007   6.292   1.178  1.00  0.00    -0.271 OA
ENDBRANCH   7   8
BRANCH   7  13
HETATM   13  C4  UNL     1     -33.673   3.961  -0.051  1.00  0.00     0.121 C 
HETATM   14  S1  UNL     1     -35.153   3.683  -1.002  1.00  0.00    -0.095 SA
ENDBRANCH   7  13
ENDBRANCH   1   7
BRANCH   5  15
HETATM   15  S2  UNL     1     -34.037  -0.233   4.335  1.00  0.00     0.238 S 
HETATM   16  O3  UNL     1     -33.137  -1.436   4.421  1.00  0.00    -0.205 OA
HETATM   17  O4  UNL     1     -35.290  -0.699   3.629  1.00  0.00    -0.205 OA
BRANCH  15  18
HETATM   18  C6  UNL     1     -34.464   0.380   5.921  1.00  0.00     0.202 C 
BRANCH  18  19
HETATM   19  C7  UNL     1     -34.871  -0.672   6.878  1.00  0.00    -0.043 A 
HETATM   20  C8  UNL     1     -35.941  -1.471   6.548  1.00  0.00     0.008 A 
HETATM   21  C9  UNL     1     -36.360  -2.482   7.407  1.00  0.00     0.001 A 
HETATM   22  C10 UNL     1     -35.661  -2.640   8.582  1.00  0.00     0.000 A 
HETATM   23  C11 UNL     1     -34.585  -1.840   8.915  1.00  0.00     0.001 A 
HETATM   24  C12 UNL     1     -34.194  -0.850   8.049  1.00  0.00     0.008 A 
ENDBRANCH  18  19
ENDBRANCH  15  18
ENDBRANCH   5  15
TORSDOF 6
ENDMDL
MODEL 5
REMARK VINA RESULT: -6.111920195      7.901     10.042
REMARK  6 active torsions:
REMARK  status: ('A' for Active; 'I' for Inactive)
REMARK       I    between atoms: N1_2  and  C2_4 
REMARK    1  A    between atoms: C2_4  and  C3_6 
REMARK    2  A    between atoms: C3_6  and  C4_7 
REMARK    3  A    between atoms: C3_6  and  N2_9 
REMARK       I    between atoms: N2_9  and  C5_11 
REMARK       I    between atoms: C5_11  and  N3_13 
REMARK    4  A    between atoms: N3_13  and  S2_15 
REMARK    5  A    between atoms: S2_15  and  C6_18 
REMARK    6  A    between atoms: C6_18  and  C7_19 
ROOT
HETATM    1  N2  UNL     1     -41.987   4.579   1.239  1.00  0.00    -0.328 N 
ATOM      2  H2  UNL     1     -42.257   3.600   1.146  1.00  0.00     0.165 HD
HETATM    3  C5  UNL     1     -40.624   4.904   1.098  1.00  0.00     0.330 C 
HETATM    4  O2  UNL     1     -40.243   6.110   1.204  1.00  0.00    -0.246 OA
HETATM    5  N3  UNL     1     -39.689   3.864   0.834  1.00  0.00    -0.236 N 
ATOM      6  H3  UNL     1     -40.026   2.905   0.755  1.00  0.00     0.183 HD
ENDROOT
BRANCH   1   7
HETATM    7  C3  UNL     1     -43.022   5.540   1.507  1.00  0.00     0.188 C 
BRANCH   7   8
HETATM    8  C2  UNL     1     -43.767   5.808   0.288  1.00  0.00     0.240 C 
HETATM    9  N1  UNL     1     -43.428   5.348  -1.007  1.00  0.00    -0.364 N 
HETATM   10  C1  UNL     1     -44.220   5.653  -2.171  1.00  0.00     0.149 C 
ATOM     11  H1  UNL     1     -42.590   4.778  -1.119  1.00  0.00     0.161 HD
HETATM   12  O1  UNL     1     -44.807   6.509   0.380  1.00  0.00    -0.271 OA
ENDBRANCH   7   8
BRANCH   7  13
HETATM   13  C4  UNL     1     -43.810   5.037   2.666  1.00  0.00     0.121 C 
HETATM   14  S1  UNL     1     -43.899   6.135   4.065  1.00  0.00    -0.095 SA
ENDBRANCH   7  13
ENDBRANCH   1   7
BRANCH   5  15
HETATM   15  S2  UNL     1     -38.003   4.178   0.642  1.00  0.00     0.238 S 
HETATM   16  O3  UNL     1     -37.483   4.863   1.876  1.00  0.00    -0.205 OA
HETATM   17  O4  UNL     1     -37.764   5.137  -0.501  1.00  0.00    -0.205 OA
BRANCH  15  18
HETATM   18  C6  UNL     1     -37.156   2.676   0.321  1.00  0.00     0.202 C 
BRANCH  18  19
HETATM   19  C7  UNL     1     -35.756   2.668   0.797  1.00  0.00    -0.043 A 
HETATM   20  C8  UNL     1     -35.456   1.933   1.921  1.00  0.00     0.008 A 
HETATM   21  C9  UNL     1     -34.152   1.883   2.405  1.00  0.00     0.001 A 
HETATM   22  C10 UNL     1     -33.197   2.593   1.715  1.00  0.00     0.000 A 
HETATM   23  C11 UNL     1     -33.495   3.331   0.586  1.00  0.00     0.001 A 
HETATM   24  C12 UNL     1     -34.789   3.362   0.130  1.00  0.00     0.008 A 
ENDBRANCH  18  19
ENDBRANCH  15  18
ENDBRANCH   5  15
TORSDOF 6
ENDMDL
