MODEL 1
REMARK VINA RESULT: -7.113879938      0.000      0.000
REMARK  7 active torsions:
REMARK  status: ('A' for Active; 'I' for Inactive)
REMARK       I    between atoms: C1_2  and  N2_4 
REMARK    1  A    between atoms: N2_4  and  N3_6 
REMARK    2  A    between atoms: C2_8  and  C3_9 
REMARK    3  A    between atoms: C2_8  and  C11_23 
REMARK       I    between atoms: C3_9  and  N4_11 
REMARK    4  A    between atoms: N4_11  and  C4_13 
REMARK    5  A    between atoms: C4_13  and  C5_14 
REMARK    6  A    between atoms: C4_13  and  C10_20 
REMARK    7  A    between atoms: C5_14  and  C6_15 
ROOT
HETATM    1  N3  UNL     1     -31.555   6.901   2.614  1.00  0.00    -0.291 N 
ATOM      2  H3  UNL     1     -31.822   6.491   1.719  1.00  0.00     0.187 HD
HETATM    3  C2  UNL     1     -32.339   6.419   3.439  1.00  0.00     0.126 C 
ENDROOT
BRANCH   3   4
HETATM    4  C3  UNL     1     -33.331   5.476   2.882  1.00  0.00     0.271 C 
HETATM    5  O2  UNL     1     -34.564   5.580   2.936  1.00  0.00    -0.266 OA
HETATM    6  N4  UNL     1     -32.810   4.315   2.205  1.00  0.00    -0.341 N 
ATOM      7  H4  UNL     1     -31.803   4.177   2.130  1.00  0.00     0.163 HD
BRANCH   6   8
HETATM    8  C4  UNL     1     -33.716   3.349   1.635  1.00  0.00     0.190 C 
BRANCH   8   9
HETATM    9  C5  UNL     1     -33.138   1.942   1.806  1.00  0.00     0.076 C 
BRANCH   9  10
HETATM   10  C6  UNL     1     -33.656   1.300   3.031  1.00  0.00    -0.032 A 
HETATM   11  C7  UNL     1     -33.025   0.302   3.777  1.00  0.00     0.033 A 
HETATM   12  C8  UNL     1     -33.862   0.008   4.820  1.00  0.00     0.142 A 
HETATM   13  O3  UNL     1     -34.939   0.751   4.754  1.00  0.00    -0.334 OA
HETATM   14  C9  UNL     1     -34.848   1.529   3.704  1.00  0.00     0.148 A 
ENDBRANCH   9  10
ENDBRANCH   8   9
BRANCH   8  15
HETATM   15  C10 UNL     1     -33.983   3.636   0.206  1.00  0.00     0.197 C 
HETATM   16  O4  UNL     1     -34.983   3.116  -0.345  1.00  0.00    -0.646 OA
HETATM   17  O5  UNL     1     -33.149   4.462  -0.520  1.00  0.00    -0.646 OA
ENDBRANCH   8  15
ENDBRANCH   6   8
ENDBRANCH   3   4
BRANCH   3  18
HETATM   18  C11 UNL     1     -32.311   6.737   4.857  1.00  0.00    -0.003 A 
HETATM   19  C12 UNL     1     -33.473   7.183   5.505  1.00  0.00     0.014 A 
HETATM   20  C13 UNL     1     -33.524   7.504   6.846  1.00  0.00     0.001 A 
HETATM   21  C14 UNL     1     -32.401   7.395   7.631  1.00  0.00     0.000 A 
HETATM   22  C15 UNL     1     -31.244   6.963   7.038  1.00  0.00     0.001 A 
HETATM   23  C16 UNL     1     -31.209   6.641   5.671  1.00  0.00     0.014 A 
ENDBRANCH   3  18
BRANCH   1  24
HETATM   24  N2  UNL     1     -30.544   7.689   2.344  1.00  0.00    -0.253 N 
HETATM   25  C1  UNL     1     -30.354   8.195   1.002  1.00  0.00     0.347 C 
HETATM   26  N1  UNL     1     -29.278   9.049   0.652  1.00  0.00    -0.038 NA
HETATM   27  O1  UNL     1     -31.171   7.865   0.114  1.00  0.00    -0.249 OA
ATOM     28  H2  UNL     1     -29.889   7.947   3.082  1.00  0.00     0.191 HD
ENDBRANCH   1  24
TORSDOF 7
ENDMDL
MODEL 2
REMARK VINA RESULT: -6.628613408      2.570      6.994
REMARK  7 active torsions:
REMARK  status: ('A' for Active; 'I' for Inactive)
REMARK       I    between atoms: C1_2  and  N2_4 
REMARK    1  A    between atoms: N2_4  and  N3_6 
REMARK    2  A    between atoms: C2_8  and  C3_9 
REMARK    3  A    between atoms: C2_8  and  C11_23 
REMARK       I    between atoms: C3_9  and  N4_11 
REMARK    4  A    between atoms: N4_11  and  C4_13 
REMARK    5  A    between atoms: C4_13  and  C5_14 
REMARK    6  A    between atoms: C4_13  and  C10_20 
REMARK    7  A    between atoms: C5_14  and  C6_15 
ROOT
HETATM    1  N3  UNL     1     -33.345   2.649   2.701  1.00  0.00    -0.291 N 
ATOM      2  H3  UNL     1     -32.729   3.086   3.387  1.00  0.00     0.187 HD
HETATM    3  C2  UNL     1     -33.874   3.588   2.096  1.00  0.00     0.126 C 
ENDROOT
BRANCH   3   4
HETATM    4  C3  UNL     1     -33.461   4.934   2.544  1.00  0.00     0.271 C 
HETATM    5  O2  UNL     1     -32.388   5.500   2.297  1.00  0.00    -0.266 OA
HETATM    6  N4  UNL     1     -34.404   5.664   3.353  1.00  0.00    -0.341 N 
ATOM      7  H4  UNL     1     -35.304   5.247   3.589  1.00  0.00     0.163 HD
BRANCH   6   8
HETATM    8  C4  UNL     1     -34.073   6.984   3.829  1.00  0.00     0.190 C 
BRANCH   8   9
HETATM    9  C5  UNL     1     -34.233   7.035   5.349  1.00  0.00     0.076 C 
BRANCH   9  10
HETATM   10  C6  UNL     1     -32.927   6.906   6.026  1.00  0.00    -0.032 A 
HETATM   11  C7  UNL     1     -31.674   6.850   5.413  1.00  0.00     0.033 A 
HETATM   12  C8  UNL     1     -30.752   6.729   6.418  1.00  0.00     0.142 A 
HETATM   13  O3  UNL     1     -31.357   6.709   7.580  1.00  0.00    -0.334 OA
HETATM   14  C9  UNL     1     -32.648   6.812   7.383  1.00  0.00     0.148 A 
ENDBRANCH   9  10
ENDBRANCH   8   9
BRANCH   8  15
HETATM   15  C10 UNL     1     -34.910   8.019   3.178  1.00  0.00     0.197 C 
HETATM   16  O4  UNL     1     -34.859   8.152   1.932  1.00  0.00    -0.646 OA
HETATM   17  O5  UNL     1     -35.738   8.834   3.923  1.00  0.00    -0.646 OA
ENDBRANCH   8  15
ENDBRANCH   6   8
ENDBRANCH   3   4
BRANCH   3  18
HETATM   18  C11 UNL     1     -34.835   3.411   1.019  1.00  0.00    -0.003 A 
HETATM   19  C12 UNL     1     -34.463   3.660  -0.310  1.00  0.00     0.014 A 
HETATM   20  C13 UNL     1     -35.318   3.515  -1.382  1.00  0.00     0.001 A 
HETATM   21  C14 UNL     1     -36.615   3.107  -1.188  1.00  0.00     0.000 A 
HETATM   22  C15 UNL     1     -37.021   2.852   0.096  1.00  0.00     0.001 A 
HETATM   23  C16 UNL     1     -36.138   3.005   1.176  1.00  0.00     0.014 A 
ENDBRANCH   3  18
BRANCH   1  24
HETATM   24  N2  UNL     1     -33.199   1.360   2.880  1.00  0.00    -0.253 N 
HETATM   25  C1  UNL     1     -34.044   0.655   3.819  1.00  0.00     0.347 C 
HETATM   26  N1  UNL     1     -33.931  -0.738   4.053  1.00  0.00    -0.038 NA
HETATM   27  O1  UNL     1     -34.910   1.301   4.450  1.00  0.00    -0.249 OA
ATOM     28  H2  UNL     1     -32.488   0.851   2.355  1.00  0.00     0.191 HD
ENDBRANCH   1  24
TORSDOF 7
ENDMDL
MODEL 3
REMARK VINA RESULT: -6.594735121      6.170      8.324
REMARK  7 active torsions:
REMARK  status: ('A' for Active; 'I' for Inactive)
REMARK       I    between atoms: C1_2  and  N2_4 
REMARK    1  A    between atoms: N2_4  and  N3_6 
REMARK    2  A    between atoms: C2_8  and  C3_9 
REMARK    3  A    between atoms: C2_8  and  C11_23 
REMARK       I    between atoms: C3_9  and  N4_11 
REMARK    4  A    between atoms: N4_11  and  C4_13 
REMARK    5  A    between atoms: C4_13  and  C5_14 
REMARK    6  A    between atoms: C4_13  and  C10_20 
REMARK    7  A    between atoms: C5_14  and  C6_15 
ROOT
HETATM    1  N3  UNL     1     -37.205   3.057  -1.755  1.00  0.00    -0.291 N 
ATOM      2  H3  UNL     1     -38.073   3.503  -2.050  1.00  0.00     0.187 HD
HETATM    3  C2  UNL     1     -36.994   3.481  -0.613  1.00  0.00     0.126 C 
ENDROOT
BRANCH   3   4
HETATM    4  C3  UNL     1     -38.007   4.428  -0.101  1.00  0.00     0.271 C 
HETATM    5  O2  UNL     1     -37.794   5.455   0.557  1.00  0.00    -0.266 OA
HETATM    6  N4  UNL     1     -39.384   4.126  -0.399  1.00  0.00    -0.341 N 
ATOM      7  H4  UNL     1     -39.619   3.293  -0.938  1.00  0.00     0.163 HD
BRANCH   6   8
HETATM    8  C4  UNL     1     -40.429   5.004   0.067  1.00  0.00     0.190 C 
BRANCH   8   9
HETATM    9  C5  UNL     1     -41.240   4.300   1.156  1.00  0.00     0.076 C 
BRANCH   9  10
HETATM   10  C6  UNL     1     -42.156   5.243   1.830  1.00  0.00    -0.032 A 
HETATM   11  C7  UNL     1     -43.400   4.940   2.387  1.00  0.00     0.033 A 
HETATM   12  C8  UNL     1     -43.895   6.110   2.898  1.00  0.00     0.142 A 
HETATM   13  O3  UNL     1     -43.044   7.084   2.688  1.00  0.00    -0.334 OA
HETATM   14  C9  UNL     1     -42.002   6.604   2.056  1.00  0.00     0.148 A 
ENDBRANCH   9  10
ENDBRANCH   8   9
BRANCH   8  15
HETATM   15  C10 UNL     1     -41.308   5.436  -1.045  1.00  0.00     0.197 C 
HETATM   16  O4  UNL     1     -42.004   4.579  -1.642  1.00  0.00    -0.646 OA
HETATM   17  O5  UNL     1     -41.367   6.760  -1.430  1.00  0.00    -0.646 OA
ENDBRANCH   8  15
ENDBRANCH   6   8
ENDBRANCH   3   4
BRANCH   3  18
HETATM   18  C11 UNL     1     -35.845   3.095   0.190  1.00  0.00    -0.003 A 
HETATM   19  C12 UNL     1     -36.016   2.301   1.334  1.00  0.00     0.014 A 
HETATM   20  C13 UNL     1     -34.976   1.896   2.144  1.00  0.00     0.001 A 
HETATM   21  C14 UNL     1     -33.684   2.265   1.855  1.00  0.00     0.000 A 
HETATM   22  C15 UNL     1     -33.472   3.040   0.746  1.00  0.00     0.001 A 
HETATM   23  C16 UNL     1     -34.542   3.444  -0.069  1.00  0.00     0.014 A 
ENDBRANCH   3  18
BRANCH   1  24
HETATM   24  N2  UNL     1     -36.842   2.306  -2.765  1.00  0.00    -0.253 N 
HETATM   25  C1  UNL     1     -35.770   2.729  -3.638  1.00  0.00     0.347 C 
HETATM   26  N1  UNL     1     -35.336   1.959  -4.746  1.00  0.00    -0.038 NA
HETATM   27  O1  UNL     1     -35.201   3.820  -3.407  1.00  0.00    -0.249 OA
ATOM     28  H2  UNL     1     -37.318   1.420  -2.937  1.00  0.00     0.191 HD
ENDBRANCH   1  24
TORSDOF 7
ENDMDL
MODEL 4
REMARK VINA RESULT: -6.528758313      2.654      6.500
REMARK  7 active torsions:
REMARK  status: ('A' for Active; 'I' for Inactive)
REMARK       I    between atoms: C1_2  and  N2_4 
REMARK    1  A    between atoms: N2_4  and  N3_6 
REMARK    2  A    between atoms: C2_8  and  C3_9 
REMARK    3  A    between atoms: C2_8  and  C11_23 
REMARK       I    between atoms: C3_9  and  N4_11 
REMARK    4  A    between atoms: N4_11  and  C4_13 
REMARK    5  A    between atoms: C4_13  and  C5_14 
REMARK    6  A    between atoms: C4_13  and  C10_20 
REMARK    7  A    between atoms: C5_14  and  C6_15 
ROOT
HETATM    1  N3  UNL     1     -35.633   3.679   1.699  1.00  0.00    -0.291 N 
ATOM      2  H3  UNL     1     -35.621   4.663   1.434  1.00  0.00     0.187 HD
HETATM    3  C2  UNL     1     -34.611   3.512   2.374  1.00  0.00     0.126 C 
ENDROOT
BRANCH   3   4
HETATM    4  C3  UNL     1     -33.776   4.719   2.552  1.00  0.00     0.271 C 
HETATM    5  O2  UNL     1     -32.620   4.887   2.140  1.00  0.00    -0.266 OA
HETATM    6  N4  UNL     1     -34.367   5.813   3.279  1.00  0.00    -0.341 N 
ATOM      7  H4  UNL     1     -35.316   5.731   3.643  1.00  0.00     0.163 HD
BRANCH   6   8
HETATM    8  C4  UNL     1     -33.614   7.024   3.493  1.00  0.00     0.190 C 
BRANCH   8   9
HETATM    9  C5  UNL     1     -33.844   7.524   4.921  1.00  0.00     0.076 C 
BRANCH   9  10
HETATM   10  C6  UNL     1     -32.737   7.119   5.811  1.00  0.00    -0.032 A 
HETATM   11  C7  UNL     1     -31.426   6.827   5.428  1.00  0.00     0.033 A 
HETATM   12  C8  UNL     1     -30.749   6.500   6.572  1.00  0.00     0.142 A 
HETATM   13  O3  UNL     1     -31.552   6.574   7.604  1.00  0.00    -0.334 OA
HETATM   14  C9  UNL     1     -32.739   6.939   7.187  1.00  0.00     0.148 A 
ENDBRANCH   9  10
ENDBRANCH   8   9
BRANCH   8  15
HETATM   15  C10 UNL     1     -33.978   8.068   2.507  1.00  0.00     0.197 C 
HETATM   16  O4  UNL     1     -34.952   8.822   2.747  1.00  0.00    -0.646 OA
HETATM   17  O5  UNL     1     -33.263   8.219   1.336  1.00  0.00    -0.646 OA
ENDBRANCH   8  15
ENDBRANCH   6   8
ENDBRANCH   3   4
BRANCH   3  18
HETATM   18  C11 UNL     1     -34.232   2.237   2.961  1.00  0.00    -0.003 A 
HETATM   19  C12 UNL     1     -35.055   1.626   3.918  1.00  0.00     0.014 A 
HETATM   20  C13 UNL     1     -34.763   0.420   4.518  1.00  0.00     0.001 A 
HETATM   21  C14 UNL     1     -33.613  -0.259   4.193  1.00  0.00     0.000 A 
HETATM   22  C15 UNL     1     -32.780   0.302   3.261  1.00  0.00     0.001 A 
HETATM   23  C16 UNL     1     -33.092   1.532   2.660  1.00  0.00     0.014 A 
ENDBRANCH   3  18
BRANCH   1  24
HETATM   24  N2  UNL     1     -36.724   3.191   1.164  1.00  0.00    -0.253 N 
HETATM   25  C1  UNL     1     -37.964   3.932   1.235  1.00  0.00     0.347 C 
HETATM   26  N1  UNL     1     -39.175   3.452   0.675  1.00  0.00    -0.038 NA
HETATM   27  O1  UNL     1     -37.970   5.041   1.814  1.00  0.00    -0.249 OA
ATOM     28  H2  UNL     1     -36.699   2.285   0.695  1.00  0.00     0.191 HD
ENDBRANCH   1  24
TORSDOF 7
ENDMDL
MODEL 5
REMARK VINA RESULT: -6.515353286      1.158      1.765
REMARK  7 active torsions:
REMARK  status: ('A' for Active; 'I' for Inactive)
REMARK       I    between atoms: C1_2  and  N2_4 
REMARK    1  A    between atoms: N2_4  and  N3_6 
REMARK    2  A    between atoms: C2_8  and  C3_9 
REMARK    3  A    between atoms: C2_8  and  C11_23 
REMARK       I    between atoms: C3_9  and  N4_11 
REMARK    4  A    between atoms: N4_11  and  C4_13 
REMARK    5  A    between atoms: C4_13  and  C5_14 
REMARK    6  A    between atoms: C4_13  and  C10_20 
REMARK    7  A    between atoms: C5_14  and  C6_15 
ROOT
HETATM    1  N3  UNL     1     -31.610   7.168   2.397  1.00  0.00    -0.291 N 
ATOM      2  H3  UNL     1     -31.898   6.933   1.447  1.00  0.00     0.187 HD
HETATM    3  C2  UNL     1     -32.457   6.647   3.131  1.00  0.00     0.126 C 
ENDROOT
BRANCH   3   4
HETATM    4  C3  UNL     1     -33.527   5.910   2.425  1.00  0.00     0.271 C 
HETATM    5  O2  UNL     1     -34.634   5.595   2.882  1.00  0.00    -0.266 OA
HETATM    6  N4  UNL     1     -33.255   5.518   1.066  1.00  0.00    -0.341 N 
ATOM      7  H4  UNL     1     -32.359   5.751   0.637  1.00  0.00     0.163 HD
BRANCH   6   8
HETATM    8  C4  UNL     1     -34.250   4.797   0.312  1.00  0.00     0.190 C 
BRANCH   8   9
HETATM    9  C5  UNL     1     -33.759   3.372   0.048  1.00  0.00     0.076 C 
BRANCH   9  10
HETATM   10  C6  UNL     1     -33.967   2.511   1.230  1.00  0.00    -0.032 A 
HETATM   11  C7  UNL     1     -32.975   1.948   2.034  1.00  0.00     0.033 A 
HETATM   12  C8  UNL     1     -33.620   1.228   3.005  1.00  0.00     0.142 A 
HETATM   13  O3  UNL     1     -34.916   1.319   2.841  1.00  0.00    -0.334 OA
HETATM   14  C9  UNL     1     -35.156   2.073   1.797  1.00  0.00     0.148 A 
ENDBRANCH   9  10
ENDBRANCH   8   9
BRANCH   8  15
HETATM   15  C10 UNL     1     -34.570   5.486  -0.960  1.00  0.00     0.197 C 
HETATM   16  O4  UNL     1     -35.062   4.825  -1.905  1.00  0.00    -0.646 OA
HETATM   17  O5  UNL     1     -34.331   6.837  -1.115  1.00  0.00    -0.646 OA
ENDBRANCH   8  15
ENDBRANCH   6   8
ENDBRANCH   3   4
BRANCH   3  18
HETATM   18  C11 UNL     1     -32.430   6.734   4.582  1.00  0.00    -0.003 A 
HETATM   19  C12 UNL     1     -31.218   6.607   5.276  1.00  0.00     0.014 A 
HETATM   20  C13 UNL     1     -31.113   6.678   6.649  1.00  0.00     0.001 A 
HETATM   21  C14 UNL     1     -32.230   6.885   7.422  1.00  0.00     0.000 A 
HETATM   22  C15 UNL     1     -33.435   7.016   6.785  1.00  0.00     0.001 A 
HETATM   23  C16 UNL     1     -33.524   6.940   5.385  1.00  0.00     0.014 A 
ENDBRANCH   3  18
BRANCH   1  24
HETATM   24  N2  UNL     1     -30.518   7.879   2.261  1.00  0.00    -0.253 N 
HETATM   25  C1  UNL     1     -30.073   8.284   0.946  1.00  0.00     0.347 C 
HETATM   26  N1  UNL     1     -28.900   9.052   0.738  1.00  0.00    -0.038 NA
HETATM   27  O1  UNL     1     -30.750   7.942  -0.050  1.00  0.00    -0.249 OA
ATOM     28  H2  UNL     1     -29.981   8.148   3.085  1.00  0.00     0.191 HD
ENDBRANCH   1  24
TORSDOF 7
ENDMDL
