MODEL 1
REMARK VINA RESULT: -9.359656017      0.000      0.000
REMARK  7 active torsions:
REMARK  status: ('A' for Active; 'I' for Inactive)
REMARK    1  A    between atoms: C6_6  and  N1_7 
REMARK       I    between atoms: N1_7  and  C7_9 
REMARK    2  A    between atoms: C7_9  and  C8_11 
REMARK    3  A    between atoms: C8_11  and  C9_12 
REMARK    4  A    between atoms: C11_14  and  C12_15 
REMARK       I    between atoms: C12_15  and  N2_17 
REMARK    5  A    between atoms: N2_17  and  C13_19 
REMARK    6  A    between atoms: C13_19  and  C14_20 
REMARK    7  A    between atoms: C13_19  and  C15_23 
ROOT
HETATM    1  C9  UNL     1     -39.084  22.417  92.909  1.00  0.00     0.092 C 
HETATM    2  C10 UNL     1     -40.516  22.871  92.819  1.00  0.00     0.077 C 
HETATM    3  C11 UNL     1     -40.596  23.777  94.004  1.00  0.00     0.081 C 
HETATM    4  N3  UNL     1     -39.433  24.205  94.298  1.00  0.00    -0.326 N 
ATOM      5  H3  UNL     1     -39.233  24.839  95.071  1.00  0.00     0.168 HD
HETATM    6  C21 UNL     1     -38.448  23.688  93.411  1.00  0.00     0.227 C 
HETATM    7  O5  UNL     1     -37.319  24.155  93.106  1.00  0.00    -0.273 OA
ENDROOT
BRANCH   3   8
HETATM    8  C12 UNL     1     -41.836  24.105  94.703  1.00  0.00     0.264 C 
HETATM    9  O2  UNL     1     -42.909  24.312  94.064  1.00  0.00    -0.266 OA
HETATM   10  N2  UNL     1     -41.904  24.206  96.118  1.00  0.00    -0.341 N 
ATOM     11  H2  UNL     1     -41.056  24.045  96.661  1.00  0.00     0.163 HD
BRANCH  10  12
HETATM   12  C13 UNL     1     -43.131  24.531  96.823  1.00  0.00     0.190 C 
BRANCH  12  13
HETATM   13  C14 UNL     1     -43.219  25.976  97.065  1.00  0.00     0.197 C 
HETATM   14  O3  UNL     1     -42.483  26.750  96.356  1.00  0.00    -0.646 OA
HETATM   15  O4  UNL     1     -44.058  26.515  98.018  1.00  0.00    -0.646 OA
ENDBRANCH  12  13
BRANCH  12  16
HETATM   16  C15 UNL     1     -43.073  23.735  98.127  1.00  0.00     0.019 C 
HETATM   17  C16 UNL     1     -42.555  22.349  97.855  1.00  0.00     0.007 C 
HETATM   18  C17 UNL     1     -42.477  21.631  99.193  1.00  0.00     0.000 C 
HETATM   19  C18 UNL     1     -41.487  22.274 100.110  1.00  0.00     0.000 C 
HETATM   20  C19 UNL     1     -41.223  23.717  99.839  1.00  0.00     0.000 C 
HETATM   21  C20 UNL     1     -42.396  24.458  99.237  1.00  0.00     0.007 C 
ENDBRANCH  12  16
ENDBRANCH  10  12
ENDBRANCH   3   8
BRANCH   1  22
HETATM   22  C8  UNL     1     -38.475  21.941  91.651  1.00  0.00     0.117 C 
BRANCH  22  23
HETATM   23  C7  UNL     1     -37.548  20.812  91.929  1.00  0.00     0.218 C 
HETATM   24  N1  UNL     1     -36.635  20.868  93.032  1.00  0.00    -0.356 N 
ATOM     25  H1  UNL     1     -36.604  21.681  93.646  1.00  0.00     0.162 HD
HETATM   26  O1  UNL     1     -37.517  19.770  91.229  1.00  0.00    -0.274 OA
BRANCH  24  27
HETATM   27  C6  UNL     1     -35.763  19.741  93.250  1.00  0.00     0.088 C 
HETATM   28  C2  UNL     1     -36.141  18.946  94.476  1.00  0.00     0.004 C 
HETATM   29  C1  UNL     1     -37.144  17.860  94.156  1.00  0.00     0.012 C 
HETATM   30  C3  UNL     1     -34.838  18.302  94.877  1.00  0.00     0.006 C 
HETATM   31  C4  UNL     1     -33.768  19.311  94.558  1.00  0.00     0.002 C 
HETATM   32  C5  UNL     1     -34.398  20.316  93.636  1.00  0.00     0.025 C 
ENDBRANCH  24  27
ENDBRANCH  22  23
ENDBRANCH   1  22
TORSDOF 7
ENDMDL
MODEL 2
REMARK VINA RESULT: -9.191014610      1.268      1.606
REMARK  7 active torsions:
REMARK  status: ('A' for Active; 'I' for Inactive)
REMARK    1  A    between atoms: C6_6  and  N1_7 
REMARK       I    between atoms: N1_7  and  C7_9 
REMARK    2  A    between atoms: C7_9  and  C8_11 
REMARK    3  A    between atoms: C8_11  and  C9_12 
REMARK    4  A    between atoms: C11_14  and  C12_15 
REMARK       I    between atoms: C12_15  and  N2_17 
REMARK    5  A    between atoms: N2_17  and  C13_19 
REMARK    6  A    between atoms: C13_19  and  C14_20 
REMARK    7  A    between atoms: C13_19  and  C15_23 
ROOT
HETATM    1  C9  UNL     1     -38.599  21.844  92.872  1.00  0.00     0.092 C 
HETATM    2  C10 UNL     1     -39.986  22.349  92.582  1.00  0.00     0.077 C 
HETATM    3  C11 UNL     1     -40.096  23.452  93.582  1.00  0.00     0.081 C 
HETATM    4  N3  UNL     1     -38.933  23.865  93.897  1.00  0.00    -0.326 N 
ATOM      5  H3  UNL     1     -38.751  24.615  94.564  1.00  0.00     0.168 HD
HETATM    6  C21 UNL     1     -37.920  23.149  93.201  1.00  0.00     0.227 C 
HETATM    7  O5  UNL     1     -36.743  23.496  92.918  1.00  0.00    -0.273 OA
ENDROOT
BRANCH   3   8
HETATM    8  C12 UNL     1     -41.362  23.962  94.105  1.00  0.00     0.264 C 
HETATM    9  O2  UNL     1     -42.306  24.285  93.326  1.00  0.00    -0.266 OA
HETATM   10  N2  UNL     1     -41.598  24.120  95.496  1.00  0.00    -0.341 N 
ATOM     11  H2  UNL     1     -40.856  23.869  96.149  1.00  0.00     0.163 HD
BRANCH  10  12
HETATM   12  C13 UNL     1     -42.851  24.625  96.026  1.00  0.00     0.190 C 
BRANCH  12  13
HETATM   13  C14 UNL     1     -42.835  26.092  96.079  1.00  0.00     0.197 C 
HETATM   14  O3  UNL     1     -41.811  26.698  95.602  1.00  0.00    -0.646 OA
HETATM   15  O4  UNL     1     -43.873  26.823  96.616  1.00  0.00    -0.646 OA
ENDBRANCH  12  13
BRANCH  12  16
HETATM   16  C15 UNL     1     -42.983  24.005  97.418  1.00  0.00     0.019 C 
HETATM   17  C16 UNL     1     -42.402  22.617  97.414  1.00  0.00     0.007 C 
HETATM   18  C17 UNL     1     -42.520  22.080  98.831  1.00  0.00     0.000 C 
HETATM   19  C18 UNL     1     -41.699  22.874  99.795  1.00  0.00     0.000 C 
HETATM   20  C19 UNL     1     -41.424  24.280  99.379  1.00  0.00     0.000 C 
HETATM   21  C20 UNL     1     -42.502  24.891  98.513  1.00  0.00     0.007 C 
ENDBRANCH  12  16
ENDBRANCH  10  12
ENDBRANCH   3   8
BRANCH   1  22
HETATM   22  C8  UNL     1     -37.929  21.123  91.771  1.00  0.00     0.117 C 
BRANCH  22  23
HETATM   23  C7  UNL     1     -37.083  20.030  92.319  1.00  0.00     0.218 C 
HETATM   24  N1  UNL     1     -35.660  20.046  92.146  1.00  0.00    -0.356 N 
ATOM     25  H1  UNL     1     -35.202  20.806  91.643  1.00  0.00     0.162 HD
HETATM   26  O1  UNL     1     -37.558  19.055  92.953  1.00  0.00    -0.274 OA
BRANCH  24  27
HETATM   27  C6  UNL     1     -34.895  18.958  92.701  1.00  0.00     0.088 C 
HETATM   28  C2  UNL     1     -33.578  19.414  93.279  1.00  0.00     0.004 C 
HETATM   29  C1  UNL     1     -33.707  19.809  94.734  1.00  0.00     0.012 C 
HETATM   30  C3  UNL     1     -32.721  18.178  93.185  1.00  0.00     0.006 C 
HETATM   31  C4  UNL     1     -33.136  17.487  91.914  1.00  0.00     0.002 C 
HETATM   32  C5  UNL     1     -34.455  18.089  91.520  1.00  0.00     0.025 C 
ENDBRANCH  24  27
ENDBRANCH  22  23
ENDBRANCH   1  22
TORSDOF 7
ENDMDL
MODEL 3
REMARK VINA RESULT: -9.119923528      2.259      2.768
REMARK  7 active torsions:
REMARK  status: ('A' for Active; 'I' for Inactive)
REMARK    1  A    between atoms: C6_6  and  N1_7 
REMARK       I    between atoms: N1_7  and  C7_9 
REMARK    2  A    between atoms: C7_9  and  C8_11 
REMARK    3  A    between atoms: C8_11  and  C9_12 
REMARK    4  A    between atoms: C11_14  and  C12_15 
REMARK       I    between atoms: C12_15  and  N2_17 
REMARK    5  A    between atoms: N2_17  and  C13_19 
REMARK    6  A    between atoms: C13_19  and  C14_20 
REMARK    7  A    between atoms: C13_19  and  C15_23 
ROOT
HETATM    1  C9  UNL     1     -37.816  23.425  92.881  1.00  0.00     0.092 C 
HETATM    2  C10 UNL     1     -38.676  23.859  94.037  1.00  0.00     0.077 C 
HETATM    3  C11 UNL     1     -40.009  23.347  93.599  1.00  0.00     0.081 C 
HETATM    4  N3  UNL     1     -39.853  22.382  92.783  1.00  0.00    -0.326 N 
ATOM      5  H3  UNL     1     -40.619  21.869  92.346  1.00  0.00     0.168 HD
HETATM    6  C21 UNL     1     -38.475  22.109  92.557  1.00  0.00     0.227 C 
HETATM    7  O5  UNL     1     -37.920  21.044  92.180  1.00  0.00    -0.273 OA
ENDROOT
BRANCH   3   8
HETATM    8  C12 UNL     1     -41.286  23.891  94.055  1.00  0.00     0.264 C 
HETATM    9  O2  UNL     1     -42.187  24.219  93.229  1.00  0.00    -0.266 OA
HETATM   10  N2  UNL     1     -41.582  24.078  95.431  1.00  0.00    -0.341 N 
ATOM     11  H2  UNL     1     -40.876  23.824  96.122  1.00  0.00     0.163 HD
BRANCH  10  12
HETATM   12  C13 UNL     1     -42.847  24.617  95.895  1.00  0.00     0.190 C 
BRANCH  12  13
HETATM   13  C14 UNL     1     -42.781  26.081  95.987  1.00  0.00     0.197 C 
HETATM   14  O3  UNL     1     -41.717  26.661  95.570  1.00  0.00    -0.646 OA
HETATM   15  O4  UNL     1     -43.815  26.837  96.500  1.00  0.00    -0.646 OA
ENDBRANCH  12  13
BRANCH  12  16
HETATM   16  C15 UNL     1     -43.090  23.970  97.259  1.00  0.00     0.019 C 
HETATM   17  C16 UNL     1     -42.420  22.624  97.309  1.00  0.00     0.007 C 
HETATM   18  C17 UNL     1     -42.657  22.059  98.701  1.00  0.00     0.000 C 
HETATM   19  C18 UNL     1     -42.003  22.890  99.756  1.00  0.00     0.000 C 
HETATM   20  C19 UNL     1     -41.778  24.318  99.383  1.00  0.00     0.000 C 
HETATM   21  C20 UNL     1     -42.792  24.869  98.407  1.00  0.00     0.007 C 
ENDBRANCH  12  16
ENDBRANCH  10  12
ENDBRANCH   3   8
BRANCH   1  22
HETATM   22  C8  UNL     1     -36.374  23.277  93.167  1.00  0.00     0.117 C 
BRANCH  22  23
HETATM   23  C7  UNL     1     -35.641  22.937  91.919  1.00  0.00     0.218 C 
HETATM   24  N1  UNL     1     -34.858  21.739  91.832  1.00  0.00    -0.356 N 
ATOM     25  H1  UNL     1     -34.790  21.099  92.623  1.00  0.00     0.162 HD
HETATM   26  O1  UNL     1     -35.667  23.664  90.895  1.00  0.00    -0.274 OA
BRANCH  24  27
HETATM   27  C6  UNL     1     -34.170  21.465  90.595  1.00  0.00     0.088 C 
HETATM   28  C2  UNL     1     -34.193  20.000  90.235  1.00  0.00     0.004 C 
HETATM   29  C1  UNL     1     -35.410  19.641  89.412  1.00  0.00     0.012 C 
HETATM   30  C3  UNL     1     -32.963  19.844  89.378  1.00  0.00     0.006 C 
HETATM   31  C4  UNL     1     -31.935  20.774  89.963  1.00  0.00     0.002 C 
HETATM   32  C5  UNL     1     -32.684  21.719  90.859  1.00  0.00     0.025 C 
ENDBRANCH  24  27
ENDBRANCH  22  23
ENDBRANCH   1  22
TORSDOF 7
ENDMDL
MODEL 4
REMARK VINA RESULT: -9.033325291      5.692      9.165
REMARK  7 active torsions:
REMARK  status: ('A' for Active; 'I' for Inactive)
REMARK    1  A    between atoms: C6_6  and  N1_7 
REMARK       I    between atoms: N1_7  and  C7_9 
REMARK    2  A    between atoms: C7_9  and  C8_11 
REMARK    3  A    between atoms: C8_11  and  C9_12 
REMARK    4  A    between atoms: C11_14  and  C12_15 
REMARK       I    between atoms: C12_15  and  N2_17 
REMARK    5  A    between atoms: N2_17  and  C13_19 
REMARK    6  A    between atoms: C13_19  and  C14_20 
REMARK    7  A    between atoms: C13_19  and  C15_23 
ROOT
HETATM    1  C9  UNL     1     -41.641  22.000  99.797  1.00  0.00     0.092 C 
HETATM    2  C10 UNL     1     -41.368  21.309 101.105  1.00  0.00     0.077 C 
HETATM    3  C11 UNL     1     -40.727  22.416 101.876  1.00  0.00     0.081 C 
HETATM    4  N3  UNL     1     -41.095  23.540 101.402  1.00  0.00    -0.326 N 
ATOM      5  H3  UNL     1     -40.788  24.443 101.763  1.00  0.00     0.168 HD
HETATM    6  C21 UNL     1     -41.987  23.375 100.307  1.00  0.00     0.227 C 
HETATM    7  O5  UNL     1     -42.856  24.167  99.855  1.00  0.00    -0.273 OA
ENDROOT
BRANCH   3   8
HETATM    8  C12 UNL     1     -39.817  22.212 103.001  1.00  0.00     0.264 C 
HETATM    9  O2  UNL     1     -39.132  23.169 103.467  1.00  0.00    -0.266 OA
HETATM   10  N2  UNL     1     -39.653  20.947 103.623  1.00  0.00    -0.341 N 
ATOM     11  H2  UNL     1     -40.191  20.155 103.270  1.00  0.00     0.163 HD
BRANCH  10  12
HETATM   12  C13 UNL     1     -38.753  20.733 104.741  1.00  0.00     0.190 C 
BRANCH  12  13
HETATM   13  C14 UNL     1     -38.541  19.297 104.965  1.00  0.00     0.197 C 
HETATM   14  O3  UNL     1     -39.262  18.473 104.299  1.00  0.00    -0.646 OA
HETATM   15  O4  UNL     1     -37.604  18.819 105.856  1.00  0.00    -0.646 OA
ENDBRANCH  12  13
BRANCH  12  16
HETATM   16  C15 UNL     1     -39.424  21.405 105.939  1.00  0.00     0.019 C 
HETATM   17  C16 UNL     1     -39.504  20.436 107.087  1.00  0.00     0.007 C 
HETATM   18  C17 UNL     1     -40.133  21.179 108.255  1.00  0.00     0.000 C 
HETATM   19  C18 UNL     1     -39.273  22.308 108.722  1.00  0.00     0.000 C 
HETATM   20  C19 UNL     1     -38.344  22.859 107.692  1.00  0.00     0.000 C 
HETATM   21  C20 UNL     1     -38.851  22.737 106.273  1.00  0.00     0.007 C 
ENDBRANCH  12  16
ENDBRANCH  10  12
ENDBRANCH   3   8
BRANCH   1  22
HETATM   22  C8  UNL     1     -42.719  21.418  98.971  1.00  0.00     0.117 C 
BRANCH  22  23
HETATM   23  C7  UNL     1     -43.075  22.351  97.869  1.00  0.00     0.218 C 
HETATM   24  N1  UNL     1     -42.062  23.110  97.195  1.00  0.00    -0.356 N 
ATOM     25  H1  UNL     1     -41.081  23.025  97.459  1.00  0.00     0.162 HD
HETATM   26  O1  UNL     1     -44.255  22.520  97.475  1.00  0.00    -0.274 OA
BRANCH  24  27
HETATM   27  C6  UNL     1     -42.471  23.997  96.134  1.00  0.00     0.088 C 
HETATM   28  C2  UNL     1     -41.336  24.342  95.202  1.00  0.00     0.004 C 
HETATM   29  C1  UNL     1     -41.219  23.351  94.065  1.00  0.00     0.012 C 
HETATM   30  C3  UNL     1     -41.753  25.678  94.642  1.00  0.00     0.006 C 
HETATM   31  C4  UNL     1     -42.454  26.393  95.766  1.00  0.00     0.002 C 
HETATM   32  C5  UNL     1     -42.782  25.345  96.791  1.00  0.00     0.025 C 
ENDBRANCH  24  27
ENDBRANCH  22  23
ENDBRANCH   1  22
TORSDOF 7
ENDMDL
MODEL 5
REMARK VINA RESULT: -8.882336243     11.807     15.293
REMARK  7 active torsions:
REMARK  status: ('A' for Active; 'I' for Inactive)
REMARK    1  A    between atoms: C6_6  and  N1_7 
REMARK       I    between atoms: N1_7  and  C7_9 
REMARK    2  A    between atoms: C7_9  and  C8_11 
REMARK    3  A    between atoms: C8_11  and  C9_12 
REMARK    4  A    between atoms: C11_14  and  C12_15 
REMARK       I    between atoms: C12_15  and  N2_17 
REMARK    5  A    between atoms: N2_17  and  C13_19 
REMARK    6  A    between atoms: C13_19  and  C14_20 
REMARK    7  A    between atoms: C13_19  and  C15_23 
ROOT
HETATM    1  C9  UNL     1     -38.376  17.094 105.818  1.00  0.00     0.092 C 
HETATM    2  C10 UNL     1     -36.876  16.974 105.846  1.00  0.00     0.077 C 
HETATM    3  C11 UNL     1     -36.714  15.668 106.552  1.00  0.00     0.081 C 
HETATM    4  N3  UNL     1     -37.765  14.965 106.403  1.00  0.00    -0.326 N 
ATOM      5  H3  UNL     1     -37.893  14.032 106.795  1.00  0.00     0.168 HD
HETATM    6  C21 UNL     1     -38.739  15.645 105.621  1.00  0.00     0.227 C 
HETATM    7  O5  UNL     1     -39.681  15.176 104.928  1.00  0.00    -0.273 OA
ENDROOT
BRANCH   3   8
HETATM    8  C12 UNL     1     -35.518  15.281 107.296  1.00  0.00     0.264 C 
HETATM    9  O2  UNL     1     -35.537  14.302 108.098  1.00  0.00    -0.266 OA
HETATM   10  N2  UNL     1     -34.285  15.973 107.162  1.00  0.00    -0.341 N 
ATOM     11  H2  UNL     1     -34.238  16.768 106.524  1.00  0.00     0.163 HD
BRANCH  10  12
HETATM   12  C13 UNL     1     -33.090  15.598 107.895  1.00  0.00     0.190 C 
BRANCH  12  13
HETATM   13  C14 UNL     1     -32.929  16.442 109.086  1.00  0.00     0.197 C 
HETATM   14  O3  UNL     1     -32.569  15.877 110.178  1.00  0.00    -0.646 OA
HETATM   15  O4  UNL     1     -33.150  17.803 109.061  1.00  0.00    -0.646 OA
ENDBRANCH  12  13
BRANCH  12  16
HETATM   16  C15 UNL     1     -31.935  15.774 106.909  1.00  0.00     0.019 C 
HETATM   17  C16 UNL     1     -32.065  14.777 105.790  1.00  0.00     0.007 C 
HETATM   18  C17 UNL     1     -30.920  15.037 104.825  1.00  0.00     0.000 C 
HETATM   19  C18 UNL     1     -31.022  16.388 104.194  1.00  0.00     0.000 C 
HETATM   20  C19 UNL     1     -31.788  17.395 104.985  1.00  0.00     0.000 C 
HETATM   21  C20 UNL     1     -31.727  17.184 106.481  1.00  0.00     0.007 C 
ENDBRANCH  12  16
ENDBRANCH  10  12
ENDBRANCH   3   8
BRANCH   1  22
HETATM   22  C8  UNL     1     -38.936  17.964 104.764  1.00  0.00     0.117 C 
BRANCH  22  23
HETATM   23  C7  UNL     1     -38.858  19.388 105.185  1.00  0.00     0.218 C 
HETATM   24  N1  UNL     1     -38.482  19.737 106.524  1.00  0.00    -0.356 N 
ATOM     25  H1  UNL     1     -38.262  19.017 107.211  1.00  0.00     0.162 HD
HETATM   26  O1  UNL     1     -39.110  20.342 104.407  1.00  0.00    -0.274 OA
BRANCH  24  27
HETATM   27  C6  UNL     1     -38.425  21.136 106.870  1.00  0.00     0.088 C 
HETATM   28  C2  UNL     1     -37.257  21.459 107.769  1.00  0.00     0.004 C 
HETATM   29  C1  UNL     1     -36.015  21.804 106.978  1.00  0.00     0.012 C 
HETATM   30  C3  UNL     1     -37.725  22.691 108.501  1.00  0.00     0.006 C 
HETATM   31  C4  UNL     1     -39.204  22.505 108.712  1.00  0.00     0.002 C 
HETATM   32  C5  UNL     1     -39.627  21.408 107.778  1.00  0.00     0.025 C 
ENDBRANCH  24  27
ENDBRANCH  22  23
ENDBRANCH   1  22
TORSDOF 7
ENDMDL
