MODEL 1
REMARK VINA RESULT: -10.470947641      0.000      0.000
REMARK  7 active torsions:
REMARK  status: ('A' for Active; 'I' for Inactive)
REMARK    1  A    between atoms: C2_2  and  C4_4 
REMARK    2  A    between atoms: C20_20  and  O1_21 
REMARK    3  A    between atoms: C29_31  and  N1_33 
REMARK    4  A    between atoms: N1_33  and  S1_35 
REMARK    5  A    between atoms: S1_35  and  N2_38 
REMARK    6  A    between atoms: N2_38  and  S2_40 
REMARK    7  A    between atoms: S2_40  and  N3_43 
REMARK       I    between atoms: N3_43  and  C31_45 
ROOT
HETATM    1  C4  UNL     1      38.985  53.928 133.910  1.00  0.00     0.042 C 
HETATM    2  C5  UNL     1      40.165  54.943 133.878  1.00  0.00     0.012 C 
HETATM    3  C6  UNL     1      39.977  56.101 134.792  1.00  0.00     0.011 C 
HETATM    4  C7  UNL     1      39.882  55.675 136.282  1.00  0.00    -0.030 C 
HETATM    5  C8  UNL     1      41.347  55.475 136.620  1.00  0.00     0.016 C 
HETATM    6  C9  UNL     1      38.984  54.532 136.378  1.00  0.00     0.023 C 
HETATM    7  C10 UNL     1      37.533  55.039 136.438  1.00  0.00     0.008 C 
HETATM    8  C11 UNL     1      37.423  55.637 137.822  1.00  0.00     0.006 C 
HETATM    9  C12 UNL     1      38.153  56.948 137.705  1.00  0.00    -0.001 C 
HETATM   10  C13 UNL     1      38.211  57.494 139.099  1.00  0.00    -0.005 C 
HETATM   11  C14 UNL     1      37.343  58.645 139.423  1.00  0.00     0.006 C 
HETATM   12  C15 UNL     1      37.618  58.965 140.905  1.00  0.00     0.006 C 
HETATM   13  C16 UNL     1      39.081  59.302 141.067  1.00  0.00     0.004 C 
HETATM   14  C17 UNL     1      39.438  59.868 142.380  1.00  0.00    -0.017 C 
HETATM   15  C18 UNL     1      38.350  59.651 143.430  1.00  0.00     0.018 C 
HETATM   16  C19 UNL     1      39.609  61.392 142.292  1.00  0.00     0.018 C 
HETATM   17  C20 UNL     1      40.712  59.342 142.989  1.00  0.00     0.126 C 
HETATM   18  C21 UNL     1      41.814  59.097 142.030  1.00  0.00     0.033 C 
HETATM   19  C22 UNL     1      41.403  58.746 140.649  1.00  0.00     0.012 C 
HETATM   20  C23 UNL     1      39.989  58.142 140.620  1.00  0.00    -0.035 C 
HETATM   21  C24 UNL     1      39.874  56.947 141.482  1.00  0.00     0.016 C 
HETATM   22  C25 UNL     1      39.643  57.953 139.191  1.00  0.00    -0.001 C 
HETATM   23  C26 UNL     1      40.331  56.838 138.464  1.00  0.00     0.016 C 
HETATM   24  C27 UNL     1      39.519  56.857 137.139  1.00  0.00    -0.032 C 
HETATM   25  C28 UNL     1      39.850  58.202 136.536  1.00  0.00     0.016 C 
HETATM   26  C29 UNL     1      38.971  53.489 135.329  1.00  0.00     0.050 C 
HETATM   27  C30 UNL     1      40.254  52.647 135.583  1.00  0.00     0.040 C 
ENDROOT
BRANCH  26  28
HETATM   28  N1  UNL     1      37.939  52.532 135.687  1.00  0.00    -0.291 N 
ATOM     29  H1  UNL     1      37.331  52.716 136.486  1.00  0.00     0.174 HD
BRANCH  28  30
HETATM   30  S1  UNL     1      37.742  51.141 134.803  1.00  0.00     0.330 S 
HETATM   31  O2  UNL     1      38.649  51.047 133.582  1.00  0.00    -0.182 OA
HETATM   32  O3  UNL     1      36.304  50.849 134.383  1.00  0.00    -0.182 OA
BRANCH  30  33
HETATM   33  N2  UNL     1      38.167  49.733 135.709  1.00  0.00    -0.177 N 
ATOM     34  H2  UNL     1      38.839  49.751 136.474  1.00  0.00     0.195 HD
BRANCH  33  35
HETATM   35  S2  UNL     1      37.371  48.316 135.217  1.00  0.00     0.335 S 
HETATM   36  O4  UNL     1      38.161  47.134 135.777  1.00  0.00    -0.181 OA
HETATM   37  O5  UNL     1      37.491  48.207 133.720  1.00  0.00    -0.181 OA
BRANCH  35  38
HETATM   38  N3  UNL     1      35.761  48.143 135.715  1.00  0.00    -0.237 N 
HETATM   39  C31 UNL     1      35.332  48.370 137.057  1.00  0.00     0.228 C 
HETATM   40  C32 UNL     1      33.940  48.223 137.490  1.00  0.00     0.118 C 
HETATM   41  O6  UNL     1      36.201  48.713 137.896  1.00  0.00    -0.273 OA
ATOM     42  H3  UNL     1      35.066  47.863 135.023  1.00  0.00     0.183 HD
ENDBRANCH  35  38
ENDBRANCH  33  35
ENDBRANCH  30  33
ENDBRANCH  28  30
ENDBRANCH  26  28
BRANCH   1  43
HETATM   43  C2  UNL     1      37.865  54.546 133.271  1.00  0.00    -0.086 C 
HETATM   44  C1  UNL     1      36.857  53.898 132.738  1.00  0.00     0.014 C 
HETATM   45  C3  UNL     1      37.651  56.019 133.042  1.00  0.00     0.043 C 
ENDBRANCH   1  43
BRANCH  17  46
HETATM   46  O1  UNL     1      41.167  60.321 143.905  1.00  0.00    -0.395 OA
ATOM     47  H1  UNL     1      41.036  61.167 143.494  1.00  0.00     0.210 HD
ENDBRANCH  17  46
TORSDOF 7
ENDMDL
MODEL 2
REMARK VINA RESULT: -10.460406560      1.074      1.593
REMARK  7 active torsions:
REMARK  status: ('A' for Active; 'I' for Inactive)
REMARK    1  A    between atoms: C2_2  and  C4_4 
REMARK    2  A    between atoms: C20_20  and  O1_21 
REMARK    3  A    between atoms: C29_31  and  N1_33 
REMARK    4  A    between atoms: N1_33  and  S1_35 
REMARK    5  A    between atoms: S1_35  and  N2_38 
REMARK    6  A    between atoms: N2_38  and  S2_40 
REMARK    7  A    between atoms: S2_40  and  N3_43 
REMARK       I    between atoms: N3_43  and  C31_45 
ROOT
HETATM    1  C4  UNL     1      39.202  54.189 133.728  1.00  0.00     0.042 C 
HETATM    2  C5  UNL     1      40.288  55.305 133.739  1.00  0.00     0.012 C 
HETATM    3  C6  UNL     1      40.018  56.388 134.721  1.00  0.00     0.011 C 
HETATM    4  C7  UNL     1      39.989  55.873 136.185  1.00  0.00    -0.030 C 
HETATM    5  C8  UNL     1      41.471  55.783 136.490  1.00  0.00     0.016 C 
HETATM    6  C9  UNL     1      39.195  54.651 136.227  1.00  0.00     0.023 C 
HETATM    7  C10 UNL     1      37.708  55.025 136.336  1.00  0.00     0.008 C 
HETATM    8  C11 UNL     1      37.572  55.532 137.755  1.00  0.00     0.006 C 
HETATM    9  C12 UNL     1      38.183  56.906 137.703  1.00  0.00    -0.001 C 
HETATM   10  C13 UNL     1      38.220  57.376 139.125  1.00  0.00    -0.005 C 
HETATM   11  C14 UNL     1      37.261  58.426 139.528  1.00  0.00     0.006 C 
HETATM   12  C15 UNL     1      37.536  58.684 141.021  1.00  0.00     0.006 C 
HETATM   13  C16 UNL     1      38.967  59.138 141.182  1.00  0.00     0.004 C 
HETATM   14  C17 UNL     1      39.298  59.659 142.521  1.00  0.00    -0.017 C 
HETATM   15  C18 UNL     1      38.253  59.288 143.571  1.00  0.00     0.018 C 
HETATM   16  C19 UNL     1      39.334  61.195 142.519  1.00  0.00     0.018 C 
HETATM   17  C20 UNL     1      40.624  59.213 143.080  1.00  0.00     0.126 C 
HETATM   18  C21 UNL     1      41.725  59.121 142.094  1.00  0.00     0.033 C 
HETATM   19  C22 UNL     1      41.320  58.813 140.701  1.00  0.00     0.012 C 
HETATM   20  C23 UNL     1      39.963  58.090 140.657  1.00  0.00    -0.035 C 
HETATM   21  C24 UNL     1      39.969  56.843 141.450  1.00  0.00     0.016 C 
HETATM   22  C25 UNL     1      39.608  57.953 139.224  1.00  0.00    -0.001 C 
HETATM   23  C26 UNL     1      40.376  56.945 138.424  1.00  0.00     0.016 C 
HETATM   24  C27 UNL     1      39.540  56.968 137.114  1.00  0.00    -0.032 C 
HETATM   25  C28 UNL     1      39.742  58.368 136.585  1.00  0.00     0.016 C 
HETATM   26  C29 UNL     1      39.253  53.672 135.120  1.00  0.00     0.050 C 
HETATM   27  C30 UNL     1      40.610  52.933 135.306  1.00  0.00     0.040 C 
ENDROOT
BRANCH  26  28
HETATM   28  N1  UNL     1      38.315  52.610 135.436  1.00  0.00    -0.291 N 
ATOM     29  H1  UNL     1      37.659  52.725 136.209  1.00  0.00     0.174 HD
BRANCH  28  30
HETATM   30  S1  UNL     1      38.305  51.208 134.547  1.00  0.00     0.330 S 
HETATM   31  O2  UNL     1      38.981  50.029 135.236  1.00  0.00    -0.182 OA
HETATM   32  O3  UNL     1      38.857  51.345 133.131  1.00  0.00    -0.182 OA
BRANCH  30  33
HETATM   33  N2  UNL     1      36.701  50.627 134.273  1.00  0.00    -0.177 N 
ATOM     34  H2  UNL     1      36.342  50.415 133.343  1.00  0.00     0.195 HD
BRANCH  33  35
HETATM   35  S2  UNL     1      35.775  50.436 135.683  1.00  0.00     0.335 S 
HETATM   36  O4  UNL     1      34.368  50.022 135.250  1.00  0.00    -0.181 OA
HETATM   37  O5  UNL     1      35.616  51.789 136.326  1.00  0.00    -0.181 OA
BRANCH  35  38
HETATM   38  N3  UNL     1      36.327  49.290 136.801  1.00  0.00    -0.237 N 
HETATM   39  C31 UNL     1      36.706  47.964 136.434  1.00  0.00     0.228 C 
HETATM   40  C32 UNL     1      37.186  46.970 137.398  1.00  0.00     0.118 C 
HETATM   41  O6  UNL     1      36.619  47.647 135.222  1.00  0.00    -0.273 OA
ATOM     42  H3  UNL     1      36.392  49.560 137.782  1.00  0.00     0.183 HD
ENDBRANCH  35  38
ENDBRANCH  33  35
ENDBRANCH  30  33
ENDBRANCH  28  30
ENDBRANCH  26  28
BRANCH   1  43
HETATM   43  C2  UNL     1      38.021  54.742 133.142  1.00  0.00    -0.086 C 
HETATM   44  C1  UNL     1      37.946  55.928 132.588  1.00  0.00     0.014 C 
HETATM   45  C3  UNL     1      36.654  54.111 133.090  1.00  0.00     0.043 C 
ENDBRANCH   1  43
BRANCH  17  46
HETATM   46  O1  UNL     1      41.009  60.175 144.046  1.00  0.00    -0.395 OA
ATOM     47  H1  UNL     1      41.910  60.410 143.858  1.00  0.00     0.210 HD
ENDBRANCH  17  46
TORSDOF 7
ENDMDL
MODEL 3
REMARK VINA RESULT: -10.402502509      3.965      5.662
REMARK  7 active torsions:
REMARK  status: ('A' for Active; 'I' for Inactive)
REMARK    1  A    between atoms: C2_2  and  C4_4 
REMARK    2  A    between atoms: C20_20  and  O1_21 
REMARK    3  A    between atoms: C29_31  and  N1_33 
REMARK    4  A    between atoms: N1_33  and  S1_35 
REMARK    5  A    between atoms: S1_35  and  N2_38 
REMARK    6  A    between atoms: N2_38  and  S2_40 
REMARK    7  A    between atoms: S2_40  and  N3_43 
REMARK       I    between atoms: N3_43  and  C31_45 
ROOT
HETATM    1  C4  UNL     1      37.893  54.118 133.786  1.00  0.00     0.042 C 
HETATM    2  C5  UNL     1      37.490  53.328 135.065  1.00  0.00     0.012 C 
HETATM    3  C6  UNL     1      38.163  53.813 136.300  1.00  0.00     0.011 C 
HETATM    4  C7  UNL     1      37.807  55.286 136.634  1.00  0.00    -0.030 C 
HETATM    5  C8  UNL     1      36.447  55.115 137.282  1.00  0.00     0.016 C 
HETATM    6  C9  UNL     1      37.899  56.071 135.410  1.00  0.00     0.023 C 
HETATM    7  C10 UNL     1      39.364  56.484 135.190  1.00  0.00     0.008 C 
HETATM    8  C11 UNL     1      39.601  57.535 136.251  1.00  0.00     0.006 C 
HETATM    9  C12 UNL     1      39.743  56.737 137.519  1.00  0.00    -0.001 C 
HETATM   10  C13 UNL     1      39.811  57.752 138.619  1.00  0.00    -0.005 C 
HETATM   11  C14 UNL     1      41.118  57.972 139.271  1.00  0.00     0.006 C 
HETATM   12  C15 UNL     1      40.872  59.059 140.334  1.00  0.00     0.006 C 
HETATM   13  C16 UNL     1      39.833  58.558 141.310  1.00  0.00     0.004 C 
HETATM   14  C17 UNL     1      39.679  59.388 142.518  1.00  0.00    -0.017 C 
HETATM   15  C18 UNL     1      40.312  60.770 142.369  1.00  0.00     0.018 C 
HETATM   16  C19 UNL     1      40.394  58.749 143.719  1.00  0.00     0.018 C 
HETATM   17  C20 UNL     1      38.259  59.629 142.962  1.00  0.00     0.126 C 
HETATM   18  C21 UNL     1      37.346  58.474 142.807  1.00  0.00     0.033 C 
HETATM   19  C22 UNL     1      37.673  57.534 141.708  1.00  0.00     0.012 C 
HETATM   20  C23 UNL     1      38.505  58.220 140.611  1.00  0.00    -0.035 C 
HETATM   21  C24 UNL     1      37.822  59.406 140.053  1.00  0.00     0.016 C 
HETATM   22  C25 UNL     1      38.876  57.162 139.642  1.00  0.00    -0.001 C 
HETATM   23  C26 UNL     1      37.790  56.644 138.748  1.00  0.00     0.016 C 
HETATM   24  C27 UNL     1      38.645  55.778 137.782  1.00  0.00    -0.032 C 
HETATM   25  C28 UNL     1      39.198  54.690 138.673  1.00  0.00     0.016 C 
HETATM   26  C29 UNL     1      37.472  55.504 134.113  1.00  0.00     0.050 C 
HETATM   27  C30 UNL     1      35.917  55.536 134.151  1.00  0.00     0.040 C 
ENDROOT
BRANCH  26  28
HETATM   28  N1  UNL     1      37.743  56.505 133.096  1.00  0.00    -0.291 N 
ATOM     29  H1  UNL     1      38.347  57.298 133.312  1.00  0.00     0.174 HD
BRANCH  28  30
HETATM   30  S1  UNL     1      37.074  56.366 131.583  1.00  0.00     0.330 S 
HETATM   31  O2  UNL     1      35.675  56.959 131.464  1.00  0.00    -0.182 OA
HETATM   32  O3  UNL     1      37.067  54.949 131.015  1.00  0.00    -0.182 OA
BRANCH  30  33
HETATM   33  N2  UNL     1      37.968  57.246 130.396  1.00  0.00    -0.177 N 
ATOM     34  H2  UNL     1      37.571  58.023 129.869  1.00  0.00     0.195 HD
BRANCH  33  35
HETATM   35  S2  UNL     1      39.564  56.709 130.180  1.00  0.00     0.335 S 
HETATM   36  O4  UNL     1      40.214  56.644 131.562  1.00  0.00    -0.181 OA
HETATM   37  O5  UNL     1      40.320  57.776 129.430  1.00  0.00    -0.181 OA
BRANCH  35  38
HETATM   38  N3  UNL     1      39.760  55.195 129.447  1.00  0.00    -0.237 N 
HETATM   39  C31 UNL     1      39.073  54.812 128.255  1.00  0.00     0.228 C 
HETATM   40  C32 UNL     1      39.241  53.504 127.617  1.00  0.00     0.118 C 
HETATM   41  O6  UNL     1      38.291  55.648 127.740  1.00  0.00    -0.273 OA
ATOM     42  H3  UNL     1      40.398  54.525 129.876  1.00  0.00     0.183 HD
ENDBRANCH  35  38
ENDBRANCH  33  35
ENDBRANCH  30  33
ENDBRANCH  28  30
ENDBRANCH  26  28
BRANCH   1  43
HETATM   43  C2  UNL     1      39.241  53.763 133.466  1.00  0.00    -0.086 C 
HETATM   44  C1  UNL     1      39.594  52.984 132.473  1.00  0.00     0.014 C 
HETATM   45  C3  UNL     1      40.485  54.162 134.216  1.00  0.00     0.043 C 
ENDBRANCH   1  43
BRANCH  17  46
HETATM   46  O1  UNL     1      38.305  59.942 144.342  1.00  0.00    -0.395 OA
ATOM     47  H1  UNL     1      37.668  60.631 144.491  1.00  0.00     0.210 HD
ENDBRANCH  17  46
TORSDOF 7
ENDMDL
MODEL 4
REMARK VINA RESULT: -10.398473616      4.468      9.580
REMARK  7 active torsions:
REMARK  status: ('A' for Active; 'I' for Inactive)
REMARK    1  A    between atoms: C2_2  and  C4_4 
REMARK    2  A    between atoms: C20_20  and  O1_21 
REMARK    3  A    between atoms: C29_31  and  N1_33 
REMARK    4  A    between atoms: N1_33  and  S1_35 
REMARK    5  A    between atoms: S1_35  and  N2_38 
REMARK    6  A    between atoms: N2_38  and  S2_40 
REMARK    7  A    between atoms: S2_40  and  N3_43 
REMARK       I    between atoms: N3_43  and  C31_45 
ROOT
HETATM    1  C4  UNL     1      41.245  60.138 138.152  1.00  0.00     0.042 C 
HETATM    2  C5  UNL     1      40.397  60.349 136.863  1.00  0.00     0.012 C 
HETATM    3  C6  UNL     1      40.339  59.148 135.988  1.00  0.00     0.011 C 
HETATM    4  C7  UNL     1      39.673  57.932 136.686  1.00  0.00    -0.030 C 
HETATM    5  C8  UNL     1      38.205  58.280 136.535  1.00  0.00     0.016 C 
HETATM    6  C9  UNL     1      40.224  57.815 138.030  1.00  0.00     0.023 C 
HETATM    7  C10 UNL     1      41.550  57.040 137.960  1.00  0.00     0.008 C 
HETATM    8  C11 UNL     1      41.117  55.619 137.678  1.00  0.00     0.006 C 
HETATM    9  C12 UNL     1      40.751  55.640 136.218  1.00  0.00    -0.001 C 
HETATM   10  C13 UNL     1      40.157  54.294 135.940  1.00  0.00    -0.005 C 
HETATM   11  C14 UNL     1      40.961  53.337 135.150  1.00  0.00     0.006 C 
HETATM   12  C15 UNL     1      40.100  52.065 135.042  1.00  0.00     0.006 C 
HETATM   13  C16 UNL     1      38.802  52.412 134.352  1.00  0.00     0.004 C 
HETATM   14  C17 UNL     1      37.988  51.249 133.958  1.00  0.00    -0.017 C 
HETATM   15  C18 UNL     1      38.425  49.961 134.653  1.00  0.00     0.018 C 
HETATM   16  C19 UNL     1      38.132  50.961 132.455  1.00  0.00     0.018 C 
HETATM   17  C20 UNL     1      36.509  51.376 134.215  1.00  0.00     0.126 C 
HETATM   18  C21 UNL     1      35.940  52.721 133.969  1.00  0.00     0.033 C 
HETATM   19  C22 UNL     1      36.869  53.860 134.163  1.00  0.00     0.012 C 
HETATM   20  C23 UNL     1      38.018  53.492 135.116  1.00  0.00    -0.035 C 
HETATM   21  C24 UNL     1      37.526  53.035 136.432  1.00  0.00     0.016 C 
HETATM   22  C25 UNL     1      38.939  54.654 135.130  1.00  0.00    -0.001 C 
HETATM   23  C26 UNL     1      38.482  55.879 135.861  1.00  0.00     0.016 C 
HETATM   24  C27 UNL     1      39.798  56.705 135.826  1.00  0.00    -0.032 C 
HETATM   25  C28 UNL     1      40.007  56.981 134.356  1.00  0.00     0.016 C 
HETATM   26  C29 UNL     1      40.538  59.020 138.827  1.00  0.00     0.050 C 
HETATM   27  C30 UNL     1      39.160  59.550 139.316  1.00  0.00     0.040 C 
ENDROOT
BRANCH  26  28
HETATM   28  N1  UNL     1      41.119  58.568 140.079  1.00  0.00    -0.291 N 
ATOM     29  H1  UNL     1      41.408  57.595 140.183  1.00  0.00     0.174 HD
BRANCH  28  30
HETATM   30  S1  UNL     1      41.314  59.626 141.344  1.00  0.00     0.330 S 
HETATM   31  O2  UNL     1      40.161  60.607 141.517  1.00  0.00    -0.182 OA
HETATM   32  O3  UNL     1      42.631  60.397 141.334  1.00  0.00    -0.182 OA
BRANCH  30  33
HETATM   33  N2  UNL     1      41.362  58.813 142.867  1.00  0.00    -0.177 N 
ATOM     34  H2  UNL     1      42.182  58.306 143.197  1.00  0.00     0.195 HD
BRANCH  33  35
HETATM   35  S2  UNL     1      39.928  58.928 143.769  1.00  0.00     0.335 S 
HETATM   36  O4  UNL     1      39.875  60.337 144.360  1.00  0.00    -0.181 OA
HETATM   37  O5  UNL     1      40.042  58.000 144.950  1.00  0.00    -0.181 OA
BRANCH  35  38
HETATM   38  N3  UNL     1      38.482  58.668 142.926  1.00  0.00    -0.237 N 
HETATM   39  C31 UNL     1      38.286  57.569 142.037  1.00  0.00     0.228 C 
HETATM   40  C32 UNL     1      37.036  57.339 141.308  1.00  0.00     0.118 C 
HETATM   41  O6  UNL     1      39.241  56.767 141.883  1.00  0.00    -0.273 OA
ATOM     42  H3  UNL     1      37.716  59.327 143.060  1.00  0.00     0.183 HD
ENDBRANCH  35  38
ENDBRANCH  33  35
ENDBRANCH  30  33
ENDBRANCH  28  30
ENDBRANCH  26  28
BRANCH   1  43
HETATM   43  C2  UNL     1      42.618  60.074 137.760  1.00  0.00    -0.086 C 
HETATM   44  C1  UNL     1      43.159  60.796 136.809  1.00  0.00     0.014 C 
HETATM   45  C3  UNL     1      43.676  59.152 138.309  1.00  0.00     0.043 C 
ENDBRANCH   1  43
BRANCH  17  46
HETATM   46  O1  UNL     1      35.857  50.480 133.333  1.00  0.00    -0.395 OA
ATOM     47  H1  UNL     1      35.135  50.955 132.939  1.00  0.00     0.210 HD
ENDBRANCH  17  46
TORSDOF 7
ENDMDL
MODEL 5
REMARK VINA RESULT: -10.251476351      0.972      1.472
REMARK  7 active torsions:
REMARK  status: ('A' for Active; 'I' for Inactive)
REMARK    1  A    between atoms: C2_2  and  C4_4 
REMARK    2  A    between atoms: C20_20  and  O1_21 
REMARK    3  A    between atoms: C29_31  and  N1_33 
REMARK    4  A    between atoms: N1_33  and  S1_35 
REMARK    5  A    between atoms: S1_35  and  N2_38 
REMARK    6  A    between atoms: N2_38  and  S2_40 
REMARK    7  A    between atoms: S2_40  and  N3_43 
REMARK       I    between atoms: N3_43  and  C31_45 
ROOT
HETATM    1  C4  UNL     1      38.873  53.869 133.980  1.00  0.00     0.042 C 
HETATM    2  C5  UNL     1      40.080  54.851 133.916  1.00  0.00     0.012 C 
HETATM    3  C6  UNL     1      39.928  56.038 134.800  1.00  0.00     0.011 C 
HETATM    4  C7  UNL     1      39.829  55.655 136.301  1.00  0.00    -0.030 C 
HETATM    5  C8  UNL     1      41.289  55.424 136.638  1.00  0.00     0.016 C 
HETATM    6  C9  UNL     1      38.901  54.539 136.431  1.00  0.00     0.023 C 
HETATM    7  C10 UNL     1      37.465  55.086 136.484  1.00  0.00     0.008 C 
HETATM    8  C11 UNL     1      37.377  55.724 137.852  1.00  0.00     0.006 C 
HETATM    9  C12 UNL     1      38.141  57.011 137.697  1.00  0.00    -0.001 C 
HETATM   10  C13 UNL     1      38.221  57.592 139.075  1.00  0.00    -0.005 C 
HETATM   11  C14 UNL     1      37.386  58.774 139.373  1.00  0.00     0.006 C 
HETATM   12  C15 UNL     1      37.676  59.126 140.844  1.00  0.00     0.006 C 
HETATM   13  C16 UNL     1      39.149  59.427 140.991  1.00  0.00     0.004 C 
HETATM   14  C17 UNL     1      39.527  60.018 142.286  1.00  0.00    -0.017 C 
HETATM   15  C18 UNL     1      38.439  59.858 143.346  1.00  0.00     0.018 C 
HETATM   16  C19 UNL     1      39.739  61.534 142.157  1.00  0.00     0.018 C 
HETATM   17  C20 UNL     1      40.789  59.474 142.904  1.00  0.00     0.126 C 
HETATM   18  C21 UNL     1      41.880  59.175 141.947  1.00  0.00     0.033 C 
HETATM   19  C22 UNL     1      41.453  58.798 140.578  1.00  0.00     0.012 C 
HETATM   20  C23 UNL     1      40.023  58.232 140.571  1.00  0.00    -0.035 C 
HETATM   21  C24 UNL     1      39.881  57.064 141.465  1.00  0.00     0.016 C 
HETATM   22  C25 UNL     1      39.665  58.015 139.149  1.00  0.00    -0.001 C 
HETATM   23  C26 UNL     1      40.320  56.863 138.449  1.00  0.00     0.016 C 
HETATM   24  C27 UNL     1      39.501  56.868 137.128  1.00  0.00    -0.032 C 
HETATM   25  C28 UNL     1      39.865  58.187 136.488  1.00  0.00     0.016 C 
HETATM   26  C29 UNL     1      38.855  53.470 135.411  1.00  0.00     0.050 C 
HETATM   27  C30 UNL     1      40.117  52.600 135.681  1.00  0.00     0.040 C 
ENDROOT
BRANCH  26  28
HETATM   28  N1  UNL     1      37.799  52.550 135.798  1.00  0.00    -0.291 N 
ATOM     29  H1  UNL     1      37.091  52.846 136.470  1.00  0.00     0.174 HD
BRANCH  28  30
HETATM   30  S1  UNL     1      37.740  51.022 135.154  1.00  0.00     0.330 S 
HETATM   31  O2  UNL     1      39.002  50.613 134.404  1.00  0.00    -0.182 OA
HETATM   32  O3  UNL     1      36.524  50.746 134.275  1.00  0.00    -0.182 OA
BRANCH  30  33
HETATM   33  N2  UNL     1      37.608  49.808 136.376  1.00  0.00    -0.177 N 
ATOM     34  H2  UNL     1      38.395  49.521 136.956  1.00  0.00     0.195 HD
BRANCH  33  35
HETATM   35  S2  UNL     1      36.058  49.134 136.531  1.00  0.00     0.335 S 
HETATM   36  O4  UNL     1      35.086  50.284 136.793  1.00  0.00    -0.181 OA
HETATM   37  O5  UNL     1      36.035  48.295 137.782  1.00  0.00    -0.181 OA
BRANCH  35  38
HETATM   38  N3  UNL     1      35.477  48.262 135.201  1.00  0.00    -0.237 N 
HETATM   39  C31 UNL     1      36.312  47.449 134.377  1.00  0.00     0.228 C 
HETATM   40  C32 UNL     1      35.813  46.691 133.227  1.00  0.00     0.118 C 
HETATM   41  O6  UNL     1      37.533  47.390 134.665  1.00  0.00    -0.273 OA
ATOM     42  H3  UNL     1      34.483  48.320 134.977  1.00  0.00     0.183 HD
ENDBRANCH  35  38
ENDBRANCH  33  35
ENDBRANCH  30  33
ENDBRANCH  28  30
ENDBRANCH  26  28
BRANCH   1  43
HETATM   43  C2  UNL     1      37.768  54.500 133.329  1.00  0.00    -0.086 C 
HETATM   44  C1  UNL     1      36.647  53.900 133.009  1.00  0.00     0.014 C 
HETATM   45  C3  UNL     1      37.692  55.926 132.848  1.00  0.00     0.043 C 
ENDBRANCH   1  43
BRANCH  17  46
HETATM   46  O1  UNL     1      41.275  60.465 143.792  1.00  0.00    -0.395 OA
ATOM     47  H1  UNL     1      42.219  60.372 143.821  1.00  0.00     0.210 HD
ENDBRANCH  17  46
TORSDOF 7
ENDMDL
