MODEL 1
REMARK VINA RESULT: -7.662108606      0.000      0.000
REMARK  3 active torsions:
REMARK  status: ('A' for Active; 'I' for Inactive)
REMARK    1  A    between atoms: C2_2  and  C5_5 
REMARK    2  A    between atoms: N1_6  and  N2_8 
REMARK    3  A    between atoms: N3_20  and  O1_22 
ROOT
HETATM    1  N2  UNL     1      32.975   9.699  25.013  1.00  0.00    -0.323 N 
HETATM    2  C6  UNL     1      33.999   9.183  24.132  1.00  0.00     0.143 C 
HETATM    3  C7  UNL     1      33.663   7.699  23.929  1.00  0.00     0.022 C 
HETATM    4  C8  UNL     1      33.816   7.057  25.287  1.00  0.00     0.013 C 
HETATM    5  C9  UNL     1      32.805   7.580  26.281  1.00  0.00    -0.013 C 
HETATM    6  C10 UNL     1      31.508   6.849  26.020  1.00  0.00     0.012 C 
HETATM    7  C11 UNL     1      30.588   6.798  27.192  1.00  0.00     0.011 C 
HETATM    8  C12 UNL     1      30.977   7.700  28.332  1.00  0.00     0.033 C 
HETATM    9  C13 UNL     1      30.809   9.160  27.995  1.00  0.00     0.013 C 
HETATM   10  C14 UNL     1      31.214   9.490  26.592  1.00  0.00     0.028 C 
HETATM   11  C15 UNL     1      32.620   9.053  26.254  1.00  0.00     0.111 C 
HETATM   12  C16 UNL     1      32.365   7.375  28.712  1.00  0.00     0.015 C 
HETATM   13  N3  UNL     1      32.724   7.258  29.944  1.00  0.00    -0.277 N 
ATOM     14  H3  UNL     1      32.021   7.395  30.670  1.00  0.00     0.193 HD
HETATM   15  C17 UNL     1      33.359   7.182  27.657  1.00  0.00     0.066 C 
ENDROOT
BRANCH   1  16
HETATM   16  N1  UNL     1      32.326  10.869  24.615  1.00  0.00    -0.317 N 
HETATM   17  C5  UNL     1      32.010  11.031  23.383  1.00  0.00     0.088 C 
ATOM     18  H1  UNL     1      32.104  11.591  25.301  1.00  0.00     0.185 HD
BRANCH  17  19
HETATM   19  C2  UNL     1      31.318  12.258  22.906  1.00  0.00    -0.018 C 
HETATM   20  C1  UNL     1      29.827  12.163  23.194  1.00  0.00     0.020 C 
HETATM   21  C3  UNL     1      31.474  12.462  21.418  1.00  0.00     0.020 C 
HETATM   22  C4  UNL     1      31.848  13.446  23.659  1.00  0.00     0.020 C 
ENDBRANCH  17  19
ENDBRANCH   1  16
BRANCH  13  23
HETATM   23  O1  UNL     1      34.001   6.960  30.324  1.00  0.00    -0.290 OA
ATOM     24  H1  UNL     1      34.279   6.927  31.232  1.00  0.00     0.244 HD
ENDBRANCH  13  23
TORSDOF 3
ENDMDL
MODEL 2
REMARK VINA RESULT: -6.922609828      3.625      6.096
REMARK  3 active torsions:
REMARK  status: ('A' for Active; 'I' for Inactive)
REMARK    1  A    between atoms: C2_2  and  C5_5 
REMARK    2  A    between atoms: N1_6  and  N2_8 
REMARK    3  A    between atoms: N3_20  and  O1_22 
ROOT
HETATM    1  N2  UNL     1      33.843   9.349  23.679  1.00  0.00    -0.323 N 
HETATM    2  C6  UNL     1      34.915  10.209  23.229  1.00  0.00     0.143 C 
HETATM    3  C7  UNL     1      34.728  11.534  23.981  1.00  0.00     0.022 C 
HETATM    4  C8  UNL     1      33.414  12.096  23.495  1.00  0.00     0.013 C 
HETATM    5  C9  UNL     1      32.243  11.225  23.890  1.00  0.00    -0.013 C 
HETATM    6  C10 UNL     1      31.914  11.551  25.329  1.00  0.00     0.012 C 
HETATM    7  C11 UNL     1      30.509  11.242  25.720  1.00  0.00     0.011 C 
HETATM    8  C12 UNL     1      29.746  10.421  24.716  1.00  0.00     0.033 C 
HETATM    9  C13 UNL     1      30.256   9.005  24.623  1.00  0.00     0.013 C 
HETATM   10  C14 UNL     1      31.748   8.910  24.707  1.00  0.00     0.028 C 
HETATM   11  C15 UNL     1      32.463   9.771  23.691  1.00  0.00     0.111 C 
HETATM   12  C16 UNL     1      29.812  11.120  23.417  1.00  0.00     0.015 C 
HETATM   13  N3  UNL     1      28.776  11.252  22.663  1.00  0.00    -0.277 N 
ATOM     14  H3  UNL     1      27.889  10.861  22.981  1.00  0.00     0.193 HD
HETATM   15  C17 UNL     1      31.091  11.675  22.978  1.00  0.00     0.066 C 
ENDROOT
BRANCH   1  16
HETATM   16  N1  UNL     1      34.194   8.069  24.112  1.00  0.00    -0.317 N 
HETATM   17  C5  UNL     1      34.362   7.133  23.251  1.00  0.00     0.088 C 
ATOM     18  H1  UNL     1      34.316   7.879  25.107  1.00  0.00     0.185 HD
BRANCH  17  19
HETATM   19  C2  UNL     1      34.737   5.752  23.658  1.00  0.00    -0.018 C 
HETATM   20  C1  UNL     1      34.894   5.676  25.169  1.00  0.00     0.020 C 
HETATM   21  C3  UNL     1      36.046   5.311  23.049  1.00  0.00     0.020 C 
HETATM   22  C4  UNL     1      33.631   4.810  23.271  1.00  0.00     0.020 C 
ENDBRANCH  17  19
ENDBRANCH   1  16
BRANCH  13  23
HETATM   23  O1  UNL     1      28.807  11.893  21.457  1.00  0.00    -0.290 OA
ATOM     24  H1  UNL     1      28.471  11.509  20.656  1.00  0.00     0.244 HD
ENDBRANCH  13  23
TORSDOF 3
ENDMDL
MODEL 3
REMARK VINA RESULT: -6.633997725      2.797      6.828
REMARK  3 active torsions:
REMARK  status: ('A' for Active; 'I' for Inactive)
REMARK    1  A    between atoms: C2_2  and  C5_5 
REMARK    2  A    between atoms: N1_6  and  N2_8 
REMARK    3  A    between atoms: N3_20  and  O1_22 
ROOT
HETATM    1  N2  UNL     1      32.769   7.543  28.050  1.00  0.00    -0.323 N 
HETATM    2  C6  UNL     1      31.666   8.176  28.739  1.00  0.00     0.143 C 
HETATM    3  C7  UNL     1      30.506   8.198  27.732  1.00  0.00     0.022 C 
HETATM    4  C8  UNL     1      30.960   9.097  26.608  1.00  0.00     0.013 C 
HETATM    5  C9  UNL     1      32.145   8.523  25.865  1.00  0.00    -0.013 C 
HETATM    6  C10 UNL     1      31.605   7.494  24.898  1.00  0.00     0.012 C 
HETATM    7  C11 UNL     1      32.490   7.231  23.727  1.00  0.00     0.011 C 
HETATM    8  C12 UNL     1      33.869   7.821  23.840  1.00  0.00     0.033 C 
HETATM    9  C13 UNL     1      34.704   7.135  24.893  1.00  0.00     0.013 C 
HETATM   10  C14 UNL     1      33.925   6.780  26.121  1.00  0.00     0.028 C 
HETATM   11  C15 UNL     1      33.204   7.956  26.737  1.00  0.00     0.111 C 
HETATM   12  C16 UNL     1      33.723   9.266  24.103  1.00  0.00     0.015 C 
HETATM   13  N3  UNL     1      34.441  10.144  23.492  1.00  0.00    -0.277 N 
ATOM     14  H3  UNL     1      35.126   9.822  22.809  1.00  0.00     0.193 HD
HETATM   15  C17 UNL     1      32.735   9.709  25.086  1.00  0.00     0.066 C 
ENDROOT
BRANCH   1  16
HETATM   16  N1  UNL     1      33.415   6.497  28.711  1.00  0.00    -0.317 N 
HETATM   17  C5  UNL     1      33.378   6.438  29.991  1.00  0.00     0.088 C 
ATOM     18  H1  UNL     1      33.913   5.784  28.179  1.00  0.00     0.185 HD
BRANCH  17  19
HETATM   19  C2  UNL     1      34.048   5.345  30.745  1.00  0.00    -0.018 C 
HETATM   20  C1  UNL     1      33.510   5.283  32.167  1.00  0.00     0.020 C 
HETATM   21  C3  UNL     1      35.541   5.547  30.840  1.00  0.00     0.020 C 
HETATM   22  C4  UNL     1      33.735   4.030  30.087  1.00  0.00     0.020 C 
ENDBRANCH  17  19
ENDBRANCH   1  16
BRANCH  13  23
HETATM   23  O1  UNL     1      34.328  11.486  23.715  1.00  0.00    -0.290 OA
ATOM     24  H1  UNL     1      34.295  12.129  23.015  1.00  0.00     0.244 HD
ENDBRANCH  13  23
TORSDOF 3
ENDMDL
MODEL 4
REMARK VINA RESULT: -6.561716287      3.348      5.841
REMARK  3 active torsions:
REMARK  status: ('A' for Active; 'I' for Inactive)
REMARK    1  A    between atoms: C2_2  and  C5_5 
REMARK    2  A    between atoms: N1_6  and  N2_8 
REMARK    3  A    between atoms: N3_20  and  O1_22 
ROOT
HETATM    1  N2  UNL     1      34.094   8.420  23.446  1.00  0.00    -0.323 N 
HETATM    2  C6  UNL     1      35.018   9.372  22.869  1.00  0.00     0.143 C 
HETATM    3  C7  UNL     1      35.022  10.576  23.821  1.00  0.00     0.022 C 
HETATM    4  C8  UNL     1      33.626  11.149  23.759  1.00  0.00     0.013 C 
HETATM    5  C9  UNL     1      32.594  10.190  24.306  1.00  0.00    -0.013 C 
HETATM    6  C10 UNL     1      32.634  10.307  25.812  1.00  0.00     0.012 C 
HETATM    7  C11 UNL     1      31.372   9.896  26.492  1.00  0.00     0.011 C 
HETATM    8  C12 UNL     1      30.385   9.190  25.603  1.00  0.00     0.033 C 
HETATM    9  C13 UNL     1      30.858   7.819  25.190  1.00  0.00     0.013 C 
HETATM   10  C14 UNL     1      32.324   7.770  24.888  1.00  0.00     0.028 C 
HETATM   11  C15 UNL     1      32.760   8.785  23.858  1.00  0.00     0.111 C 
HETATM   12  C16 UNL     1      30.121  10.059  24.440  1.00  0.00     0.015 C 
HETATM   13  N3  UNL     1      28.929  10.254  23.991  1.00  0.00    -0.277 N 
ATOM     14  H3  UNL     1      28.152   9.790  24.461  1.00  0.00     0.193 HD
HETATM   15  C17 UNL     1      31.249  10.716  23.779  1.00  0.00     0.066 C 
ENDROOT
BRANCH   1  16
HETATM   16  N1  UNL     1      34.545   7.107  23.595  1.00  0.00    -0.317 N 
HETATM   17  C5  UNL     1      34.847   6.420  22.555  1.00  0.00     0.088 C 
ATOM     18  H1  UNL     1      34.633   6.698  24.525  1.00  0.00     0.185 HD
BRANCH  17  19
HETATM   19  C2  UNL     1      35.333   5.017  22.658  1.00  0.00    -0.018 C 
HETATM   20  C1  UNL     1      34.342   4.177  23.450  1.00  0.00     0.020 C 
HETATM   21  C3  UNL     1      36.664   4.922  23.362  1.00  0.00     0.020 C 
HETATM   22  C4  UNL     1      35.423   4.427  21.278  1.00  0.00     0.020 C 
ENDBRANCH  17  19
ENDBRANCH   1  16
BRANCH  13  23
HETATM   23  O1  UNL     1      28.656  11.051  22.917  1.00  0.00    -0.290 OA
ATOM     24  H1  UNL     1      28.684  10.742  22.019  1.00  0.00     0.244 HD
ENDBRANCH  13  23
TORSDOF 3
ENDMDL
MODEL 5
REMARK VINA RESULT: -6.559947441      3.573      7.047
REMARK  3 active torsions:
REMARK  status: ('A' for Active; 'I' for Inactive)
REMARK    1  A    between atoms: C2_2  and  C5_5 
REMARK    2  A    between atoms: N1_6  and  N2_8 
REMARK    3  A    between atoms: N3_20  and  O1_22 
ROOT
HETATM    1  N2  UNL     1      34.026   7.084  26.625  1.00  0.00    -0.323 N 
HETATM    2  C6  UNL     1      33.349   8.295  27.035  1.00  0.00     0.143 C 
HETATM    3  C7  UNL     1      32.132   8.424  26.108  1.00  0.00     0.022 C 
HETATM    4  C8  UNL     1      32.695   8.624  24.722  1.00  0.00     0.013 C 
HETATM    5  C9  UNL     1      33.459   7.412  24.239  1.00  0.00    -0.013 C 
HETATM    6  C10 UNL     1      32.438   6.415  23.741  1.00  0.00     0.012 C 
HETATM    7  C11 UNL     1      32.970   5.439  22.747  1.00  0.00     0.011 C 
HETATM    8  C12 UNL     1      34.469   5.437  22.613  1.00  0.00     0.033 C 
HETATM    9  C13 UNL     1      35.155   4.887  23.838  1.00  0.00     0.013 C 
HETATM   10  C14 UNL     1      34.507   5.314  25.118  1.00  0.00     0.028 C 
HETATM   11  C15 UNL     1      34.366   6.812  25.250  1.00  0.00     0.111 C 
HETATM   12  C16 UNL     1      34.898   6.816  22.310  1.00  0.00     0.015 C 
HETATM   13  N3  UNL     1      35.777   7.071  21.404  1.00  0.00    -0.277 N 
ATOM     14  H3  UNL     1      36.182   6.291  20.886  1.00  0.00     0.193 HD
HETATM   15  C17 UNL     1      34.305   7.921  23.062  1.00  0.00     0.066 C 
ENDROOT
BRANCH   1  16
HETATM   16  N1  UNL     1      34.347   6.166  27.627  1.00  0.00    -0.317 N 
HETATM   17  C5  UNL     1      33.670   6.153  28.716  1.00  0.00     0.088 C 
ATOM     18  H1  UNL     1      35.115   5.508  27.493  1.00  0.00     0.185 HD
BRANCH  17  19
HETATM   19  C2  UNL     1      33.970   5.196  29.814  1.00  0.00    -0.018 C 
HETATM   20  C1  UNL     1      34.670   3.965  29.259  1.00  0.00     0.020 C 
HETATM   21  C3  UNL     1      32.721   4.722  30.518  1.00  0.00     0.020 C 
HETATM   22  C4  UNL     1      34.910   5.847  30.790  1.00  0.00     0.020 C 
ENDBRANCH  17  19
ENDBRANCH   1  16
BRANCH  13  23
HETATM   23  O1  UNL     1      36.193   8.336  21.102  1.00  0.00    -0.290 OA
ATOM     24  H1  UNL     1      36.975   8.519  20.594  1.00  0.00     0.244 HD
ENDBRANCH  13  23
TORSDOF 3
ENDMDL
