MODEL 1
REMARK VINA RESULT: -6.055326717      0.000      0.000
REMARK  1 active torsions:
REMARK  status: ('A' for Active; 'I' for Inactive)
REMARK    1  A    between atoms: C7_13  and  C8_14 
ROOT
HETATM    1  O1  UNL     1     -22.394 -30.926 -16.450  1.00  0.00    -0.292 OA
HETATM    2  C1  UNL     1     -21.799 -31.145 -17.468  1.00  0.00     0.189 C 
HETATM    3  C2  UNL     1     -22.126 -31.983 -18.626  1.00  0.00     0.110 C 
HETATM    4  C3  UNL     1     -21.226 -31.447 -19.688  1.00  0.00     0.179 C 
HETATM    5  O2  UNL     1     -20.271 -30.652 -19.137  1.00  0.00    -0.349 OA
HETATM    6  C4  UNL     1     -20.455 -30.527 -17.775  1.00  0.00     0.233 C 
HETATM    7  N1  UNL     1     -19.486 -31.203 -16.992  1.00  0.00    -0.333 N 
ATOM      8  H1  UNL     1     -19.584 -32.185 -16.735  1.00  0.00     0.164 HD
HETATM    9  C5  UNL     1     -18.380 -30.430 -16.595  1.00  0.00     0.142 C 
HETATM   10  S1  UNL     1     -16.902 -30.909 -16.165  1.00  0.00    -0.052 SA
HETATM   11  S2  UNL     1     -18.943 -28.739 -16.656  1.00  0.00    -0.060 SA
HETATM   12  C6  UNL     1     -20.577 -29.114 -17.345  1.00  0.00     0.050 C 
HETATM   13  C7  UNL     1     -21.607 -28.310 -17.436  1.00  0.00     0.038 C 
ENDROOT
BRANCH  13  14
HETATM   14  C8  UNL     1     -21.553 -26.930 -16.955  1.00  0.00     0.006 A 
HETATM   15  C9  UNL     1     -21.923 -26.438 -15.730  1.00  0.00     0.019 A 
HETATM   16  C10 UNL     1     -21.776 -25.118 -15.523  1.00  0.00     0.008 A 
HETATM   17  C11 UNL     1     -21.267 -24.375 -16.557  1.00  0.00     0.050 A 
HETATM   18  S3  UNL     1     -21.013 -25.537 -17.776  1.00  0.00    -0.102 SA
ENDBRANCH  13  14
TORSDOF 1
ENDMDL
MODEL 2
REMARK VINA RESULT: -6.025849848      1.269      1.461
REMARK  1 active torsions:
REMARK  status: ('A' for Active; 'I' for Inactive)
REMARK    1  A    between atoms: C7_13  and  C8_14 
ROOT
HETATM    1  O1  UNL     1     -22.823 -31.609 -18.274  1.00  0.00    -0.292 OA
HETATM    2  C1  UNL     1     -22.000 -31.710 -19.140  1.00  0.00     0.189 C 
HETATM    3  C2  UNL     1     -22.086 -32.229 -20.509  1.00  0.00     0.110 C 
HETATM    4  C3  UNL     1     -20.879 -31.644 -21.161  1.00  0.00     0.179 C 
HETATM    5  O2  UNL     1     -20.031 -31.148 -20.222  1.00  0.00    -0.349 OA
HETATM    6  C4  UNL     1     -20.565 -31.275 -18.955  1.00  0.00     0.233 C 
HETATM    7  N1  UNL     1     -19.924 -32.247 -18.148  1.00  0.00    -0.333 N 
ATOM      8  H1  UNL     1     -20.193 -33.231 -18.166  1.00  0.00     0.164 HD
HETATM    9  C5  UNL     1     -18.893 -31.766 -17.322  1.00  0.00     0.142 C 
HETATM   10  S1  UNL     1     -17.648 -32.562 -16.676  1.00  0.00    -0.052 SA
HETATM   11  S2  UNL     1     -19.234 -30.029 -17.108  1.00  0.00    -0.060 SA
HETATM   12  C6  UNL     1     -20.648 -29.979 -18.241  1.00  0.00     0.050 C 
HETATM   13  C7  UNL     1     -21.523 -29.014 -18.381  1.00  0.00     0.038 C 
ENDROOT
BRANCH  13  14
HETATM   14  C8  UNL     1     -21.455 -27.790 -17.584  1.00  0.00     0.006 A 
HETATM   15  C9  UNL     1     -21.782 -27.612 -16.265  1.00  0.00     0.019 A 
HETATM   16  C10 UNL     1     -21.631 -26.379 -15.751  1.00  0.00     0.008 A 
HETATM   17  C11 UNL     1     -21.161 -25.402 -16.592  1.00  0.00     0.050 A 
HETATM   18  S3  UNL     1     -20.948 -26.234 -18.063  1.00  0.00    -0.102 SA
ENDBRANCH  13  14
TORSDOF 1
ENDMDL
MODEL 3
REMARK VINA RESULT: -5.901566156      1.906      2.367
REMARK  1 active torsions:
REMARK  status: ('A' for Active; 'I' for Inactive)
REMARK    1  A    between atoms: C7_13  and  C8_14 
ROOT
HETATM    1  O1  UNL     1     -23.085 -31.970 -18.863  1.00  0.00    -0.292 OA
HETATM    2  C1  UNL     1     -22.264 -32.079 -19.731  1.00  0.00     0.189 C 
HETATM    3  C2  UNL     1     -22.375 -32.524 -21.124  1.00  0.00     0.110 C 
HETATM    4  C3  UNL     1     -21.130 -31.983 -21.744  1.00  0.00     0.179 C 
HETATM    5  O2  UNL     1     -20.259 -31.586 -20.779  1.00  0.00    -0.349 OA
HETATM    6  C4  UNL     1     -20.807 -31.741 -19.522  1.00  0.00     0.233 C 
HETATM    7  N1  UNL     1     -20.231 -32.789 -18.761  1.00  0.00    -0.333 N 
ATOM      8  H1  UNL     1     -20.559 -33.753 -18.828  1.00  0.00     0.164 HD
HETATM    9  C5  UNL     1     -19.177 -32.413 -17.910  1.00  0.00     0.142 C 
HETATM   10  S1  UNL     1     -17.986 -33.314 -17.301  1.00  0.00    -0.052 SA
HETATM   11  S2  UNL     1     -19.413 -30.671 -17.613  1.00  0.00    -0.060 SA
HETATM   12  C6  UNL     1     -20.815 -30.479 -18.745  1.00  0.00     0.050 C 
HETATM   13  C7  UNL     1     -21.629 -29.457 -18.840  1.00  0.00     0.038 C 
ENDROOT
BRANCH  13  14
HETATM   14  C8  UNL     1     -21.491 -28.280 -17.983  1.00  0.00     0.006 A 
HETATM   15  C9  UNL     1     -21.258 -26.980 -18.352  1.00  0.00     0.019 A 
HETATM   16  C10 UNL     1     -21.171 -26.065 -17.370  1.00  0.00     0.008 A 
HETATM   17  C11 UNL     1     -21.322 -26.512 -16.082  1.00  0.00     0.050 A 
HETATM   18  S3  UNL     1     -21.579 -28.184 -16.284  1.00  0.00    -0.102 SA
ENDBRANCH  13  14
TORSDOF 1
ENDMDL
MODEL 4
REMARK VINA RESULT: -5.719672186      0.922      1.140
REMARK  1 active torsions:
REMARK  status: ('A' for Active; 'I' for Inactive)
REMARK    1  A    between atoms: C7_13  and  C8_14 
ROOT
HETATM    1  O1  UNL     1     -22.361 -31.361 -16.881  1.00  0.00    -0.292 OA
HETATM    2  C1  UNL     1     -21.660 -31.626 -17.818  1.00  0.00     0.189 C 
HETATM    3  C2  UNL     1     -21.859 -32.528 -18.957  1.00  0.00     0.110 C 
HETATM    4  C3  UNL     1     -20.854 -32.038 -19.945  1.00  0.00     0.179 C 
HETATM    5  O2  UNL     1     -19.966 -31.205 -19.339  1.00  0.00    -0.349 OA
HETATM    6  C4  UNL     1     -20.294 -31.011 -18.013  1.00  0.00     0.233 C 
HETATM    7  N1  UNL     1     -19.410 -31.635 -17.098  1.00  0.00    -0.333 N 
ATOM      8  H1  UNL     1     -19.530 -32.603 -16.800  1.00  0.00     0.164 HD
HETATM    9  C5  UNL     1     -18.357 -30.830 -16.627  1.00  0.00     0.142 C 
HETATM   10  S1  UNL     1     -16.930 -31.271 -16.019  1.00  0.00    -0.052 SA
HETATM   11  S2  UNL     1     -18.919 -29.151 -16.837  1.00  0.00    -0.060 SA
HETATM   12  C6  UNL     1     -20.469 -29.579 -17.674  1.00  0.00     0.050 C 
HETATM   13  C7  UNL     1     -21.488 -28.792 -17.915  1.00  0.00     0.038 C 
ENDROOT
BRANCH  13  14
HETATM   14  C8  UNL     1     -21.491 -27.388 -17.506  1.00  0.00     0.006 A 
HETATM   15  C9  UNL     1     -21.376 -26.270 -18.291  1.00  0.00     0.019 A 
HETATM   16  C10 UNL     1     -21.408 -25.076 -17.674  1.00  0.00     0.008 A 
HETATM   17  C11 UNL     1     -21.554 -25.078 -16.311  1.00  0.00     0.050 A 
HETATM   18  S3  UNL     1     -21.640 -26.738 -15.937  1.00  0.00    -0.102 SA
ENDBRANCH  13  14
TORSDOF 1
ENDMDL
MODEL 5
REMARK VINA RESULT: -5.698095726      2.721      5.201
REMARK  1 active torsions:
REMARK  status: ('A' for Active; 'I' for Inactive)
REMARK    1  A    between atoms: C7_13  and  C8_14 
ROOT
HETATM    1  O1  UNL     1     -20.053 -25.279 -17.976  1.00  0.00    -0.292 OA
HETATM    2  C1  UNL     1     -20.561 -25.499 -16.912  1.00  0.00     0.189 C 
HETATM    3  C2  UNL     1     -21.378 -24.657 -16.031  1.00  0.00     0.110 C 
HETATM    4  C3  UNL     1     -22.047 -25.655 -15.147  1.00  0.00     0.179 C 
HETATM    5  O2  UNL     1     -21.443 -26.867 -15.265  1.00  0.00    -0.349 OA
HETATM    6  C4  UNL     1     -20.437 -26.829 -16.209  1.00  0.00     0.233 C 
HETATM    7  N1  UNL     1     -19.129 -26.906 -15.668  1.00  0.00    -0.333 N 
ATOM      8  H1  UNL     1     -18.621 -26.079 -15.355  1.00  0.00     0.164 HD
HETATM    9  C5  UNL     1     -18.578 -28.198 -15.593  1.00  0.00     0.142 C 
HETATM   10  S1  UNL     1     -17.407 -28.753 -14.634  1.00  0.00    -0.052 SA
HETATM   11  S2  UNL     1     -19.457 -29.155 -16.813  1.00  0.00    -0.060 SA
HETATM   12  C6  UNL     1     -20.620 -27.843 -17.274  1.00  0.00     0.050 C 
HETATM   13  C7  UNL     1     -21.424 -27.818 -18.308  1.00  0.00     0.038 C 
ENDROOT
BRANCH  13  14
HETATM   14  C8  UNL     1     -21.475 -28.917 -19.272  1.00  0.00     0.006 A 
HETATM   15  C9  UNL     1     -21.311 -28.867 -20.632  1.00  0.00     0.019 A 
HETATM   16  C10 UNL     1     -21.402 -30.024 -21.309  1.00  0.00     0.008 A 
HETATM   17  C11 UNL     1     -21.653 -31.159 -20.580  1.00  0.00     0.050 A 
HETATM   18  S3  UNL     1     -21.752 -30.574 -18.983  1.00  0.00    -0.102 SA
ENDBRANCH  13  14
TORSDOF 1
ENDMDL
