MODEL 1
REMARK VINA RESULT: -7.363174430      0.000      0.000
REMARK  1 active torsions:
REMARK  status: ('A' for Active; 'I' for Inactive)
REMARK    1  A    between atoms: N2_3  and  C2_5 
ROOT
HETATM    1  N1  UNL     1     -23.179 -22.800 -14.158  1.00  0.00    -0.172 NA
HETATM    2  C1  UNL     1     -23.081 -23.949 -13.959  1.00  0.00     0.184 C 
HETATM    3  N2  UNL     1     -22.987 -25.324 -13.728  1.00  0.00    -0.265 N 
ATOM      4  H2  UNL     1     -23.677 -25.777 -13.127  1.00  0.00     0.181 HD
ENDROOT
BRANCH   3   5
HETATM    5  C2  UNL     1     -21.933 -26.122 -14.322  1.00  0.00     0.196 A 
HETATM    6  N3  UNL     1     -21.835 -26.245 -15.556  1.00  0.00    -0.341 N 
HETATM    7  C3  UNL     1     -20.802 -27.025 -16.101  1.00  0.00     0.105 A 
ATOM      8  H3  UNL     1     -22.504 -25.779 -16.170  1.00  0.00     0.164 HD
HETATM    9  C4  UNL     1     -19.836 -26.286 -16.984  1.00  0.00     0.045 C 
HETATM   10  C11 UNL     1     -21.358 -28.268 -16.692  1.00  0.00     0.084 C 
HETATM   11  S2  UNL     1     -20.010 -27.542 -14.521  1.00  0.00    -0.020 SA
HETATM   12  C5  UNL     1     -20.503 -25.153 -17.732  1.00  0.00     0.008 C 
HETATM   13  C6  UNL     1     -21.735 -25.617 -18.463  1.00  0.00     0.047 C 
HETATM   14  C7  UNL     1     -21.598 -27.041 -18.921  1.00  0.00    -0.009 A 
HETATM   15  S1  UNL     1     -21.610 -27.592 -20.534  1.00  0.00    -0.082 SA
HETATM   16  C10 UNL     1     -21.436 -28.195 -18.205  1.00  0.00    -0.040 A 
HETATM   17  C8  UNL     1     -21.411 -29.256 -20.263  1.00  0.00     0.075 A 
HETATM   18 CL1  UNL     1     -21.316 -30.580 -21.439  1.00  0.00    -0.076 Cl
HETATM   19  C9  UNL     1     -21.338 -29.353 -18.903  1.00  0.00     0.039 A 
HETATM   20  N4  UNL     1     -20.994 -26.778 -13.509  1.00  0.00    -0.299 N 
ATOM     21  H4  UNL     1     -20.947 -26.769 -12.490  1.00  0.00     0.177 HD
ENDBRANCH   3   5
TORSDOF 1
ENDMDL
MODEL 2
REMARK VINA RESULT: -7.225554680      4.384      6.045
REMARK  1 active torsions:
REMARK  status: ('A' for Active; 'I' for Inactive)
REMARK    1  A    between atoms: N2_3  and  C2_5 
ROOT
HETATM    1  N1  UNL     1     -18.410 -32.695 -11.006  1.00  0.00    -0.172 NA
HETATM    2  C1  UNL     1     -19.469 -32.577 -11.490  1.00  0.00     0.184 C 
HETATM    3  N2  UNL     1     -20.740 -32.420 -12.050  1.00  0.00    -0.265 N 
ATOM      4  H2  UNL     1     -21.564 -32.571 -11.467  1.00  0.00     0.181 HD
ENDROOT
BRANCH   3   5
HETATM    5  C2  UNL     1     -20.915 -32.048 -13.440  1.00  0.00     0.196 A 
HETATM    6  N3  UNL     1     -20.428 -30.998 -13.893  1.00  0.00    -0.341 N 
HETATM    7  C3  UNL     1     -20.615 -30.666 -15.245  1.00  0.00     0.105 A 
ATOM      8  H3  UNL     1     -19.893 -30.379 -13.283  1.00  0.00     0.164 HD
HETATM    9  C4  UNL     1     -19.357 -30.560 -16.061  1.00  0.00     0.045 C 
HETATM   10  C11 UNL     1     -21.532 -29.505 -15.363  1.00  0.00     0.084 C 
HETATM   11  S2  UNL     1     -21.614 -32.135 -15.733  1.00  0.00    -0.020 SA
HETATM   12  C5  UNL     1     -18.187 -30.066 -15.240  1.00  0.00     0.008 C 
HETATM   13  C6  UNL     1     -18.522 -28.796 -14.503  1.00  0.00     0.047 C 
HETATM   14  C7  UNL     1     -19.502 -27.956 -15.272  1.00  0.00    -0.009 A 
HETATM   15  S1  UNL     1     -19.232 -26.389 -15.884  1.00  0.00    -0.082 SA
HETATM   16  C10 UNL     1     -20.788 -28.218 -15.659  1.00  0.00    -0.040 A 
HETATM   17  C8  UNL     1     -20.740 -26.106 -16.609  1.00  0.00     0.075 A 
HETATM   18 CL1  UNL     1     -21.312 -24.677 -17.490  1.00  0.00    -0.076 Cl
HETATM   19  C9  UNL     1     -21.437 -27.254 -16.358  1.00  0.00     0.039 A 
HETATM   20  N4  UNL     1     -21.645 -32.877 -14.310  1.00  0.00    -0.299 N 
ATOM     21  H4  UNL     1     -22.098 -33.762 -14.085  1.00  0.00     0.177 HD
ENDBRANCH   3   5
TORSDOF 1
ENDMDL
MODEL 3
REMARK VINA RESULT: -7.209244630      4.105      5.879
REMARK  1 active torsions:
REMARK  status: ('A' for Active; 'I' for Inactive)
REMARK    1  A    between atoms: N2_3  and  C2_5 
ROOT
HETATM    1  N1  UNL     1     -19.649 -32.982 -17.675  1.00  0.00    -0.172 NA
HETATM    2  C1  UNL     1     -18.873 -32.421 -17.002  1.00  0.00     0.184 C 
HETATM    3  N2  UNL     1     -17.932 -31.748 -16.218  1.00  0.00    -0.265 N 
ATOM      4  H2  UNL     1     -16.958 -32.051 -16.237  1.00  0.00     0.181 HD
ENDROOT
BRANCH   3   5
HETATM    5  C2  UNL     1     -18.308 -30.627 -15.379  1.00  0.00     0.196 A 
HETATM    6  N3  UNL     1     -19.032 -29.713 -15.811  1.00  0.00    -0.341 N 
HETATM    7  C3  UNL     1     -19.379 -28.640 -14.972  1.00  0.00     0.105 A 
ATOM      8  H3  UNL     1     -19.373 -29.742 -16.771  1.00  0.00     0.164 HD
HETATM    9  C4  UNL     1     -20.850 -28.483 -14.704  1.00  0.00     0.045 C 
HETATM   10  C11 UNL     1     -18.692 -27.402 -15.416  1.00  0.00     0.084 C 
HETATM   11  S2  UNL     1     -18.475 -29.192 -13.464  1.00  0.00    -0.020 SA
HETATM   12  C5  UNL     1     -21.691 -28.919 -15.883  1.00  0.00     0.008 C 
HETATM   13  C6  UNL     1     -21.248 -28.255 -17.159  1.00  0.00     0.047 C 
HETATM   14  C7  UNL     1     -20.703 -26.879 -16.903  1.00  0.00    -0.009 A 
HETATM   15  S1  UNL     1     -21.337 -25.412 -17.495  1.00  0.00    -0.082 SA
HETATM   16  C10 UNL     1     -19.623 -26.472 -16.169  1.00  0.00    -0.040 A 
HETATM   17  C8  UNL     1     -20.228 -24.328 -16.804  1.00  0.00     0.075 A 
HETATM   18 CL1  UNL     1     -20.163 -22.560 -16.925  1.00  0.00    -0.076 Cl
HETATM   19  C9  UNL     1     -19.372 -25.141 -16.116  1.00  0.00     0.039 A 
HETATM   20  N4  UNL     1     -17.858 -30.553 -14.050  1.00  0.00    -0.299 N 
ATOM     21  H4  UNL     1     -17.264 -31.222 -13.561  1.00  0.00     0.177 HD
ENDBRANCH   3   5
TORSDOF 1
ENDMDL
MODEL 4
REMARK VINA RESULT: -7.183893907      3.914      5.403
REMARK  1 active torsions:
REMARK  status: ('A' for Active; 'I' for Inactive)
REMARK    1  A    between atoms: N2_3  and  C2_5 
ROOT
HETATM    1  N1  UNL     1     -21.303 -34.496 -12.793  1.00  0.00    -0.172 NA
HETATM    2  C1  UNL     1     -21.104 -33.346 -12.872  1.00  0.00     0.184 C 
HETATM    3  N2  UNL     1     -20.856 -31.972 -12.944  1.00  0.00    -0.265 N 
ATOM      4  H2  UNL     1     -21.175 -31.368 -12.187  1.00  0.00     0.181 HD
ENDROOT
BRANCH   3   5
HETATM    5  C2  UNL     1     -20.156 -31.387 -14.071  1.00  0.00     0.196 A 
HETATM    6  N3  UNL     1     -20.366 -30.212 -14.421  1.00  0.00    -0.341 N 
HETATM    7  C3  UNL     1     -19.671 -29.674 -15.516  1.00  0.00     0.105 A 
ATOM      8  H3  UNL     1     -21.042 -29.642 -13.913  1.00  0.00     0.164 HD
HETATM    9  C4  UNL     1     -18.794 -28.493 -15.204  1.00  0.00     0.045 C 
HETATM   10  C11 UNL     1     -20.594 -29.477 -16.661  1.00  0.00     0.084 C 
HETATM   11  S2  UNL     1     -18.670 -31.162 -15.941  1.00  0.00    -0.020 SA
HETATM   12  C5  UNL     1     -19.358 -27.648 -14.083  1.00  0.00     0.008 C 
HETATM   13  C6  UNL     1     -20.792 -27.269 -14.340  1.00  0.00     0.047 C 
HETATM   14  C7  UNL     1     -21.066 -27.115 -15.809  1.00  0.00    -0.009 A 
HETATM   15  S1  UNL     1     -21.557 -25.689 -16.604  1.00  0.00    -0.082 SA
HETATM   16  C10 UNL     1     -20.994 -28.024 -16.828  1.00  0.00    -0.040 A 
HETATM   17  C8  UNL     1     -21.657 -26.275 -18.194  1.00  0.00     0.075 A 
HETATM   18 CL1  UNL     1     -22.111 -25.418 -19.679  1.00  0.00    -0.076 Cl
HETATM   19  C9  UNL     1     -21.302 -27.589 -18.075  1.00  0.00     0.039 A 
HETATM   20  N4  UNL     1     -19.216 -32.142 -14.793  1.00  0.00    -0.299 N 
ATOM     21  H4  UNL     1     -18.940 -33.110 -14.625  1.00  0.00     0.177 HD
ENDBRANCH   3   5
TORSDOF 1
ENDMDL
MODEL 5
REMARK VINA RESULT: -7.101860307      3.008      4.051
REMARK  1 active torsions:
REMARK  status: ('A' for Active; 'I' for Inactive)
REMARK    1  A    between atoms: N2_3  and  C2_5 
ROOT
HETATM    1  N1  UNL     1     -23.651 -23.619 -13.612  1.00  0.00    -0.172 NA
HETATM    2  C1  UNL     1     -22.732 -23.141 -14.156  1.00  0.00     0.184 C 
HETATM    3  N2  UNL     1     -21.626 -22.562 -14.784  1.00  0.00    -0.265 N 
ATOM      4  H2  UNL     1     -21.439 -21.568 -14.646  1.00  0.00     0.181 HD
ENDROOT
BRANCH   3   5
HETATM    5  C2  UNL     1     -20.739 -23.340 -15.626  1.00  0.00     0.196 A 
HETATM    6  N3  UNL     1     -20.755 -24.583 -15.605  1.00  0.00    -0.341 N 
HETATM    7  C3  UNL     1     -19.883 -25.308 -16.434  1.00  0.00     0.105 A 
ATOM      8  H3  UNL     1     -21.401 -25.075 -14.988  1.00  0.00     0.164 HD
HETATM    9  C4  UNL     1     -20.549 -26.196 -17.448  1.00  0.00     0.045 C 
HETATM   10  C11 UNL     1     -18.837 -25.973 -15.617  1.00  0.00     0.084 C 
HETATM   11  S2  UNL     1     -19.045 -23.877 -17.238  1.00  0.00    -0.020 SA
HETATM   12  C5  UNL     1     -21.864 -26.748 -16.943  1.00  0.00     0.008 C 
HETATM   13  C6  UNL     1     -21.712 -27.400 -15.595  1.00  0.00     0.047 C 
HETATM   14  C7  UNL     1     -20.354 -28.021 -15.434  1.00  0.00    -0.009 A 
HETATM   15  S1  UNL     1     -20.018 -29.675 -15.198  1.00  0.00    -0.082 SA
HETATM   16  C10 UNL     1     -19.109 -27.454 -15.438  1.00  0.00    -0.040 A 
HETATM   17  C8  UNL     1     -18.324 -29.608 -15.111  1.00  0.00     0.075 A 
HETATM   18 CL1  UNL     1     -17.159 -30.924 -14.872  1.00  0.00    -0.076 Cl
HETATM   19  C9  UNL     1     -18.047 -28.280 -15.269  1.00  0.00     0.039 A 
HETATM   20  N4  UNL     1     -19.836 -22.697 -16.491  1.00  0.00    -0.299 N 
ATOM     21  H4  UNL     1     -19.710 -21.693 -16.616  1.00  0.00     0.177 HD
ENDBRANCH   3   5
TORSDOF 1
ENDMDL
