MODEL 1
REMARK VINA RESULT: -6.662424199      0.000      0.000
REMARK  7 active torsions:
REMARK  status: ('A' for Active; 'I' for Inactive)
REMARK    1  A    between atoms: O1_2  and  N1_3 
REMARK       I    between atoms: N1_3  and  C2_5 
REMARK    2  A    between atoms: C2_5  and  C3_7 
REMARK    3  A    between atoms: C8_12  and  N2_13 
REMARK       I    between atoms: N2_13  and  C9_14 
REMARK    4  A    between atoms: C9_14  and  C10_16 
REMARK    5  A    between atoms: C11_17  and  C12_18 
REMARK    6  A    between atoms: C11_17  and  C13_21 
REMARK    7  A    between atoms: C13_21  and  C15_23 
ROOT
HETATM    1  N2  UNL     1     -35.823 -45.455  12.548  1.00  0.00    -0.366 NA
HETATM    2  C9  UNL     1     -36.984 -45.354  13.182  1.00  0.00     0.317 C 
HETATM    3  O3  UNL     1     -38.094 -45.712  12.621  1.00  0.00    -0.252 OA
ENDROOT
BRANCH   1   4
HETATM    4  C8  UNL     1     -34.612 -45.560  11.882  1.00  0.00     0.127 A 
HETATM    5  C3  UNL     1     -34.395 -46.441  10.824  1.00  0.00     0.074 A 
HETATM    6  C4  UNL     1     -33.268 -46.349  10.012  1.00  0.00     0.020 A 
HETATM    7  C5  UNL     1     -32.323 -45.351  10.261  1.00  0.00     0.001 A 
HETATM    8  C6  UNL     1     -32.493 -44.474  11.284  1.00  0.00     0.003 A 
HETATM    9  C7  UNL     1     -33.611 -44.569  12.078  1.00  0.00     0.046 A 
BRANCH   5  10
HETATM   10  C2  UNL     1     -35.267 -47.574  10.600  1.00  0.00     0.278 C 
HETATM   11  N1  UNL     1     -36.015 -47.771   9.410  1.00  0.00    -0.231 N 
ATOM     12  H1  UNL     1     -35.962 -47.086   8.656  1.00  0.00     0.197 HD
HETATM   13  O2  UNL     1     -35.392 -48.443  11.491  1.00  0.00    -0.265 OA
BRANCH  11  14
HETATM   14  O1  UNL     1     -36.802 -48.872   9.272  1.00  0.00    -0.282 OA
HETATM   15  C1  UNL     1     -36.891 -49.256   7.934  1.00  0.00     0.237 C 
ENDBRANCH  11  14
ENDBRANCH   5  10
ENDBRANCH   1   4
BRANCH   2  16
HETATM   16  C10 UNL     1     -37.156 -44.874  14.543  1.00  0.00     0.105 C 
HETATM   17  C11 UNL     1     -38.096 -44.174  15.037  1.00  0.00     0.039 C 
BRANCH  17  18
HETATM   18  C12 UNL     1     -39.283 -43.597  14.475  1.00  0.00     0.206 C 
HETATM   19  O4  UNL     1     -39.128 -42.488  13.739  1.00  0.00    -0.644 OA
HETATM   20  O5  UNL     1     -40.582 -43.957  14.541  1.00  0.00    -0.644 OA
ENDBRANCH  17  18
BRANCH  17  21
HETATM   21  C13 UNL     1     -38.033 -43.983  16.581  1.00  0.00     0.122 C 
HETATM   22  C14 UNL     1     -39.123 -44.806  17.209  1.00  0.00     0.026 C 
BRANCH  21  23
HETATM   23  C15 UNL     1     -38.444 -42.555  16.856  1.00  0.00     0.181 C 
HETATM   24  O6  UNL     1     -37.594 -41.669  16.599  1.00  0.00    -0.647 OA
HETATM   25  O7  UNL     1     -39.661 -42.274  17.352  1.00  0.00    -0.647 OA
ENDBRANCH  21  23
ENDBRANCH  17  21
ENDBRANCH   2  16
TORSDOF 7
ENDMDL
MODEL 2
REMARK VINA RESULT: -6.584272872      6.001      8.749
REMARK  7 active torsions:
REMARK  status: ('A' for Active; 'I' for Inactive)
REMARK    1  A    between atoms: O1_2  and  N1_3 
REMARK       I    between atoms: N1_3  and  C2_5 
REMARK    2  A    between atoms: C2_5  and  C3_7 
REMARK    3  A    between atoms: C8_12  and  N2_13 
REMARK       I    between atoms: N2_13  and  C9_14 
REMARK    4  A    between atoms: C9_14  and  C10_16 
REMARK    5  A    between atoms: C11_17  and  C12_18 
REMARK    6  A    between atoms: C11_17  and  C13_21 
REMARK    7  A    between atoms: C13_21  and  C15_23 
ROOT
HETATM    1  N2  UNL     1     -36.685 -39.931  17.599  1.00  0.00    -0.366 NA
HETATM    2  C9  UNL     1     -37.617 -40.664  18.194  1.00  0.00     0.317 C 
HETATM    3  O3  UNL     1     -38.252 -40.234  19.236  1.00  0.00    -0.252 OA
ENDROOT
BRANCH   1   4
HETATM    4  C8  UNL     1     -35.711 -39.162  16.980  1.00  0.00     0.127 A 
HETATM    5  C3  UNL     1     -34.495 -38.840  17.581  1.00  0.00     0.074 A 
HETATM    6  C4  UNL     1     -33.441 -38.294  16.854  1.00  0.00     0.020 A 
HETATM    7  C5  UNL     1     -33.600 -38.056  15.487  1.00  0.00     0.001 A 
HETATM    8  C6  UNL     1     -34.770 -38.352  14.863  1.00  0.00     0.003 A 
HETATM    9  C7  UNL     1     -35.805 -38.895  15.586  1.00  0.00     0.046 A 
BRANCH   5  10
HETATM   10  C2  UNL     1     -34.317 -38.938  19.013  1.00  0.00     0.278 C 
HETATM   11  N1  UNL     1     -34.946 -39.922  19.821  1.00  0.00    -0.231 N 
ATOM     12  H1  UNL     1     -35.574 -40.604  19.396  1.00  0.00     0.197 HD
HETATM   13  O2  UNL     1     -33.575 -38.122  19.600  1.00  0.00    -0.265 OA
BRANCH  11  14
HETATM   14  O1  UNL     1     -34.714 -39.955  21.160  1.00  0.00    -0.282 OA
HETATM   15  C1  UNL     1     -35.897 -39.765  21.875  1.00  0.00     0.237 C 
ENDBRANCH  11  14
ENDBRANCH   5  10
ENDBRANCH   1   4
BRANCH   2  16
HETATM   16  C10 UNL     1     -38.050 -41.981  17.760  1.00  0.00     0.105 C 
HETATM   17  C11 UNL     1     -37.863 -43.113  18.309  1.00  0.00     0.039 C 
BRANCH  17  18
HETATM   18  C12 UNL     1     -37.172 -43.518  19.500  1.00  0.00     0.206 C 
HETATM   19  O4  UNL     1     -37.553 -44.675  20.059  1.00  0.00    -0.644 OA
HETATM   20  O5  UNL     1     -36.173 -42.946  20.204  1.00  0.00    -0.644 OA
ENDBRANCH  17  18
BRANCH  17  21
HETATM   21  C13 UNL     1     -38.615 -44.302  17.643  1.00  0.00     0.122 C 
HETATM   22  C14 UNL     1     -38.045 -44.516  16.267  1.00  0.00     0.026 C 
BRANCH  21  23
HETATM   23  C15 UNL     1     -40.028 -43.831  17.387  1.00  0.00     0.181 C 
HETATM   24  O6  UNL     1     -40.330 -43.593  16.193  1.00  0.00    -0.647 OA
HETATM   25  O7  UNL     1     -40.896 -43.683  18.401  1.00  0.00    -0.647 OA
ENDBRANCH  21  23
ENDBRANCH  17  21
ENDBRANCH   2  16
TORSDOF 7
ENDMDL
MODEL 3
REMARK VINA RESULT: -6.459869353      4.831      8.304
REMARK  7 active torsions:
REMARK  status: ('A' for Active; 'I' for Inactive)
REMARK    1  A    between atoms: O1_2  and  N1_3 
REMARK       I    between atoms: N1_3  and  C2_5 
REMARK    2  A    between atoms: C2_5  and  C3_7 
REMARK    3  A    between atoms: C8_12  and  N2_13 
REMARK       I    between atoms: N2_13  and  C9_14 
REMARK    4  A    between atoms: C9_14  and  C10_16 
REMARK    5  A    between atoms: C11_17  and  C12_18 
REMARK    6  A    between atoms: C11_17  and  C13_21 
REMARK    7  A    between atoms: C13_21  and  C15_23 
ROOT
HETATM    1  N2  UNL     1     -36.803 -40.446  17.156  1.00  0.00    -0.366 NA
HETATM    2  C9  UNL     1     -37.792 -41.313  17.329  1.00  0.00     0.317 C 
HETATM    3  O3  UNL     1     -38.639 -41.189  18.299  1.00  0.00    -0.252 OA
ENDROOT
BRANCH   1   4
HETATM    4  C8  UNL     1     -35.770 -39.538  16.980  1.00  0.00     0.127 A 
HETATM    5  C3  UNL     1     -34.836 -39.240  17.971  1.00  0.00     0.074 A 
HETATM    6  C4  UNL     1     -33.672 -38.531  17.691  1.00  0.00     0.020 A 
HETATM    7  C5  UNL     1     -33.428 -38.100  16.386  1.00  0.00     0.001 A 
HETATM    8  C6  UNL     1     -34.314 -38.365  15.391  1.00  0.00     0.003 A 
HETATM    9  C7  UNL     1     -35.460 -39.070  15.674  1.00  0.00     0.046 A 
BRANCH   5  10
HETATM   10  C2  UNL     1     -35.096 -39.543  19.362  1.00  0.00     0.278 C 
HETATM   11  N1  UNL     1     -35.667 -40.763  19.811  1.00  0.00    -0.231 N 
ATOM     12  H1  UNL     1     -35.928 -41.482  19.136  1.00  0.00     0.197 HD
HETATM   13  O2  UNL     1     -34.816 -38.699  20.240  1.00  0.00    -0.265 OA
BRANCH  11  14
HETATM   14  O1  UNL     1     -35.865 -40.976  21.139  1.00  0.00    -0.282 OA
HETATM   15  C1  UNL     1     -36.805 -41.986  21.347  1.00  0.00     0.237 C 
ENDBRANCH  11  14
ENDBRANCH   5  10
ENDBRANCH   1   4
BRANCH   2  16
HETATM   16  C10 UNL     1     -38.062 -42.456  16.473  1.00  0.00     0.105 C 
HETATM   17  C11 UNL     1     -38.084 -43.694  16.765  1.00  0.00     0.039 C 
BRANCH  17  18
HETATM   18  C12 UNL     1     -37.845 -44.414  17.982  1.00  0.00     0.206 C 
HETATM   19  O4  UNL     1     -38.852 -45.165  18.451  1.00  0.00    -0.644 OA
HETATM   20  O5  UNL     1     -36.766 -44.494  18.790  1.00  0.00    -0.644 OA
ENDBRANCH  17  18
BRANCH  17  21
HETATM   21  C13 UNL     1     -38.573 -44.631  15.623  1.00  0.00     0.122 C 
HETATM   22  C14 UNL     1     -37.415 -44.910  14.705  1.00  0.00     0.026 C 
BRANCH  21  23
HETATM   23  C15 UNL     1     -39.528 -43.821  14.776  1.00  0.00     0.181 C 
HETATM   24  O6  UNL     1     -39.164 -43.578  13.601  1.00  0.00    -0.647 OA
HETATM   25  O7  UNL     1     -40.698 -43.394  15.280  1.00  0.00    -0.647 OA
ENDBRANCH  21  23
ENDBRANCH  17  21
ENDBRANCH   2  16
TORSDOF 7
ENDMDL
MODEL 4
REMARK VINA RESULT: -6.408042190      6.206      8.667
REMARK  7 active torsions:
REMARK  status: ('A' for Active; 'I' for Inactive)
REMARK    1  A    between atoms: O1_2  and  N1_3 
REMARK       I    between atoms: N1_3  and  C2_5 
REMARK    2  A    between atoms: C2_5  and  C3_7 
REMARK    3  A    between atoms: C8_12  and  N2_13 
REMARK       I    between atoms: N2_13  and  C9_14 
REMARK    4  A    between atoms: C9_14  and  C10_16 
REMARK    5  A    between atoms: C11_17  and  C12_18 
REMARK    6  A    between atoms: C11_17  and  C13_21 
REMARK    7  A    between atoms: C13_21  and  C15_23 
ROOT
HETATM    1  N2  UNL     1     -37.722 -40.806  18.212  1.00  0.00    -0.366 NA
HETATM    2  C9  UNL     1     -38.793 -41.522  18.529  1.00  0.00     0.317 C 
HETATM    3  O3  UNL     1     -39.984 -41.018  18.477  1.00  0.00    -0.252 OA
ENDROOT
BRANCH   1   4
HETATM    4  C8  UNL     1     -36.606 -40.054  17.880  1.00  0.00     0.127 A 
HETATM    5  C3  UNL     1     -35.566 -39.794  18.772  1.00  0.00     0.074 A 
HETATM    6  C4  UNL     1     -34.351 -39.264  18.347  1.00  0.00     0.020 A 
HETATM    7  C5  UNL     1     -34.163 -38.979  16.994  1.00  0.00     0.001 A 
HETATM    8  C6  UNL     1     -35.151 -39.213  16.091  1.00  0.00     0.003 A 
HETATM    9  C7  UNL     1     -36.347 -39.741  16.517  1.00  0.00     0.046 A 
BRANCH   5  10
HETATM   10  C2  UNL     1     -35.748 -39.943  20.200  1.00  0.00     0.278 C 
HETATM   11  N1  UNL     1     -35.985 -41.188  20.840  1.00  0.00    -0.231 N 
ATOM     12  H1  UNL     1     -36.045 -42.042  20.285  1.00  0.00     0.197 HD
HETATM   13  O2  UNL     1     -35.704 -38.934  20.936  1.00  0.00    -0.265 OA
BRANCH  11  14
HETATM   14  O1  UNL     1     -36.130 -41.245  22.190  1.00  0.00    -0.282 OA
HETATM   15  C1  UNL     1     -37.247 -42.004  22.539  1.00  0.00     0.237 C 
ENDBRANCH  11  14
ENDBRANCH   5  10
ENDBRANCH   1   4
BRANCH   2  16
HETATM   16  C10 UNL     1     -38.777 -42.917  18.936  1.00  0.00     0.105 C 
HETATM   17  C11 UNL     1     -38.900 -43.964  18.226  1.00  0.00     0.039 C 
BRANCH  17  18
HETATM   18  C12 UNL     1     -39.109 -44.174  16.822  1.00  0.00     0.206 C 
HETATM   19  O4  UNL     1     -40.169 -43.569  16.269  1.00  0.00    -0.644 OA
HETATM   20  O5  UNL     1     -38.426 -44.888  15.902  1.00  0.00    -0.644 OA
ENDBRANCH  17  18
BRANCH  17  21
HETATM   21  C13 UNL     1     -38.670 -45.305  18.984  1.00  0.00     0.122 C 
HETATM   22  C14 UNL     1     -39.732 -45.445  20.039  1.00  0.00     0.026 C 
BRANCH  21  23
HETATM   23  C15 UNL     1     -37.389 -45.143  19.769  1.00  0.00     0.181 C 
HETATM   24  O6  UNL     1     -37.484 -45.230  21.017  1.00  0.00    -0.647 OA
HETATM   25  O7  UNL     1     -36.222 -44.919  19.141  1.00  0.00    -0.647 OA
ENDBRANCH  21  23
ENDBRANCH  17  21
ENDBRANCH   2  16
TORSDOF 7
ENDMDL
MODEL 5
REMARK VINA RESULT: -6.361567212      6.040      8.541
REMARK  7 active torsions:
REMARK  status: ('A' for Active; 'I' for Inactive)
REMARK    1  A    between atoms: O1_2  and  N1_3 
REMARK       I    between atoms: N1_3  and  C2_5 
REMARK    2  A    between atoms: C2_5  and  C3_7 
REMARK    3  A    between atoms: C8_12  and  N2_13 
REMARK       I    between atoms: N2_13  and  C9_14 
REMARK    4  A    between atoms: C9_14  and  C10_16 
REMARK    5  A    between atoms: C11_17  and  C12_18 
REMARK    6  A    between atoms: C11_17  and  C13_21 
REMARK    7  A    between atoms: C13_21  and  C15_23 
ROOT
HETATM    1  N2  UNL     1     -40.525 -43.686  18.334  1.00  0.00    -0.366 NA
HETATM    2  C9  UNL     1     -41.374 -43.615  19.351  1.00  0.00     0.317 C 
HETATM    3  O3  UNL     1     -41.702 -42.481  19.881  1.00  0.00    -0.252 OA
ENDROOT
BRANCH   1   4
HETATM    4  C8  UNL     1     -39.637 -43.756  17.272  1.00  0.00     0.127 A 
HETATM    5  C3  UNL     1     -38.350 -44.279  17.384  1.00  0.00     0.074 A 
HETATM    6  C4  UNL     1     -37.578 -44.574  16.263  1.00  0.00     0.020 A 
HETATM    7  C5  UNL     1     -38.099 -44.337  14.990  1.00  0.00     0.001 A 
HETATM    8  C6  UNL     1     -39.347 -43.824  14.835  1.00  0.00     0.003 A 
HETATM    9  C7  UNL     1     -40.105 -43.540  15.946  1.00  0.00     0.046 A 
BRANCH   5  10
HETATM   10  C2  UNL     1     -37.707 -44.420  18.673  1.00  0.00     0.278 C 
HETATM   11  N1  UNL     1     -37.789 -45.591  19.472  1.00  0.00    -0.231 N 
ATOM     12  H1  UNL     1     -38.334 -46.391  19.149  1.00  0.00     0.197 HD
HETATM   13  O2  UNL     1     -37.038 -43.472  19.136  1.00  0.00    -0.265 OA
BRANCH  11  14
HETATM   14  O1  UNL     1     -37.143 -45.648  20.667  1.00  0.00    -0.282 OA
HETATM   15  C1  UNL     1     -35.992 -46.430  20.573  1.00  0.00     0.237 C 
ENDBRANCH  11  14
ENDBRANCH   5  10
ENDBRANCH   1   4
BRANCH   2  16
HETATM   16  C10 UNL     1     -42.042 -44.751  19.964  1.00  0.00     0.105 C 
HETATM   17  C11 UNL     1     -41.693 -45.442  20.973  1.00  0.00     0.039 C 
BRANCH  17  18
HETATM   18  C12 UNL     1     -40.555 -45.391  21.845  1.00  0.00     0.206 C 
HETATM   19  O4  UNL     1     -40.052 -46.563  22.257  1.00  0.00    -0.644 OA
HETATM   20  O5  UNL     1     -39.856 -44.358  22.361  1.00  0.00    -0.644 OA
ENDBRANCH  17  18
BRANCH  17  21
HETATM   21  C13 UNL     1     -42.742 -46.489  21.449  1.00  0.00     0.122 C 
HETATM   22  C14 UNL     1     -43.204 -47.279  20.256  1.00  0.00     0.026 C 
BRANCH  21  23
HETATM   23  C15 UNL     1     -43.967 -45.711  21.873  1.00  0.00     0.181 C 
HETATM   24  O6  UNL     1     -45.025 -45.948  21.241  1.00  0.00    -0.647 OA
HETATM   25  O7  UNL     1     -43.901 -44.819  22.875  1.00  0.00    -0.647 OA
ENDBRANCH  21  23
ENDBRANCH  17  21
ENDBRANCH   2  16
TORSDOF 7
ENDMDL
