MODEL 1
REMARK VINA RESULT: -3.453195100      0.000      0.000
REMARK  2 active torsions:
REMARK  status: ('A' for Active; 'I' for Inactive)
REMARK    1  A    between atoms: C2_2  and  S1_3 
REMARK    2  A    between atoms: S1_3  and  C3_4 
ROOT
HETATM    1  C3  UNL     1      34.105  41.342  22.431  1.00  0.00     0.155 C 
HETATM    2  C4  UNL     1      34.980  41.419  23.692  1.00  0.00     0.118 C 
HETATM    3  S2  UNL     1      34.973  39.607  24.053  1.00  0.00    -0.092 SA
HETATM    4  C5  UNL     1      33.434  39.249  23.185  1.00  0.00     0.134 C 
HETATM    5  N1  UNL     1      32.922  38.100  23.025  1.00  0.00    -0.380 N 
ATOM      6  H11 UNL     1      32.051  37.898  22.534  1.00  0.00     0.158 HD
ATOM      7  H12 UNL     1      33.253  37.186  23.332  1.00  0.00     0.158 HD
HETATM    8  N2  UNL     1      32.973  40.522  22.757  1.00  0.00    -0.357 N 
ATOM      9  H2  UNL     1      31.996  40.807  22.692  1.00  0.00     0.162 HD
ENDROOT
BRANCH   1  10
HETATM   10  S1  UNL     1      33.691  42.938  21.764  1.00  0.00    -0.143 SA
BRANCH  10  11
HETATM   11  C2  UNL     1      31.943  43.282  22.119  1.00  0.00     0.071 C 
HETATM   12  C1  UNL     1      31.786  44.545  22.946  1.00  0.00     0.016 C 
ENDBRANCH  10  11
ENDBRANCH   1  10
TORSDOF 2
ENDMDL
MODEL 2
REMARK VINA RESULT: -3.183653915      8.110      9.457
REMARK  2 active torsions:
REMARK  status: ('A' for Active; 'I' for Inactive)
REMARK    1  A    between atoms: C2_2  and  S1_3 
REMARK    2  A    between atoms: S1_3  and  C3_4 
ROOT
HETATM    1  C3  UNL     1      29.620  35.019  18.240  1.00  0.00     0.155 C 
HETATM    2  C4  UNL     1      29.917  34.848  16.742  1.00  0.00     0.118 C 
HETATM    3  S2  UNL     1      30.252  36.632  16.398  1.00  0.00    -0.092 SA
HETATM    4  C5  UNL     1      29.292  37.273  17.782  1.00  0.00     0.134 C 
HETATM    5  N1  UNL     1      29.195  38.493  18.117  1.00  0.00    -0.380 N 
ATOM      6  H11 UNL     1      28.652  38.856  18.900  1.00  0.00     0.158 HD
ATOM      7  H12 UNL     1      29.617  39.322  17.701  1.00  0.00     0.158 HD
HETATM    8  N2  UNL     1      28.705  36.118  18.362  1.00  0.00    -0.357 N 
ATOM      9  H2  UNL     1      27.782  36.076  18.795  1.00  0.00     0.162 HD
ENDROOT
BRANCH   1  10
HETATM   10  S1  UNL     1      29.077  33.519  19.025  1.00  0.00    -0.143 SA
BRANCH  10  11
HETATM   11  C2  UNL     1      28.396  33.929  20.659  1.00  0.00     0.071 C 
HETATM   12  C1  UNL     1      28.218  32.685  21.510  1.00  0.00     0.016 C 
ENDBRANCH  10  11
ENDBRANCH   1  10
TORSDOF 2
ENDMDL
MODEL 3
REMARK VINA RESULT: -3.172410401      8.992     10.070
REMARK  2 active torsions:
REMARK  status: ('A' for Active; 'I' for Inactive)
REMARK    1  A    between atoms: C2_2  and  S1_3 
REMARK    2  A    between atoms: S1_3  and  C3_4 
ROOT
HETATM    1  C3  UNL     1      28.993  33.456  19.881  1.00  0.00     0.155 C 
HETATM    2  C4  UNL     1      28.860  32.610  18.605  1.00  0.00     0.118 C 
HETATM    3  S2  UNL     1      29.628  33.843  17.463  1.00  0.00    -0.092 SA
HETATM    4  C5  UNL     1      29.264  35.288  18.477  1.00  0.00     0.134 C 
HETATM    5  N1  UNL     1      29.623  36.479  18.229  1.00  0.00    -0.380 N 
ATOM      6  H11 UNL     1      29.417  37.296  18.803  1.00  0.00     0.158 HD
ATOM      7  H12 UNL     1      30.164  36.851  17.449  1.00  0.00     0.158 HD
HETATM    8  N2  UNL     1      28.510  34.769  19.563  1.00  0.00    -0.357 N 
ATOM      9  H2  UNL     1      27.748  35.252  20.040  1.00  0.00     0.162 HD
ENDROOT
BRANCH   1  10
HETATM   10  S1  UNL     1      28.225  32.712  21.301  1.00  0.00    -0.143 SA
BRANCH  10  11
HETATM   11  C2  UNL     1      26.485  33.234  21.363  1.00  0.00     0.071 C 
HETATM   12  C1  UNL     1      26.091  33.675  22.761  1.00  0.00     0.016 C 
ENDBRANCH  10  11
ENDBRANCH   1  10
TORSDOF 2
ENDMDL
MODEL 4
REMARK VINA RESULT: -3.146766315      8.194      9.428
REMARK  2 active torsions:
REMARK  status: ('A' for Active; 'I' for Inactive)
REMARK    1  A    between atoms: C2_2  and  S1_3 
REMARK    2  A    between atoms: S1_3  and  C3_4 
ROOT
HETATM    1  C3  UNL     1      29.063  35.242  17.957  1.00  0.00     0.155 C 
HETATM    2  C4  UNL     1      28.931  36.459  18.886  1.00  0.00     0.118 C 
HETATM    3  S2  UNL     1      29.264  37.736  17.593  1.00  0.00    -0.092 SA
HETATM    4  C5  UNL     1      30.187  36.651  16.491  1.00  0.00     0.134 C 
HETATM    5  N1  UNL     1      30.642  36.964  15.349  1.00  0.00    -0.380 N 
ATOM      6  H11 UNL     1      31.164  36.349  14.724  1.00  0.00     0.158 HD
ATOM      7  H12 UNL     1      30.584  37.845  14.839  1.00  0.00     0.158 HD
HETATM    8  N2  UNL     1      30.269  35.423  17.200  1.00  0.00    -0.357 N 
ATOM      9  H2  UNL     1      31.056  34.775  17.175  1.00  0.00     0.162 HD
ENDROOT
BRANCH   1  10
HETATM   10  S1  UNL     1      28.959  33.688  18.815  1.00  0.00    -0.143 SA
BRANCH  10  11
HETATM   11  C2  UNL     1      28.772  34.014  20.592  1.00  0.00     0.071 C 
HETATM   12  C1  UNL     1      27.611  33.231  21.178  1.00  0.00     0.016 C 
ENDBRANCH  10  11
ENDBRANCH   1  10
TORSDOF 2
ENDMDL
MODEL 5
REMARK VINA RESULT: -3.146376615      8.171      9.051
REMARK  2 active torsions:
REMARK  status: ('A' for Active; 'I' for Inactive)
REMARK    1  A    between atoms: C2_2  and  S1_3 
REMARK    2  A    between atoms: S1_3  and  C3_4 
ROOT
HETATM    1  C3  UNL     1      28.872  34.295  18.778  1.00  0.00     0.155 C 
HETATM    2  C4  UNL     1      29.613  32.986  18.462  1.00  0.00     0.118 C 
HETATM    3  S2  UNL     1      28.683  31.932  19.661  1.00  0.00    -0.092 SA
HETATM    4  C5  UNL     1      28.199  33.279  20.756  1.00  0.00     0.134 C 
HETATM    5  N1  UNL     1      27.452  33.175  21.777  1.00  0.00    -0.380 N 
ATOM      6  H11 UNL     1      27.178  33.937  22.397  1.00  0.00     0.158 HD
ATOM      7  H12 UNL     1      26.992  32.355  22.171  1.00  0.00     0.158 HD
HETATM    8  N2  UNL     1      28.839  34.422  20.207  1.00  0.00    -0.357 N 
ATOM      9  H2  UNL     1      29.215  35.205  20.742  1.00  0.00     0.162 HD
ENDROOT
BRANCH   1  10
HETATM   10  S1  UNL     1      29.544  35.706  17.929  1.00  0.00    -0.143 SA
BRANCH  10  11
HETATM   11  C2  UNL     1      28.732  37.205  18.558  1.00  0.00     0.071 C 
HETATM   12  C1  UNL     1      29.084  38.417  17.716  1.00  0.00     0.016 C 
ENDBRANCH  10  11
ENDBRANCH   1  10
TORSDOF 2
ENDMDL
