MODEL 1
REMARK VINA RESULT: -8.036564011      0.000      0.000
REMARK  16 active torsions:
REMARK  status: ('A' for Active; 'I' for Inactive)
REMARK    1  A    between atoms: O1_2  and  C2_3 
REMARK       I    between atoms: C2_3  and  N1_5 
REMARK    2  A    between atoms: N1_5  and  N2_7 
REMARK       I    between atoms: N2_7  and  C3_9 
REMARK    3  A    between atoms: C3_9  and  C4_11 
REMARK    4  A    between atoms: C4_11  and  O5_13 
REMARK    5  A    between atoms: O5_13  and  C5_14 
REMARK    6  A    between atoms: C5_14  and  C6_15 
REMARK    7  A    between atoms: C6_15  and  C7_17 
REMARK    8  A    between atoms: C8_18  and  N3_19 
REMARK    9  A    between atoms: N3_19  and  N4_21 
REMARK   10  A    between atoms: N4_21  and  N5_22 
REMARK   11  A    between atoms: C11_31  and  N9_32 
REMARK   12  A    between atoms: C12_35  and  N10_36 
REMARK   13  A    between atoms: N10_36  and  C13_38 
REMARK   14  A    between atoms: C15_40  and  O7_41 
REMARK   15  A    between atoms: C15_40  and  C16_43 
REMARK   16  A    between atoms: C16_43  and  O8_44 
ROOT
HETATM    1  C7  UNL     1     -27.535 -11.412  -6.314  1.00  0.00     0.072 C 
HETATM    2  C8  UNL     1     -26.364 -10.792  -5.907  1.00  0.00     0.090 C 
HETATM    3  C9  UNL     1     -25.093 -11.345  -5.673  1.00  0.00     0.116 C 
HETATM    4  N6  UNL     1     -23.997 -10.472  -5.564  1.00  0.00    -0.096 NA
HETATM    5  C10 UNL     1     -24.776 -12.670  -5.534  1.00  0.00     0.144 C 
HETATM    6  N7  UNL     1     -23.442 -13.006  -5.108  1.00  0.00    -0.081 NA
HETATM    7  N8  UNL     1     -25.563 -13.764  -5.746  1.00  0.00    -0.328 N 
ATOM      8  H8  UNL     1     -25.104 -14.665  -5.617  1.00  0.00     0.168 HD
HETATM    9  C11 UNL     1     -26.858 -13.823  -6.101  1.00  0.00     0.128 C 
HETATM   10  C12 UNL     1     -27.763 -12.758  -6.087  1.00  0.00     0.089 C 
ENDROOT
BRANCH   1  11
HETATM   11  C6  UNL     1     -28.498 -10.604  -6.991  1.00  0.00     0.188 C 
HETATM   12  O6  UNL     1     -28.308 -10.444  -8.251  1.00  0.00    -0.290 OA
BRANCH  11  13
HETATM   13  C5  UNL     1     -29.683  -9.923  -6.470  1.00  0.00     0.263 C 
BRANCH  13  14
HETATM   14  O5  UNL     1     -30.760 -10.846  -6.221  1.00  0.00    -0.306 OA
BRANCH  14  15
HETATM   15  C4  UNL     1     -32.037 -10.488  -5.915  1.00  0.00     0.353 C 
HETATM   16  O4  UNL     1     -32.828 -11.339  -5.441  1.00  0.00    -0.254 OA
BRANCH  15  17
HETATM   17  C3  UNL     1     -32.562  -9.127  -6.110  1.00  0.00     0.335 C 
HETATM   18  N2  UNL     1     -32.262  -8.075  -5.214  1.00  0.00    -0.257 N 
ATOM     19  H2  UNL     1     -31.667  -8.253  -4.404  1.00  0.00     0.190 HD
HETATM   20  O3  UNL     1     -33.299  -8.898  -7.109  1.00  0.00    -0.260 OA
BRANCH  18  21
HETATM   21  N1  UNL     1     -32.774  -6.798  -5.427  1.00  0.00    -0.242 N 
HETATM   22  C2  UNL     1     -33.919  -6.378  -4.712  1.00  0.00     0.379 C 
HETATM   23  O2  UNL     1     -34.454  -7.164  -3.899  1.00  0.00    -0.237 OA
ATOM     24  H1  UNL     1     -32.326  -6.170  -6.095  1.00  0.00     0.192 HD
BRANCH  22  25
HETATM   25  O1  UNL     1     -34.496  -5.129  -4.861  1.00  0.00    -0.308 OA
HETATM   26  C1  UNL     1     -33.715  -3.976  -5.174  1.00  0.00     0.215 C 
ENDBRANCH  22  25
ENDBRANCH  18  21
ENDBRANCH  15  17
ENDBRANCH  14  15
ENDBRANCH  13  14
ENDBRANCH  11  13
ENDBRANCH   1  11
BRANCH   2  27
HETATM   27  N3  UNL     1     -26.382  -9.419  -5.687  1.00  0.00    -0.282 N 
ATOM     28  H3  UNL     1     -26.059  -8.785  -6.418  1.00  0.00     0.184 HD
BRANCH  27  29
HETATM   29  N4  UNL     1     -26.836  -8.900  -4.477  1.00  0.00    -0.029 NA
BRANCH  29  30
HETATM   30  N5  UNL     1     -26.723  -7.522  -4.422  1.00  0.00    -0.329 N 
ATOM     31  H52 UNL     1     -25.879  -7.021  -4.702  1.00  0.00     0.174 HD
ATOM     32  H51 UNL     1     -27.574  -7.079  -4.074  1.00  0.00     0.174 HD
ENDBRANCH  29  30
ENDBRANCH  27  29
ENDBRANCH   2  27
BRANCH  10  33
HETATM   33  N10 UNL     1     -29.080 -13.118  -5.809  1.00  0.00    -0.372 N 
ATOM     34  H10 UNL     1     -29.786 -12.902  -6.512  1.00  0.00     0.161 HD
BRANCH  33  35
HETATM   35  C13 UNL     1     -29.522 -13.776  -4.599  1.00  0.00     0.150 C 
HETATM   36  C14 UNL     1     -30.313 -12.961  -3.625  1.00  0.00     0.087 C 
HETATM   37  C15 UNL     1     -31.439 -13.942  -3.273  1.00  0.00     0.131 C 
HETATM   38  S1  UNL     1     -30.971 -14.853  -4.774  1.00  0.00    -0.104 SA
BRANCH  37  39
HETATM   39  O7  UNL     1     -32.713 -13.413  -3.336  1.00  0.00    -0.377 OA
ATOM     40  H7  UNL     1     -33.309 -13.871  -3.917  1.00  0.00     0.211 HD
ENDBRANCH  37  39
BRANCH  37  41
HETATM   41  C16 UNL     1     -31.195 -14.692  -1.994  1.00  0.00     0.213 C 
BRANCH  41  42
HETATM   42  O8  UNL     1     -32.184 -14.381  -1.063  1.00  0.00    -0.397 OA
ATOM     43  H8  UNL     1     -32.535 -15.178  -0.683  1.00  0.00     0.209 HD
ENDBRANCH  41  42
ENDBRANCH  37  41
ENDBRANCH  33  35
ENDBRANCH  10  33
BRANCH   9  44
HETATM   44  N9  UNL     1     -27.334 -14.971  -6.500  1.00  0.00    -0.384 N 
ATOM     45  H92 UNL     1     -26.878 -15.800  -6.117  1.00  0.00     0.157 HD
ATOM     46  H91 UNL     1     -28.117 -14.965  -7.153  1.00  0.00     0.157 HD
ENDBRANCH   9  44
TORSDOF 16
ENDMDL
MODEL 2
REMARK VINA RESULT: -8.016349331      3.040      6.718
REMARK  16 active torsions:
REMARK  status: ('A' for Active; 'I' for Inactive)
REMARK    1  A    between atoms: O1_2  and  C2_3 
REMARK       I    between atoms: C2_3  and  N1_5 
REMARK    2  A    between atoms: N1_5  and  N2_7 
REMARK       I    between atoms: N2_7  and  C3_9 
REMARK    3  A    between atoms: C3_9  and  C4_11 
REMARK    4  A    between atoms: C4_11  and  O5_13 
REMARK    5  A    between atoms: O5_13  and  C5_14 
REMARK    6  A    between atoms: C5_14  and  C6_15 
REMARK    7  A    between atoms: C6_15  and  C7_17 
REMARK    8  A    between atoms: C8_18  and  N3_19 
REMARK    9  A    between atoms: N3_19  and  N4_21 
REMARK   10  A    between atoms: N4_21  and  N5_22 
REMARK   11  A    between atoms: C11_31  and  N9_32 
REMARK   12  A    between atoms: C12_35  and  N10_36 
REMARK   13  A    between atoms: N10_36  and  C13_38 
REMARK   14  A    between atoms: C15_40  and  O7_41 
REMARK   15  A    between atoms: C15_40  and  C16_43 
REMARK   16  A    between atoms: C16_43  and  O8_44 
ROOT
HETATM    1  C7  UNL     1     -29.406 -10.955  -5.672  1.00  0.00     0.072 C 
HETATM    2  C8  UNL     1     -28.741 -11.136  -4.470  1.00  0.00     0.090 C 
HETATM    3  C9  UNL     1     -28.885 -12.154  -3.511  1.00  0.00     0.116 C 
HETATM    4  N6  UNL     1     -27.889 -12.287  -2.527  1.00  0.00    -0.096 NA
HETATM    5  C10 UNL     1     -29.904 -13.062  -3.410  1.00  0.00     0.144 C 
HETATM    6  N7  UNL     1     -29.953 -13.898  -2.238  1.00  0.00    -0.081 NA
HETATM    7  N8  UNL     1     -30.920 -13.307  -4.287  1.00  0.00    -0.328 N 
ATOM      8  H8  UNL     1     -31.551 -14.064  -4.025  1.00  0.00     0.168 HD
HETATM    9  C11 UNL     1     -31.207 -12.693  -5.448  1.00  0.00     0.128 C 
HETATM   10  C12 UNL     1     -30.665 -11.486  -5.894  1.00  0.00     0.089 C 
ENDROOT
BRANCH   1  11
HETATM   11  C6  UNL     1     -28.732 -10.206  -6.683  1.00  0.00     0.188 C 
HETATM   12  O6  UNL     1     -29.065  -8.969  -6.780  1.00  0.00    -0.290 OA
BRANCH  11  13
HETATM   13  C5  UNL     1     -27.706 -10.629  -7.637  1.00  0.00     0.263 C 
BRANCH  13  14
HETATM   14  O5  UNL     1     -27.260 -11.974  -7.377  1.00  0.00    -0.306 OA
BRANCH  14  15
HETATM   15  C4  UNL     1     -26.173 -12.303  -6.627  1.00  0.00     0.353 C 
HETATM   16  O4  UNL     1     -26.197 -13.331  -5.909  1.00  0.00    -0.254 OA
BRANCH  15  17
HETATM   17  C3  UNL     1     -24.936 -11.505  -6.607  1.00  0.00     0.335 C 
HETATM   18  N2  UNL     1     -24.626 -10.637  -5.535  1.00  0.00    -0.257 N 
ATOM     19  H2  UNL     1     -25.269 -10.553  -4.748  1.00  0.00     0.190 HD
HETATM   20  O3  UNL     1     -24.135 -11.603  -7.577  1.00  0.00    -0.260 OA
BRANCH  18  21
HETATM   21  N1  UNL     1     -23.447  -9.896  -5.546  1.00  0.00    -0.242 N 
HETATM   22  C2  UNL     1     -23.482  -8.536  -5.933  1.00  0.00     0.379 C 
HETATM   23  O2  UNL     1     -24.576  -8.023  -6.261  1.00  0.00    -0.237 OA
ATOM     24  H1  UNL     1     -22.564 -10.331  -5.276  1.00  0.00     0.192 HD
BRANCH  22  25
HETATM   25  O1  UNL     1     -22.362  -7.725  -5.974  1.00  0.00    -0.308 OA
HETATM   26  C1  UNL     1     -21.173  -8.054  -5.256  1.00  0.00     0.215 C 
ENDBRANCH  22  25
ENDBRANCH  18  21
ENDBRANCH  15  17
ENDBRANCH  14  15
ENDBRANCH  13  14
ENDBRANCH  11  13
ENDBRANCH   1  11
BRANCH   2  27
HETATM   27  N3  UNL     1     -27.769 -10.210  -4.103  1.00  0.00    -0.282 N 
ATOM     28  H3  UNL     1     -26.805 -10.514  -3.970  1.00  0.00     0.184 HD
BRANCH  27  29
HETATM   29  N4  UNL     1     -28.102  -8.871  -3.914  1.00  0.00    -0.029 NA
BRANCH  29  30
HETATM   30  N5  UNL     1     -27.091  -8.018  -4.322  1.00  0.00    -0.329 N 
ATOM     31  H52 UNL     1     -26.118  -8.311  -4.411  1.00  0.00     0.174 HD
ATOM     32  H51 UNL     1     -27.436  -7.078  -4.520  1.00  0.00     0.174 HD
ENDBRANCH  29  30
ENDBRANCH  27  29
ENDBRANCH   2  27
BRANCH  10  33
HETATM   33  N10 UNL     1     -31.523 -10.717  -6.678  1.00  0.00    -0.372 N 
ATOM     34  H10 UNL     1     -31.433 -10.794  -7.690  1.00  0.00     0.161 HD
BRANCH  33  35
HETATM   35  C13 UNL     1     -32.534  -9.818  -6.165  1.00  0.00     0.150 C 
HETATM   36  C14 UNL     1     -32.178  -8.998  -4.965  1.00  0.00     0.087 C 
HETATM   37  C15 UNL     1     -32.720  -7.624  -5.380  1.00  0.00     0.131 C 
HETATM   38  S1  UNL     1     -32.745  -8.267  -7.080  1.00  0.00    -0.104 SA
BRANCH  37  39
HETATM   39  O7  UNL     1     -31.839  -6.575  -5.211  1.00  0.00    -0.377 OA
ATOM     40  H7  UNL     1     -32.087  -5.769  -5.646  1.00  0.00     0.211 HD
ENDBRANCH  37  39
BRANCH  37  41
HETATM   41  C16 UNL     1     -34.078  -7.326  -4.813  1.00  0.00     0.213 C 
BRANCH  41  42
HETATM   42  O8  UNL     1     -34.153  -5.987  -4.434  1.00  0.00    -0.397 OA
ATOM     43  H8  UNL     1     -35.056  -5.749  -4.260  1.00  0.00     0.209 HD
ENDBRANCH  41  42
ENDBRANCH  37  41
ENDBRANCH  33  35
ENDBRANCH  10  33
BRANCH   9  44
HETATM   44  N9  UNL     1     -32.069 -13.261  -6.247  1.00  0.00    -0.384 N 
ATOM     45  H92 UNL     1     -32.230 -14.257  -6.094  1.00  0.00     0.157 HD
ATOM     46  H91 UNL     1     -32.519 -12.683  -6.957  1.00  0.00     0.157 HD
ENDBRANCH   9  44
TORSDOF 16
ENDMDL
MODEL 3
REMARK VINA RESULT: -7.985332995      3.169      7.141
REMARK  16 active torsions:
REMARK  status: ('A' for Active; 'I' for Inactive)
REMARK    1  A    between atoms: O1_2  and  C2_3 
REMARK       I    between atoms: C2_3  and  N1_5 
REMARK    2  A    between atoms: N1_5  and  N2_7 
REMARK       I    between atoms: N2_7  and  C3_9 
REMARK    3  A    between atoms: C3_9  and  C4_11 
REMARK    4  A    between atoms: C4_11  and  O5_13 
REMARK    5  A    between atoms: O5_13  and  C5_14 
REMARK    6  A    between atoms: C5_14  and  C6_15 
REMARK    7  A    between atoms: C6_15  and  C7_17 
REMARK    8  A    between atoms: C8_18  and  N3_19 
REMARK    9  A    between atoms: N3_19  and  N4_21 
REMARK   10  A    between atoms: N4_21  and  N5_22 
REMARK   11  A    between atoms: C11_31  and  N9_32 
REMARK   12  A    between atoms: C12_35  and  N10_36 
REMARK   13  A    between atoms: N10_36  and  C13_38 
REMARK   14  A    between atoms: C15_40  and  O7_41 
REMARK   15  A    between atoms: C15_40  and  C16_43 
REMARK   16  A    between atoms: C16_43  and  O8_44 
ROOT
HETATM    1  C7  UNL     1     -29.399 -10.953  -5.671  1.00  0.00     0.072 C 
HETATM    2  C8  UNL     1     -28.750 -11.146  -4.462  1.00  0.00     0.090 C 
HETATM    3  C9  UNL     1     -28.907 -12.174  -3.516  1.00  0.00     0.116 C 
HETATM    4  N6  UNL     1     -27.924 -12.317  -2.520  1.00  0.00    -0.096 NA
HETATM    5  C10 UNL     1     -29.926 -13.085  -3.439  1.00  0.00     0.144 C 
HETATM    6  N7  UNL     1     -29.991 -13.933  -2.277  1.00  0.00    -0.081 NA
HETATM    7  N8  UNL     1     -30.929 -13.322  -4.333  1.00  0.00    -0.328 N 
ATOM      8  H8  UNL     1     -31.563 -14.082  -4.088  1.00  0.00     0.168 HD
HETATM    9  C11 UNL     1     -31.201 -12.695  -5.491  1.00  0.00     0.128 C 
HETATM   10  C12 UNL     1     -30.654 -11.482  -5.916  1.00  0.00     0.089 C 
ENDROOT
BRANCH   1  11
HETATM   11  C6  UNL     1     -28.712 -10.192  -6.664  1.00  0.00     0.188 C 
HETATM   12  O6  UNL     1     -28.993  -8.939  -6.705  1.00  0.00    -0.290 OA
BRANCH  11  13
HETATM   13  C5  UNL     1     -27.722 -10.619  -7.654  1.00  0.00     0.263 C 
BRANCH  13  14
HETATM   14  O5  UNL     1     -27.197 -11.925  -7.352  1.00  0.00    -0.306 OA
BRANCH  14  15
HETATM   15  C4  UNL     1     -26.113 -12.166  -6.565  1.00  0.00     0.353 C 
HETATM   16  O4  UNL     1     -25.978 -13.284  -6.012  1.00  0.00    -0.254 OA
BRANCH  15  17
HETATM   17  C3  UNL     1     -25.061 -11.167  -6.315  1.00  0.00     0.335 C 
HETATM   18  N2  UNL     1     -23.789 -11.254  -6.926  1.00  0.00    -0.257 N 
ATOM     19  H2  UNL     1     -23.583 -12.027  -7.560  1.00  0.00     0.190 HD
HETATM   20  O3  UNL     1     -25.307 -10.209  -5.531  1.00  0.00    -0.260 OA
BRANCH  18  21
HETATM   21  N1  UNL     1     -22.815 -10.293  -6.669  1.00  0.00    -0.242 N 
HETATM   22  C2  UNL     1     -21.765 -10.588  -5.770  1.00  0.00     0.379 C 
HETATM   23  O2  UNL     1     -21.731 -11.712  -5.219  1.00  0.00    -0.237 OA
ATOM     24  H1  UNL     1     -22.859  -9.382  -7.127  1.00  0.00     0.192 HD
BRANCH  22  25
HETATM   25  O1  UNL     1     -20.756  -9.695  -5.455  1.00  0.00    -0.308 OA
HETATM   26  C1  UNL     1     -21.038  -8.340  -5.107  1.00  0.00     0.215 C 
ENDBRANCH  22  25
ENDBRANCH  18  21
ENDBRANCH  15  17
ENDBRANCH  14  15
ENDBRANCH  13  14
ENDBRANCH  11  13
ENDBRANCH   1  11
BRANCH   2  27
HETATM   27  N3  UNL     1     -27.785 -10.223  -4.071  1.00  0.00    -0.282 N 
ATOM     28  H3  UNL     1     -26.816 -10.521  -3.960  1.00  0.00     0.184 HD
BRANCH  27  29
HETATM   29  N4  UNL     1     -28.130  -8.896  -3.830  1.00  0.00    -0.029 NA
BRANCH  29  30
HETATM   30  N5  UNL     1     -27.128  -8.017  -4.204  1.00  0.00    -0.329 N 
ATOM     31  H52 UNL     1     -26.796  -7.264  -3.601  1.00  0.00     0.174 HD
ATOM     32  H51 UNL     1     -26.770  -8.215  -5.139  1.00  0.00     0.174 HD
ENDBRANCH  29  30
ENDBRANCH  27  29
ENDBRANCH   2  27
BRANCH  10  33
HETATM   33  N10 UNL     1     -31.502 -10.706  -6.704  1.00  0.00    -0.372 N 
ATOM     34  H10 UNL     1     -31.397 -10.772  -7.716  1.00  0.00     0.161 HD
BRANCH  33  35
HETATM   35  C13 UNL     1     -32.522  -9.815  -6.195  1.00  0.00     0.150 C 
HETATM   36  C14 UNL     1     -32.188  -9.015  -4.976  1.00  0.00     0.087 C 
HETATM   37  C15 UNL     1     -32.722  -7.634  -5.379  1.00  0.00     0.131 C 
HETATM   38  S1  UNL     1     -32.715  -8.249  -7.089  1.00  0.00    -0.104 SA
BRANCH  37  39
HETATM   39  O7  UNL     1     -31.843  -6.588  -5.177  1.00  0.00    -0.377 OA
ATOM     40  H7  UNL     1     -31.516  -6.180  -5.969  1.00  0.00     0.211 HD
ENDBRANCH  37  39
BRANCH  37  41
HETATM   41  C16 UNL     1     -34.090  -7.344  -4.833  1.00  0.00     0.213 C 
BRANCH  41  42
HETATM   42  O8  UNL     1     -34.165  -6.017  -4.415  1.00  0.00    -0.397 OA
ATOM     43  H8  UNL     1     -35.041  -5.679  -4.561  1.00  0.00     0.209 HD
ENDBRANCH  41  42
ENDBRANCH  37  41
ENDBRANCH  33  35
ENDBRANCH  10  33
BRANCH   9  44
HETATM   44  N9  UNL     1     -32.051 -13.256  -6.308  1.00  0.00    -0.384 N 
ATOM     45  H92 UNL     1     -32.610 -14.015  -5.918  1.00  0.00     0.157 HD
ATOM     46  H91 UNL     1     -32.102 -12.903  -7.263  1.00  0.00     0.157 HD
ENDBRANCH   9  44
TORSDOF 16
ENDMDL
MODEL 4
REMARK VINA RESULT: -7.860391204      3.198      7.250
REMARK  16 active torsions:
REMARK  status: ('A' for Active; 'I' for Inactive)
REMARK    1  A    between atoms: O1_2  and  C2_3 
REMARK       I    between atoms: C2_3  and  N1_5 
REMARK    2  A    between atoms: N1_5  and  N2_7 
REMARK       I    between atoms: N2_7  and  C3_9 
REMARK    3  A    between atoms: C3_9  and  C4_11 
REMARK    4  A    between atoms: C4_11  and  O5_13 
REMARK    5  A    between atoms: O5_13  and  C5_14 
REMARK    6  A    between atoms: C5_14  and  C6_15 
REMARK    7  A    between atoms: C6_15  and  C7_17 
REMARK    8  A    between atoms: C8_18  and  N3_19 
REMARK    9  A    between atoms: N3_19  and  N4_21 
REMARK   10  A    between atoms: N4_21  and  N5_22 
REMARK   11  A    between atoms: C11_31  and  N9_32 
REMARK   12  A    between atoms: C12_35  and  N10_36 
REMARK   13  A    between atoms: N10_36  and  C13_38 
REMARK   14  A    between atoms: C15_40  and  O7_41 
REMARK   15  A    between atoms: C15_40  and  C16_43 
REMARK   16  A    between atoms: C16_43  and  O8_44 
ROOT
HETATM    1  C7  UNL     1     -29.473 -11.502  -5.324  1.00  0.00     0.072 C 
HETATM    2  C8  UNL     1     -29.046 -11.898  -4.067  1.00  0.00     0.090 C 
HETATM    3  C9  UNL     1     -29.499 -12.955  -3.259  1.00  0.00     0.116 C 
HETATM    4  N6  UNL     1     -28.707 -13.342  -2.163  1.00  0.00    -0.096 NA
HETATM    5  C10 UNL     1     -30.650 -13.681  -3.408  1.00  0.00     0.144 C 
HETATM    6  N7  UNL     1     -31.017 -14.594  -2.357  1.00  0.00    -0.081 NA
HETATM    7  N8  UNL     1     -31.538 -13.671  -4.445  1.00  0.00    -0.328 N 
ATOM      8  H8  UNL     1     -32.313 -14.329  -4.363  1.00  0.00     0.168 HD
HETATM    9  C11 UNL     1     -31.536 -12.919  -5.558  1.00  0.00     0.128 C 
HETATM   10  C12 UNL     1     -30.747 -11.788  -5.784  1.00  0.00     0.089 C 
ENDROOT
BRANCH   1  11
HETATM   11  C6  UNL     1     -28.536 -10.795  -6.137  1.00  0.00     0.188 C 
HETATM   12  O6  UNL     1     -27.711 -11.522  -6.802  1.00  0.00    -0.290 OA
BRANCH  11  13
HETATM   13  C5  UNL     1     -28.367  -9.356  -6.337  1.00  0.00     0.263 C 
BRANCH  13  14
HETATM   14  O5  UNL     1     -27.324  -8.822  -5.501  1.00  0.00    -0.306 OA
BRANCH  14  15
HETATM   15  C4  UNL     1     -26.186  -8.231  -5.956  1.00  0.00     0.353 C 
HETATM   16  O4  UNL     1     -26.183  -7.008  -6.231  1.00  0.00    -0.254 OA
BRANCH  15  17
HETATM   17  C3  UNL     1     -24.922  -8.960  -6.151  1.00  0.00     0.335 C 
HETATM   18  N2  UNL     1     -24.884 -10.368  -6.281  1.00  0.00    -0.257 N 
ATOM     19  H2  UNL     1     -25.751 -10.904  -6.239  1.00  0.00     0.190 HD
HETATM   20  O3  UNL     1     -23.845  -8.305  -6.204  1.00  0.00    -0.260 OA
BRANCH  18  21
HETATM   21  N1  UNL     1     -23.673 -11.028  -6.465  1.00  0.00    -0.242 N 
HETATM   22  C2  UNL     1     -23.000 -11.575  -5.349  1.00  0.00     0.379 C 
HETATM   23  O2  UNL     1     -23.508 -11.455  -4.211  1.00  0.00    -0.237 OA
ATOM     24  H1  UNL     1     -23.273 -11.116  -7.400  1.00  0.00     0.192 HD
BRANCH  22  25
HETATM   25  O1  UNL     1     -21.793 -12.246  -5.438  1.00  0.00    -0.308 OA
HETATM   26  C1  UNL     1     -20.637 -11.805  -4.726  1.00  0.00     0.215 C 
ENDBRANCH  22  25
ENDBRANCH  18  21
ENDBRANCH  15  17
ENDBRANCH  14  15
ENDBRANCH  13  14
ENDBRANCH  11  13
ENDBRANCH   1  11
BRANCH   2  27
HETATM   27  N3  UNL     1     -28.014 -11.187  -3.462  1.00  0.00    -0.282 N 
ATOM     28  H3  UNL     1     -28.231 -10.471  -2.770  1.00  0.00     0.184 HD
BRANCH  27  29
HETATM   29  N4  UNL     1     -26.686 -11.446  -3.794  1.00  0.00    -0.029 NA
BRANCH  29  30
HETATM   30  N5  UNL     1     -26.505 -12.734  -4.264  1.00  0.00    -0.329 N 
ATOM     31  H52 UNL     1     -26.449 -13.548  -3.651  1.00  0.00     0.174 HD
ATOM     32  H51 UNL     1     -26.436 -12.768  -5.282  1.00  0.00     0.174 HD
ENDBRANCH  29  30
ENDBRANCH  27  29
ENDBRANCH   2  27
BRANCH  10  33
HETATM   33  N10 UNL     1     -31.338 -10.819  -6.592  1.00  0.00    -0.372 N 
ATOM     34  H10 UNL     1     -30.963 -10.697  -7.532  1.00  0.00     0.161 HD
BRANCH  33  35
HETATM   35  C13 UNL     1     -32.444  -9.972  -6.200  1.00  0.00     0.150 C 
HETATM   36  C14 UNL     1     -32.279  -9.162  -4.953  1.00  0.00     0.087 C 
HETATM   37  C15 UNL     1     -32.823  -7.804  -5.415  1.00  0.00     0.131 C 
HETATM   38  S1  UNL     1     -32.604  -8.414  -7.113  1.00  0.00    -0.104 SA
BRANCH  37  39
HETATM   39  O7  UNL     1     -32.017  -6.723  -5.120  1.00  0.00    -0.377 OA
ATOM     40  H7  UNL     1     -32.456  -5.881  -5.130  1.00  0.00     0.211 HD
ENDBRANCH  37  39
BRANCH  37  41
HETATM   41  C16 UNL     1     -34.254  -7.573  -5.022  1.00  0.00     0.213 C 
BRANCH  41  42
HETATM   42  O8  UNL     1     -34.311  -6.923  -3.791  1.00  0.00    -0.397 OA
ATOM     43  H8  UNL     1     -34.245  -7.556  -3.085  1.00  0.00     0.209 HD
ENDBRANCH  41  42
ENDBRANCH  37  41
ENDBRANCH  33  35
ENDBRANCH  10  33
BRANCH   9  44
HETATM   44  N9  UNL     1     -32.336 -13.259  -6.532  1.00  0.00    -0.384 N 
ATOM     45  H92 UNL     1     -31.913 -13.312  -7.459  1.00  0.00     0.157 HD
ATOM     46  H91 UNL     1     -33.312 -13.450  -6.306  1.00  0.00     0.157 HD
ENDBRANCH   9  44
TORSDOF 16
ENDMDL
MODEL 5
REMARK VINA RESULT: -7.840737409      3.279      7.493
REMARK  16 active torsions:
REMARK  status: ('A' for Active; 'I' for Inactive)
REMARK    1  A    between atoms: O1_2  and  C2_3 
REMARK       I    between atoms: C2_3  and  N1_5 
REMARK    2  A    between atoms: N1_5  and  N2_7 
REMARK       I    between atoms: N2_7  and  C3_9 
REMARK    3  A    between atoms: C3_9  and  C4_11 
REMARK    4  A    between atoms: C4_11  and  O5_13 
REMARK    5  A    between atoms: O5_13  and  C5_14 
REMARK    6  A    between atoms: C5_14  and  C6_15 
REMARK    7  A    between atoms: C6_15  and  C7_17 
REMARK    8  A    between atoms: C8_18  and  N3_19 
REMARK    9  A    between atoms: N3_19  and  N4_21 
REMARK   10  A    between atoms: N4_21  and  N5_22 
REMARK   11  A    between atoms: C11_31  and  N9_32 
REMARK   12  A    between atoms: C12_35  and  N10_36 
REMARK   13  A    between atoms: N10_36  and  C13_38 
REMARK   14  A    between atoms: C15_40  and  O7_41 
REMARK   15  A    between atoms: C15_40  and  C16_43 
REMARK   16  A    between atoms: C16_43  and  O8_44 
ROOT
HETATM    1  C7  UNL     1     -29.685 -11.041  -5.705  1.00  0.00     0.072 C 
HETATM    2  C8  UNL     1     -28.998 -11.244  -4.519  1.00  0.00     0.090 C 
HETATM    3  C9  UNL     1     -29.105 -12.294  -3.591  1.00  0.00     0.116 C 
HETATM    4  N6  UNL     1     -28.092 -12.435  -2.626  1.00  0.00    -0.096 NA
HETATM    5  C10 UNL     1     -30.103 -13.227  -3.503  1.00  0.00     0.144 C 
HETATM    6  N7  UNL     1     -30.117 -14.099  -2.358  1.00  0.00    -0.081 NA
HETATM    7  N8  UNL     1     -31.127 -13.467  -4.373  1.00  0.00    -0.328 N 
ATOM      8  H8  UNL     1     -31.738 -14.246  -4.126  1.00  0.00     0.168 HD
HETATM    9  C11 UNL     1     -31.445 -12.824  -5.509  1.00  0.00     0.128 C 
HETATM   10  C12 UNL     1     -30.935 -11.592  -5.926  1.00  0.00     0.089 C 
ENDROOT
BRANCH   1  11
HETATM   11  C6  UNL     1     -29.042 -10.246  -6.702  1.00  0.00     0.188 C 
HETATM   12  O6  UNL     1     -29.424  -9.021  -6.774  1.00  0.00    -0.290 OA
BRANCH  11  13
HETATM   13  C5  UNL     1     -28.003 -10.610  -7.665  1.00  0.00     0.263 C 
BRANCH  13  14
HETATM   14  O5  UNL     1     -26.796 -11.042  -7.007  1.00  0.00    -0.306 OA
BRANCH  14  15
HETATM   15  C4  UNL     1     -25.793 -10.218  -6.600  1.00  0.00     0.353 C 
HETATM   16  O4  UNL     1     -26.062  -9.067  -6.179  1.00  0.00    -0.254 OA
BRANCH  15  17
HETATM   17  C3  UNL     1     -24.373 -10.604  -6.622  1.00  0.00     0.335 C 
HETATM   18  N2  UNL     1     -23.347  -9.696  -6.275  1.00  0.00    -0.257 N 
ATOM     19  H2  UNL     1     -23.585  -8.743  -6.000  1.00  0.00     0.190 HD
HETATM   20  O3  UNL     1     -24.069 -11.781  -6.962  1.00  0.00    -0.260 OA
BRANCH  18  21
HETATM   21  N1  UNL     1     -22.013 -10.092  -6.306  1.00  0.00    -0.242 N 
HETATM   22  C2  UNL     1     -21.354 -10.420  -5.099  1.00  0.00     0.379 C 
HETATM   23  O2  UNL     1     -21.985 -10.346  -4.020  1.00  0.00    -0.237 OA
ATOM     24  H1  UNL     1     -21.514 -10.146  -7.195  1.00  0.00     0.192 HD
BRANCH  22  25
HETATM   25  O1  UNL     1     -20.032 -10.823  -5.035  1.00  0.00    -0.308 OA
HETATM   26  C1  UNL     1     -19.672 -12.158  -4.682  1.00  0.00     0.215 C 
ENDBRANCH  22  25
ENDBRANCH  18  21
ENDBRANCH  15  17
ENDBRANCH  14  15
ENDBRANCH  13  14
ENDBRANCH  11  13
ENDBRANCH   1  11
BRANCH   2  27
HETATM   27  N3  UNL     1     -28.041 -10.308  -4.137  1.00  0.00    -0.282 N 
ATOM     28  H3  UNL     1     -27.051 -10.551  -4.181  1.00  0.00     0.184 HD
BRANCH  27  29
HETATM   29  N4  UNL     1     -28.422  -9.044  -3.696  1.00  0.00    -0.029 NA
BRANCH  29  30
HETATM   30  N5  UNL     1     -27.359  -8.159  -3.659  1.00  0.00    -0.329 N 
ATOM     31  H52 UNL     1     -26.957  -7.809  -2.789  1.00  0.00     0.174 HD
ATOM     32  H51 UNL     1     -27.035  -7.906  -4.593  1.00  0.00     0.174 HD
ENDBRANCH  29  30
ENDBRANCH  27  29
ENDBRANCH   2  27
BRANCH  10  33
HETATM   33  N10 UNL     1     -31.822 -10.818  -6.672  1.00  0.00    -0.372 N 
ATOM     34  H10 UNL     1     -31.819 -10.943  -7.684  1.00  0.00     0.161 HD
BRANCH  33  35
HETATM   35  C13 UNL     1     -32.747  -9.852  -6.122  1.00  0.00     0.150 C 
HETATM   36  C14 UNL     1     -32.269  -9.021  -4.973  1.00  0.00     0.087 C 
HETATM   37  C15 UNL     1     -32.765  -7.631  -5.394  1.00  0.00     0.131 C 
HETATM   38  S1  UNL     1     -32.937  -8.317  -7.068  1.00  0.00    -0.104 SA
BRANCH  37  39
HETATM   39  O7  UNL     1     -31.820  -6.628  -5.314  1.00  0.00    -0.377 OA
ATOM     40  H7  UNL     1     -32.001  -5.958  -4.666  1.00  0.00     0.211 HD
ENDBRANCH  37  39
BRANCH  37  41
HETATM   41  C16 UNL     1     -34.065  -7.245  -4.748  1.00  0.00     0.213 C 
BRANCH  41  42
HETATM   42  O8  UNL     1     -34.133  -5.860  -4.607  1.00  0.00    -0.397 OA
ATOM     43  H8  UNL     1     -34.665  -5.637  -3.852  1.00  0.00     0.209 HD
ENDBRANCH  41  42
ENDBRANCH  37  41
ENDBRANCH  33  35
ENDBRANCH  10  33
BRANCH   9  44
HETATM   44  N9  UNL     1     -32.307 -13.386  -6.313  1.00  0.00    -0.384 N 
ATOM     45  H92 UNL     1     -32.715 -14.262  -5.987  1.00  0.00     0.157 HD
ATOM     46  H91 UNL     1     -32.513 -12.921  -7.197  1.00  0.00     0.157 HD
ENDBRANCH   9  44
TORSDOF 16
ENDMDL
