MODEL 1
REMARK VINA RESULT: -8.763972702      0.000      0.000
REMARK  3 active torsions:
REMARK  status: ('A' for Active; 'I' for Inactive)
REMARK    1  A    between atoms: C6_11  and  C7_12 
REMARK    2  A    between atoms: N3_21  and  C15_22 
REMARK    3  A    between atoms: C20_28  and  C21_29 
ROOT
HETATM    1  N1  UNL     1      14.051   5.721 -27.586  1.00  0.00    -0.196 NA
HETATM    2  C1  UNL     1      13.713   4.666 -27.289  1.00  0.00     0.076 C 
HETATM    3  C2  UNL     1      13.315   3.337 -26.911  1.00  0.00     0.216 C 
HETATM    4  C3  UNL     1      12.289   3.308 -25.817  1.00  0.00     0.267 C 
HETATM    5  O1  UNL     1      12.038   4.188 -24.974  1.00  0.00    -0.269 OA
HETATM    6  N2  UNL     1      11.647   2.031 -25.950  1.00  0.00    -0.159 N 
HETATM    7  C4  UNL     1      10.941   1.043 -25.234  1.00  0.00     0.396 A 
HETATM    8  O2  UNL     1      10.617   1.046 -24.011  1.00  0.00    -0.235 OA
HETATM    9  O3  UNL     1      10.659   0.045 -26.133  1.00  0.00    -0.241 OA
HETATM   10  C5  UNL     1      11.153   0.337 -27.414  1.00  0.00     0.172 A 
HETATM   11  C6  UNL     1      11.021  -0.458 -28.477  1.00  0.00     0.070 C 
HETATM   12  N4  UNL     1      11.778   1.599 -27.296  1.00  0.00    -0.245 N 
HETATM   13  C20 UNL     1      12.501   2.626 -28.006  1.00  0.00     0.178 C 
ENDROOT
BRANCH  13  14
HETATM   14  C21 UNL     1      11.482   3.643 -28.464  1.00  0.00     0.009 A 
HETATM   15  C22 UNL     1      11.612   4.570 -29.464  1.00  0.00     0.017 A 
HETATM   16  C23 UNL     1      10.575   5.383 -29.688  1.00  0.00     0.008 A 
HETATM   17  C24 UNL     1       9.467   5.225 -28.905  1.00  0.00     0.050 A 
HETATM   18  S1  UNL     1       9.911   3.939 -27.873  1.00  0.00    -0.104 SA
ENDBRANCH  13  14
BRANCH  11  19
HETATM   19  C7  UNL     1      10.314  -1.737 -28.324  1.00  0.00    -0.017 A 
HETATM   20  C8  UNL     1       8.945  -1.798 -28.184  1.00  0.00     0.054 A 
HETATM   21  C9  UNL     1       8.309  -3.021 -28.013  1.00  0.00     0.119 A 
HETATM   22  F1  UNL     1       6.967  -3.079 -27.874  1.00  0.00    -0.206 F 
HETATM   23  C10 UNL     1       9.010  -4.206 -27.976  1.00  0.00     0.072 A 
HETATM   24  C11 UNL     1      10.376  -4.154 -28.114  1.00  0.00     0.048 A 
HETATM   25  C12 UNL     1      11.004  -2.935 -28.284  1.00  0.00     0.003 A 
HETATM   26  N3  UNL     1      11.272  -5.172 -28.108  1.00  0.00    -0.351 N 
HETATM   27  C13 UNL     1      12.338  -3.222 -28.389  1.00  0.00     0.032 A 
HETATM   28  C14 UNL     1      12.470  -4.562 -28.280  1.00  0.00     0.092 A 
BRANCH  26  29
HETATM   29  C15 UNL     1      11.124  -6.580 -27.951  1.00  0.00     0.089 C 
HETATM   30  C16 UNL     1      12.522  -7.190 -27.845  1.00  0.00     0.026 C 
HETATM   31  C17 UNL     1      12.403  -8.632 -28.251  1.00  0.00     0.002 C 
HETATM   32  C18 UNL     1      11.119  -8.759 -29.001  1.00  0.00     0.002 C 
HETATM   33  C19 UNL     1      10.534  -7.346 -29.064  1.00  0.00     0.026 C 
ENDBRANCH  26  29
ENDBRANCH  11  19
TORSDOF 3
ENDMDL
MODEL 2
REMARK VINA RESULT: -8.503250204      3.006      4.163
REMARK  3 active torsions:
REMARK  status: ('A' for Active; 'I' for Inactive)
REMARK    1  A    between atoms: C6_11  and  C7_12 
REMARK    2  A    between atoms: N3_21  and  C15_22 
REMARK    3  A    between atoms: C20_28  and  C21_29 
ROOT
HETATM    1  N1  UNL     1       7.330   4.206 -24.305  1.00  0.00    -0.196 NA
HETATM    2  C1  UNL     1       7.388   3.461 -25.175  1.00  0.00     0.076 C 
HETATM    3  C2  UNL     1       7.436   2.535 -26.274  1.00  0.00     0.216 C 
HETATM    4  C3  UNL     1       8.586   2.773 -27.208  1.00  0.00     0.267 C 
HETATM    5  O1  UNL     1       9.233   3.822 -27.380  1.00  0.00    -0.269 OA
HETATM    6  N2  UNL     1       8.787   1.515 -27.870  1.00  0.00    -0.159 N 
HETATM    7  C4  UNL     1       9.285   0.930 -29.051  1.00  0.00     0.396 A 
HETATM    8  O2  UNL     1       9.809   1.506 -30.049  1.00  0.00    -0.235 OA
HETATM    9  O3  UNL     1       9.093  -0.423 -28.919  1.00  0.00    -0.241 OA
HETATM   10  C5  UNL     1       8.487  -0.751 -27.697  1.00  0.00     0.172 A 
HETATM   11  C6  UNL     1       8.184  -1.991 -27.308  1.00  0.00     0.070 C 
HETATM   12  N4  UNL     1       8.294   0.481 -27.032  1.00  0.00    -0.245 N 
HETATM   13  C20 UNL     1       7.793   1.105 -25.832  1.00  0.00     0.178 C 
ENDROOT
BRANCH  13  14
HETATM   14  C21 UNL     1       8.968   1.264 -24.895  1.00  0.00     0.009 A 
HETATM   15  C22 UNL     1       8.951   1.303 -23.526  1.00  0.00     0.017 A 
HETATM   16  C23 UNL     1      10.121   1.464 -22.901  1.00  0.00     0.008 A 
HETATM   17  C24 UNL     1      11.242   1.576 -23.675  1.00  0.00     0.050 A 
HETATM   18  S1  UNL     1      10.622   1.452 -25.261  1.00  0.00    -0.104 SA
ENDBRANCH  13  14
BRANCH  11  19
HETATM   19  C7  UNL     1       8.497  -3.112 -28.206  1.00  0.00    -0.017 A 
HETATM   20  C8  UNL     1       7.696  -3.426 -29.282  1.00  0.00     0.054 A 
HETATM   21  C9  UNL     1       8.003  -4.509 -30.095  1.00  0.00     0.119 A 
HETATM   22  F1  UNL     1       7.217  -4.818 -31.149  1.00  0.00    -0.206 F 
HETATM   23  C10 UNL     1       9.105  -5.303 -29.862  1.00  0.00     0.072 A 
HETATM   24  C11 UNL     1       9.908  -4.997 -28.791  1.00  0.00     0.048 A 
HETATM   25  C12 UNL     1       9.598  -3.918 -27.985  1.00  0.00     0.003 A 
HETATM   26  N3  UNL     1      11.032  -5.624 -28.362  1.00  0.00    -0.351 N 
HETATM   27  C13 UNL     1      10.575  -3.884 -27.027  1.00  0.00     0.032 A 
HETATM   28  C14 UNL     1      11.416  -4.913 -27.274  1.00  0.00     0.092 A 
BRANCH  26  29
HETATM   29  C15 UNL     1      11.732  -6.769 -28.837  1.00  0.00     0.089 C 
HETATM   30  C16 UNL     1      10.732  -7.921 -28.941  1.00  0.00     0.026 C 
HETATM   31  C17 UNL     1      11.525  -9.197 -28.877  1.00  0.00     0.002 C 
HETATM   32  C18 UNL     1      12.854  -8.844 -28.299  1.00  0.00     0.002 C 
HETATM   33  C19 UNL     1      12.785  -7.347 -27.982  1.00  0.00     0.026 C 
ENDBRANCH  26  29
ENDBRANCH  11  19
TORSDOF 3
ENDMDL
MODEL 3
REMARK VINA RESULT: -8.473417951      1.066      1.194
REMARK  3 active torsions:
REMARK  status: ('A' for Active; 'I' for Inactive)
REMARK    1  A    between atoms: C6_11  and  C7_12 
REMARK    2  A    between atoms: N3_21  and  C15_22 
REMARK    3  A    between atoms: C20_28  and  C21_29 
ROOT
HETATM    1  N1  UNL     1      13.654   5.070 -25.409  1.00  0.00    -0.196 NA
HETATM    2  C1  UNL     1      13.143   4.045 -25.334  1.00  0.00     0.076 C 
HETATM    3  C2  UNL     1      12.524   2.752 -25.221  1.00  0.00     0.216 C 
HETATM    4  C3  UNL     1      11.089   2.812 -24.786  1.00  0.00     0.267 C 
HETATM    5  O1  UNL     1      10.510   3.725 -24.171  1.00  0.00    -0.269 OA
HETATM    6  N2  UNL     1      10.517   1.575 -25.237  1.00  0.00    -0.159 N 
HETATM    7  C4  UNL     1       9.485   0.650 -24.981  1.00  0.00     0.396 A 
HETATM    8  O2  UNL     1       8.595   0.701 -24.084  1.00  0.00    -0.235 OA
HETATM    9  O3  UNL     1       9.625  -0.348 -25.913  1.00  0.00    -0.241 OA
HETATM   10  C5  UNL     1      10.710  -0.116 -26.772  1.00  0.00     0.172 A 
HETATM   11  C6  UNL     1      11.075  -0.925 -27.769  1.00  0.00     0.070 C 
HETATM   12  N4  UNL     1      11.275   1.106 -26.343  1.00  0.00    -0.245 N 
HETATM   13  C20 UNL     1      12.321   2.069 -26.585  1.00  0.00     0.178 C 
ENDROOT
BRANCH  13  14
HETATM   14  C21 UNL     1      11.736   3.138 -27.478  1.00  0.00     0.009 A 
HETATM   15  C22 UNL     1      12.401   3.966 -28.343  1.00  0.00     0.017 A 
HETATM   16  C23 UNL     1      11.672   4.852 -29.029  1.00  0.00     0.008 A 
HETATM   17  C24 UNL     1      10.323   4.862 -28.816  1.00  0.00     0.050 A 
HETATM   18  S1  UNL     1      10.113   3.626 -27.656  1.00  0.00    -0.104 SA
ENDBRANCH  13  14
BRANCH  11  19
HETATM   19  C7  UNL     1      10.304  -2.154 -28.005  1.00  0.00    -0.017 A 
HETATM   20  C8  UNL     1       8.946  -2.126 -28.236  1.00  0.00     0.054 A 
HETATM   21  C9  UNL     1       8.241  -3.307 -28.427  1.00  0.00     0.119 A 
HETATM   22  F1  UNL     1       6.909  -3.279 -28.652  1.00  0.00    -0.206 F 
HETATM   23  C10 UNL     1       8.860  -4.536 -28.394  1.00  0.00     0.072 A 
HETATM   24  C11 UNL     1      10.214  -4.574 -28.164  1.00  0.00     0.048 A 
HETATM   25  C12 UNL     1      10.911  -3.396 -27.974  1.00  0.00     0.003 A 
HETATM   26  N3  UNL     1      11.035  -5.650 -28.084  1.00  0.00    -0.351 N 
HETATM   27  C13 UNL     1      12.212  -3.769 -27.773  1.00  0.00     0.032 A 
HETATM   28  C14 UNL     1      12.258  -5.118 -27.842  1.00  0.00     0.092 A 
BRANCH  26  29
HETATM   29  C15 UNL     1      10.796  -7.049 -28.192  1.00  0.00     0.089 C 
HETATM   30  C16 UNL     1      12.122  -7.772 -27.953  1.00  0.00     0.026 C 
HETATM   31  C17 UNL     1      12.011  -9.121 -28.607  1.00  0.00     0.002 C 
HETATM   32  C18 UNL     1      10.878  -9.032 -29.575  1.00  0.00     0.002 C 
HETATM   33  C19 UNL     1      10.380  -7.586 -29.500  1.00  0.00     0.026 C 
ENDBRANCH  26  29
ENDBRANCH  11  19
TORSDOF 3
ENDMDL
MODEL 4
REMARK VINA RESULT: -8.385228725      3.327      4.908
REMARK  3 active torsions:
REMARK  status: ('A' for Active; 'I' for Inactive)
REMARK    1  A    between atoms: C6_11  and  C7_12 
REMARK    2  A    between atoms: N3_21  and  C15_22 
REMARK    3  A    between atoms: C20_28  and  C21_29 
ROOT
HETATM    1  N1  UNL     1       5.004   3.327 -24.786  1.00  0.00    -0.196 NA
HETATM    2  C1  UNL     1       5.970   2.913 -25.247  1.00  0.00     0.076 C 
HETATM    3  C2  UNL     1       7.180   2.416 -25.843  1.00  0.00     0.216 C 
HETATM    4  C3  UNL     1       8.318   2.291 -24.872  1.00  0.00     0.267 C 
HETATM    5  O1  UNL     1       8.473   2.884 -23.790  1.00  0.00    -0.269 OA
HETATM    6  N2  UNL     1       9.202   1.328 -25.465  1.00  0.00    -0.159 N 
HETATM    7  C4  UNL     1      10.547   0.911 -25.512  1.00  0.00     0.396 A 
HETATM    8  O2  UNL     1      11.537   1.393 -24.890  1.00  0.00    -0.235 OA
HETATM    9  O3  UNL     1      10.590  -0.147 -26.385  1.00  0.00    -0.241 OA
HETATM   10  C5  UNL     1       9.324  -0.444 -26.915  1.00  0.00     0.172 A 
HETATM   11  C6  UNL     1       9.077  -1.423 -27.787  1.00  0.00     0.070 C 
HETATM   12  N4  UNL     1       8.444   0.493 -26.329  1.00  0.00    -0.245 N 
HETATM   13  C20 UNL     1       7.074   0.939 -26.261  1.00  0.00     0.178 C 
ENDROOT
BRANCH  13  14
HETATM   14  C21 UNL     1       6.442   0.240 -25.080  1.00  0.00     0.009 A 
HETATM   15  C22 UNL     1       7.073  -0.347 -24.015  1.00  0.00     0.017 A 
HETATM   16  C23 UNL     1       6.305  -0.922 -23.085  1.00  0.00     0.008 A 
HETATM   17  C24 UNL     1       4.951  -0.878 -23.267  1.00  0.00     0.050 A 
HETATM   18  S1  UNL     1       4.794  -0.031 -24.741  1.00  0.00    -0.104 SA
ENDBRANCH  13  14
BRANCH  11  19
HETATM   19  C7  UNL     1      10.191  -2.267 -28.242  1.00  0.00    -0.017 A 
HETATM   20  C8  UNL     1      11.344  -1.726 -28.767  1.00  0.00     0.054 A 
HETATM   21  C9  UNL     1      12.368  -2.551 -29.214  1.00  0.00     0.119 A 
HETATM   22  F1  UNL     1      13.497  -2.020 -29.731  1.00  0.00    -0.206 F 
HETATM   23  C10 UNL     1      12.273  -3.924 -29.153  1.00  0.00     0.072 A 
HETATM   24  C11 UNL     1      11.127  -4.471 -28.632  1.00  0.00     0.048 A 
HETATM   25  C12 UNL     1      10.112  -3.646 -28.188  1.00  0.00     0.003 A 
HETATM   26  N3  UNL     1      10.803  -5.779 -28.472  1.00  0.00    -0.351 N 
HETATM   27  C13 UNL     1       9.129  -4.484 -27.736  1.00  0.00     0.032 A 
HETATM   28  C14 UNL     1       9.566  -5.750 -27.918  1.00  0.00     0.092 A 
BRANCH  26  29
HETATM   29  C15 UNL     1      11.495  -6.983 -28.784  1.00  0.00     0.089 C 
HETATM   30  C16 UNL     1      10.452  -8.053 -29.108  1.00  0.00     0.026 C 
HETATM   31  C17 UNL     1      11.104  -9.387 -28.872  1.00  0.00     0.002 C 
HETATM   32  C18 UNL     1      12.299  -9.132 -28.015  1.00  0.00     0.002 C 
HETATM   33  C19 UNL     1      12.283  -7.629 -27.719  1.00  0.00     0.026 C 
ENDBRANCH  26  29
ENDBRANCH  11  19
TORSDOF 3
ENDMDL
MODEL 5
REMARK VINA RESULT: -8.361294082      3.874      5.631
REMARK  3 active torsions:
REMARK  status: ('A' for Active; 'I' for Inactive)
REMARK    1  A    between atoms: C6_11  and  C7_12 
REMARK    2  A    between atoms: N3_21  and  C15_22 
REMARK    3  A    between atoms: C20_28  and  C21_29 
ROOT
HETATM    1  N1  UNL     1       6.958   4.125 -23.779  1.00  0.00    -0.196 NA
HETATM    2  C1  UNL     1       6.984   3.408 -24.675  1.00  0.00     0.076 C 
HETATM    3  C2  UNL     1       6.989   2.514 -25.801  1.00  0.00     0.216 C 
HETATM    4  C3  UNL     1       8.000   2.879 -26.849  1.00  0.00     0.267 C 
HETATM    5  O1  UNL     1       8.526   3.987 -27.058  1.00  0.00    -0.269 OA
HETATM    6  N2  UNL     1       8.236   1.660 -27.570  1.00  0.00    -0.159 N 
HETATM    7  C4  UNL     1       8.647   1.149 -28.818  1.00  0.00     0.396 A 
HETATM    8  O2  UNL     1       9.000   1.793 -29.848  1.00  0.00    -0.235 OA
HETATM    9  O3  UNL     1       8.593  -0.217 -28.709  1.00  0.00    -0.241 OA
HETATM   10  C5  UNL     1       8.163  -0.627 -27.438  1.00  0.00     0.172 A 
HETATM   11  C6  UNL     1       8.019  -1.898 -27.058  1.00  0.00     0.070 C 
HETATM   12  N4  UNL     1       7.937   0.566 -26.716  1.00  0.00    -0.245 N 
HETATM   13  C20 UNL     1       7.522   1.115 -25.448  1.00  0.00     0.178 C 
ENDROOT
BRANCH  13  14
HETATM   14  C21 UNL     1       8.776   1.361 -24.643  1.00  0.00     0.009 A 
HETATM   15  C22 UNL     1       8.901   1.427 -23.281  1.00  0.00     0.017 A 
HETATM   16  C23 UNL     1      10.118   1.669 -22.785  1.00  0.00     0.008 A 
HETATM   17  C24 UNL     1      11.143   1.831 -23.675  1.00  0.00     0.050 A 
HETATM   18  S1  UNL     1      10.368   1.639 -25.185  1.00  0.00    -0.104 SA
ENDBRANCH  13  14
BRANCH  11  19
HETATM   19  C7  UNL     1       8.327  -2.966 -28.021  1.00  0.00    -0.017 A 
HETATM   20  C8  UNL     1       9.530  -3.635 -28.002  1.00  0.00     0.054 A 
HETATM   21  C9  UNL     1       9.802  -4.620 -28.943  1.00  0.00     0.119 A 
HETATM   22  F1  UNL     1      10.983  -5.275 -28.925  1.00  0.00    -0.206 F 
HETATM   23  C10 UNL     1       8.893  -4.963 -29.919  1.00  0.00     0.072 A 
HETATM   24  C11 UNL     1       7.690  -4.300 -29.945  1.00  0.00     0.048 A 
HETATM   25  C12 UNL     1       7.425  -3.321 -29.007  1.00  0.00     0.003 A 
HETATM   26  N3  UNL     1       6.649  -4.456 -30.800  1.00  0.00    -0.351 N 
HETATM   27  C13 UNL     1       6.169  -2.863 -29.300  1.00  0.00     0.032 A 
HETATM   28  C14 UNL     1       5.730  -3.556 -30.374  1.00  0.00     0.092 A 
BRANCH  26  29
HETATM   29  C15 UNL     1       6.450  -5.309 -31.923  1.00  0.00     0.089 C 
HETATM   30  C16 UNL     1       6.252  -4.424 -33.155  1.00  0.00     0.026 C 
HETATM   31  C17 UNL     1       5.502  -5.244 -34.167  1.00  0.00     0.002 C 
HETATM   32  C18 UNL     1       4.878  -6.376 -33.421  1.00  0.00     0.002 C 
HETATM   33  C19 UNL     1       5.243  -6.154 -31.950  1.00  0.00     0.026 C 
ENDBRANCH  26  29
ENDBRANCH  11  19
TORSDOF 3
ENDMDL
