MODEL 1
REMARK VINA RESULT: -7.479316680      0.000      0.000
REMARK  3 active torsions:
REMARK  status: ('A' for Active; 'I' for Inactive)
REMARK    1  A    between atoms: C3_4  and  N2_5 
REMARK       I    between atoms: N2_5  and  C4_7 
REMARK       I    between atoms: C4_7  and  N3_9 
REMARK    2  A    between atoms: C8_13  and  N4_14 
REMARK       I    between atoms: N4_14  and  C9_16 
REMARK    3  A    between atoms: C9_16  and  C10_18 
ROOT
HETATM    1  N2  UNL     1      30.732  13.935  21.690  1.00  0.00    -0.306 N 
ATOM      2  H2  UNL     1      31.338  13.125  21.817  1.00  0.00     0.171 HD
HETATM    3  C4  UNL     1      29.377  13.733  21.352  1.00  0.00     0.323 C 
HETATM    4  O1  UNL     1      28.559  14.695  21.177  1.00  0.00    -0.247 OA
HETATM    5  N3  UNL     1      28.901  12.386  21.199  1.00  0.00    -0.332 N 
HETATM    6  C5  UNL     1      29.801  11.301  21.389  1.00  0.00     0.127 C 
HETATM    7  C6  UNL     1      29.142   9.967  21.187  1.00  0.00     0.022 C 
HETATM    8  C7  UNL     1      28.224   9.897  20.030  1.00  0.00     0.028 C 
HETATM    9  C8  UNL     1      27.348  11.083  19.821  1.00  0.00     0.102 C 
HETATM   10  C15 UNL     1      27.545  12.164  20.861  1.00  0.00     0.152 C 
ENDROOT
BRANCH   1  11
HETATM   11  C3  UNL     1      31.273  15.229  21.857  1.00  0.00     0.070 A 
HETATM   12  C2  UNL     1      31.339  16.051  22.941  1.00  0.00     0.140 A 
HETATM   13  N1  UNL     1      31.964  17.226  22.618  1.00  0.00    -0.306 N 
HETATM   14  C1  UNL     1      32.202  18.332  23.551  1.00  0.00     0.177 C 
HETATM   15  N5  UNL     1      32.288  17.146  21.345  1.00  0.00    -0.308 N 
HETATM   16  C16 UNL     1      31.899  15.971  20.835  1.00  0.00     0.138 A 
ATOM     17  H5  UNL     1      32.769  17.878  20.820  1.00  0.00     0.186 HD
ENDBRANCH   1  11
BRANCH   9  18
HETATM   18  N4  UNL     1      25.941  10.719  19.709  1.00  0.00    -0.355 N 
HETATM   19  C9  UNL     1      25.082  11.317  18.748  1.00  0.00     0.222 C 
HETATM   20  O2  UNL     1      25.552  12.202  17.955  1.00  0.00    -0.273 OA
ATOM     21  H4  UNL     1      25.561  10.014  20.340  1.00  0.00     0.162 HD
BRANCH  19  22
HETATM   22  C10 UNL     1      23.671  10.906  18.684  1.00  0.00     0.078 C 
HETATM   23  C11 UNL     1      22.919  11.650  19.754  1.00  0.00     0.014 C 
HETATM   24  C12 UNL     1      22.081  10.611  20.494  1.00  0.00     0.001 C 
HETATM   25  C13 UNL     1      22.024   9.453  19.493  1.00  0.00     0.001 C 
HETATM   26  C14 UNL     1      23.484   9.444  19.023  1.00  0.00     0.014 C 
ENDBRANCH  19  22
ENDBRANCH   9  18
TORSDOF 3
ENDMDL
MODEL 2
REMARK VINA RESULT: -7.065025808      4.803      9.901
REMARK  3 active torsions:
REMARK  status: ('A' for Active; 'I' for Inactive)
REMARK    1  A    between atoms: C3_4  and  N2_5 
REMARK       I    between atoms: N2_5  and  C4_7 
REMARK       I    between atoms: C4_7  and  N3_9 
REMARK    2  A    between atoms: C8_13  and  N4_14 
REMARK       I    between atoms: N4_14  and  C9_16 
REMARK    3  A    between atoms: C9_16  and  C10_18 
ROOT
HETATM    1  N2  UNL     1      19.868  11.699  23.393  1.00  0.00    -0.306 N 
ATOM      2  H2  UNL     1      19.697  12.652  23.071  1.00  0.00     0.171 HD
HETATM    3  C4  UNL     1      21.153  11.140  23.228  1.00  0.00     0.323 C 
HETATM    4  O1  UNL     1      21.444   9.956  23.605  1.00  0.00    -0.247 OA
HETATM    5  N3  UNL     1      22.175  11.937  22.609  1.00  0.00    -0.332 N 
HETATM    6  C5  UNL     1      21.869  13.258  22.182  1.00  0.00     0.127 C 
HETATM    7  C6  UNL     1      23.047  13.947  21.555  1.00  0.00     0.022 C 
HETATM    8  C7  UNL     1      23.844  13.102  20.641  1.00  0.00     0.028 C 
HETATM    9  C8  UNL     1      24.084  11.702  21.090  1.00  0.00     0.102 C 
HETATM   10  C15 UNL     1      23.470  11.391  22.437  1.00  0.00     0.152 C 
ENDROOT
BRANCH   1  11
HETATM   11  C3  UNL     1      18.812  10.977  23.992  1.00  0.00     0.070 A 
HETATM   12  C2  UNL     1      17.901  10.108  23.474  1.00  0.00     0.140 A 
HETATM   13  N1  UNL     1      17.060   9.651  24.454  1.00  0.00    -0.306 N 
HETATM   14  C1  UNL     1      15.962   8.702  24.239  1.00  0.00     0.177 C 
HETATM   15  N5  UNL     1      17.436  10.225  25.576  1.00  0.00    -0.308 N 
HETATM   16  C16 UNL     1      18.484  11.031  25.361  1.00  0.00     0.138 A 
ATOM     17  H5  UNL     1      16.993  10.077  26.483  1.00  0.00     0.186 HD
ENDBRANCH   1  11
BRANCH   9  18
HETATM   18  N4  UNL     1      25.498  11.348  21.069  1.00  0.00    -0.355 N 
HETATM   19  C9  UNL     1      26.144  10.894  19.887  1.00  0.00     0.222 C 
HETATM   20  O2  UNL     1      25.469  10.790  18.807  1.00  0.00    -0.273 OA
ATOM     21  H4  UNL     1      26.041  11.429  21.928  1.00  0.00     0.162 HD
BRANCH  19  22
HETATM   22  C10 UNL     1      27.574  10.553  19.930  1.00  0.00     0.078 C 
HETATM   23  C11 UNL     1      27.750   9.397  20.877  1.00  0.00     0.014 C 
HETATM   24  C12 UNL     1      28.904   9.772  21.804  1.00  0.00     0.001 C 
HETATM   25  C13 UNL     1      29.624  10.871  21.015  1.00  0.00     0.001 C 
HETATM   26  C14 UNL     1      28.411  11.668  20.517  1.00  0.00     0.014 C 
ENDBRANCH  19  22
ENDBRANCH   9  18
TORSDOF 3
ENDMDL
MODEL 3
REMARK VINA RESULT: -7.048329434      0.988      1.066
REMARK  3 active torsions:
REMARK  status: ('A' for Active; 'I' for Inactive)
REMARK    1  A    between atoms: C3_4  and  N2_5 
REMARK       I    between atoms: N2_5  and  C4_7 
REMARK       I    between atoms: C4_7  and  N3_9 
REMARK    2  A    between atoms: C8_13  and  N4_14 
REMARK       I    between atoms: N4_14  and  C9_16 
REMARK    3  A    between atoms: C9_16  and  C10_18 
ROOT
HETATM    1  N2  UNL     1      30.152  14.268  22.426  1.00  0.00    -0.306 N 
ATOM      2  H2  UNL     1      30.868  13.554  22.293  1.00  0.00     0.171 HD
HETATM    3  C4  UNL     1      28.810  13.958  22.118  1.00  0.00     0.323 C 
HETATM    4  O1  UNL     1      27.859  14.797  22.258  1.00  0.00    -0.247 OA
HETATM    5  N3  UNL     1      28.503  12.645  21.625  1.00  0.00    -0.332 N 
HETATM    6  C5  UNL     1      29.551  11.698  21.461  1.00  0.00     0.127 C 
HETATM    7  C6  UNL     1      29.058  10.380  20.934  1.00  0.00     0.022 C 
HETATM    8  C7  UNL     1      28.055  10.482  19.854  1.00  0.00     0.028 C 
HETATM    9  C8  UNL     1      27.014  11.533  20.026  1.00  0.00     0.102 C 
HETATM   10  C15 UNL     1      27.162  12.317  21.311  1.00  0.00     0.152 C 
ENDROOT
BRANCH   1  11
HETATM   11  C3  UNL     1      30.530  15.538  22.914  1.00  0.00     0.070 A 
HETATM   12  C2  UNL     1      30.585  16.044  24.178  1.00  0.00     0.140 A 
HETATM   13  N1  UNL     1      31.018  17.343  24.158  1.00  0.00    -0.306 N 
HETATM   14  C1  UNL     1      31.192  18.186  25.346  1.00  0.00     0.177 C 
HETATM   15  N5  UNL     1      31.235  17.652  22.897  1.00  0.00    -0.308 N 
HETATM   16  C16 UNL     1      30.959  16.609  22.105  1.00  0.00     0.138 A 
ATOM     17  H5  UNL     1      31.566  18.560  22.570  1.00  0.00     0.186 HD
ENDBRANCH   1  11
BRANCH   9  18
HETATM   18  N4  UNL     1      25.663  11.003  19.892  1.00  0.00    -0.355 N 
HETATM   19  C9  UNL     1      24.675  11.647  19.101  1.00  0.00     0.222 C 
HETATM   20  O2  UNL     1      24.974  12.726  18.484  1.00  0.00    -0.273 OA
ATOM     21  H4  UNL     1      25.420  10.142  20.383  1.00  0.00     0.162 HD
BRANCH  19  22
HETATM   22  C10 UNL     1      23.330  11.061  19.006  1.00  0.00     0.078 C 
HETATM   23  C11 UNL     1      22.536  11.518  20.200  1.00  0.00     0.014 C 
HETATM   24  C12 UNL     1      21.877  10.270  20.782  1.00  0.00     0.001 C 
HETATM   25  C13 UNL     1      21.927   9.287  19.608  1.00  0.00     0.001 C 
HETATM   26  C14 UNL     1      23.353   9.552  19.109  1.00  0.00     0.014 C 
ENDBRANCH  19  22
ENDBRANCH   9  18
TORSDOF 3
ENDMDL
MODEL 4
REMARK VINA RESULT: -6.845329566      5.666      8.742
REMARK  3 active torsions:
REMARK  status: ('A' for Active; 'I' for Inactive)
REMARK    1  A    between atoms: C3_4  and  N2_5 
REMARK       I    between atoms: N2_5  and  C4_7 
REMARK       I    between atoms: C4_7  and  N3_9 
REMARK    2  A    between atoms: C8_13  and  N4_14 
REMARK       I    between atoms: N4_14  and  C9_16 
REMARK    3  A    between atoms: C9_16  and  C10_18 
ROOT
HETATM    1  N2  UNL     1      21.259  13.881  25.154  1.00  0.00    -0.306 N 
ATOM      2  H2  UNL     1      20.689  14.319  24.431  1.00  0.00     0.171 HD
HETATM    3  C4  UNL     1      22.534  13.382  24.814  1.00  0.00     0.323 C 
HETATM    4  O1  UNL     1      23.305  12.822  25.662  1.00  0.00    -0.247 OA
HETATM    5  N3  UNL     1      22.982  13.511  23.455  1.00  0.00    -0.332 N 
HETATM    6  C5  UNL     1      22.136  14.132  22.497  1.00  0.00     0.127 C 
HETATM    7  C6  UNL     1      22.755  14.180  21.129  1.00  0.00     0.022 C 
HETATM    8  C7  UNL     1      23.455  12.943  20.722  1.00  0.00     0.028 C 
HETATM    9  C8  UNL     1      24.276  12.282  21.775  1.00  0.00     0.102 C 
HETATM   10  C15 UNL     1      24.259  13.017  23.097  1.00  0.00     0.152 C 
ENDROOT
BRANCH   1  11
HETATM   11  C3  UNL     1      20.750  13.790  26.469  1.00  0.00     0.070 A 
HETATM   12  C2  UNL     1      20.055  12.807  27.106  1.00  0.00     0.140 A 
HETATM   13  N1  UNL     1      19.774  13.174  28.395  1.00  0.00    -0.306 N 
HETATM   14  C1  UNL     1      19.039  12.349  29.359  1.00  0.00     0.177 C 
HETATM   15  N5  UNL     1      20.286  14.374  28.570  1.00  0.00    -0.308 N 
HETATM   16  C16 UNL     1      20.885  14.795  27.448  1.00  0.00     0.138 A 
ATOM     17  H5  UNL     1      20.234  14.908  29.437  1.00  0.00     0.186 HD
ENDBRANCH   1  11
BRANCH   9  18
HETATM   18  N4  UNL     1      25.643  12.032  21.335  1.00  0.00    -0.355 N 
HETATM   19  C9  UNL     1      25.994  10.878  20.584  1.00  0.00     0.222 C 
HETATM   20  O2  UNL     1      25.086  10.030  20.282  1.00  0.00    -0.273 OA
ATOM     21  H4  UNL     1      26.370  12.705  21.575  1.00  0.00     0.162 HD
BRANCH  19  22
HETATM   22  C10 UNL     1      27.391  10.682  20.170  1.00  0.00     0.078 C 
HETATM   23  C11 UNL     1      27.946   9.512  20.936  1.00  0.00     0.014 C 
HETATM   24  C12 UNL     1      29.292   9.962  21.495  1.00  0.00     0.001 C 
HETATM   25  C13 UNL     1      29.640  11.160  20.605  1.00  0.00     0.001 C 
HETATM   26  C14 UNL     1      28.271  11.850  20.554  1.00  0.00     0.014 C 
ENDBRANCH  19  22
ENDBRANCH   9  18
TORSDOF 3
ENDMDL
MODEL 5
REMARK VINA RESULT: -6.742715553      1.459      1.725
REMARK  3 active torsions:
REMARK  status: ('A' for Active; 'I' for Inactive)
REMARK    1  A    between atoms: C3_4  and  N2_5 
REMARK       I    between atoms: N2_5  and  C4_7 
REMARK       I    between atoms: C4_7  and  N3_9 
REMARK    2  A    between atoms: C8_13  and  N4_14 
REMARK       I    between atoms: N4_14  and  C9_16 
REMARK    3  A    between atoms: C9_16  and  C10_18 
ROOT
HETATM    1  N2  UNL     1      29.819  14.477  22.898  1.00  0.00    -0.306 N 
ATOM      2  H2  UNL     1      30.581  13.831  22.695  1.00  0.00     0.171 HD
HETATM    3  C4  UNL     1      28.500  14.112  22.556  1.00  0.00     0.323 C 
HETATM    4  O1  UNL     1      27.495  14.866  22.778  1.00  0.00    -0.247 OA
HETATM    5  N3  UNL     1      28.280  12.837  21.931  1.00  0.00    -0.332 N 
HETATM    6  C5  UNL     1      29.388  11.984  21.676  1.00  0.00     0.127 C 
HETATM    7  C6  UNL     1      28.982  10.697  21.016  1.00  0.00     0.022 C 
HETATM    8  C7  UNL     1      27.970  10.840  19.948  1.00  0.00     0.028 C 
HETATM    9  C8  UNL     1      26.863  11.797  20.224  1.00  0.00     0.102 C 
HETATM   10  C15 UNL     1      26.963  12.455  21.582  1.00  0.00     0.152 C 
ENDROOT
BRANCH   1  11
HETATM   11  C3  UNL     1      30.113  15.714  23.514  1.00  0.00     0.070 A 
HETATM   12  C2  UNL     1      30.402  16.939  22.994  1.00  0.00     0.140 A 
HETATM   13  N1  UNL     1      30.620  17.848  23.996  1.00  0.00    -0.306 N 
HETATM   14  C1  UNL     1      30.954  19.261  23.787  1.00  0.00     0.177 C 
HETATM   15  N5  UNL     1      30.470  17.203  25.133  1.00  0.00    -0.308 N 
HETATM   16  C16 UNL     1      30.165  15.919  24.907  1.00  0.00     0.138 A 
ATOM     17  H5  UNL     1      30.572  17.623  26.058  1.00  0.00     0.186 HD
ENDBRANCH   1  11
BRANCH   9  18
HETATM   18  N4  UNL     1      25.549  11.193  20.033  1.00  0.00    -0.355 N 
HETATM   19  C9  UNL     1      24.530  11.830  19.275  1.00  0.00     0.222 C 
HETATM   20  O2  UNL     1      24.766  12.967  18.742  1.00  0.00    -0.273 OA
ATOM     21  H4  UNL     1      25.356  10.286  20.457  1.00  0.00     0.162 HD
BRANCH  19  22
HETATM   22  C10 UNL     1      23.226  11.169  19.119  1.00  0.00     0.078 C 
HETATM   23  C11 UNL     1      22.393  11.486  20.331  1.00  0.00     0.014 C 
HETATM   24  C12 UNL     1      21.810  10.161  20.812  1.00  0.00     0.001 C 
HETATM   25  C13 UNL     1      21.934   9.270  19.571  1.00  0.00     0.001 C 
HETATM   26  C14 UNL     1      23.344   9.661  19.112  1.00  0.00     0.014 C 
ENDBRANCH  19  22
ENDBRANCH   9  18
TORSDOF 3
ENDMDL
