MODEL 1
REMARK VINA RESULT: -6.887877792      0.000      0.000
REMARK  4 active torsions:
REMARK  status: ('A' for Active; 'I' for Inactive)
REMARK    1  A    between atoms: N3_7  and  C4_8 
REMARK    2  A    between atoms: N4_11  and  C7_12 
REMARK    3  A    between atoms: C13_18  and  N5_19 
REMARK       I    between atoms: N5_19  and  C14_21 
REMARK    4  A    between atoms: C14_21  and  C15_23 
ROOT
HETATM    1  N1  UNL     1      19.634  13.065  30.431  1.00  0.00    -0.191 NA
HETATM    2  C1  UNL     1      20.178  12.804  29.431  1.00  0.00     0.105 C 
HETATM    3  C2  UNL     1      20.871  12.486  28.210  1.00  0.00     0.107 A 
HETATM    4  C3  UNL     1      22.232  12.610  27.996  1.00  0.00     0.134 A 
HETATM    5  N2  UNL     1      22.457  12.216  26.752  1.00  0.00    -0.306 N 
ATOM      6  H2  UNL     1      23.383  12.204  26.324  1.00  0.00     0.186 HD
HETATM    7  N3  UNL     1      21.366  11.843  26.127  1.00  0.00    -0.266 N 
HETATM    8  C13 UNL     1      20.351  12.006  27.033  1.00  0.00     0.148 A 
ENDROOT
BRANCH   8   9
HETATM    9  N5  UNL     1      19.127  11.747  26.790  1.00  0.00    -0.310 N 
HETATM   10  C14 UNL     1      18.075  12.599  26.490  1.00  0.00     0.233 C 
HETATM   11  O1  UNL     1      17.386  13.166  27.374  1.00  0.00    -0.272 OA
ATOM     12  H5  UNL     1      18.882  10.758  26.823  1.00  0.00     0.170 HD
BRANCH  10  13
HETATM   13  C15 UNL     1      17.738  12.862  25.068  1.00  0.00     0.189 C 
HETATM   14  S1  UNL     1      17.431  11.375  24.124  1.00  0.00    -0.088 SA
ENDBRANCH  10  13
ENDBRANCH   8   9
BRANCH   7  15
HETATM   15  C4  UNL     1      21.156  11.362  24.815  1.00  0.00     0.149 C 
HETATM   16  C5  UNL     1      21.557   9.926  24.583  1.00  0.00     0.052 C 
HETATM   17  C6  UNL     1      21.543   9.922  23.036  1.00  0.00     0.125 C 
HETATM   18  N4  UNL     1      21.789  11.242  22.652  1.00  0.00    -0.387 N 
HETATM   19  C12 UNL     1      22.003  12.071  23.759  1.00  0.00     0.086 C 
BRANCH  18  20
HETATM   20  C7  UNL     1      21.891  11.652  21.346  1.00  0.00     0.083 C 
HETATM   21  C8  UNL     1      22.620  10.563  20.540  1.00  0.00     0.025 C 
HETATM   22  C9  UNL     1      22.968  11.267  19.261  1.00  0.00     0.002 C 
HETATM   23  C10 UNL     1      23.054  12.736  19.606  1.00  0.00     0.002 C 
HETATM   24  C11 UNL     1      22.860  12.818  21.107  1.00  0.00     0.025 C 
ENDBRANCH  18  20
ENDBRANCH   7  15
TORSDOF 4
ENDMDL
MODEL 2
REMARK VINA RESULT: -6.797596692      2.454      3.034
REMARK  4 active torsions:
REMARK  status: ('A' for Active; 'I' for Inactive)
REMARK    1  A    between atoms: N3_7  and  C4_8 
REMARK    2  A    between atoms: N4_11  and  C7_12 
REMARK    3  A    between atoms: C13_18  and  N5_19 
REMARK       I    between atoms: N5_19  and  C14_21 
REMARK    4  A    between atoms: C14_21  and  C15_23 
ROOT
HETATM    1  N1  UNL     1      21.220  14.068  29.293  1.00  0.00    -0.191 NA
HETATM    2  C1  UNL     1      21.145  13.293  28.422  1.00  0.00     0.105 C 
HETATM    3  C2  UNL     1      21.044  12.320  27.366  1.00  0.00     0.107 A 
HETATM    4  C3  UNL     1      20.805  10.968  27.532  1.00  0.00     0.134 A 
HETATM    5  N2  UNL     1      20.789  10.434  26.320  1.00  0.00    -0.306 N 
ATOM      6  H2  UNL     1      20.633   9.442  26.144  1.00  0.00     0.186 HD
HETATM    7  N3  UNL     1      20.995  11.316  25.370  1.00  0.00    -0.266 N 
HETATM    8  C13 UNL     1      21.158  12.515  26.011  1.00  0.00     0.148 A 
ENDROOT
BRANCH   8   9
HETATM    9  N5  UNL     1      21.383  13.620  25.417  1.00  0.00    -0.310 N 
HETATM   10  C14 UNL     1      22.550  14.362  25.320  1.00  0.00     0.233 C 
HETATM   11  O1  UNL     1      22.898  15.197  26.191  1.00  0.00    -0.272 OA
ATOM     12  H5  UNL     1      20.578  14.021  24.938  1.00  0.00     0.170 HD
BRANCH  10  13
HETATM   13  C15 UNL     1      23.435  14.172  24.143  1.00  0.00     0.189 C 
HETATM   14  S1  UNL     1      22.624  14.507  22.584  1.00  0.00    -0.088 SA
ENDBRANCH  10  13
ENDBRANCH   8   9
BRANCH   7  15
HETATM   15  C4  UNL     1      21.057  11.180  23.965  1.00  0.00     0.149 C 
HETATM   16  C5  UNL     1      20.178  10.100  23.382  1.00  0.00     0.052 C 
HETATM   17  C6  UNL     1      20.804  10.021  21.969  1.00  0.00     0.125 C 
HETATM   18  N4  UNL     1      22.126  10.449  22.116  1.00  0.00    -0.387 N 
HETATM   19  C12 UNL     1      22.428  10.743  23.451  1.00  0.00     0.086 C 
BRANCH  18  20
HETATM   20  C7  UNL     1      23.034  10.491  21.088  1.00  0.00     0.083 C 
HETATM   21  C8  UNL     1      22.664  11.649  20.146  1.00  0.00     0.025 C 
HETATM   22  C9  UNL     1      23.490  11.367  18.925  1.00  0.00     0.002 C 
HETATM   23  C10 UNL     1      23.731   9.875  18.922  1.00  0.00     0.002 C 
HETATM   24  C11 UNL     1      22.935   9.328  20.090  1.00  0.00     0.025 C 
ENDBRANCH  18  20
ENDBRANCH   7  15
TORSDOF 4
ENDMDL
MODEL 3
REMARK VINA RESULT: -6.792035561      1.019      1.021
REMARK  4 active torsions:
REMARK  status: ('A' for Active; 'I' for Inactive)
REMARK    1  A    between atoms: N3_7  and  C4_8 
REMARK    2  A    between atoms: N4_11  and  C7_12 
REMARK    3  A    between atoms: C13_18  and  N5_19 
REMARK       I    between atoms: N5_19  and  C14_21 
REMARK    4  A    between atoms: C14_21  and  C15_23 
ROOT
HETATM    1  N1  UNL     1      18.949  12.258  29.678  1.00  0.00    -0.191 NA
HETATM    2  C1  UNL     1      19.676  12.161  28.769  1.00  0.00     0.105 C 
HETATM    3  C2  UNL     1      20.593  12.051  27.665  1.00  0.00     0.107 A 
HETATM    4  C3  UNL     1      21.890  12.528  27.639  1.00  0.00     0.134 A 
HETATM    5  N2  UNL     1      22.383  12.224  26.448  1.00  0.00    -0.306 N 
ATOM      6  H2  UNL     1      23.330  12.460  26.154  1.00  0.00     0.186 HD
HETATM    7  N3  UNL     1      21.524  11.587  25.686  1.00  0.00    -0.266 N 
HETATM    8  C13 UNL     1      20.386  11.468  26.438  1.00  0.00     0.148 A 
ENDROOT
BRANCH   8   9
HETATM    9  N5  UNL     1      19.317  10.902  26.034  1.00  0.00    -0.310 N 
HETATM   10  C14 UNL     1      18.167  11.449  25.489  1.00  0.00     0.233 C 
HETATM   11  O1  UNL     1      17.220  11.881  26.192  1.00  0.00    -0.272 OA
ATOM     12  H5  UNL     1      19.307   9.887  26.128  1.00  0.00     0.170 HD
BRANCH  10  13
HETATM   13  C15 UNL     1      18.034  11.536  24.012  1.00  0.00     0.189 C 
HETATM   14  S1  UNL     1      17.073  10.203  23.307  1.00  0.00    -0.088 SA
ENDBRANCH  10  13
ENDBRANCH   8   9
BRANCH   7  15
HETATM   15  C4  UNL     1      21.633  11.087  24.370  1.00  0.00     0.149 C 
HETATM   16  C5  UNL     1      22.678  10.015  24.172  1.00  0.00     0.052 C 
HETATM   17  C6  UNL     1      22.745  10.031  22.626  1.00  0.00     0.125 C 
HETATM   18  N4  UNL     1      22.353  11.316  22.243  1.00  0.00    -0.387 N 
HETATM   19  C12 UNL     1      22.094  12.129  23.353  1.00  0.00     0.086 C 
BRANCH  18  20
HETATM   20  C7  UNL     1      22.314  11.747  20.941  1.00  0.00     0.083 C 
HETATM   21  C8  UNL     1      23.289  10.898  20.108  1.00  0.00     0.025 C 
HETATM   22  C9  UNL     1      23.409  11.677  18.831  1.00  0.00     0.002 C 
HETATM   23  C10 UNL     1      23.108  13.114  19.192  1.00  0.00     0.002 C 
HETATM   24  C11 UNL     1      22.932  13.131  20.697  1.00  0.00     0.025 C 
ENDBRANCH  18  20
ENDBRANCH   7  15
TORSDOF 4
ENDMDL
MODEL 4
REMARK VINA RESULT: -6.716595910      6.688      8.998
REMARK  4 active torsions:
REMARK  status: ('A' for Active; 'I' for Inactive)
REMARK    1  A    between atoms: N3_7  and  C4_8 
REMARK    2  A    between atoms: N4_11  and  C7_12 
REMARK    3  A    between atoms: C13_18  and  N5_19 
REMARK       I    between atoms: N5_19  and  C14_21 
REMARK    4  A    between atoms: C14_21  and  C15_23 
ROOT
HETATM    1  N1  UNL     1      30.613  14.523  22.521  1.00  0.00    -0.191 NA
HETATM    2  C1  UNL     1      29.731  14.289  21.791  1.00  0.00     0.105 C 
HETATM    3  C2  UNL     1      28.652  14.022  20.877  1.00  0.00     0.107 A 
HETATM    4  C3  UNL     1      28.220  14.862  19.867  1.00  0.00     0.134 A 
HETATM    5  N2  UNL     1      27.214  14.246  19.266  1.00  0.00    -0.306 N 
ATOM      6  H2  UNL     1      26.702  14.642  18.478  1.00  0.00     0.186 HD
HETATM    7  N3  UNL     1      26.944  13.074  19.790  1.00  0.00    -0.266 N 
HETATM    8  C13 UNL     1      27.843  12.914  20.811  1.00  0.00     0.148 A 
ENDROOT
BRANCH   8   9
HETATM    9  N5  UNL     1      27.894  11.888  21.566  1.00  0.00    -0.310 N 
HETATM   10  C14 UNL     1      28.535  10.673  21.381  1.00  0.00     0.233 C 
HETATM   11  O1  UNL     1      28.012   9.716  20.756  1.00  0.00    -0.272 OA
ATOM     12  H5  UNL     1      27.381  11.974  22.443  1.00  0.00     0.170 HD
BRANCH  10  13
HETATM   13  C15 UNL     1      29.897  10.478  21.940  1.00  0.00     0.189 C 
HETATM   14  S1  UNL     1      29.971   9.216  23.205  1.00  0.00    -0.088 SA
ENDBRANCH  10  13
ENDBRANCH   8   9
BRANCH   7  15
HETATM   15  C4  UNL     1      25.970  12.105  19.463  1.00  0.00     0.149 C 
HETATM   16  C5  UNL     1      25.712  11.922  17.987  1.00  0.00     0.052 C 
HETATM   17  C6  UNL     1      24.390  11.122  18.074  1.00  0.00     0.125 C 
HETATM   18  N4  UNL     1      23.806  11.488  19.289  1.00  0.00    -0.387 N 
HETATM   19  C12 UNL     1      24.567  12.452  19.959  1.00  0.00     0.086 C 
BRANCH  18  20
HETATM   20  C7  UNL     1      22.592  11.018  19.724  1.00  0.00     0.083 C 
HETATM   21  C8  UNL     1      22.528  11.152  21.255  1.00  0.00     0.025 C 
HETATM   22  C9  UNL     1      21.343  10.306  21.618  1.00  0.00     0.002 C 
HETATM   23  C10 UNL     1      21.215   9.278  20.517  1.00  0.00     0.002 C 
HETATM   24  C11 UNL     1      22.406   9.498  19.607  1.00  0.00     0.025 C 
ENDBRANCH  18  20
ENDBRANCH   7  15
TORSDOF 4
ENDMDL
MODEL 5
REMARK VINA RESULT: -6.675876198      5.915      7.177
REMARK  4 active torsions:
REMARK  status: ('A' for Active; 'I' for Inactive)
REMARK    1  A    between atoms: N3_7  and  C4_8 
REMARK    2  A    between atoms: N4_11  and  C7_12 
REMARK    3  A    between atoms: C13_18  and  N5_19 
REMARK       I    between atoms: N5_19  and  C14_21 
REMARK    4  A    between atoms: C14_21  and  C15_23 
ROOT
HETATM    1  N1  UNL     1      28.931  14.624  26.200  1.00  0.00    -0.191 NA
HETATM    2  C1  UNL     1      27.961  14.576  25.551  1.00  0.00     0.105 C 
HETATM    3  C2  UNL     1      26.752  14.529  24.771  1.00  0.00     0.107 A 
HETATM    4  C3  UNL     1      25.478  14.800  25.236  1.00  0.00     0.134 A 
HETATM    5  N2  UNL     1      24.658  14.643  24.209  1.00  0.00    -0.306 N 
ATOM      6  H2  UNL     1      23.649  14.780  24.267  1.00  0.00     0.186 HD
HETATM    7  N3  UNL     1      25.279  14.292  23.107  1.00  0.00    -0.266 N 
HETATM    8  C13 UNL     1      26.605  14.215  23.442  1.00  0.00     0.148 A 
ENDROOT
BRANCH   8   9
HETATM    9  N5  UNL     1      27.532  13.895  22.628  1.00  0.00    -0.310 N 
HETATM   10  C14 UNL     1      28.146  12.673  22.407  1.00  0.00     0.233 C 
HETATM   11  O1  UNL     1      29.125  12.272  23.084  1.00  0.00    -0.272 OA
ATOM     12  H5  UNL     1      27.875  14.660  22.048  1.00  0.00     0.170 HD
BRANCH  10  13
HETATM   13  C15 UNL     1      27.637  11.789  21.327  1.00  0.00     0.189 C 
HETATM   14  S1  UNL     1      28.801  10.522  20.840  1.00  0.00    -0.088 SA
ENDBRANCH  10  13
ENDBRANCH   8   9
BRANCH   7  15
HETATM   15  C4  UNL     1      24.798  14.025  21.806  1.00  0.00     0.149 C 
HETATM   16  C5  UNL     1      23.749  14.984  21.297  1.00  0.00     0.052 C 
HETATM   17  C6  UNL     1      23.238  14.160  20.091  1.00  0.00     0.125 C 
HETATM   18  N4  UNL     1      23.490  12.824  20.413  1.00  0.00    -0.387 N 
HETATM   19  C12 UNL     1      24.052  12.696  21.688  1.00  0.00     0.086 C 
BRANCH  18  20
HETATM   20  C7  UNL     1      23.146  11.767  19.608  1.00  0.00     0.083 C 
HETATM   21  C8  UNL     1      22.203  10.835  20.387  1.00  0.00     0.025 C 
HETATM   22  C9  UNL     1      22.193   9.589  19.551  1.00  0.00     0.002 C 
HETATM   23  C10 UNL     1      23.506   9.581  18.803  1.00  0.00     0.002 C 
HETATM   24  C11 UNL     1      24.282  10.775  19.322  1.00  0.00     0.025 C 
ENDBRANCH  18  20
ENDBRANCH   7  15
TORSDOF 4
ENDMDL
