MODEL 1
REMARK VINA RESULT: -7.047017539      0.000      0.000
REMARK  11 active torsions:
REMARK  status: ('A' for Active; 'I' for Inactive)
REMARK    1  A    between atoms: C2_2  and  O1_4 
REMARK    2  A    between atoms: C2_2  and  C4_6 
REMARK    3  A    between atoms: C4_6  and  N1_7 
REMARK    4  A    between atoms: N2_15  and  C12_16 
REMARK    5  A    between atoms: C14_18  and  C15_19 
REMARK    6  A    between atoms: C15_19  and  C16_20 
REMARK    7  A    between atoms: C16_20  and  C17_21 
REMARK    8  A    between atoms: C17_21  and  C18_22 
REMARK       I    between atoms: N4_28  and  C21_30 
REMARK       I    between atoms: C21_30  and  N5_32 
REMARK    9  A    between atoms: N5_32  and  C22_34 
REMARK   10  A    between atoms: C22_34  and  C23_35 
REMARK   11  A    between atoms: C23_35  and  O3_36 
ROOT
HETATM    1  C12 UNL     1       0.628  10.430  30.243  1.00  0.00     0.076 A 
HETATM    2  C13 UNL     1       1.691  11.303  30.326  1.00  0.00     0.055 A 
HETATM    3  C14 UNL     1       2.793  11.111  29.518  1.00  0.00     0.035 A 
HETATM    4  C19 UNL     1       2.879  10.073  28.620  1.00  0.00     0.110 A 
HETATM    5  N3  UNL     1       1.853   9.232  28.541  1.00  0.00    -0.349 N 
ATOM      6  H3  UNL     1       1.892   8.453  27.883  1.00  0.00     0.167 HD
HETATM    7  C20 UNL     1       0.749   9.392  29.323  1.00  0.00     0.136 A 
HETATM    8  N4  UNL     1      -0.190   8.548  29.180  1.00  0.00    -0.293 N 
ATOM      9  H4  UNL     1      -1.047   8.616  29.730  1.00  0.00     0.172 HD
HETATM   10  C21 UNL     1      -0.008   7.491  28.216  1.00  0.00     0.325 C 
HETATM   11  O2  UNL     1      -0.250   7.740  26.985  1.00  0.00    -0.247 OA
HETATM   12  N5  UNL     1       0.420   6.210  28.572  1.00  0.00    -0.320 N 
ATOM     13  H5  UNL     1       0.583   6.076  29.570  1.00  0.00     0.169 HD
ENDROOT
BRANCH   1  14
HETATM   14  N2  UNL     1      -0.478  10.598  31.061  1.00  0.00    -0.378 N 
HETATM   15  C11 UNL     1      -0.957  11.903  31.498  1.00  0.00     0.125 C 
HETATM   16  C10 UNL     1      -0.910  11.801  33.011  1.00  0.00     0.054 C 
HETATM   17  C4  UNL     1      -2.187  11.068  33.497  1.00  0.00     0.068 C 
HETATM   18  C25 UNL     1      -2.448  10.036  32.456  1.00  0.00     0.054 C 
HETATM   19  C24 UNL     1      -1.320   9.544  31.623  1.00  0.00     0.125 C 
BRANCH  17  20
HETATM   20  C2  UNL     1      -1.751  10.545  34.835  1.00  0.00     0.076 C 
HETATM   21  C1  UNL     1      -0.250  10.466  34.994  1.00  0.00     0.048 C 
HETATM   22  C3  UNL     1      -2.304   9.219  35.192  1.00  0.00     0.048 C 
BRANCH  20  23
HETATM   23  O1  UNL     1      -2.158  11.462  35.843  1.00  0.00    -0.388 OA
ATOM     24  H1  UNL     1      -1.879  11.054  36.654  1.00  0.00     0.210 HD
ENDBRANCH  20  23
ENDBRANCH  17  20
BRANCH  17  25
HETATM   25  N1  UNL     1      -3.295  11.937  33.541  1.00  0.00    -0.361 N 
HETATM   26  C5  UNL     1      -3.208  13.308  33.401  1.00  0.00     0.064 C 
HETATM   27  C6  UNL     1      -4.172  14.052  34.287  1.00  0.00     0.045 C 
HETATM   28  C7  UNL     1      -5.211  13.195  34.923  1.00  0.00     0.010 C 
HETATM   29  C8  UNL     1      -5.639  12.040  34.086  1.00  0.00     0.045 C 
HETATM   30  C9  UNL     1      -4.571  11.460  33.198  1.00  0.00     0.064 C 
ENDBRANCH  17  25
ENDBRANCH   1  14
BRANCH   3  31
HETATM   31  C15 UNL     1       3.909  12.036  29.623  1.00  0.00    -0.066 C 
BRANCH  31  32
HETATM   32  C16 UNL     1       4.835  12.819  29.735  1.00  0.00    -0.100 C 
BRANCH  32  33
HETATM   33  C17 UNL     1       5.939  13.776  29.899  1.00  0.00     0.109 C 
BRANCH  33  34
HETATM   34  C18 UNL     1       5.790  14.918  28.910  1.00  0.00     0.126 C 
HETATM   35 CL1  UNL     1       4.198  15.667  29.021  1.00  0.00    -0.130 Cl
ENDBRANCH  33  34
ENDBRANCH  32  33
ENDBRANCH  31  32
ENDBRANCH   3  31
BRANCH  12  36
HETATM   36  C22 UNL     1       0.661   5.074  27.776  1.00  0.00     0.091 C 
BRANCH  36  37
HETATM   37  C23 UNL     1       2.074   4.543  27.813  1.00  0.00     0.208 C 
BRANCH  37  38
HETATM   38  O3  UNL     1       2.405   4.368  29.197  1.00  0.00    -0.396 OA
ATOM     39  H3  UNL     1       2.734   3.480  29.284  1.00  0.00     0.209 HD
ENDBRANCH  37  38
ENDBRANCH  36  37
ENDBRANCH  12  36
TORSDOF 11
ENDMDL
MODEL 2
REMARK VINA RESULT: -7.003523973      2.285      7.868
REMARK  11 active torsions:
REMARK  status: ('A' for Active; 'I' for Inactive)
REMARK    1  A    between atoms: C2_2  and  O1_4 
REMARK    2  A    between atoms: C2_2  and  C4_6 
REMARK    3  A    between atoms: C4_6  and  N1_7 
REMARK    4  A    between atoms: N2_15  and  C12_16 
REMARK    5  A    between atoms: C14_18  and  C15_19 
REMARK    6  A    between atoms: C15_19  and  C16_20 
REMARK    7  A    between atoms: C16_20  and  C17_21 
REMARK    8  A    between atoms: C17_21  and  C18_22 
REMARK       I    between atoms: N4_28  and  C21_30 
REMARK       I    between atoms: C21_30  and  N5_32 
REMARK    9  A    between atoms: N5_32  and  C22_34 
REMARK   10  A    between atoms: C22_34  and  C23_35 
REMARK   11  A    between atoms: C23_35  and  O3_36 
ROOT
HETATM    1  C12 UNL     1       0.643  11.201  30.991  1.00  0.00     0.076 A 
HETATM    2  C13 UNL     1       1.075  12.384  30.434  1.00  0.00     0.055 A 
HETATM    3  C14 UNL     1       0.778  13.578  31.057  1.00  0.00     0.035 A 
HETATM    4  C19 UNL     1       0.060  13.642  32.229  1.00  0.00     0.110 A 
HETATM    5  N3  UNL     1      -0.356  12.500  32.766  1.00  0.00    -0.349 N 
ATOM      6  H3  UNL     1      -0.891  12.519  33.635  1.00  0.00     0.167 HD
HETATM    7  C20 UNL     1      -0.080  11.303  32.177  1.00  0.00     0.136 A 
HETATM    8  N4  UNL     1      -0.509  10.258  32.760  1.00  0.00    -0.293 N 
ATOM      9  H4  UNL     1      -0.329   9.330  32.375  1.00  0.00     0.172 HD
HETATM   10  C21 UNL     1      -1.255  10.424  33.982  1.00  0.00     0.325 C 
HETATM   11  O2  UNL     1      -0.609  10.583  35.075  1.00  0.00    -0.247 OA
HETATM   12  N5  UNL     1      -2.652  10.416  34.021  1.00  0.00    -0.320 N 
ATOM     13  H5  UNL     1      -3.103  10.273  33.118  1.00  0.00     0.169 HD
ENDROOT
BRANCH   1  14
HETATM   14  N2  UNL     1       0.916   9.994  30.367  1.00  0.00    -0.378 N 
HETATM   15  C11 UNL     1       2.232   9.644  29.847  1.00  0.00     0.125 C 
HETATM   16  C10 UNL     1       1.964   9.375  28.378  1.00  0.00     0.054 C 
HETATM   17  C4  UNL     1       1.421   7.930  28.232  1.00  0.00     0.068 C 
HETATM   18  C25 UNL     1       0.568   7.724  29.435  1.00  0.00     0.054 C 
HETATM   19  C24 UNL     1      -0.025   8.905  30.114  1.00  0.00     0.125 C 
BRANCH  17  20
HETATM   20  C2  UNL     1       0.690   8.006  26.923  1.00  0.00     0.076 C 
HETATM   21  C1  UNL     1       0.785   6.739  26.103  1.00  0.00     0.048 C 
HETATM   22  C3  UNL     1       1.099   9.128  26.049  1.00  0.00     0.048 C 
BRANCH  20  23
HETATM   23  O1  UNL     1      -0.701   8.149  27.179  1.00  0.00    -0.388 OA
ATOM     24  H1  UNL     1      -0.920   8.994  26.804  1.00  0.00     0.210 HD
ENDBRANCH  20  23
ENDBRANCH  17  20
BRANCH  17  25
HETATM   25  N1  UNL     1       2.463   6.982  28.266  1.00  0.00    -0.361 N 
HETATM   26  C5  UNL     1       3.739   7.219  27.794  1.00  0.00     0.064 C 
HETATM   27  C6  UNL     1       4.351   6.018  27.124  1.00  0.00     0.045 C 
HETATM   28  C7  UNL     1       3.605   4.746  27.339  1.00  0.00     0.010 C 
HETATM   29  C8  UNL     1       2.935   4.654  28.665  1.00  0.00     0.045 C 
HETATM   30  C9  UNL     1       2.447   5.961  29.230  1.00  0.00     0.064 C 
ENDBRANCH  17  25
ENDBRANCH   1  14
BRANCH   3  31
HETATM   31  C15 UNL     1       1.234  14.819  30.452  1.00  0.00    -0.066 C 
BRANCH  31  32
HETATM   32  C16 UNL     1       1.597  15.855  29.924  1.00  0.00    -0.100 C 
BRANCH  32  33
HETATM   33  C17 UNL     1       2.019  17.097  29.260  1.00  0.00     0.109 C 
BRANCH  33  34
HETATM   34  C18 UNL     1       2.352  16.822  27.805  1.00  0.00     0.126 C 
HETATM   35 CL1  UNL     1       3.810  15.841  27.649  1.00  0.00    -0.130 Cl
ENDBRANCH  33  34
ENDBRANCH  32  33
ENDBRANCH  31  32
ENDBRANCH   3  31
BRANCH  12  36
HETATM   36  C22 UNL     1      -3.535  10.574  35.105  1.00  0.00     0.091 C 
BRANCH  36  37
HETATM   37  C23 UNL     1      -3.986  11.990  35.375  1.00  0.00     0.208 C 
BRANCH  37  38
HETATM   38  O3  UNL     1      -3.254  12.436  36.523  1.00  0.00    -0.396 OA
ATOM     39  H3  UNL     1      -2.834  13.251  36.274  1.00  0.00     0.209 HD
ENDBRANCH  37  38
ENDBRANCH  36  37
ENDBRANCH  12  36
TORSDOF 11
ENDMDL
MODEL 3
REMARK VINA RESULT: -6.957414231      2.384      7.775
REMARK  11 active torsions:
REMARK  status: ('A' for Active; 'I' for Inactive)
REMARK    1  A    between atoms: C2_2  and  O1_4 
REMARK    2  A    between atoms: C2_2  and  C4_6 
REMARK    3  A    between atoms: C4_6  and  N1_7 
REMARK    4  A    between atoms: N2_15  and  C12_16 
REMARK    5  A    between atoms: C14_18  and  C15_19 
REMARK    6  A    between atoms: C15_19  and  C16_20 
REMARK    7  A    between atoms: C16_20  and  C17_21 
REMARK    8  A    between atoms: C17_21  and  C18_22 
REMARK       I    between atoms: N4_28  and  C21_30 
REMARK       I    between atoms: C21_30  and  N5_32 
REMARK    9  A    between atoms: N5_32  and  C22_34 
REMARK   10  A    between atoms: C22_34  and  C23_35 
REMARK   11  A    between atoms: C23_35  and  O3_36 
ROOT
HETATM    1  C12 UNL     1      -0.070  11.484  30.517  1.00  0.00     0.076 A 
HETATM    2  C13 UNL     1       0.470  12.650  30.021  1.00  0.00     0.055 A 
HETATM    3  C14 UNL     1       0.300  13.829  30.717  1.00  0.00     0.035 A 
HETATM    4  C19 UNL     1      -0.394  13.894  31.903  1.00  0.00     0.110 A 
HETATM    5  N3  UNL     1      -0.914  12.768  32.381  1.00  0.00    -0.349 N 
ATOM      6  H3  UNL     1      -1.435  12.789  33.258  1.00  0.00     0.167 HD
HETATM    7  C20 UNL     1      -0.766  11.586  31.720  1.00  0.00     0.136 A 
HETATM    8  N4  UNL     1      -1.288  10.556  32.249  1.00  0.00    -0.293 N 
ATOM      9  H4  UNL     1      -1.206   9.640  31.808  1.00  0.00     0.172 HD
HETATM   10  C21 UNL     1      -2.000  10.723  33.491  1.00  0.00     0.325 C 
HETATM   11  O2  UNL     1      -1.329  10.753  34.580  1.00  0.00    -0.247 OA
HETATM   12  N5  UNL     1      -3.390  10.849  33.554  1.00  0.00    -0.320 N 
ATOM     13  H5  UNL     1      -3.865  10.804  32.652  1.00  0.00     0.169 HD
ENDROOT
BRANCH   1  14
HETATM   14  N2  UNL     1       0.076  10.296  29.820  1.00  0.00    -0.378 N 
HETATM   15  C11 UNL     1       1.086   9.297  30.146  1.00  0.00     0.125 C 
HETATM   16  C10 UNL     1       1.874   9.167  28.857  1.00  0.00     0.054 C 
HETATM   17  C4  UNL     1       1.108   8.213  27.904  1.00  0.00     0.068 C 
HETATM   18  C25 UNL     1      -0.330   8.516  28.143  1.00  0.00     0.054 C 
HETATM   19  C24 UNL     1      -0.712   9.851  28.672  1.00  0.00     0.125 C 
BRANCH  17  20
HETATM   20  C2  UNL     1       1.643   8.624  26.562  1.00  0.00     0.076 C 
HETATM   21  C1  UNL     1       0.623   8.530  25.450  1.00  0.00     0.048 C 
HETATM   22  C3  UNL     1       2.846   7.883  26.121  1.00  0.00     0.048 C 
BRANCH  20  23
HETATM   23  O1  UNL     1       1.983  10.004  26.604  1.00  0.00    -0.388 OA
ATOM     24  H1  UNL     1       1.688  10.289  27.460  1.00  0.00     0.210 HD
ENDBRANCH  20  23
ENDBRANCH  17  20
BRANCH  17  25
HETATM   25  N1  UNL     1       1.334   6.863  28.235  1.00  0.00    -0.361 N 
HETATM   26  C5  UNL     1       2.227   6.443  29.202  1.00  0.00     0.064 C 
HETATM   27  C6  UNL     1       2.944   5.173  28.828  1.00  0.00     0.045 C 
HETATM   28  C7  UNL     1       2.370   4.466  27.649  1.00  0.00     0.010 C 
HETATM   29  C8  UNL     1       0.893   4.606  27.518  1.00  0.00     0.045 C 
HETATM   30  C9  UNL     1       0.327   5.911  28.010  1.00  0.00     0.064 C 
ENDBRANCH  17  25
ENDBRANCH   1  14
BRANCH   3  31
HETATM   31  C15 UNL     1       0.870  15.052  30.176  1.00  0.00    -0.066 C 
BRANCH  31  32
HETATM   32  C16 UNL     1       1.350  16.065  29.697  1.00  0.00    -0.100 C 
BRANCH  32  33
HETATM   33  C17 UNL     1       1.929  17.272  29.091  1.00  0.00     0.109 C 
BRANCH  33  34
HETATM   34  C18 UNL     1       2.430  16.962  27.692  1.00  0.00     0.126 C 
HETATM   35 CL1  UNL     1       3.786  15.835  27.724  1.00  0.00    -0.130 Cl
ENDBRANCH  33  34
ENDBRANCH  32  33
ENDBRANCH  31  32
ENDBRANCH   3  31
BRANCH  12  36
HETATM   36  C22 UNL     1      -4.241  11.029  34.660  1.00  0.00     0.091 C 
BRANCH  36  37
HETATM   37  C23 UNL     1      -4.245  12.415  35.259  1.00  0.00     0.208 C 
BRANCH  37  38
HETATM   38  O3  UNL     1      -3.315  12.388  36.349  1.00  0.00    -0.396 OA
ATOM     39  H3  UNL     1      -2.484  12.103  35.987  1.00  0.00     0.209 HD
ENDBRANCH  37  38
ENDBRANCH  36  37
ENDBRANCH  12  36
TORSDOF 11
ENDMDL
MODEL 4
REMARK VINA RESULT: -6.941377476      3.228      7.412
REMARK  11 active torsions:
REMARK  status: ('A' for Active; 'I' for Inactive)
REMARK    1  A    between atoms: C2_2  and  O1_4 
REMARK    2  A    between atoms: C2_2  and  C4_6 
REMARK    3  A    between atoms: C4_6  and  N1_7 
REMARK    4  A    between atoms: N2_15  and  C12_16 
REMARK    5  A    between atoms: C14_18  and  C15_19 
REMARK    6  A    between atoms: C15_19  and  C16_20 
REMARK    7  A    between atoms: C16_20  and  C17_21 
REMARK    8  A    between atoms: C17_21  and  C18_22 
REMARK       I    between atoms: N4_28  and  C21_30 
REMARK       I    between atoms: C21_30  and  N5_32 
REMARK    9  A    between atoms: N5_32  and  C22_34 
REMARK   10  A    between atoms: C22_34  and  C23_35 
REMARK   11  A    between atoms: C23_35  and  O3_36 
ROOT
HETATM    1  C12 UNL     1      -0.320  10.942  30.247  1.00  0.00     0.076 A 
HETATM    2  C13 UNL     1      -1.328  11.337  31.099  1.00  0.00     0.055 A 
HETATM    3  C14 UNL     1      -2.112  10.383  31.714  1.00  0.00     0.035 A 
HETATM    4  C19 UNL     1      -1.931   9.035  31.513  1.00  0.00     0.110 A 
HETATM    5  N3  UNL     1      -0.958   8.655  30.690  1.00  0.00    -0.349 N 
ATOM      6  H3  UNL     1      -0.803   7.660  30.523  1.00  0.00     0.167 HD
HETATM    7  C20 UNL     1      -0.164   9.569  30.067  1.00  0.00     0.136 A 
HETATM    8  N4  UNL     1       0.747   9.120  29.303  1.00  0.00    -0.293 N 
ATOM      9  H4  UNL     1       1.380   9.753  28.813  1.00  0.00     0.172 HD
HETATM   10  C21 UNL     1       0.858   7.691  29.151  1.00  0.00     0.325 C 
HETATM   11  O2  UNL     1       1.494   7.031  30.043  1.00  0.00    -0.247 OA
HETATM   12  N5  UNL     1       0.303   7.001  28.071  1.00  0.00    -0.320 N 
ATOM     13  H5  UNL     1      -0.179   7.589  27.390  1.00  0.00     0.169 HD
ENDROOT
BRANCH   1  14
HETATM   14  N2  UNL     1       0.464  11.887  29.607  1.00  0.00    -0.378 N 
HETATM   15  C11 UNL     1       1.861  12.130  29.946  1.00  0.00     0.125 C 
HETATM   16  C10 UNL     1       1.877  13.600  30.316  1.00  0.00     0.054 C 
HETATM   17  C4  UNL     1       1.955  14.437  29.012  1.00  0.00     0.068 C 
HETATM   18  C25 UNL     1       1.123  13.685  28.032  1.00  0.00     0.054 C 
HETATM   19  C24 UNL     1       0.050  12.786  28.531  1.00  0.00     0.125 C 
BRANCH  17  20
HETATM   20  C2  UNL     1       1.397  15.757  29.460  1.00  0.00     0.076 C 
HETATM   21  C1  UNL     1      -0.094  15.887  29.247  1.00  0.00     0.048 C 
HETATM   22  C3  UNL     1       2.035  16.941  28.842  1.00  0.00     0.048 C 
BRANCH  20  23
HETATM   23  O1  UNL     1       1.558  15.871  30.868  1.00  0.00    -0.388 OA
ATOM     24  H1  UNL     1       2.214  16.550  30.972  1.00  0.00     0.210 HD
ENDBRANCH  20  23
ENDBRANCH  17  20
BRANCH  17  25
HETATM   25  N1  UNL     1       3.272  14.496  28.515  1.00  0.00    -0.361 N 
HETATM   26  C5  UNL     1       4.401  14.460  29.311  1.00  0.00     0.064 C 
HETATM   27  C6  UNL     1       5.502  15.356  28.810  1.00  0.00     0.045 C 
HETATM   28  C7  UNL     1       5.289  15.882  27.433  1.00  0.00     0.010 C 
HETATM   29  C8  UNL     1       4.562  14.946  26.532  1.00  0.00     0.045 C 
HETATM   30  C9  UNL     1       3.545  14.065  27.208  1.00  0.00     0.064 C 
ENDBRANCH  17  25
ENDBRANCH   1  14
BRANCH   3  31
HETATM   31  C15 UNL     1      -3.177  10.818  32.604  1.00  0.00    -0.066 C 
BRANCH  31  32
HETATM   32  C16 UNL     1      -4.087  11.176  33.330  1.00  0.00    -0.100 C 
BRANCH  32  33
HETATM   33  C17 UNL     1      -5.206  11.591  34.187  1.00  0.00     0.109 C 
BRANCH  33  34
HETATM   34  C18 UNL     1      -4.718  12.562  35.248  1.00  0.00     0.126 C 
HETATM   35 CL1  UNL     1      -3.320  11.924  36.114  1.00  0.00    -0.130 Cl
ENDBRANCH  33  34
ENDBRANCH  32  33
ENDBRANCH  31  32
ENDBRANCH   3  31
BRANCH  12  36
HETATM   36  C22 UNL     1       0.302   5.626  27.770  1.00  0.00     0.091 C 
BRANCH  36  37
HETATM   37  C23 UNL     1       1.659   5.017  27.508  1.00  0.00     0.208 C 
BRANCH  37  38
HETATM   38  O3  UNL     1       2.114   4.490  28.760  1.00  0.00    -0.396 OA
ATOM     39  H3  UNL     1       2.662   5.160  29.151  1.00  0.00     0.209 HD
ENDBRANCH  37  38
ENDBRANCH  36  37
ENDBRANCH  12  36
TORSDOF 11
ENDMDL
MODEL 5
REMARK VINA RESULT: -6.929784865      5.794      9.525
REMARK  11 active torsions:
REMARK  status: ('A' for Active; 'I' for Inactive)
REMARK    1  A    between atoms: C2_2  and  O1_4 
REMARK    2  A    between atoms: C2_2  and  C4_6 
REMARK    3  A    between atoms: C4_6  and  N1_7 
REMARK    4  A    between atoms: N2_15  and  C12_16 
REMARK    5  A    between atoms: C14_18  and  C15_19 
REMARK    6  A    between atoms: C15_19  and  C16_20 
REMARK    7  A    between atoms: C16_20  and  C17_21 
REMARK    8  A    between atoms: C17_21  and  C18_22 
REMARK       I    between atoms: N4_28  and  C21_30 
REMARK       I    between atoms: C21_30  and  N5_32 
REMARK    9  A    between atoms: N5_32  and  C22_34 
REMARK   10  A    between atoms: C22_34  and  C23_35 
REMARK   11  A    between atoms: C23_35  and  O3_36 
ROOT
HETATM    1  C12 UNL     1      -2.171  16.036  28.429  1.00  0.00     0.076 A 
HETATM    2  C13 UNL     1      -2.512  16.049  27.095  1.00  0.00     0.055 A 
HETATM    3  C14 UNL     1      -3.708  16.615  26.704  1.00  0.00     0.035 A 
HETATM    4  C19 UNL     1      -4.588  17.177  27.599  1.00  0.00     0.110 A 
HETATM    5  N3  UNL     1      -4.257  17.164  28.887  1.00  0.00    -0.349 N 
ATOM      6  H3  UNL     1      -4.893  17.574  29.572  1.00  0.00     0.167 HD
HETATM    7  C20 UNL     1      -3.085  16.614  29.308  1.00  0.00     0.136 A 
HETATM    8  N4  UNL     1      -2.842  16.650  30.555  1.00  0.00    -0.293 N 
ATOM      9  H4  UNL     1      -1.978  16.262  30.933  1.00  0.00     0.172 HD
HETATM   10  C21 UNL     1      -3.826  17.256  31.417  1.00  0.00     0.325 C 
HETATM   11  O2  UNL     1      -3.831  18.530  31.536  1.00  0.00    -0.247 OA
HETATM   12  N5  UNL     1      -4.771  16.510  32.126  1.00  0.00    -0.320 N 
ATOM     13  H5  UNL     1      -4.704  15.501  31.996  1.00  0.00     0.169 HD
ENDROOT
BRANCH   1  14
HETATM   14  N2  UNL     1      -0.983  15.455  28.840  1.00  0.00    -0.378 N 
HETATM   15  C11 UNL     1      -0.488  14.189  28.313  1.00  0.00     0.125 C 
HETATM   16  C10 UNL     1      -0.357  13.324  29.552  1.00  0.00     0.054 C 
HETATM   17  C4  UNL     1       0.985  13.662  30.251  1.00  0.00     0.068 C 
HETATM   18  C25 UNL     1       1.150  15.130  30.062  1.00  0.00     0.054 C 
HETATM   19  C24 UNL     1      -0.055  15.972  29.844  1.00  0.00     0.125 C 
BRANCH  17  20
HETATM   20  C2  UNL     1       0.721  13.214  31.659  1.00  0.00     0.076 C 
HETATM   21  C1  UNL     1       1.340  11.877  31.994  1.00  0.00     0.048 C 
HETATM   22  C3  UNL     1      -0.710  13.143  32.029  1.00  0.00     0.048 C 
BRANCH  20  23
HETATM   23  O1  UNL     1       1.349  14.121  32.557  1.00  0.00    -0.388 OA
ATOM     24  H1  UNL     1       1.964  14.598  32.012  1.00  0.00     0.210 HD
ENDBRANCH  20  23
ENDBRANCH  17  20
BRANCH  17  25
HETATM   25  N1  UNL     1       2.069  13.015  29.625  1.00  0.00    -0.361 N 
HETATM   26  C5  UNL     1       1.933  11.983  28.717  1.00  0.00     0.064 C 
HETATM   27  C6  UNL     1       3.004  10.934  28.856  1.00  0.00     0.045 C 
HETATM   28  C7  UNL     1       4.146  11.330  29.727  1.00  0.00     0.010 C 
HETATM   29  C8  UNL     1       4.466  12.783  29.682  1.00  0.00     0.045 C 
HETATM   30  C9  UNL     1       3.287  13.694  29.461  1.00  0.00     0.064 C 
ENDBRANCH  17  25
ENDBRANCH   1  14
BRANCH   3  31
HETATM   31  C15 UNL     1      -4.057  16.613  25.292  1.00  0.00    -0.066 C 
BRANCH  31  32
HETATM   32  C16 UNL     1      -4.338  16.637  24.107  1.00  0.00    -0.100 C 
BRANCH  32  33
HETATM   33  C17 UNL     1      -4.648  16.681  22.671  1.00  0.00     0.109 C 
BRANCH  33  34
HETATM   34  C18 UNL     1      -4.429  18.084  22.134  1.00  0.00     0.126 C 
HETATM   35 CL1  UNL     1      -5.198  19.297  23.157  1.00  0.00    -0.130 Cl
ENDBRANCH  33  34
ENDBRANCH  32  33
ENDBRANCH  31  32
ENDBRANCH   3  31
BRANCH  12  36
HETATM   36  C22 UNL     1      -5.799  16.927  32.992  1.00  0.00     0.091 C 
BRANCH  36  37
HETATM   37  C23 UNL     1      -5.991  16.080  34.228  1.00  0.00     0.208 C 
BRANCH  37  38
HETATM   38  O3  UNL     1      -4.699  15.943  34.831  1.00  0.00    -0.396 OA
ATOM     39  H3  UNL     1      -4.472  15.022  34.775  1.00  0.00     0.209 HD
ENDBRANCH  37  38
ENDBRANCH  36  37
ENDBRANCH  12  36
TORSDOF 11
ENDMDL
