MODEL 1
REMARK VINA RESULT: -7.026658993      0.000      0.000
REMARK  3 active torsions:
REMARK  status: ('A' for Active; 'I' for Inactive)
REMARK    1  A    between atoms: C6_6  and  O1_7 
REMARK    2  A    between atoms: O1_7  and  C7_8 
REMARK       I    between atoms: C7_8  and  N1_10 
REMARK       I    between atoms: N1_10  and  C8_12 
REMARK    3  A    between atoms: C9_18  and  C10_19 
ROOT
HETATM    1  C1  UNL     1     -41.003 -68.761  -2.478  1.00  0.00     0.050 C 
HETATM    2  C2  UNL     1     -40.112 -69.467  -1.498  1.00  0.00     0.152 C 
HETATM    3  C3  UNL     1     -38.685 -68.964  -1.773  1.00  0.00     0.044 C 
HETATM    4  C4  UNL     1     -38.028 -68.908  -0.411  1.00  0.00     0.041 C 
HETATM    5  C5  UNL     1     -39.079 -69.566   0.461  1.00  0.00     0.246 C 
HETATM    6  C6  UNL     1     -39.034 -71.065   0.381  1.00  0.00     0.302 C 
HETATM    7  O3  UNL     1     -39.390 -71.638  -0.785  1.00  0.00    -0.350 OA
HETATM    8  C9  UNL     1     -40.071 -70.940  -1.723  1.00  0.00     0.170 C 
HETATM    9  N4  UNL     1     -40.293 -69.050  -0.148  1.00  0.00    -0.055 N 
HETATM   10  C11 UNL     1     -41.488 -69.493   0.495  1.00  0.00     0.273 C 
HETATM   11  C12 UNL     1     -40.295 -67.604  -0.105  1.00  0.00     0.273 C 
ENDROOT
BRANCH   6  12
HETATM   12  O1  UNL     1     -37.719 -71.489   0.685  1.00  0.00    -0.270 OA
BRANCH  12  13
HETATM   13  C7  UNL     1     -37.539 -72.528   1.580  1.00  0.00     0.369 C 
HETATM   14  O2  UNL     1     -37.689 -73.719   1.189  1.00  0.00    -0.238 OA
HETATM   15  N1  UNL     1     -37.188 -72.314   2.945  1.00  0.00    -0.277 N 
HETATM   16  C8  UNL     1     -37.019 -73.423   3.809  1.00  0.00     0.190 C 
ATOM     17  H1  UNL     1     -37.057 -71.365   3.298  1.00  0.00     0.173 HD
HETATM   18  N2  UNL     1     -36.701 -73.209   5.039  1.00  0.00    -0.373 N 
HETATM   19  N3  UNL     1     -37.178 -74.764   3.406  1.00  0.00    -0.064 NA
ATOM     20  H22 UNL     1     -36.587 -72.239   5.331  1.00  0.00     0.158 HD
ATOM     21  H21 UNL     1     -36.580 -74.008   5.661  1.00  0.00     0.158 HD
ENDBRANCH  12  13
ENDBRANCH   6  12
BRANCH   8  22
HETATM   22  C10 UNL     1     -41.417 -71.533  -2.079  1.00  0.00     0.120 C 
HETATM   23 BR1  UNL     1     -41.248 -73.452  -2.386  1.00  0.00    -0.094 Br
ENDBRANCH   8  22
TORSDOF 3
ENDMDL
MODEL 2
REMARK VINA RESULT: -6.803861412      1.279      1.510
REMARK  3 active torsions:
REMARK  status: ('A' for Active; 'I' for Inactive)
REMARK    1  A    between atoms: C6_6  and  O1_7 
REMARK    2  A    between atoms: O1_7  and  C7_8 
REMARK       I    between atoms: C7_8  and  N1_10 
REMARK       I    between atoms: N1_10  and  C8_12 
REMARK    3  A    between atoms: C9_18  and  C10_19 
ROOT
HETATM    1  C1  UNL     1     -39.405 -69.579  -2.632  1.00  0.00     0.050 C 
HETATM    2  C2  UNL     1     -38.761 -70.480  -1.619  1.00  0.00     0.152 C 
HETATM    3  C3  UNL     1     -37.266 -70.536  -1.980  1.00  0.00     0.044 C 
HETATM    4  C4  UNL     1     -36.551 -70.616  -0.649  1.00  0.00     0.041 C 
HETATM    5  C5  UNL     1     -37.713 -70.792   0.310  1.00  0.00     0.246 C 
HETATM    6  C6  UNL     1     -38.199 -72.212   0.365  1.00  0.00     0.302 C 
HETATM    7  O3  UNL     1     -38.802 -72.707  -0.734  1.00  0.00    -0.350 OA
HETATM    8  C9  UNL     1     -39.251 -71.885  -1.711  1.00  0.00     0.170 C 
HETATM    9  N4  UNL     1     -38.703 -69.927  -0.307  1.00  0.00    -0.055 N 
HETATM   10  C11 UNL     1     -39.937 -69.870   0.409  1.00  0.00     0.273 C 
HETATM   11  C12 UNL     1     -38.196 -68.575  -0.394  1.00  0.00     0.273 C 
ENDROOT
BRANCH   6  12
HETATM   12  O1  UNL     1     -37.101 -73.050   0.666  1.00  0.00    -0.270 OA
BRANCH  12  13
HETATM   13  C7  UNL     1     -37.069 -73.703   1.886  1.00  0.00     0.369 C 
HETATM   14  O2  UNL     1     -37.215 -74.956   1.924  1.00  0.00    -0.238 OA
HETATM   15  N1  UNL     1     -36.878 -73.015   3.120  1.00  0.00    -0.277 N 
HETATM   16  C8  UNL     1     -36.857 -73.745   4.334  1.00  0.00     0.190 C 
ATOM     17  H1  UNL     1     -36.756 -72.002   3.129  1.00  0.00     0.173 HD
HETATM   18  N2  UNL     1     -36.682 -73.106   5.439  1.00  0.00    -0.373 N 
HETATM   19  N3  UNL     1     -37.015 -75.142   4.413  1.00  0.00    -0.064 NA
ATOM     20  H22 UNL     1     -36.568 -72.094   5.382  1.00  0.00     0.158 HD
ATOM     21  H21 UNL     1     -36.668 -73.631   6.313  1.00  0.00     0.158 HD
ENDBRANCH  12  13
ENDBRANCH   6  12
BRANCH   8  22
HETATM   22  C10 UNL     1     -40.738 -71.988  -1.971  1.00  0.00     0.120 C 
HETATM   23 BR1  UNL     1     -41.181 -73.759  -2.657  1.00  0.00    -0.094 Br
ENDBRANCH   8  22
TORSDOF 3
ENDMDL
MODEL 3
REMARK VINA RESULT: -6.724680294      8.892     10.498
REMARK  3 active torsions:
REMARK  status: ('A' for Active; 'I' for Inactive)
REMARK    1  A    between atoms: C6_6  and  O1_7 
REMARK    2  A    between atoms: O1_7  and  C7_8 
REMARK       I    between atoms: C7_8  and  N1_10 
REMARK       I    between atoms: N1_10  and  C8_12 
REMARK    3  A    between atoms: C9_18  and  C10_19 
ROOT
HETATM    1  C1  UNL     1     -28.848 -75.288  -3.399  1.00  0.00     0.050 C 
HETATM    2  C2  UNL     1     -30.139 -75.885  -2.919  1.00  0.00     0.152 C 
HETATM    3  C3  UNL     1     -31.251 -74.920  -3.362  1.00  0.00     0.044 C 
HETATM    4  C4  UNL     1     -32.422 -75.814  -3.707  1.00  0.00     0.041 C 
HETATM    5  C5  UNL     1     -31.920 -77.167  -3.242  1.00  0.00     0.246 C 
HETATM    6  C6  UNL     1     -32.073 -77.356  -1.760  1.00  0.00     0.302 C 
HETATM    7  O3  UNL     1     -31.307 -76.597  -0.952  1.00  0.00    -0.350 OA
HETATM    8  C9  UNL     1     -30.223 -75.944  -1.433  1.00  0.00     0.170 C 
HETATM    9  N4  UNL     1     -30.517 -77.072  -3.611  1.00  0.00    -0.055 N 
HETATM   10  C11 UNL     1     -29.767 -78.248  -3.306  1.00  0.00     0.273 C 
HETATM   11  C12 UNL     1     -30.393 -76.841  -5.034  1.00  0.00     0.273 C 
ENDROOT
BRANCH   6  12
HETATM   12  O1  UNL     1     -33.424 -77.120  -1.417  1.00  0.00    -0.270 OA
BRANCH  12  13
HETATM   13  C7  UNL     1     -33.875 -77.500  -0.165  1.00  0.00     0.369 C 
HETATM   14  O2  UNL     1     -34.750 -76.802   0.419  1.00  0.00    -0.238 OA
HETATM   15  N1  UNL     1     -33.389 -78.660   0.506  1.00  0.00    -0.277 N 
HETATM   16  C8  UNL     1     -33.893 -78.992   1.788  1.00  0.00     0.190 C 
ATOM     17  H1  UNL     1     -32.682 -79.250   0.066  1.00  0.00     0.173 HD
HETATM   18  N2  UNL     1     -33.442 -80.044   2.379  1.00  0.00    -0.373 N 
HETATM   19  N3  UNL     1     -34.869 -78.236   2.468  1.00  0.00    -0.064 NA
ATOM     20  H22 UNL     1     -32.736 -80.591   1.887  1.00  0.00     0.158 HD
ATOM     21  H21 UNL     1     -33.804 -80.282   3.302  1.00  0.00     0.158 HD
ENDBRANCH  12  13
ENDBRANCH   6  12
BRANCH   8  22
HETATM   22  C10 UNL     1     -28.921 -76.339  -0.770  1.00  0.00     0.120 C 
HETATM   23 BR1  UNL     1     -29.127 -76.348   1.169  1.00  0.00    -0.094 Br
ENDBRANCH   8  22
TORSDOF 3
ENDMDL
MODEL 4
REMARK VINA RESULT: -6.651437195      1.293      1.497
REMARK  3 active torsions:
REMARK  status: ('A' for Active; 'I' for Inactive)
REMARK    1  A    between atoms: C6_6  and  O1_7 
REMARK    2  A    between atoms: O1_7  and  C7_8 
REMARK       I    between atoms: C7_8  and  N1_10 
REMARK       I    between atoms: N1_10  and  C8_12 
REMARK    3  A    between atoms: C9_18  and  C10_19 
ROOT
HETATM    1  C1  UNL     1     -40.622 -68.333  -3.164  1.00  0.00     0.050 C 
HETATM    2  C2  UNL     1     -39.991 -69.082  -2.026  1.00  0.00     0.152 C 
HETATM    3  C3  UNL     1     -39.269 -68.031  -1.166  1.00  0.00     0.044 C 
HETATM    4  C4  UNL     1     -39.433 -68.519   0.257  1.00  0.00     0.041 C 
HETATM    5  C5  UNL     1     -40.056 -69.884   0.040  1.00  0.00     0.246 C 
HETATM    6  C6  UNL     1     -39.038 -70.929  -0.316  1.00  0.00     0.302 C 
HETATM    7  O3  UNL     1     -38.427 -70.824  -1.512  1.00  0.00    -0.350 OA
HETATM    8  C9  UNL     1     -38.933 -70.027  -2.482  1.00  0.00     0.170 C 
HETATM    9  N4  UNL     1     -40.928 -69.605  -1.088  1.00  0.00    -0.055 N 
HETATM   10  C11 UNL     1     -41.688 -70.734  -1.517  1.00  0.00     0.273 C 
HETATM   11  C12 UNL     1     -41.869 -68.562  -0.742  1.00  0.00     0.273 C 
ENDROOT
BRANCH   6  12
HETATM   12  O1  UNL     1     -38.034 -70.931   0.680  1.00  0.00    -0.270 OA
BRANCH  12  13
HETATM   13  C7  UNL     1     -37.803 -72.092   1.398  1.00  0.00     0.369 C 
HETATM   14  O2  UNL     1     -38.013 -73.211   0.854  1.00  0.00    -0.238 OA
HETATM   15  N1  UNL     1     -37.333 -72.081   2.744  1.00  0.00    -0.277 N 
HETATM   16  C8  UNL     1     -37.118 -73.306   3.422  1.00  0.00     0.190 C 
ATOM     17  H1  UNL     1     -37.151 -71.196   3.217  1.00  0.00     0.173 HD
HETATM   18  N2  UNL     1     -36.693 -73.277   4.638  1.00  0.00    -0.373 N 
HETATM   19  N3  UNL     1     -37.341 -74.572   2.846  1.00  0.00    -0.064 NA
ATOM     20  H22 UNL     1     -36.532 -72.361   5.055  1.00  0.00     0.158 HD
ATOM     21  H21 UNL     1     -36.539 -74.159   5.126  1.00  0.00     0.158 HD
ENDBRANCH  12  13
ENDBRANCH   6  12
BRANCH   8  22
HETATM   22  C10 UNL     1     -39.287 -70.758  -3.759  1.00  0.00     0.120 C 
HETATM   23 BR1  UNL     1     -38.307 -72.441  -3.867  1.00  0.00    -0.094 Br
ENDBRANCH   8  22
TORSDOF 3
ENDMDL
MODEL 5
REMARK VINA RESULT: -6.586891199      3.062      4.352
REMARK  3 active torsions:
REMARK  status: ('A' for Active; 'I' for Inactive)
REMARK    1  A    between atoms: C6_6  and  O1_7 
REMARK    2  A    between atoms: O1_7  and  C7_8 
REMARK       I    between atoms: C7_8  and  N1_10 
REMARK       I    between atoms: N1_10  and  C8_12 
REMARK    3  A    between atoms: C9_18  and  C10_19 
ROOT
HETATM    1  C1  UNL     1     -36.068 -69.614  -0.984  1.00  0.00     0.050 C 
HETATM    2  C2  UNL     1     -36.531 -70.776  -0.154  1.00  0.00     0.152 C 
HETATM    3  C3  UNL     1     -37.001 -70.188   1.187  1.00  0.00     0.044 C 
HETATM    4  C4  UNL     1     -38.179 -71.046   1.593  1.00  0.00     0.041 C 
HETATM    5  C5  UNL     1     -38.132 -72.142   0.546  1.00  0.00     0.246 C 
HETATM    6  C6  UNL     1     -37.114 -73.198   0.868  1.00  0.00     0.302 C 
HETATM    7  O3  UNL     1     -35.814 -72.848   0.813  1.00  0.00    -0.350 OA
HETATM    8  C9  UNL     1     -35.425 -71.715   0.182  1.00  0.00     0.170 C 
HETATM    9  N4  UNL     1     -37.735 -71.377  -0.624  1.00  0.00    -0.055 N 
HETATM   10  C11 UNL     1     -37.628 -72.163  -1.810  1.00  0.00     0.273 C 
HETATM   11  C12 UNL     1     -38.703 -70.335  -0.887  1.00  0.00     0.273 C 
ENDROOT
BRANCH   6  12
HETATM   12  O1  UNL     1     -37.373 -73.687   2.169  1.00  0.00    -0.270 OA
BRANCH  12  13
HETATM   13  C7  UNL     1     -36.759 -74.857   2.581  1.00  0.00     0.369 C 
HETATM   14  O2  UNL     1     -36.782 -75.174   3.802  1.00  0.00    -0.238 OA
HETATM   15  N1  UNL     1     -36.091 -75.733   1.675  1.00  0.00    -0.277 N 
HETATM   16  C8  UNL     1     -35.483 -76.915   2.163  1.00  0.00     0.190 C 
ATOM     17  H1  UNL     1     -36.052 -75.510   0.680  1.00  0.00     0.173 HD
HETATM   18  N2  UNL     1     -34.884 -77.695   1.330  1.00  0.00    -0.373 N 
HETATM   19  N3  UNL     1     -35.490 -77.300   3.518  1.00  0.00    -0.064 NA
ATOM     20  H22 UNL     1     -34.879 -77.416   0.349  1.00  0.00     0.158 HD
ATOM     21  H21 UNL     1     -34.445 -78.545   1.682  1.00  0.00     0.158 HD
ENDBRANCH  12  13
ENDBRANCH   6  12
BRANCH   8  22
HETATM   22  C10 UNL     1     -34.461 -71.946  -0.962  1.00  0.00     0.120 C 
HETATM   23 BR1  UNL     1     -34.110 -73.853  -1.174  1.00  0.00    -0.094 Br
ENDBRANCH   8  22
TORSDOF 3
ENDMDL
