MODEL 1
REMARK VINA RESULT: -3.981480071      0.000      0.000
REMARK  1 active torsions:
REMARK  status: ('A' for Active; 'I' for Inactive)
REMARK    1  A    between atoms: N3_10  and  N4_11 
ROOT
HETATM    1  C1  UNL     1      14.761   2.013 -11.492  1.00  0.00     0.197 C 
HETATM    2  N1  UNL     1      14.501   2.029 -10.231  1.00  0.00    -0.383 N 
ATOM      3  H1  UNL     1      15.151   1.514  -9.637  1.00  0.00     0.160 HD
HETATM    4  C2  UNL     1      13.402   2.685  -9.548  1.00  0.00     0.148 C 
HETATM    5  C3  UNL     1      13.067   4.024 -10.156  1.00  0.00     0.253 C 
HETATM    6  N2  UNL     1      12.373   3.780 -11.407  1.00  0.00    -0.056 N 
ATOM      7  H21 UNL     1      11.596   4.430 -11.532  1.00  0.00     0.279 HD
ATOM      8  H22 UNL     1      11.848   2.906 -11.374  1.00  0.00     0.279 HD
HETATM    9  C4  UNL     1      13.272   3.811 -12.544  1.00  0.00     0.381 C 
HETATM   10  N3  UNL     1      14.090   2.609 -12.612  1.00  0.00    -0.263 N 
ENDROOT
BRANCH  10  11
HETATM   11  N4  UNL     1      14.232   2.002 -13.837  1.00  0.00    -0.304 N 
HETATM   12  C5  UNL     1      13.470   1.064 -14.281  1.00  0.00     0.004 C 
HETATM   13  C6  UNL     1      13.664   0.437 -15.614  1.00  0.00     0.054 C 
HETATM   14  C10 UNL     1      12.320   0.510 -13.509  1.00  0.00     0.054 C 
HETATM   15  C7  UNL     1      13.749  -1.052 -15.524  1.00  0.00     0.006 C 
HETATM   16  C8  UNL     1      13.440  -1.636 -14.198  1.00  0.00     0.001 C 
HETATM   17  C9  UNL     1      12.400  -0.979 -13.387  1.00  0.00     0.006 C 
ATOM     18  H4  UNL     1      14.995   2.316 -14.436  1.00  0.00     0.186 HD
ENDBRANCH  10  11
TORSDOF 1
ENDMDL
MODEL 2
REMARK VINA RESULT: -3.808760820      7.731      9.662
REMARK  1 active torsions:
REMARK  status: ('A' for Active; 'I' for Inactive)
REMARK    1  A    between atoms: N3_10  and  N4_11 
ROOT
HETATM    1  C1  UNL     1      19.882   5.642 -16.851  1.00  0.00     0.197 C 
HETATM    2  N1  UNL     1      21.071   6.034 -17.153  1.00  0.00    -0.383 N 
ATOM      3  H1  UNL     1      21.674   6.274 -16.366  1.00  0.00     0.160 HD
HETATM    4  C2  UNL     1      21.663   6.178 -18.470  1.00  0.00     0.148 C 
HETATM    5  C3  UNL     1      21.229   5.086 -19.415  1.00  0.00     0.253 C 
HETATM    6  N2  UNL     1      19.860   5.361 -19.809  1.00  0.00    -0.056 N 
ATOM      7  H21 UNL     1      19.716   5.174 -20.802  1.00  0.00     0.279 HD
ATOM      8  H22 UNL     1      19.668   6.363 -19.806  1.00  0.00     0.279 HD
HETATM    9  C4  UNL     1      18.903   4.640 -18.994  1.00  0.00     0.381 C 
HETATM   10  N3  UNL     1      18.778   5.228 -17.668  1.00  0.00    -0.263 N 
ENDROOT
BRANCH  10  11
HETATM   11  N4  UNL     1      17.512   5.400 -17.163  1.00  0.00    -0.304 N 
HETATM   12  C5  UNL     1      16.738   6.390 -17.445  1.00  0.00     0.004 C 
HETATM   13  C6  UNL     1      15.376   6.531 -16.871  1.00  0.00     0.054 C 
HETATM   14  C10 UNL     1      17.127   7.492 -18.371  1.00  0.00     0.054 C 
HETATM   15  C7  UNL     1      15.177   7.865 -16.227  1.00  0.00     0.006 C 
HETATM   16  C8  UNL     1      16.264   8.850 -16.435  1.00  0.00     0.001 C 
HETATM   17  C9  UNL     1      16.959   8.836 -17.735  1.00  0.00     0.006 C 
ATOM     18  H4  UNL     1      17.160   4.693 -16.518  1.00  0.00     0.186 HD
ENDBRANCH  10  11
TORSDOF 1
ENDMDL
MODEL 3
REMARK VINA RESULT: -3.769755469      1.761      2.204
REMARK  1 active torsions:
REMARK  status: ('A' for Active; 'I' for Inactive)
REMARK    1  A    between atoms: N3_10  and  N4_11 
ROOT
HETATM    1  C1  UNL     1      14.119   1.273 -10.846  1.00  0.00     0.197 C 
HETATM    2  N1  UNL     1      14.527   2.042  -9.897  1.00  0.00    -0.383 N 
ATOM      3  H1  UNL     1      15.538   2.099  -9.775  1.00  0.00     0.160 HD
HETATM    4  C2  UNL     1      13.733   2.837  -8.979  1.00  0.00     0.148 C 
HETATM    5  C3  UNL     1      12.525   3.445  -9.646  1.00  0.00     0.253 C 
HETATM    6  N2  UNL     1      11.552   2.388  -9.848  1.00  0.00    -0.056 N 
ATOM      7  H21 UNL     1      10.606   2.713  -9.646  1.00  0.00     0.279 HD
ATOM      8  H22 UNL     1      11.632   1.670  -9.128  1.00  0.00     0.279 HD
HETATM    9  C4  UNL     1      11.638   1.814 -11.176  1.00  0.00     0.381 C 
HETATM   10  N3  UNL     1      12.801   0.948 -11.310  1.00  0.00    -0.263 N 
ENDROOT
BRANCH  10  11
HETATM   11  N4  UNL     1      12.624  -0.268 -11.925  1.00  0.00    -0.304 N 
HETATM   12  C5  UNL     1      12.797  -0.485 -13.182  1.00  0.00     0.004 C 
HETATM   13  C6  UNL     1      12.592  -1.819 -13.801  1.00  0.00     0.054 C 
HETATM   14  C10 UNL     1      13.220   0.575 -14.144  1.00  0.00     0.054 C 
HETATM   15  C7  UNL     1      11.662  -1.756 -14.969  1.00  0.00     0.006 C 
HETATM   16  C8  UNL     1      11.273  -0.396 -15.412  1.00  0.00     0.001 C 
HETATM   17  C9  UNL     1      12.285   0.671 -15.308  1.00  0.00     0.006 C 
ATOM     18  H4  UNL     1      12.334  -1.054 -11.345  1.00  0.00     0.186 HD
ENDBRANCH  10  11
TORSDOF 1
ENDMDL
MODEL 4
REMARK VINA RESULT: -3.746075566      3.238      4.592
REMARK  1 active torsions:
REMARK  status: ('A' for Active; 'I' for Inactive)
REMARK    1  A    between atoms: N3_10  and  N4_11 
ROOT
HETATM    1  C1  UNL     1      12.588   4.833 -13.685  1.00  0.00     0.197 C 
HETATM    2  N1  UNL     1      13.131   5.989 -13.848  1.00  0.00    -0.383 N 
ATOM      3  H1  UNL     1      13.911   6.024 -14.504  1.00  0.00     0.160 HD
HETATM    4  C2  UNL     1      12.777   7.246 -13.217  1.00  0.00     0.148 C 
HETATM    5  C3  UNL     1      11.287   7.402 -13.047  1.00  0.00     0.253 C 
HETATM    6  N2  UNL     1      10.873   6.538 -11.957  1.00  0.00    -0.056 N 
ATOM      7  H21 UNL     1      10.179   6.996 -11.366  1.00  0.00     0.279 HD
ATOM      8  H22 UNL     1      11.620   6.425 -11.272  1.00  0.00     0.279 HD
HETATM    9  C4  UNL     1      10.395   5.254 -12.431  1.00  0.00     0.381 C 
HETATM   10  N3  UNL     1      11.492   4.402 -12.864  1.00  0.00    -0.263 N 
ENDROOT
BRANCH  10  11
HETATM   11  N4  UNL     1      11.479   3.088 -12.458  1.00  0.00    -0.304 N 
HETATM   12  C5  UNL     1      11.896   2.671 -11.314  1.00  0.00     0.004 C 
HETATM   13  C6  UNL     1      11.862   1.239 -10.922  1.00  0.00     0.054 C 
HETATM   14  C10 UNL     1      12.455   3.576 -10.268  1.00  0.00     0.054 C 
HETATM   15  C7  UNL     1      13.196   0.755 -10.456  1.00  0.00     0.006 C 
HETATM   16  C8  UNL     1      14.236   1.797 -10.285  1.00  0.00     0.001 C 
HETATM   17  C9  UNL     1      13.804   3.122  -9.806  1.00  0.00     0.006 C 
ATOM     18  H4  UNL     1      11.113   2.395 -13.111  1.00  0.00     0.186 HD
ENDBRANCH  10  11
TORSDOF 1
ENDMDL
MODEL 5
REMARK VINA RESULT: -3.725593164      3.171      4.703
REMARK  1 active torsions:
REMARK  status: ('A' for Active; 'I' for Inactive)
REMARK    1  A    between atoms: N3_10  and  N4_11 
ROOT
HETATM    1  C1  UNL     1      12.440   3.436 -10.082  1.00  0.00     0.197 C 
HETATM    2  N1  UNL     1      12.477   4.592 -10.648  1.00  0.00    -0.383 N 
ATOM      3  H1  UNL     1      12.349   5.393 -10.029  1.00  0.00     0.160 HD
HETATM    4  C2  UNL     1      12.678   4.901 -12.051  1.00  0.00     0.148 C 
HETATM    5  C3  UNL     1      13.681   3.981 -12.702  1.00  0.00     0.253 C 
HETATM    6  N2  UNL     1      13.039   2.694 -12.897  1.00  0.00    -0.056 N 
ATOM      7  H21 UNL     1      13.285   2.292 -13.802  1.00  0.00     0.279 HD
ATOM      8  H22 UNL     1      12.034   2.800 -13.036  1.00  0.00     0.279 HD
HETATM    9  C4  UNL     1      13.326   1.773 -11.816  1.00  0.00     0.381 C 
HETATM   10  N3  UNL     1      12.579   2.109 -10.612  1.00  0.00    -0.263 N 
ENDROOT
BRANCH  10  11
HETATM   11  N4  UNL     1      11.963   1.085  -9.935  1.00  0.00    -0.304 N 
HETATM   12  C5  UNL     1      10.810   0.597 -10.236  1.00  0.00     0.004 C 
HETATM   13  C6  UNL     1      10.185  -0.512  -9.471  1.00  0.00     0.054 C 
HETATM   14  C10 UNL     1       9.986   1.092 -11.376  1.00  0.00     0.054 C 
HETATM   15  C7  UNL     1       8.802  -0.170  -9.021  1.00  0.00     0.006 C 
HETATM   16  C8  UNL     1       8.241   1.091  -9.561  1.00  0.00     0.001 C 
HETATM   17  C9  UNL     1       8.603   1.464 -10.940  1.00  0.00     0.006 C 
ATOM     18  H4  UNL     1      12.454   0.682  -9.137  1.00  0.00     0.186 HD
ENDBRANCH  10  11
TORSDOF 1
ENDMDL
