MODEL 1
REMARK VINA RESULT: -4.791638801      0.000      0.000
REMARK  9 active torsions:
REMARK  status: ('A' for Active; 'I' for Inactive)
REMARK    1  A    between atoms: C2_2  and  C3_3 
REMARK    2  A    between atoms: C3_3  and  N2_6 
REMARK    3  A    between atoms: C3_3  and  C13_27 
REMARK    4  A    between atoms: N2_6  and  C5_8 
REMARK    5  A    between atoms: C6_11  and  N4_12 
REMARK    6  A    between atoms: C11_21  and  N7_22 
REMARK    7  A    between atoms: C13_27  and  O1_28 
REMARK    8  A    between atoms: C13_27  and  N9_30 
REMARK    9  A    between atoms: N9_30  and  N10_31 
ROOT
HETATM    1  C3  UNL     1      29.822  33.119  41.551  1.00  0.00     0.163 C 
HETATM    2  C4  UNL     1      29.219  32.445  42.745  1.00  0.00     0.095 C 
HETATM    3  N1  UNL     1      28.773  31.918  43.673  1.00  0.00    -0.194 NA
ENDROOT
BRANCH   1   4
HETATM    4  C2  UNL     1      30.591  34.347  42.021  1.00  0.00     0.046 C 
HETATM    5  C1  UNL     1      31.645  34.044  43.036  1.00  0.00     0.009 C 
ENDBRANCH   1   4
BRANCH   1   6
HETATM    6  N2  UNL     1      30.589  32.302  40.780  1.00  0.00    -0.349 N 
ATOM      7  H2  UNL     1      30.890  32.945  40.048  1.00  0.00     0.163 HD
BRANCH   6   8
HETATM    8  C5  UNL     1      31.125  31.290  40.437  1.00  0.00     0.149 A 
HETATM    9  N3  UNL     1      32.478  31.155  40.644  1.00  0.00    -0.174 N 
HETATM   10  C6  UNL     1      33.190  30.096  40.315  1.00  0.00     0.682 A 
ATOM     11  H3  UNL     1      32.968  31.934  41.086  1.00  0.00     0.186 HD
HETATM   12  N5  UNL     1      32.555  29.065  39.730  1.00  0.00    -0.173 N 
HETATM   13  C9  UNL     1      31.238  29.075  39.475  1.00  0.00     0.169 A 
ATOM     14  H5  UNL     1      33.098  28.241  39.470  1.00  0.00     0.186 HD
HETATM   15  C10 UNL     1      30.526  30.201  39.835  1.00  0.00     0.138 A 
HETATM   16  N8  UNL     1      30.401  28.176  38.910  1.00  0.00    -0.170 N 
HETATM   17  N6  UNL     1      29.257  29.920  39.460  1.00  0.00    -0.184 N 
HETATM   18  C11 UNL     1      29.185  28.701  38.904  1.00  0.00     0.680 A 
ATOM     19  H6  UNL     1      28.463  30.549  39.583  1.00  0.00     0.184 HD
HETATM   20  C12 UNL     1      30.751  26.871  38.400  1.00  0.00     0.177 C 
BRANCH  10  21
HETATM   21  N4  UNL     1      34.601  29.995  40.548  1.00  0.00    -0.226 N 
HETATM   22  C7  UNL     1      35.151  28.776  41.096  1.00  0.00     0.168 C 
HETATM   23  C8  UNL     1      35.502  31.073  40.255  1.00  0.00     0.168 C 
ENDBRANCH  10  21
BRANCH  18  24
HETATM   24  N7  UNL     1      28.112  28.143  38.444  1.00  0.00    -0.234 N 
ATOM     25  H72 UNL     1      27.165  28.522  38.493  1.00  0.00     0.174 HD
ATOM     26  H71 UNL     1      28.067  27.243  37.968  1.00  0.00     0.174 HD
ENDBRANCH  18  24
ENDBRANCH   6   8
ENDBRANCH   1   6
BRANCH   1  27
HETATM   27  C13 UNL     1      28.577  33.671  40.812  1.00  0.00     0.273 C 
BRANCH  27  28
HETATM   28  O1  UNL     1      27.751  34.272  41.804  1.00  0.00    -0.374 OA
ATOM     29  H1  UNL     1      26.926  33.803  41.787  1.00  0.00     0.212 HD
ENDBRANCH  27  28
BRANCH  27  30
HETATM   30  N9  UNL     1      27.853  32.645  40.127  1.00  0.00    -0.113 NA
BRANCH  30  31
HETATM   31  N10 UNL     1      26.668  33.175  39.618  1.00  0.00    -0.346 N 
ATOM     32 2H10 UNL     1      26.564  33.563  38.681  1.00  0.00     0.172 HD
ATOM     33 1H10 UNL     1      25.936  33.110  40.325  1.00  0.00     0.172 HD
ENDBRANCH  30  31
ENDBRANCH  27  30
ENDBRANCH   1  27
TORSDOF 9
ENDMDL
MODEL 2
REMARK VINA RESULT: -4.719399286      2.434      3.655
REMARK  9 active torsions:
REMARK  status: ('A' for Active; 'I' for Inactive)
REMARK    1  A    between atoms: C2_2  and  C3_3 
REMARK    2  A    between atoms: C3_3  and  N2_6 
REMARK    3  A    between atoms: C3_3  and  C13_27 
REMARK    4  A    between atoms: N2_6  and  C5_8 
REMARK    5  A    between atoms: C6_11  and  N4_12 
REMARK    6  A    between atoms: C11_21  and  N7_22 
REMARK    7  A    between atoms: C13_27  and  O1_28 
REMARK    8  A    between atoms: C13_27  and  N9_30 
REMARK    9  A    between atoms: N9_30  and  N10_31 
ROOT
HETATM    1  C3  UNL     1      29.761  32.902  41.670  1.00  0.00     0.163 C 
HETATM    2  C4  UNL     1      29.147  32.399  42.940  1.00  0.00     0.095 C 
HETATM    3  N1  UNL     1      28.681  31.992  43.917  1.00  0.00    -0.194 NA
ENDROOT
BRANCH   1   4
HETATM    4  C2  UNL     1      31.274  32.941  41.843  1.00  0.00     0.046 C 
HETATM    5  C1  UNL     1      31.734  33.869  42.919  1.00  0.00     0.009 C 
ENDBRANCH   1   4
BRANCH   1   6
HETATM    6  N2  UNL     1      29.393  32.205  40.562  1.00  0.00    -0.349 N 
ATOM      7  H2  UNL     1      28.376  32.285  40.606  1.00  0.00     0.163 HD
BRANCH   6   8
HETATM    8  C5  UNL     1      29.533  31.555  39.568  1.00  0.00     0.149 A 
HETATM    9  N3  UNL     1      29.962  30.253  39.683  1.00  0.00    -0.174 N 
HETATM   10  C6  UNL     1      30.157  29.431  38.672  1.00  0.00     0.682 A 
ATOM     11  H3  UNL     1      30.144  29.897  40.622  1.00  0.00     0.186 HD
HETATM   12  N5  UNL     1      29.923  29.890  37.430  1.00  0.00    -0.173 N 
HETATM   13  C9  UNL     1      29.501  31.141  37.186  1.00  0.00     0.169 A 
ATOM     14  H5  UNL     1      30.072  29.262  36.640  1.00  0.00     0.186 HD
HETATM   15  C10 UNL     1      29.308  31.973  38.271  1.00  0.00     0.138 A 
HETATM   16  N8  UNL     1      29.206  31.810  36.049  1.00  0.00    -0.170 N 
HETATM   17  N6  UNL     1      28.893  33.137  37.721  1.00  0.00    -0.184 N 
HETATM   18  C11 UNL     1      28.832  33.036  36.385  1.00  0.00     0.680 A 
ATOM     19  H6  UNL     1      28.658  33.976  38.250  1.00  0.00     0.184 HD
HETATM   20  C12 UNL     1      29.278  31.296  34.701  1.00  0.00     0.177 C 
BRANCH  10  21
HETATM   21  N4  UNL     1      30.606  28.079  38.834  1.00  0.00    -0.226 N 
HETATM   22  C7  UNL     1      32.011  27.809  39.035  1.00  0.00     0.168 C 
HETATM   23  C8  UNL     1      29.699  26.967  38.803  1.00  0.00     0.168 C 
ENDBRANCH  10  21
BRANCH  18  24
HETATM   24  N7  UNL     1      28.472  33.976  35.572  1.00  0.00    -0.234 N 
ATOM     25  H72 UNL     1      27.514  34.250  35.351  1.00  0.00     0.174 HD
ATOM     26  H71 UNL     1      29.102  34.575  35.038  1.00  0.00     0.174 HD
ENDBRANCH  18  24
ENDBRANCH   6   8
ENDBRANCH   1   6
BRANCH   1  27
HETATM   27  C13 UNL     1      29.311  34.384  41.642  1.00  0.00     0.273 C 
BRANCH  27  28
HETATM   28  O1  UNL     1      27.993  34.416  42.179  1.00  0.00    -0.374 OA
ATOM     29  H1  UNL     1      28.078  34.684  43.086  1.00  0.00     0.212 HD
ENDBRANCH  27  28
BRANCH  27  30
HETATM   30  N9  UNL     1      29.315  34.927  40.319  1.00  0.00    -0.113 NA
BRANCH  30  31
HETATM   31  N10 UNL     1      30.417  35.767  40.165  1.00  0.00    -0.346 N 
ATOM     32 2H10 UNL     1      30.662  36.522  40.806  1.00  0.00     0.172 HD
ATOM     33 1H10 UNL     1      30.928  35.505  39.322  1.00  0.00     0.172 HD
ENDBRANCH  30  31
ENDBRANCH  27  30
ENDBRANCH   1  27
TORSDOF 9
ENDMDL
MODEL 3
REMARK VINA RESULT: -4.683465867      2.441      5.634
REMARK  9 active torsions:
REMARK  status: ('A' for Active; 'I' for Inactive)
REMARK    1  A    between atoms: C2_2  and  C3_3 
REMARK    2  A    between atoms: C3_3  and  N2_6 
REMARK    3  A    between atoms: C3_3  and  C13_27 
REMARK    4  A    between atoms: N2_6  and  C5_8 
REMARK    5  A    between atoms: C6_11  and  N4_12 
REMARK    6  A    between atoms: C11_21  and  N7_22 
REMARK    7  A    between atoms: C13_27  and  O1_28 
REMARK    8  A    between atoms: C13_27  and  N9_30 
REMARK    9  A    between atoms: N9_30  and  N10_31 
ROOT
HETATM    1  C3  UNL     1      29.849  27.985  37.929  1.00  0.00     0.163 C 
HETATM    2  C4  UNL     1      28.435  27.721  38.348  1.00  0.00     0.095 C 
HETATM    3  N1  UNL     1      27.339  27.538  38.666  1.00  0.00    -0.194 NA
ENDROOT
BRANCH   1   4
HETATM    4  C2  UNL     1      29.886  28.147  36.415  1.00  0.00     0.046 C 
HETATM    5  C1  UNL     1      28.998  29.234  35.903  1.00  0.00     0.009 C 
ENDBRANCH   1   4
BRANCH   1   6
HETATM    6  N2  UNL     1      30.430  29.036  38.568  1.00  0.00    -0.349 N 
ATOM      7  H2  UNL     1      31.199  29.253  37.933  1.00  0.00     0.163 HD
BRANCH   6   8
HETATM    8  C5  UNL     1      30.590  29.860  39.419  1.00  0.00     0.149 A 
HETATM    9  N3  UNL     1      31.756  29.841  40.147  1.00  0.00    -0.174 N 
HETATM   10  C6  UNL     1      32.058  30.689  41.110  1.00  0.00     0.682 A 
ATOM     11  H3  UNL     1      32.440  29.117  39.926  1.00  0.00     0.186 HD
HETATM   12  N5  UNL     1      31.164  31.647  41.412  1.00  0.00    -0.173 N 
HETATM   13  C9  UNL     1      29.990  31.770  40.774  1.00  0.00     0.169 A 
ATOM     14  H5  UNL     1      31.388  32.307  42.157  1.00  0.00     0.186 HD
HETATM   15  C10 UNL     1      29.709  30.864  39.771  1.00  0.00     0.138 A 
HETATM   16  N8  UNL     1      28.957  32.633  40.900  1.00  0.00    -0.170 N 
HETATM   17  N6  UNL     1      28.487  31.236  39.327  1.00  0.00    -0.184 N 
HETATM   18  C11 UNL     1      28.037  32.300  40.008  1.00  0.00     0.680 A 
ATOM     19  H6  UNL     1      27.977  30.769  38.576  1.00  0.00     0.184 HD
HETATM   20  C12 UNL     1      28.858  33.731  41.835  1.00  0.00     0.177 C 
BRANCH  10  21
HETATM   21  N4  UNL     1      33.287  30.636  41.847  1.00  0.00    -0.226 N 
HETATM   22  C7  UNL     1      34.026  31.852  42.098  1.00  0.00     0.168 C 
HETATM   23  C8  UNL     1      33.819  29.402  42.353  1.00  0.00     0.168 C 
ENDBRANCH  10  21
BRANCH  18  24
HETATM   24  N7  UNL     1      26.901  32.891  39.821  1.00  0.00    -0.234 N 
ATOM     25  H72 UNL     1      26.391  32.955  38.939  1.00  0.00     0.174 HD
ATOM     26  H71 UNL     1      26.359  33.378  40.535  1.00  0.00     0.174 HD
ENDBRANCH  18  24
ENDBRANCH   6   8
ENDBRANCH   1   6
BRANCH   1  27
HETATM   27  C13 UNL     1      30.543  26.630  38.216  1.00  0.00     0.273 C 
BRANCH  27  28
HETATM   28  O1  UNL     1      29.723  25.947  39.158  1.00  0.00    -0.374 OA
ATOM     29  H1  UNL     1      29.455  25.136  38.744  1.00  0.00     0.212 HD
ENDBRANCH  27  28
BRANCH  27  30
HETATM   30  N9  UNL     1      31.862  26.798  38.744  1.00  0.00    -0.113 NA
BRANCH  30  31
HETATM   31  N10 UNL     1      32.157  25.737  39.599  1.00  0.00    -0.346 N 
ATOM     32 2H10 UNL     1      31.595  24.889  39.684  1.00  0.00     0.172 HD
ATOM     33 1H10 UNL     1      33.010  25.945  40.117  1.00  0.00     0.172 HD
ENDBRANCH  30  31
ENDBRANCH  27  30
ENDBRANCH   1  27
TORSDOF 9
ENDMDL
MODEL 4
REMARK VINA RESULT: -4.579724807      3.806      6.765
REMARK  9 active torsions:
REMARK  status: ('A' for Active; 'I' for Inactive)
REMARK    1  A    between atoms: C2_2  and  C3_3 
REMARK    2  A    between atoms: C3_3  and  N2_6 
REMARK    3  A    between atoms: C3_3  and  C13_27 
REMARK    4  A    between atoms: N2_6  and  C5_8 
REMARK    5  A    between atoms: C6_11  and  N4_12 
REMARK    6  A    between atoms: C11_21  and  N7_22 
REMARK    7  A    between atoms: C13_27  and  O1_28 
REMARK    8  A    between atoms: C13_27  and  N9_30 
REMARK    9  A    between atoms: N9_30  and  N10_31 
ROOT
HETATM    1  C3  UNL     1      30.000  33.375  41.589  1.00  0.00     0.163 C 
HETATM    2  C4  UNL     1      30.417  33.154  40.167  1.00  0.00     0.095 C 
HETATM    3  N1  UNL     1      30.756  32.973  39.077  1.00  0.00    -0.194 NA
ENDROOT
BRANCH   1   4
HETATM    4  C2  UNL     1      29.633  32.032  42.204  1.00  0.00     0.046 C 
HETATM    5  C1  UNL     1      28.471  31.364  41.545  1.00  0.00     0.009 C 
ENDBRANCH   1   4
BRANCH   1   6
HETATM    6  N2  UNL     1      30.917  34.045  42.337  1.00  0.00    -0.349 N 
ATOM      7  H2  UNL     1      30.960  33.459  43.171  1.00  0.00     0.163 HD
BRANCH   6   8
HETATM    8  C5  UNL     1      31.704  34.902  42.615  1.00  0.00     0.149 A 
HETATM    9  N3  UNL     1      32.492  34.740  43.731  1.00  0.00    -0.174 N 
HETATM   10  C6  UNL     1      33.395  35.604  44.148  1.00  0.00     0.682 A 
ATOM     11  H3  UNL     1      32.367  33.888  44.277  1.00  0.00     0.186 HD
HETATM   12  N5  UNL     1      33.567  36.732  43.437  1.00  0.00    -0.173 N 
HETATM   13  C9  UNL     1      32.860  37.006  42.329  1.00  0.00     0.169 A 
ATOM     14  H5  UNL     1      34.263  37.408  43.752  1.00  0.00     0.186 HD
HETATM   15  C10 UNL     1      31.923  36.077  41.923  1.00  0.00     0.138 A 
HETATM   16  N8  UNL     1      32.857  38.050  41.470  1.00  0.00    -0.170 N 
HETATM   17  N6  UNL     1      31.386  36.620  40.807  1.00  0.00    -0.184 N 
HETATM   18  C11 UNL     1      31.950  37.806  40.537  1.00  0.00     0.680 A 
ATOM     19  H6  UNL     1      30.652  36.186  40.247  1.00  0.00     0.184 HD
HETATM   20  C12 UNL     1      33.690  39.228  41.541  1.00  0.00     0.177 C 
BRANCH  10  21
HETATM   21  N4  UNL     1      34.198  35.399  45.318  1.00  0.00    -0.226 N 
HETATM   22  C7  UNL     1      34.280  36.434  46.323  1.00  0.00     0.168 C 
HETATM   23  C8  UNL     1      34.934  34.185  45.533  1.00  0.00     0.168 C 
ENDBRANCH  10  21
BRANCH  18  24
HETATM   24  N7  UNL     1      31.654  38.573  39.537  1.00  0.00    -0.234 N 
ATOM     25  H72 UNL     1      32.124  38.594  38.631  1.00  0.00     0.174 HD
ATOM     26  H71 UNL     1      30.906  39.266  39.521  1.00  0.00     0.174 HD
ENDBRANCH  18  24
ENDBRANCH   6   8
ENDBRANCH   1   6
BRANCH   1  27
HETATM   27  C13 UNL     1      28.660  34.137  41.432  1.00  0.00     0.273 C 
BRANCH  27  28
HETATM   28  O1  UNL     1      28.753  34.872  40.217  1.00  0.00    -0.374 OA
ATOM     29  H1  UNL     1      29.532  35.410  40.286  1.00  0.00     0.212 HD
ENDBRANCH  27  28
BRANCH  27  30
HETATM   30  N9  UNL     1      28.410  35.025  42.525  1.00  0.00    -0.113 NA
BRANCH  30  31
HETATM   31  N10 UNL     1      27.636  34.375  43.484  1.00  0.00    -0.346 N 
ATOM     32 2H10 UNL     1      26.764  33.883  43.287  1.00  0.00     0.172 HD
ATOM     33 1H10 UNL     1      28.077  34.470  44.399  1.00  0.00     0.172 HD
ENDBRANCH  30  31
ENDBRANCH  27  30
ENDBRANCH   1  27
TORSDOF 9
ENDMDL
MODEL 5
REMARK VINA RESULT: -4.568581390      2.767      4.036
REMARK  9 active torsions:
REMARK  status: ('A' for Active; 'I' for Inactive)
REMARK    1  A    between atoms: C2_2  and  C3_3 
REMARK    2  A    between atoms: C3_3  and  N2_6 
REMARK    3  A    between atoms: C3_3  and  C13_27 
REMARK    4  A    between atoms: N2_6  and  C5_8 
REMARK    5  A    between atoms: C6_11  and  N4_12 
REMARK    6  A    between atoms: C11_21  and  N7_22 
REMARK    7  A    between atoms: C13_27  and  O1_28 
REMARK    8  A    between atoms: C13_27  and  N9_30 
REMARK    9  A    between atoms: N9_30  and  N10_31 
ROOT
HETATM    1  C3  UNL     1      29.677  33.115  41.664  1.00  0.00     0.163 C 
HETATM    2  C4  UNL     1      29.118  32.444  42.880  1.00  0.00     0.095 C 
HETATM    3  N1  UNL     1      28.693  31.907  43.812  1.00  0.00    -0.194 NA
ENDROOT
BRANCH   1   4
HETATM    4  C2  UNL     1      31.197  33.077  41.742  1.00  0.00     0.046 C 
HETATM    5  C1  UNL     1      31.758  33.800  42.923  1.00  0.00     0.009 C 
ENDBRANCH   1   4
BRANCH   1   6
HETATM    6  N2  UNL     1      29.214  32.609  40.489  1.00  0.00    -0.349 N 
ATOM      7  H2  UNL     1      28.300  32.254  40.771  1.00  0.00     0.163 HD
BRANCH   6   8
HETATM    8  C5  UNL     1      29.225  32.326  39.327  1.00  0.00     0.149 A 
HETATM    9  N3  UNL     1      29.437  33.325  38.405  1.00  0.00    -0.174 N 
HETATM   10  C6  UNL     1      29.472  33.150  37.099  1.00  0.00     0.682 A 
ATOM     11  H3  UNL     1      29.577  34.272  38.758  1.00  0.00     0.186 HD
HETATM   12  N5  UNL     1      29.287  31.907  36.622  1.00  0.00    -0.173 N 
HETATM   13  C9  UNL     1      29.071  30.849  37.420  1.00  0.00     0.169 A 
ATOM     14  H5  UNL     1      29.311  31.762  35.613  1.00  0.00     0.186 HD
HETATM   15  C10 UNL     1      29.041  31.071  38.782  1.00  0.00     0.138 A 
HETATM   16  N8  UNL     1      28.864  29.536  37.174  1.00  0.00    -0.170 N 
HETATM   17  N6  UNL     1      28.811  29.846  39.307  1.00  0.00    -0.184 N 
HETATM   18  C11 UNL     1      28.705  28.925  38.338  1.00  0.00     0.680 A 
ATOM     19  H6  UNL     1      28.730  29.650  40.305  1.00  0.00     0.184 HD
HETATM   20  C12 UNL     1      28.821  28.895  35.880  1.00  0.00     0.177 C 
BRANCH  10  21
HETATM   21  N4  UNL     1      29.696  34.219  36.170  1.00  0.00    -0.226 N 
HETATM   22  C7  UNL     1      30.973  34.895  36.149  1.00  0.00     0.168 C 
HETATM   23  C8  UNL     1      28.685  34.650  35.246  1.00  0.00     0.168 C 
ENDBRANCH  10  21
BRANCH  18  24
HETATM   24  N7  UNL     1      28.485  27.662  38.517  1.00  0.00    -0.234 N 
ATOM     25  H72 UNL     1      28.099  27.229  39.357  1.00  0.00     0.174 HD
ATOM     26  H71 UNL     1      28.669  26.924  37.838  1.00  0.00     0.174 HD
ENDBRANCH  18  24
ENDBRANCH   6   8
ENDBRANCH   1   6
BRANCH   1  27
HETATM   27  C13 UNL     1      29.289  34.598  41.889  1.00  0.00     0.273 C 
BRANCH  27  28
HETATM   28  O1  UNL     1      27.997  34.591  42.485  1.00  0.00    -0.374 OA
ATOM     29  H1  UNL     1      27.370  34.592  41.771  1.00  0.00     0.212 HD
ENDBRANCH  27  28
BRANCH  27  30
HETATM   30  N9  UNL     1      29.262  35.343  40.669  1.00  0.00    -0.113 NA
BRANCH  30  31
HETATM   31  N10 UNL     1      30.423  36.109  40.568  1.00  0.00    -0.346 N 
ATOM     32 2H10 UNL     1      30.446  37.129  40.586  1.00  0.00     0.172 HD
ATOM     33 1H10 UNL     1      31.230  35.492  40.473  1.00  0.00     0.172 HD
ENDBRANCH  30  31
ENDBRANCH  27  30
ENDBRANCH   1  27
TORSDOF 9
ENDMDL
