MODEL 1
REMARK VINA RESULT: -5.049870058      0.000      0.000
REMARK  8 active torsions:
REMARK  status: ('A' for Active; 'I' for Inactive)
REMARK    1  A    between atoms: O1_2  and  C2_3 
REMARK    2  A    between atoms: C2_3  and  C3_4 
REMARK    3  A    between atoms: C3_4  and  C4_5 
REMARK    4  A    between atoms: C4_5  and  O2_6 
REMARK    5  A    between atoms: N1_10  and  O3_11 
REMARK    6  A    between atoms: C9_16  and  N3_17 
REMARK    7  A    between atoms: C10_23  and  N5_24 
REMARK       I    between atoms: N5_24  and  C11_26 
REMARK    8  A    between atoms: C12_31  and  O4_32 
ROOT
HETATM    1  C3  UNL     1      30.904  34.367  41.668  1.00  0.00     0.120 C 
HETATM    2  N2  UNL     1      30.355  33.175  42.166  1.00  0.00    -0.364 N 
ATOM      3  H2  UNL     1      30.965  32.367  42.285  1.00  0.00     0.158 HD
HETATM    4  C9  UNL     1      29.014  33.052  42.505  1.00  0.00     0.380 C 
HETATM    5  N4  UNL     1      28.146  34.040  41.988  1.00  0.00    -0.357 N 
ATOM      6  H4  UNL     1      27.276  34.297  42.454  1.00  0.00     0.159 HD
HETATM    7  C10 UNL     1      28.570  34.659  40.762  1.00  0.00     0.214 C 
HETATM    8  C12 UNL     1      29.918  35.259  40.931  1.00  0.00     0.194 C 
ENDROOT
BRANCH   1   9
HETATM    9  C2  UNL     1      31.993  33.996  40.692  1.00  0.00     0.204 C 
BRANCH   9  10
HETATM   10  O1  UNL     1      31.597  33.127  39.695  1.00  0.00    -0.393 OA
HETATM   11  C1  UNL     1      32.563  33.133  38.700  1.00  0.00     0.201 C 
ENDBRANCH   9  10
ENDBRANCH   1   9
BRANCH   1  12
HETATM   12  C4  UNL     1      31.542  35.132  42.805  1.00  0.00     0.143 A 
HETATM   13  C6  UNL     1      30.719  36.195  43.390  1.00  0.00     0.039 A 
HETATM   14  C7  UNL     1      31.362  37.367  43.252  1.00  0.00     0.121 A 
HETATM   15  N1  UNL     1      32.572  37.119  42.603  1.00  0.00    -0.248 N 
HETATM   16  C8  UNL     1      32.737  35.887  42.325  1.00  0.00     0.140 A 
BRANCH  12  17
HETATM   17  O2  UNL     1      32.004  34.215  43.784  1.00  0.00    -0.373 OA
HETATM   18  C5  UNL     1      33.359  34.324  43.974  1.00  0.00     0.203 C 
ENDBRANCH  12  17
BRANCH  15  19
HETATM   19  O3  UNL     1      33.484  38.135  42.307  1.00  0.00    -0.284 OA
ATOM     20  H3  UNL     1      34.370  37.954  42.017  1.00  0.00     0.245 HD
ENDBRANCH  15  19
ENDBRANCH   1  12
BRANCH   8  21
HETATM   21  O4  UNL     1      30.375  35.749  39.736  1.00  0.00    -0.389 OA
ATOM     22  H4  UNL     1      29.700  35.890  39.082  1.00  0.00     0.210 HD
ENDBRANCH   8  21
BRANCH   4  23
HETATM   23  N3  UNL     1      28.563  31.687  42.207  1.00  0.00    -0.041 N 
ATOM     24  H33 UNL     1      27.637  31.670  41.781  1.00  0.00     0.278 HD
ATOM     25  H32 UNL     1      29.084  31.267  41.437  1.00  0.00     0.278 HD
ATOM     26  H31 UNL     1      28.609  31.125  43.057  1.00  0.00     0.278 HD
ENDBRANCH   4  23
BRANCH   7  27
HETATM   27  N5  UNL     1      28.404  33.769  39.641  1.00  0.00    -0.341 N 
HETATM   28  C11 UNL     1      27.254  33.678  38.844  1.00  0.00     0.183 C 
HETATM   29  N6  UNL     1      27.353  33.511  37.581  1.00  0.00    -0.374 N 
HETATM   30  N7  UNL     1      25.964  33.766  39.406  1.00  0.00    -0.064 NA
ATOM     31  H62 UNL     1      28.286  33.448  37.175  1.00  0.00     0.158 HD
ATOM     32  H61 UNL     1      26.516  33.445  37.002  1.00  0.00     0.158 HD
ATOM     33  H5  UNL     1      29.186  33.156  39.408  1.00  0.00     0.164 HD
ENDBRANCH   7  27
TORSDOF 8
ENDMDL
MODEL 2
REMARK VINA RESULT: -4.989662620      2.624      5.685
REMARK  8 active torsions:
REMARK  status: ('A' for Active; 'I' for Inactive)
REMARK    1  A    between atoms: O1_2  and  C2_3 
REMARK    2  A    between atoms: C2_3  and  C3_4 
REMARK    3  A    between atoms: C3_4  and  C4_5 
REMARK    4  A    between atoms: C4_5  and  O2_6 
REMARK    5  A    between atoms: N1_10  and  O3_11 
REMARK    6  A    between atoms: C9_16  and  N3_17 
REMARK    7  A    between atoms: C10_23  and  N5_24 
REMARK       I    between atoms: N5_24  and  C11_26 
REMARK    8  A    between atoms: C12_31  and  O4_32 
ROOT
HETATM    1  C3  UNL     1      29.055  32.827  40.262  1.00  0.00     0.120 C 
HETATM    2  N2  UNL     1      28.322  33.136  41.419  1.00  0.00    -0.364 N 
ATOM      3  H2  UNL     1      27.306  33.204  41.351  1.00  0.00     0.158 HD
HETATM    4  C9  UNL     1      28.923  33.354  42.651  1.00  0.00     0.380 C 
HETATM    5  N4  UNL     1      30.310  33.620  42.632  1.00  0.00    -0.357 N 
ATOM      6  H4  UNL     1      30.916  33.403  43.423  1.00  0.00     0.159 HD
HETATM    7  C10 UNL     1      30.811  34.215  41.423  1.00  0.00     0.214 C 
HETATM    8  C12 UNL     1      30.480  33.358  40.255  1.00  0.00     0.194 C 
ENDROOT
BRANCH   1   9
HETATM    9  C2  UNL     1      28.339  33.445  39.087  1.00  0.00     0.204 C 
BRANCH   9  10
HETATM   10  O1  UNL     1      27.243  34.215  39.424  1.00  0.00    -0.393 OA
HETATM   11  C1  UNL     1      26.159  33.788  38.671  1.00  0.00     0.201 C 
ENDBRANCH   9  10
ENDBRANCH   1   9
BRANCH   1  12
HETATM   12  C4  UNL     1      29.062  31.329  40.065  1.00  0.00     0.143 A 
HETATM   13  C6  UNL     1      30.313  30.651  40.419  1.00  0.00     0.039 A 
HETATM   14  C7  UNL     1      30.793  30.030  39.329  1.00  0.00     0.121 A 
HETATM   15  N1  UNL     1      29.910  30.268  38.275  1.00  0.00    -0.248 N 
HETATM   16  C8  UNL     1      28.918  30.988  38.619  1.00  0.00     0.140 A 
BRANCH  12  17
HETATM   17  O2  UNL     1      27.943  30.765  40.732  1.00  0.00    -0.373 OA
HETATM   18  C5  UNL     1      27.156  30.043  39.868  1.00  0.00     0.203 C 
ENDBRANCH  12  17
BRANCH  15  19
HETATM   19  O3  UNL     1      30.121  29.756  36.993  1.00  0.00    -0.284 OA
ATOM     20  H3  UNL     1      29.433  29.327  36.497  1.00  0.00     0.245 HD
ENDBRANCH  15  19
ENDBRANCH   1  12
BRANCH   8  21
HETATM   21  O4  UNL     1      30.854  33.975  39.091  1.00  0.00    -0.389 OA
ATOM     22  H4  UNL     1      31.727  33.754  38.788  1.00  0.00     0.210 HD
ENDBRANCH   8  21
BRANCH   4  23
HETATM   23  N3  UNL     1      28.159  34.368  43.389  1.00  0.00    -0.041 N 
ATOM     24  H33 UNL     1      28.756  34.950  43.976  1.00  0.00     0.278 HD
ATOM     25  H32 UNL     1      27.798  35.101  42.779  1.00  0.00     0.278 HD
ATOM     26  H31 UNL     1      27.420  33.910  43.923  1.00  0.00     0.278 HD
ENDBRANCH   4  23
BRANCH   7  27
HETATM   27  N5  UNL     1      30.431  35.601  41.325  1.00  0.00    -0.341 N 
HETATM   28  C11 UNL     1      30.804  36.606  42.228  1.00  0.00     0.183 C 
HETATM   29  N6  UNL     1      31.104  37.776  41.807  1.00  0.00    -0.374 N 
HETATM   30  N7  UNL     1      30.858  36.363  43.616  1.00  0.00    -0.064 NA
ATOM     31  H62 UNL     1      31.066  37.952  40.804  1.00  0.00     0.158 HD
ATOM     32  H61 UNL     1      31.375  38.507  42.464  1.00  0.00     0.158 HD
ATOM     33  H5  UNL     1      29.845  35.873  40.535  1.00  0.00     0.164 HD
ENDBRANCH   7  27
TORSDOF 8
ENDMDL
MODEL 3
REMARK VINA RESULT: -4.924262381      3.374      6.109
REMARK  8 active torsions:
REMARK  status: ('A' for Active; 'I' for Inactive)
REMARK    1  A    between atoms: O1_2  and  C2_3 
REMARK    2  A    between atoms: C2_3  and  C3_4 
REMARK    3  A    between atoms: C3_4  and  C4_5 
REMARK    4  A    between atoms: C4_5  and  O2_6 
REMARK    5  A    between atoms: N1_10  and  O3_11 
REMARK    6  A    between atoms: C9_16  and  N3_17 
REMARK    7  A    between atoms: C10_23  and  N5_24 
REMARK       I    between atoms: N5_24  and  C11_26 
REMARK    8  A    between atoms: C12_31  and  O4_32 
ROOT
HETATM    1  C3  UNL     1      28.464  32.509  38.334  1.00  0.00     0.120 C 
HETATM    2  N2  UNL     1      27.791  31.486  39.021  1.00  0.00    -0.364 N 
ATOM      3  H2  UNL     1      26.858  31.217  38.707  1.00  0.00     0.158 HD
HETATM    4  C9  UNL     1      28.344  30.825  40.110  1.00  0.00     0.380 C 
HETATM    5  N4  UNL     1      29.441  31.459  40.734  1.00  0.00    -0.357 N 
ATOM      6  H4  UNL     1      30.155  30.935  41.242  1.00  0.00     0.159 HD
HETATM    7  C10 UNL     1      29.486  32.890  40.607  1.00  0.00     0.214 C 
HETATM    8  C12 UNL     1      29.473  33.277  39.173  1.00  0.00     0.194 C 
ENDROOT
BRANCH   1   9
HETATM    9  C2  UNL     1      27.429  33.497  37.857  1.00  0.00     0.204 C 
BRANCH   9  10
HETATM   10  O1  UNL     1      26.676  34.069  38.864  1.00  0.00    -0.393 OA
HETATM   11  C1  UNL     1      25.357  34.135  38.440  1.00  0.00     0.201 C 
ENDBRANCH   9  10
ENDBRANCH   1   9
BRANCH   1  12
HETATM   12  C4  UNL     1      29.143  31.925  37.117  1.00  0.00     0.143 A 
HETATM   13  C6  UNL     1      28.920  30.493  36.896  1.00  0.00     0.039 A 
HETATM   14  C7  UNL     1      30.105  29.861  36.916  1.00  0.00     0.121 A 
HETATM   15  N1  UNL     1      31.097  30.817  37.139  1.00  0.00    -0.248 N 
HETATM   16  C8  UNL     1      30.627  31.994  37.260  1.00  0.00     0.140 A 
BRANCH  12  17
HETATM   17  O2  UNL     1      28.805  32.700  35.977  1.00  0.00    -0.373 OA
HETATM   18  C5  UNL     1      29.913  33.301  35.433  1.00  0.00     0.203 C 
ENDBRANCH  12  17
BRANCH  15  19
HETATM   19  O3  UNL     1      32.452  30.485  37.215  1.00  0.00    -0.284 OA
ATOM     20  H3  UNL     1      33.126  31.134  37.379  1.00  0.00     0.245 HD
ENDBRANCH  15  19
ENDBRANCH   1  12
BRANCH   8  21
HETATM   21  O4  UNL     1      29.400  34.639  39.048  1.00  0.00    -0.389 OA
ATOM     22  H4  UNL     1      29.513  35.118  39.861  1.00  0.00     0.210 HD
ENDBRANCH   8  21
BRANCH   4  23
HETATM   23  N3  UNL     1      27.276  30.473  41.055  1.00  0.00    -0.041 N 
ATOM     24  H33 UNL     1      26.632  31.247  41.216  1.00  0.00     0.278 HD
ATOM     25  H32 UNL     1      26.610  29.811  40.657  1.00  0.00     0.278 HD
ATOM     26  H31 UNL     1      27.693  30.129  41.920  1.00  0.00     0.278 HD
ENDBRANCH   4  23
BRANCH   7  27
HETATM   27  N5  UNL     1      28.501  33.521  41.447  1.00  0.00    -0.341 N 
HETATM   28  C11 UNL     1      28.451  33.427  42.845  1.00  0.00     0.183 C 
HETATM   29  N6  UNL     1      28.134  34.444  43.552  1.00  0.00    -0.374 N 
HETATM   30  N7  UNL     1      28.743  32.218  43.510  1.00  0.00    -0.064 NA
ATOM     31  H62 UNL     1      27.922  35.318  43.071  1.00  0.00     0.158 HD
ATOM     32  H61 UNL     1      28.098  34.375  44.569  1.00  0.00     0.158 HD
ATOM     33  H5  UNL     1      27.782  34.083  40.989  1.00  0.00     0.164 HD
ENDBRANCH   7  27
TORSDOF 8
ENDMDL
MODEL 4
REMARK VINA RESULT: -4.828380555      2.414      3.870
REMARK  8 active torsions:
REMARK  status: ('A' for Active; 'I' for Inactive)
REMARK    1  A    between atoms: O1_2  and  C2_3 
REMARK    2  A    between atoms: C2_3  and  C3_4 
REMARK    3  A    between atoms: C3_4  and  C4_5 
REMARK    4  A    between atoms: C4_5  and  O2_6 
REMARK    5  A    between atoms: N1_10  and  O3_11 
REMARK    6  A    between atoms: C9_16  and  N3_17 
REMARK    7  A    between atoms: C10_23  and  N5_24 
REMARK       I    between atoms: N5_24  and  C11_26 
REMARK    8  A    between atoms: C12_31  and  O4_32 
ROOT
HETATM    1  C3  UNL     1      29.430  33.364  39.818  1.00  0.00     0.120 C 
HETATM    2  N2  UNL     1      29.545  32.237  38.989  1.00  0.00    -0.364 N 
ATOM      3  H2  UNL     1      30.361  32.157  38.382  1.00  0.00     0.158 HD
HETATM    4  C9  UNL     1      28.592  31.227  38.961  1.00  0.00     0.380 C 
HETATM    5  N4  UNL     1      27.330  31.543  39.511  1.00  0.00    -0.357 N 
ATOM      6  H4  UNL     1      26.716  30.830  39.907  1.00  0.00     0.159 HD
HETATM    7  C10 UNL     1      26.969  32.933  39.478  1.00  0.00     0.214 C 
HETATM    8  C12 UNL     1      28.001  33.748  40.170  1.00  0.00     0.194 C 
ENDROOT
BRANCH   1   9
HETATM    9  C2  UNL     1      30.043  34.533  39.088  1.00  0.00     0.204 C 
BRANCH   9  10
HETATM   10  O1  UNL     1      29.671  34.640  37.763  1.00  0.00    -0.393 OA
HETATM   11  C1  UNL     1      30.806  34.903  37.009  1.00  0.00     0.201 C 
ENDBRANCH   9  10
ENDBRANCH   1   9
BRANCH   1  12
HETATM   12  C4  UNL     1      30.228  33.135  41.080  1.00  0.00     0.143 A 
HETATM   13  C6  UNL     1      30.868  31.820  41.192  1.00  0.00     0.039 A 
HETATM   14  C7  UNL     1      30.398  31.201  42.287  1.00  0.00     0.121 A 
HETATM   15  N1  UNL     1      29.478  32.052  42.900  1.00  0.00    -0.248 N 
HETATM   16  C8  UNL     1      29.336  33.153  42.277  1.00  0.00     0.140 A 
BRANCH  12  17
HETATM   17  O2  UNL     1      31.156  34.196  41.245  1.00  0.00    -0.373 OA
HETATM   18  C5  UNL     1      30.900  34.913  42.387  1.00  0.00     0.203 C 
ENDBRANCH  12  17
BRANCH  15  19
HETATM   19  O3  UNL     1      28.803  31.705  44.073  1.00  0.00    -0.284 OA
ATOM     20  H3  UNL     1      29.015  32.090  44.915  1.00  0.00     0.245 HD
ENDBRANCH  15  19
ENDBRANCH   1  12
BRANCH   8  21
HETATM   21  O4  UNL     1      27.720  35.082  40.042  1.00  0.00    -0.389 OA
ATOM     22  H4  UNL     1      26.830  35.323  40.272  1.00  0.00     0.210 HD
ENDBRANCH   8  21
BRANCH   4  23
HETATM   23  N3  UNL     1      28.500  30.687  37.598  1.00  0.00    -0.041 N 
ATOM     24  H33 UNL     1      29.357  30.832  37.066  1.00  0.00     0.278 HD
ATOM     25  H32 UNL     1      28.492  29.667  37.586  1.00  0.00     0.278 HD
ATOM     26  H31 UNL     1      27.683  31.086  37.134  1.00  0.00     0.278 HD
ENDBRANCH   4  23
BRANCH   7  27
HETATM   27  N5  UNL     1      26.615  33.351  38.145  1.00  0.00    -0.341 N 
HETATM   28  C11 UNL     1      25.632  34.300  37.830  1.00  0.00     0.183 C 
HETATM   29  N6  UNL     1      25.819  35.135  36.880  1.00  0.00    -0.374 N 
HETATM   30  N7  UNL     1      24.417  34.362  38.543  1.00  0.00    -0.064 NA
ATOM     31  H62 UNL     1      26.698  35.089  36.365  1.00  0.00     0.158 HD
ATOM     32  H61 UNL     1      25.104  35.825  36.651  1.00  0.00     0.158 HD
ATOM     33  H5  UNL     1      27.120  32.922  37.369  1.00  0.00     0.164 HD
ENDBRANCH   7  27
TORSDOF 8
ENDMDL
MODEL 5
REMARK VINA RESULT: -4.791530614      1.334      2.022
REMARK  8 active torsions:
REMARK  status: ('A' for Active; 'I' for Inactive)
REMARK    1  A    between atoms: O1_2  and  C2_3 
REMARK    2  A    between atoms: C2_3  and  C3_4 
REMARK    3  A    between atoms: C3_4  and  C4_5 
REMARK    4  A    between atoms: C4_5  and  O2_6 
REMARK    5  A    between atoms: N1_10  and  O3_11 
REMARK    6  A    between atoms: C9_16  and  N3_17 
REMARK    7  A    between atoms: C10_23  and  N5_24 
REMARK       I    between atoms: N5_24  and  C11_26 
REMARK    8  A    between atoms: C12_31  and  O4_32 
ROOT
HETATM    1  C3  UNL     1      30.950  34.135  41.534  1.00  0.00     0.120 C 
HETATM    2  N2  UNL     1      30.398  33.252  42.475  1.00  0.00    -0.364 N 
ATOM      3  H2  UNL     1      30.903  32.394  42.696  1.00  0.00     0.158 HD
HETATM    4  C9  UNL     1      29.191  33.498  43.117  1.00  0.00     0.380 C 
HETATM    5  N4  UNL     1      28.358  34.475  42.527  1.00  0.00    -0.357 N 
ATOM      6  H4  UNL     1      27.687  35.018  43.071  1.00  0.00     0.159 HD
HETATM    7  C10 UNL     1      28.520  34.655  41.110  1.00  0.00     0.214 C 
HETATM    8  C12 UNL     1      29.933  34.989  40.794  1.00  0.00     0.194 C 
ENDROOT
BRANCH   1   9
HETATM    9  C2  UNL     1      31.679  33.309  40.504  1.00  0.00     0.204 C 
BRANCH   9  10
HETATM   10  O1  UNL     1      30.913  32.324  39.913  1.00  0.00    -0.393 OA
HETATM   11  C1  UNL     1      31.556  31.904  38.757  1.00  0.00     0.201 C 
ENDBRANCH   9  10
ENDBRANCH   1   9
BRANCH   1  12
HETATM   12  C4  UNL     1      31.964  35.020  42.221  1.00  0.00     0.143 A 
HETATM   13  C6  UNL     1      33.280  35.091  41.577  1.00  0.00     0.039 A 
HETATM   14  C7  UNL     1      34.210  34.652  42.442  1.00  0.00     0.121 A 
HETATM   15  N1  UNL     1      33.563  34.299  43.626  1.00  0.00    -0.248 N 
HETATM   16  C8  UNL     1      32.304  34.481  43.571  1.00  0.00     0.140 A 
BRANCH  12  17
HETATM   17  O2  UNL     1      31.400  36.307  42.424  1.00  0.00    -0.373 OA
HETATM   18  C5  UNL     1      31.249  36.583  43.761  1.00  0.00     0.203 C 
ENDBRANCH  12  17
BRANCH  15  19
HETATM   19  O3  UNL     1      34.251  33.803  44.736  1.00  0.00    -0.284 OA
ATOM     20  H3  UNL     1      33.811  33.361  45.452  1.00  0.00     0.245 HD
ENDBRANCH  15  19
ENDBRANCH   1  12
BRANCH   8  21
HETATM   21  O4  UNL     1      30.116  35.049  39.438  1.00  0.00    -0.389 OA
ATOM     22  H4  UNL     1      30.387  35.900  39.112  1.00  0.00     0.210 HD
ENDBRANCH   8  21
BRANCH   4  23
HETATM   23  N3  UNL     1      28.498  32.226  43.349  1.00  0.00    -0.041 N 
ATOM     24  H33 UNL     1      28.913  31.457  42.822  1.00  0.00     0.278 HD
ATOM     25  H32 UNL     1      28.663  31.861  44.288  1.00  0.00     0.278 HD
ATOM     26  H31 UNL     1      27.505  32.342  43.149  1.00  0.00     0.278 HD
ENDBRANCH   4  23
BRANCH   7  27
HETATM   27  N5  UNL     1      27.944  33.560  40.373  1.00  0.00    -0.341 N 
HETATM   28  C11 UNL     1      27.219  33.682  39.179  1.00  0.00     0.183 C 
HETATM   29  N6  UNL     1      27.363  32.821  38.244  1.00  0.00    -0.374 N 
HETATM   30  N7  UNL     1      26.317  34.745  38.973  1.00  0.00    -0.064 NA
ATOM     31  H62 UNL     1      28.015  32.052  38.393  1.00  0.00     0.158 HD
ATOM     32  H61 UNL     1      26.836  32.910  37.376  1.00  0.00     0.158 HD
ATOM     33  H5  UNL     1      28.073  32.620  40.750  1.00  0.00     0.164 HD
ENDBRANCH   7  27
TORSDOF 8
ENDMDL
