MODEL 1
REMARK VINA RESULT: -5.304746602      0.000      0.000
REMARK  7 active torsions:
REMARK  status: ('A' for Active; 'I' for Inactive)
REMARK       I    between atoms: C2_2  and  N1_4 
REMARK    1  A    between atoms: C6_12  and  N4_13 
REMARK    2  A    between atoms: C7_18  and  N6_19 
REMARK    3  A    between atoms: N6_19  and  C8_21 
REMARK    4  A    between atoms: N8_26  and  C11_27 
REMARK    5  A    between atoms: C11_27  and  C12_28 
REMARK    6  A    between atoms: C12_28  and  N9_29 
REMARK    7  A    between atoms: C12_28  and  O2_33 
ROOT
HETATM    1  C1  UNL     1      28.568  28.999  38.804  1.00  0.00     0.118 C 
HETATM    2  C2  UNL     1      28.378  30.099  39.777  1.00  0.00     0.226 C 
HETATM    3  O1  UNL     1      27.220  30.388  40.155  1.00  0.00    -0.273 OA
HETATM    4  N1  UNL     1      29.482  30.803  40.263  1.00  0.00    -0.262 N 
HETATM    5  C3  UNL     1      30.858  30.585  39.922  1.00  0.00     0.193 A 
HETATM    6  N2  UNL     1      31.616  31.420  40.560  1.00  0.00    -0.346 N 
ATOM      7  H2  UNL     1      32.633  31.476  40.495  1.00  0.00     0.167 HD
HETATM    8  C4  UNL     1      30.787  32.243  41.365  1.00  0.00     0.124 A 
HETATM    9  C5  UNL     1      29.459  31.876  41.196  1.00  0.00     0.161 A 
HETATM   10  N3  UNL     1      28.525  32.551  41.885  1.00  0.00    -0.174 N 
ATOM     11  H3  UNL     1      27.545  32.294  41.773  1.00  0.00     0.186 HD
HETATM   12  C6  UNL     1      28.847  33.564  42.726  1.00  0.00     0.679 A 
HETATM   13  N5  UNL     1      30.150  33.906  42.877  1.00  0.00    -0.174 N 
ATOM     14  H5  UNL     1      30.393  34.668  43.510  1.00  0.00     0.186 HD
HETATM   15  C7  UNL     1      31.131  33.267  42.215  1.00  0.00     0.167 A 
ENDROOT
BRANCH  15  16
HETATM   16  N6  UNL     1      32.335  33.606  42.374  1.00  0.00    -0.173 N 
ATOM     17  H6  UNL     1      32.998  33.144  41.751  1.00  0.00     0.186 HD
BRANCH  16  18
HETATM   18  C8  UNL     1      32.900  34.512  43.267  1.00  0.00     0.685 A 
HETATM   19  N7  UNL     1      33.567  34.208  44.382  1.00  0.00    -0.200 N 
HETATM   20  C9  UNL     1      33.976  35.319  45.013  1.00  0.00     0.124 A 
ATOM     21  H7  UNL     1      33.742  33.258  44.711  1.00  0.00     0.183 HD
HETATM   22  C10 UNL     1      33.524  36.354  44.223  1.00  0.00     0.126 A 
HETATM   23  N8  UNL     1      32.870  35.846  43.163  1.00  0.00    -0.188 N 
BRANCH  23  24
HETATM   24  C11 UNL     1      32.261  36.665  42.124  1.00  0.00     0.207 C 
BRANCH  24  25
HETATM   25  C12 UNL     1      31.132  37.481  42.716  1.00  0.00     0.335 C 
BRANCH  25  26
HETATM   26  N9  UNL     1      31.046  38.781  42.103  1.00  0.00    -0.051 N 
ATOM     27  H93 UNL     1      31.701  39.438  42.527  1.00  0.00     0.277 HD
ATOM     28  H92 UNL     1      31.423  38.773  41.155  1.00  0.00     0.277 HD
ATOM     29  H91 UNL     1      30.092  39.140  42.122  1.00  0.00     0.277 HD
ENDBRANCH  25  26
BRANCH  25  30
HETATM   30  O2  UNL     1      29.948  36.789  42.529  1.00  0.00    -0.369 OA
ATOM     31  H2  UNL     1      29.845  36.172  43.243  1.00  0.00     0.212 HD
ENDBRANCH  25  30
ENDBRANCH  24  25
ENDBRANCH  23  24
ENDBRANCH  16  18
ENDBRANCH  15  16
BRANCH  12  32
HETATM   32  N4  UNL     1      27.916  34.182  43.365  1.00  0.00    -0.234 N 
ATOM     33  H42 UNL     1      27.298  33.688  44.011  1.00  0.00     0.174 HD
ATOM     34  H41 UNL     1      27.789  35.185  43.227  1.00  0.00     0.174 HD
ENDBRANCH  12  32
TORSDOF 7
ENDMDL
MODEL 2
REMARK VINA RESULT: -5.146155917      3.732      6.522
REMARK  7 active torsions:
REMARK  status: ('A' for Active; 'I' for Inactive)
REMARK       I    between atoms: C2_2  and  N1_4 
REMARK    1  A    between atoms: C6_12  and  N4_13 
REMARK    2  A    between atoms: C7_18  and  N6_19 
REMARK    3  A    between atoms: N6_19  and  C8_21 
REMARK    4  A    between atoms: N8_26  and  C11_27 
REMARK    5  A    between atoms: C11_27  and  C12_28 
REMARK    6  A    between atoms: C12_28  and  N9_29 
REMARK    7  A    between atoms: C12_28  and  O2_33 
ROOT
HETATM    1  C1  UNL     1      29.383  31.450  32.618  1.00  0.00     0.118 C 
HETATM    2  C2  UNL     1      29.152  30.265  33.476  1.00  0.00     0.226 C 
HETATM    3  O1  UNL     1      29.002  29.143  32.942  1.00  0.00    -0.273 OA
HETATM    4  N1  UNL     1      29.102  30.405  34.865  1.00  0.00    -0.262 N 
HETATM    5  C3  UNL     1      29.255  31.620  35.612  1.00  0.00     0.193 A 
HETATM    6  N2  UNL     1      29.152  31.382  36.882  1.00  0.00    -0.346 N 
ATOM      7  H2  UNL     1      29.222  32.073  37.629  1.00  0.00     0.167 HD
HETATM    8  C4  UNL     1      28.924  29.991  37.053  1.00  0.00     0.124 A 
HETATM    9  C5  UNL     1      28.890  29.367  35.813  1.00  0.00     0.161 A 
HETATM   10  N3  UNL     1      28.683  28.041  35.781  1.00  0.00    -0.174 N 
ATOM     11  H3  UNL     1      28.655  27.566  34.879  1.00  0.00     0.186 HD
HETATM   12  C6  UNL     1      28.510  27.314  36.911  1.00  0.00     0.679 A 
HETATM   13  N5  UNL     1      28.547  27.943  38.112  1.00  0.00    -0.174 N 
ATOM     14  H5  UNL     1      28.417  27.397  38.963  1.00  0.00     0.186 HD
HETATM   15  C7  UNL     1      28.751  29.269  38.210  1.00  0.00     0.167 A 
ENDROOT
BRANCH  15  16
HETATM   16  N6  UNL     1      28.781  29.829  39.338  1.00  0.00    -0.173 N 
ATOM     17  H6  UNL     1      27.873  29.941  39.788  1.00  0.00     0.186 HD
BRANCH  16  18
HETATM   18  C8  UNL     1      29.863  30.318  40.066  1.00  0.00     0.685 A 
HETATM   19  N7  UNL     1      31.149  30.026  39.861  1.00  0.00    -0.200 N 
HETATM   20  C9  UNL     1      31.931  30.667  40.742  1.00  0.00     0.124 A 
ATOM     21  H7  UNL     1      31.491  29.399  39.132  1.00  0.00     0.183 HD
HETATM   22  C10 UNL     1      31.057  31.389  41.524  1.00  0.00     0.126 A 
HETATM   23  N8  UNL     1      29.799  31.167  41.100  1.00  0.00    -0.188 N 
BRANCH  23  24
HETATM   24  C11 UNL     1      28.625  31.774  41.708  1.00  0.00     0.207 C 
BRANCH  24  25
HETATM   25  C12 UNL     1      29.027  32.512  42.967  1.00  0.00     0.335 C 
BRANCH  25  26
HETATM   26  N9  UNL     1      28.339  33.773  43.080  1.00  0.00    -0.051 N 
ATOM     27  H93 UNL     1      28.305  34.260  42.185  1.00  0.00     0.277 HD
ATOM     28  H92 UNL     1      27.338  33.641  43.225  1.00  0.00     0.277 HD
ATOM     29  H91 UNL     1      28.749  34.357  43.809  1.00  0.00     0.277 HD
ENDBRANCH  25  26
BRANCH  25  30
HETATM   30  O2  UNL     1      28.731  31.711  44.057  1.00  0.00    -0.369 OA
ATOM     31  H2  UNL     1      29.535  31.304  44.356  1.00  0.00     0.212 HD
ENDBRANCH  25  30
ENDBRANCH  24  25
ENDBRANCH  23  24
ENDBRANCH  16  18
ENDBRANCH  15  16
BRANCH  12  32
HETATM   32  N4  UNL     1      28.314  26.044  36.829  1.00  0.00    -0.234 N 
ATOM     33  H42 UNL     1      29.051  25.414  36.510  1.00  0.00     0.174 HD
ATOM     34  H41 UNL     1      27.406  25.655  37.086  1.00  0.00     0.174 HD
ENDBRANCH  12  32
TORSDOF 7
ENDMDL
MODEL 3
REMARK VINA RESULT: -5.080090333      3.316      5.594
REMARK  7 active torsions:
REMARK  status: ('A' for Active; 'I' for Inactive)
REMARK       I    between atoms: C2_2  and  N1_4 
REMARK    1  A    between atoms: C6_12  and  N4_13 
REMARK    2  A    between atoms: C7_18  and  N6_19 
REMARK    3  A    between atoms: N6_19  and  C8_21 
REMARK    4  A    between atoms: N8_26  and  C11_27 
REMARK    5  A    between atoms: C11_27  and  C12_28 
REMARK    6  A    between atoms: C12_28  and  N9_29 
REMARK    7  A    between atoms: C12_28  and  O2_33 
ROOT
HETATM    1  C1  UNL     1      28.517  25.252  35.058  1.00  0.00     0.118 C 
HETATM    2  C2  UNL     1      28.596  26.727  35.169  1.00  0.00     0.226 C 
HETATM    3  O1  UNL     1      28.433  27.426  34.143  1.00  0.00    -0.273 OA
HETATM    4  N1  UNL     1      28.853  27.325  36.405  1.00  0.00    -0.262 N 
HETATM    5  C3  UNL     1      29.061  26.655  37.656  1.00  0.00     0.193 A 
HETATM    6  N2  UNL     1      29.273  27.520  38.598  1.00  0.00    -0.346 N 
ATOM      7  H2  UNL     1      29.448  27.305  39.580  1.00  0.00     0.167 HD
HETATM    8  C4  UNL     1      29.217  28.818  38.026  1.00  0.00     0.124 A 
HETATM    9  C5  UNL     1      28.957  28.719  36.666  1.00  0.00     0.161 A 
HETATM   10  N3  UNL     1      28.869  29.855  35.957  1.00  0.00    -0.174 N 
ATOM     11  H3  UNL     1      28.678  29.801  34.956  1.00  0.00     0.186 HD
HETATM   12  C6  UNL     1      29.025  31.073  36.530  1.00  0.00     0.679 A 
HETATM   13  N5  UNL     1      29.278  31.147  37.860  1.00  0.00    -0.174 N 
ATOM     14  H5  UNL     1      29.396  32.063  38.292  1.00  0.00     0.186 HD
HETATM   15  C7  UNL     1      29.378  30.045  38.624  1.00  0.00     0.167 A 
ENDROOT
BRANCH  15  16
HETATM   16  N6  UNL     1      29.613  30.142  39.858  1.00  0.00    -0.173 N 
ATOM     17  H6  UNL     1      29.007  29.582  40.458  1.00  0.00     0.186 HD
BRANCH  16  18
HETATM   18  C8  UNL     1      30.573  30.896  40.530  1.00  0.00     0.685 A 
HETATM   19  N7  UNL     1      31.891  30.687  40.517  1.00  0.00    -0.200 N 
HETATM   20  C9  UNL     1      32.526  31.595  41.272  1.00  0.00     0.124 A 
ATOM     21  H7  UNL     1      32.353  29.938  40.001  1.00  0.00     0.183 HD
HETATM   22  C10 UNL     1      31.523  32.399  41.769  1.00  0.00     0.126 A 
HETATM   23  N8  UNL     1      30.338  31.960  41.307  1.00  0.00    -0.188 N 
BRANCH  23  24
HETATM   24  C11 UNL     1      29.064  32.582  41.640  1.00  0.00     0.207 C 
BRANCH  24  25
HETATM   25  C12 UNL     1      29.081  33.037  43.083  1.00  0.00     0.335 C 
BRANCH  25  26
HETATM   26  N9  UNL     1      28.179  34.140  43.297  1.00  0.00    -0.051 N 
ATOM     27  H93 UNL     1      28.528  34.773  44.015  1.00  0.00     0.277 HD
ATOM     28  H92 UNL     1      28.181  34.783  42.505  1.00  0.00     0.277 HD
ATOM     29  H91 UNL     1      27.236  33.814  43.510  1.00  0.00     0.277 HD
ENDBRANCH  25  26
BRANCH  25  30
HETATM   30  O2  UNL     1      28.718  31.967  43.883  1.00  0.00    -0.369 OA
ATOM     31  H2  UNL     1      28.036  32.254  44.478  1.00  0.00     0.212 HD
ENDBRANCH  25  30
ENDBRANCH  24  25
ENDBRANCH  23  24
ENDBRANCH  16  18
ENDBRANCH  15  16
BRANCH  12  32
HETATM   32  N4  UNL     1      28.932  32.135  35.808  1.00  0.00    -0.234 N 
ATOM     33  H42 UNL     1      29.146  32.117  34.810  1.00  0.00     0.174 HD
ATOM     34  H41 UNL     1      28.640  33.013  36.236  1.00  0.00     0.174 HD
ENDBRANCH  12  32
TORSDOF 7
ENDMDL
MODEL 4
REMARK VINA RESULT: -5.018264937      2.062      6.195
REMARK  7 active torsions:
REMARK  status: ('A' for Active; 'I' for Inactive)
REMARK       I    between atoms: C2_2  and  N1_4 
REMARK    1  A    between atoms: C6_12  and  N4_13 
REMARK    2  A    between atoms: C7_18  and  N6_19 
REMARK    3  A    between atoms: N6_19  and  C8_21 
REMARK    4  A    between atoms: N8_26  and  C11_27 
REMARK    5  A    between atoms: C11_27  and  C12_28 
REMARK    6  A    between atoms: C12_28  and  N9_29 
REMARK    7  A    between atoms: C12_28  and  O2_33 
ROOT
HETATM    1  C1  UNL     1      35.394  35.502  46.611  1.00  0.00     0.118 C 
HETATM    2  C2  UNL     1      34.261  36.072  45.846  1.00  0.00     0.226 C 
HETATM    3  O1  UNL     1      33.700  37.109  46.266  1.00  0.00    -0.273 OA
HETATM    4  N1  UNL     1      33.827  35.454  44.670  1.00  0.00    -0.262 N 
HETATM    5  C3  UNL     1      34.371  34.269  44.073  1.00  0.00     0.193 A 
HETATM    6  N2  UNL     1      33.725  33.978  42.987  1.00  0.00    -0.346 N 
ATOM      7  H2  UNL     1      33.912  33.184  42.374  1.00  0.00     0.167 HD
HETATM    8  C4  UNL     1      32.713  34.955  42.800  1.00  0.00     0.124 A 
HETATM    9  C5  UNL     1      32.760  35.881  43.833  1.00  0.00     0.161 A 
HETATM   10  N3  UNL     1      31.870  36.886  43.820  1.00  0.00    -0.174 N 
ATOM     11  H3  UNL     1      31.891  37.574  44.572  1.00  0.00     0.186 HD
HETATM   12  C6  UNL     1      30.945  37.012  42.838  1.00  0.00     0.679 A 
HETATM   13  N5  UNL     1      30.917  36.097  41.838  1.00  0.00    -0.174 N 
ATOM     14  H5  UNL     1      30.221  36.192  41.099  1.00  0.00     0.186 HD
HETATM   15  C7  UNL     1      31.782  35.069  41.795  1.00  0.00     0.167 A 
ENDROOT
BRANCH  15  16
HETATM   16  N6  UNL     1      31.734  34.233  40.853  1.00  0.00    -0.173 N 
ATOM     17  H6  UNL     1      31.855  34.627  39.920  1.00  0.00     0.186 HD
BRANCH  16  18
HETATM   18  C8  UNL     1      31.542  32.854  40.889  1.00  0.00     0.685 A 
HETATM   19  N7  UNL     1      32.462  31.922  40.628  1.00  0.00    -0.200 N 
HETATM   20  C9  UNL     1      31.944  30.691  40.753  1.00  0.00     0.124 A 
ATOM     21  H7  UNL     1      33.429  32.120  40.368  1.00  0.00     0.183 HD
HETATM   22  C10 UNL     1      30.630  30.900  41.112  1.00  0.00     0.126 A 
HETATM   23  N8  UNL     1      30.400  32.223  41.192  1.00  0.00    -0.188 N 
BRANCH  23  24
HETATM   24  C11 UNL     1      29.111  32.797  41.548  1.00  0.00     0.207 C 
BRANCH  24  25
HETATM   25  C12 UNL     1      29.087  33.119  43.027  1.00  0.00     0.335 C 
BRANCH  25  26
HETATM   26  N9  UNL     1      28.149  34.172  43.320  1.00  0.00    -0.051 N 
ATOM     27  H93 UNL     1      28.625  35.052  43.515  1.00  0.00     0.277 HD
ATOM     28  H92 UNL     1      27.631  34.454  42.487  1.00  0.00     0.277 HD
ATOM     29  H91 UNL     1      27.520  33.909  44.079  1.00  0.00     0.277 HD
ENDBRANCH  25  26
BRANCH  25  30
HETATM   30  O2  UNL     1      28.742  31.970  43.718  1.00  0.00    -0.369 OA
ATOM     31  H2  UNL     1      28.112  31.485  43.198  1.00  0.00     0.212 HD
ENDBRANCH  25  30
ENDBRANCH  24  25
ENDBRANCH  23  24
ENDBRANCH  16  18
ENDBRANCH  15  16
BRANCH  12  32
HETATM   32  N4  UNL     1      30.112  37.993  42.870  1.00  0.00    -0.234 N 
ATOM     33  H42 UNL     1      29.774  38.373  43.755  1.00  0.00     0.174 HD
ATOM     34  H41 UNL     1      29.779  38.402  41.996  1.00  0.00     0.174 HD
ENDBRANCH  12  32
TORSDOF 7
ENDMDL
MODEL 5
REMARK VINA RESULT: -5.005429245      3.544      5.888
REMARK  7 active torsions:
REMARK  status: ('A' for Active; 'I' for Inactive)
REMARK       I    between atoms: C2_2  and  N1_4 
REMARK    1  A    between atoms: C6_12  and  N4_13 
REMARK    2  A    between atoms: C7_18  and  N6_19 
REMARK    3  A    between atoms: N6_19  and  C8_21 
REMARK    4  A    between atoms: N8_26  and  C11_27 
REMARK    5  A    between atoms: C11_27  and  C12_28 
REMARK    6  A    between atoms: C12_28  and  N9_29 
REMARK    7  A    between atoms: C12_28  and  O2_33 
ROOT
HETATM    1  C1  UNL     1      29.013  25.094  36.125  1.00  0.00     0.118 C 
HETATM    2  C2  UNL     1      29.934  26.051  36.779  1.00  0.00     0.226 C 
HETATM    3  O1  UNL     1      31.166  25.945  36.584  1.00  0.00    -0.273 OA
HETATM    4  N1  UNL     1      29.428  27.059  37.603  1.00  0.00    -0.262 N 
HETATM    5  C3  UNL     1      28.050  27.301  37.916  1.00  0.00     0.193 A 
HETATM    6  N2  UNL     1      27.942  28.319  38.711  1.00  0.00    -0.346 N 
ATOM      7  H2  UNL     1      27.071  28.699  39.084  1.00  0.00     0.167 HD
HETATM    8  C4  UNL     1      29.247  28.814  38.973  1.00  0.00     0.124 A 
HETATM    9  C5  UNL     1      30.183  28.046  38.294  1.00  0.00     0.161 A 
HETATM   10  N3  UNL     1      31.479  28.372  38.425  1.00  0.00    -0.174 N 
ATOM     11  H3  UNL     1      32.180  27.818  37.933  1.00  0.00     0.186 HD
HETATM   12  C6  UNL     1      31.883  29.413  39.191  1.00  0.00     0.679 A 
HETATM   13  N5  UNL     1      30.952  30.150  39.846  1.00  0.00    -0.174 N 
ATOM     14  H5  UNL     1      31.255  30.935  40.423  1.00  0.00     0.186 HD
HETATM   15  C7  UNL     1      29.639  29.875  39.754  1.00  0.00     0.167 A 
ENDROOT
BRANCH  15  16
HETATM   16  N6  UNL     1      28.794  30.576  40.373  1.00  0.00    -0.173 N 
ATOM     17  H6  UNL     1      28.353  30.117  41.169  1.00  0.00     0.186 HD
BRANCH  16  18
HETATM   18  C8  UNL     1      28.371  31.882  40.138  1.00  0.00     0.685 A 
HETATM   19  N7  UNL     1      27.430  32.262  39.270  1.00  0.00    -0.200 N 
HETATM   20  C9  UNL     1      27.269  33.594  39.293  1.00  0.00     0.124 A 
ATOM     21  H7  UNL     1      26.905  31.625  38.671  1.00  0.00     0.183 HD
HETATM   22  C10 UNL     1      28.171  34.038  40.235  1.00  0.00     0.126 A 
HETATM   23  N8  UNL     1      28.835  32.983  40.741  1.00  0.00    -0.188 N 
BRANCH  23  24
HETATM   24  C11 UNL     1      29.867  33.096  41.762  1.00  0.00     0.207 C 
BRANCH  24  25
HETATM   25  C12 UNL     1      29.256  32.877  43.130  1.00  0.00     0.335 C 
BRANCH  25  26
HETATM   26  N9  UNL     1      28.087  33.696  43.320  1.00  0.00    -0.051 N 
ATOM     27  H93 UNL     1      27.411  33.564  42.567  1.00  0.00     0.277 HD
ATOM     28  H92 UNL     1      27.519  33.365  44.100  1.00  0.00     0.277 HD
ATOM     29  H91 UNL     1      28.335  34.680  43.430  1.00  0.00     0.277 HD
ENDBRANCH  25  26
BRANCH  25  30
HETATM   30  O2  UNL     1      28.922  31.539  43.251  1.00  0.00    -0.369 OA
ATOM     31  H2  UNL     1      29.711  31.022  43.138  1.00  0.00     0.212 HD
ENDBRANCH  25  30
ENDBRANCH  24  25
ENDBRANCH  23  24
ENDBRANCH  16  18
ENDBRANCH  15  16
BRANCH  12  32
HETATM   32  N4  UNL     1      33.138  29.686  39.286  1.00  0.00    -0.234 N 
ATOM     33  H42 UNL     1      33.848  29.039  38.942  1.00  0.00     0.174 HD
ATOM     34  H41 UNL     1      33.433  30.564  39.713  1.00  0.00     0.174 HD
ENDBRANCH  12  32
TORSDOF 7
ENDMDL
