MODEL 1
REMARK VINA RESULT: -5.645918075      0.000      0.000
REMARK  9 active torsions:
REMARK  status: ('A' for Active; 'I' for Inactive)
REMARK    1  A    between atoms: C2_2  and  C3_4 
REMARK    2  A    between atoms: N2_7  and  C4_8 
REMARK    3  A    between atoms: C4_8  and  C5_9 
REMARK       I    between atoms: C5_9  and  N3_11 
REMARK    4  A    between atoms: N3_11  and  C6_13 
REMARK    5  A    between atoms: C9_16  and  N4_17 
REMARK    6  A    between atoms: C11_22  and  N5_23 
REMARK    7  A    between atoms: C12_27  and  N6_28 
REMARK    8  A    between atoms: N6_28  and  N7_30 
REMARK    9  A    between atoms: N8_33  and  N9_34 
ROOT
HETATM    1  C4  UNL     1      28.309  31.275  41.930  1.00  0.00     0.270 C 
ENDROOT
BRANCH   1   2
HETATM    2  N2  UNL     1      28.135  31.828  40.601  1.00  0.00    -0.110 N 
HETATM    3  N1  UNL     1      27.290  32.776  40.230  1.00  0.00    -0.263 N 
HETATM    4  C3  UNL     1      27.418  33.025  38.914  1.00  0.00     0.205 A 
ATOM      5  H1  UNL     1      26.636  33.249  40.853  1.00  0.00     0.189 HD
HETATM    6  N8  UNL     1      28.381  32.203  38.430  1.00  0.00    -0.068 N 
HETATM    7  C12 UNL     1      28.800  31.484  39.485  1.00  0.00     0.736 A 
BRANCH   4   8
HETATM    8  C2  UNL     1      26.672  33.995  38.125  1.00  0.00     0.193 C 
HETATM    9  C1  UNL     1      25.245  34.234  38.468  1.00  0.00     0.100 C 
HETATM   10  O1  UNL     1      27.239  34.609  37.176  1.00  0.00    -0.289 OA
ENDBRANCH   4   8
BRANCH   6  11
HETATM   11  N9  UNL     1      28.858  32.098  37.129  1.00  0.00    -0.322 N 
ATOM     12  H92 UNL     1      29.315  32.839  36.596  1.00  0.00     0.178 HD
ATOM     13  H91 UNL     1      28.835  31.291  36.506  1.00  0.00     0.178 HD
ENDBRANCH   6  11
BRANCH   7  14
HETATM   14  N6  UNL     1      29.717  30.569  39.481  1.00  0.00    -0.135 N 
ATOM     15  H6  UNL     1      30.680  30.837  39.686  1.00  0.00     0.205 HD
BRANCH  14  16
HETATM   16  N7  UNL     1      29.436  29.229  39.208  1.00  0.00    -0.331 N 
ATOM     17  H72 UNL     1      28.977  28.681  39.935  1.00  0.00     0.177 HD
ATOM     18  H71 UNL     1      29.673  28.792  38.317  1.00  0.00     0.177 HD
ENDBRANCH  14  16
ENDBRANCH   7  14
ENDBRANCH   1   2
BRANCH   1  19
HETATM   19  C5  UNL     1      29.000  32.235  42.831  1.00  0.00     0.238 C 
HETATM   20  O2  UNL     1      28.932  32.067  44.072  1.00  0.00    -0.272 OA
HETATM   21  N3  UNL     1      29.722  33.318  42.268  1.00  0.00    -0.353 N 
ATOM     22  H3  UNL     1      29.757  33.425  41.255  1.00  0.00     0.163 HD
BRANCH  21  23
HETATM   23  C6  UNL     1      30.410  34.276  43.114  1.00  0.00     0.115 C 
HETATM   24  C7  UNL     1      29.879  35.662  42.826  1.00  0.00     0.029 C 
HETATM   25  C8  UNL     1      30.886  36.702  43.251  1.00  0.00     0.035 C 
HETATM   26  C9  UNL     1      32.070  36.630  42.312  1.00  0.00     0.185 C 
HETATM   27  C10 UNL     1      32.252  35.221  41.769  1.00  0.00     0.067 C 
HETATM   28  C11 UNL     1      31.882  34.184  42.808  1.00  0.00     0.208 C 
BRANCH  26  29
HETATM   29  N4  UNL     1      31.799  37.493  41.165  1.00  0.00    -0.075 N 
ATOM     30  H43 UNL     1      31.585  38.453  41.437  1.00  0.00     0.274 HD
ATOM     31  H42 UNL     1      32.634  37.688  40.614  1.00  0.00     0.274 HD
ATOM     32  H41 UNL     1      31.054  37.066  40.614  1.00  0.00     0.274 HD
ENDBRANCH  26  29
BRANCH  28  33
HETATM   33  N5  UNL     1      32.603  34.390  44.054  1.00  0.00    -0.073 N 
ATOM     34  H53 UNL     1      32.880  35.362  44.196  1.00  0.00     0.274 HD
ATOM     35  H52 UNL     1      32.008  34.299  44.877  1.00  0.00     0.274 HD
ATOM     36  H51 UNL     1      33.395  33.747  44.062  1.00  0.00     0.274 HD
ENDBRANCH  28  33
ENDBRANCH  21  23
ENDBRANCH   1  19
TORSDOF 9
ENDMDL
MODEL 2
REMARK VINA RESULT: -5.543996769      5.774      7.992
REMARK  9 active torsions:
REMARK  status: ('A' for Active; 'I' for Inactive)
REMARK    1  A    between atoms: C2_2  and  C3_4 
REMARK    2  A    between atoms: N2_7  and  C4_8 
REMARK    3  A    between atoms: C4_8  and  C5_9 
REMARK       I    between atoms: C5_9  and  N3_11 
REMARK    4  A    between atoms: N3_11  and  C6_13 
REMARK    5  A    between atoms: C9_16  and  N4_17 
REMARK    6  A    between atoms: C11_22  and  N5_23 
REMARK    7  A    between atoms: C12_27  and  N6_28 
REMARK    8  A    between atoms: N6_28  and  N7_30 
REMARK    9  A    between atoms: N8_33  and  N9_34 
ROOT
HETATM    1  C4  UNL     1      28.604  27.579  36.196  1.00  0.00     0.270 C 
ENDROOT
BRANCH   1   2
HETATM    2  N2  UNL     1      28.996  26.185  36.109  1.00  0.00    -0.110 N 
HETATM    3  N1  UNL     1      29.572  25.452  37.047  1.00  0.00    -0.263 N 
HETATM    4  C3  UNL     1      29.783  24.201  36.598  1.00  0.00     0.205 A 
ATOM      5  H1  UNL     1      29.820  25.788  37.978  1.00  0.00     0.189 HD
HETATM    6  N8  UNL     1      29.325  24.138  35.324  1.00  0.00    -0.068 N 
HETATM    7  C12 UNL     1      28.849  25.365  35.054  1.00  0.00     0.736 A 
BRANCH   4   8
HETATM    8  C2  UNL     1      30.392  23.096  37.325  1.00  0.00     0.193 C 
HETATM    9  C1  UNL     1      31.635  23.360  38.096  1.00  0.00     0.100 C 
HETATM   10  O1  UNL     1      29.863  21.948  37.289  1.00  0.00    -0.289 OA
ENDBRANCH   4   8
BRANCH   6  11
HETATM   11  N9  UNL     1      29.329  23.054  34.455  1.00  0.00    -0.322 N 
ATOM     12  H92 UNL     1      29.856  22.986  33.583  1.00  0.00     0.178 HD
ATOM     13  H91 UNL     1      28.825  22.171  34.536  1.00  0.00     0.178 HD
ENDBRANCH   6  11
BRANCH   7  14
HETATM   14  N6  UNL     1      28.313  25.758  33.942  1.00  0.00    -0.135 N 
ATOM     15  H6  UNL     1      28.889  26.271  33.273  1.00  0.00     0.205 HD
BRANCH  14  16
HETATM   16  N7  UNL     1      26.977  25.506  33.626  1.00  0.00    -0.331 N 
ATOM     17  H72 UNL     1      26.366  25.176  34.373  1.00  0.00     0.177 HD
ATOM     18  H71 UNL     1      26.603  25.638  32.686  1.00  0.00     0.177 HD
ENDBRANCH  14  16
ENDBRANCH   7  14
ENDBRANCH   1   2
BRANCH   1  19
HETATM   19  C5  UNL     1      28.574  28.045  37.607  1.00  0.00     0.238 C 
HETATM   20  O2  UNL     1      28.036  27.323  38.479  1.00  0.00    -0.272 OA
HETATM   21  N3  UNL     1      29.154  29.296  37.937  1.00  0.00    -0.353 N 
ATOM     22  H3  UNL     1      29.583  29.860  37.203  1.00  0.00     0.163 HD
BRANCH  21  23
HETATM   23  C6  UNL     1      29.144  29.787  39.303  1.00  0.00     0.115 C 
HETATM   24  C7  UNL     1      27.718  30.073  39.717  1.00  0.00     0.029 C 
HETATM   25  C8  UNL     1      27.698  31.051  40.865  1.00  0.00     0.035 C 
HETATM   26  C9  UNL     1      28.139  32.402  40.348  1.00  0.00     0.185 C 
HETATM   27  C10 UNL     1      29.097  32.252  39.176  1.00  0.00     0.067 C 
HETATM   28  C11 UNL     1      29.983  31.038  39.348  1.00  0.00     0.208 C 
BRANCH  26  29
HETATM   29  N4  UNL     1      26.963  33.107  39.845  1.00  0.00    -0.075 N 
ATOM     30  H43 UNL     1      27.049  33.365  38.862  1.00  0.00     0.274 HD
ATOM     31  H42 UNL     1      26.148  32.498  39.757  1.00  0.00     0.274 HD
ATOM     32  H41 UNL     1      26.789  33.911  40.449  1.00  0.00     0.274 HD
ENDBRANCH  26  29
BRANCH  28  33
HETATM   33  N5  UNL     1      30.677  31.055  40.624  1.00  0.00    -0.073 N 
ATOM     34  H53 UNL     1      31.447  30.387  40.667  1.00  0.00     0.274 HD
ATOM     35  H52 UNL     1      31.228  31.902  40.765  1.00  0.00     0.274 HD
ATOM     36  H51 UNL     1      29.982  30.907  41.356  1.00  0.00     0.274 HD
ENDBRANCH  28  33
ENDBRANCH  21  23
ENDBRANCH   1  19
TORSDOF 9
ENDMDL
MODEL 3
REMARK VINA RESULT: -5.262412603      5.151      6.964
REMARK  9 active torsions:
REMARK  status: ('A' for Active; 'I' for Inactive)
REMARK    1  A    between atoms: C2_2  and  C3_4 
REMARK    2  A    between atoms: N2_7  and  C4_8 
REMARK    3  A    between atoms: C4_8  and  C5_9 
REMARK       I    between atoms: C5_9  and  N3_11 
REMARK    4  A    between atoms: N3_11  and  C6_13 
REMARK    5  A    between atoms: C9_16  and  N4_17 
REMARK    6  A    between atoms: C11_22  and  N5_23 
REMARK    7  A    between atoms: C12_27  and  N6_28 
REMARK    8  A    between atoms: N6_28  and  N7_30 
REMARK    9  A    between atoms: N8_33  and  N9_34 
ROOT
HETATM    1  C4  UNL     1      29.984  26.803  38.801  1.00  0.00     0.270 C 
ENDROOT
BRANCH   1   2
HETATM    2  N2  UNL     1      29.687  26.078  37.580  1.00  0.00    -0.110 N 
HETATM    3  N1  UNL     1      29.279  26.580  36.426  1.00  0.00    -0.263 N 
HETATM    4  C3  UNL     1      29.108  25.595  35.525  1.00  0.00     0.205 A 
ATOM      5  H1  UNL     1      29.118  27.571  36.247  1.00  0.00     0.189 HD
HETATM    6  N8  UNL     1      29.418  24.423  36.130  1.00  0.00    -0.068 N 
HETATM    7  C12 UNL     1      29.768  24.751  37.386  1.00  0.00     0.736 A 
BRANCH   4   8
HETATM    8  C2  UNL     1      28.670  25.734  34.143  1.00  0.00     0.193 C 
HETATM    9  C1  UNL     1      28.265  27.082  33.664  1.00  0.00     0.100 C 
HETATM   10  O1  UNL     1      28.641  24.723  33.384  1.00  0.00    -0.289 OA
ENDBRANCH   4   8
BRANCH   6  11
HETATM   11  N9  UNL     1      29.391  23.140  35.598  1.00  0.00    -0.322 N 
ATOM     12  H92 UNL     1      29.164  22.895  34.634  1.00  0.00     0.178 HD
ATOM     13  H91 UNL     1      29.586  22.254  36.064  1.00  0.00     0.178 HD
ENDBRANCH   6  11
BRANCH   7  14
HETATM   14  N6  UNL     1      30.140  23.935  38.321  1.00  0.00    -0.135 N 
ATOM     15  H6  UNL     1      29.438  23.573  38.966  1.00  0.00     0.205 HD
BRANCH  14  16
HETATM   16  N7  UNL     1      31.468  23.535  38.479  1.00  0.00    -0.331 N 
ATOM     17  H72 UNL     1      32.067  23.537  37.653  1.00  0.00     0.177 HD
ATOM     18  H71 UNL     1      31.849  23.246  39.380  1.00  0.00     0.177 HD
ENDBRANCH  14  16
ENDBRANCH   7  14
ENDBRANCH   1   2
BRANCH   1  19
HETATM   19  C5  UNL     1      29.027  27.921  39.013  1.00  0.00     0.238 C 
HETATM   20  O2  UNL     1      27.805  27.728  38.804  1.00  0.00    -0.272 OA
HETATM   21  N3  UNL     1      29.514  29.179  39.446  1.00  0.00    -0.353 N 
ATOM     22  H3  UNL     1      30.514  29.303  39.607  1.00  0.00     0.163 HD
BRANCH  21  23
HETATM   23  C6  UNL     1      28.612  30.295  39.664  1.00  0.00     0.115 C 
HETATM   24  C7  UNL     1      28.641  31.200  38.453  1.00  0.00     0.029 C 
HETATM   25  C8  UNL     1      28.172  32.584  38.828  1.00  0.00     0.035 C 
HETATM   26  C9  UNL     1      29.225  33.222  39.708  1.00  0.00     0.185 C 
HETATM   27  C10 UNL     1      29.983  32.169  40.503  1.00  0.00     0.067 C 
HETATM   28  C11 UNL     1      29.074  31.025  40.898  1.00  0.00     0.208 C 
BRANCH  26  29
HETATM   29  N4  UNL     1      30.201  33.884  38.846  1.00  0.00    -0.075 N 
ATOM     30  H43 UNL     1      31.158  33.776  39.182  1.00  0.00     0.274 HD
ATOM     31  H42 UNL     1      30.316  33.413  37.949  1.00  0.00     0.274 HD
ATOM     32  H41 UNL     1      29.928  34.861  38.746  1.00  0.00     0.274 HD
ENDBRANCH  26  29
BRANCH  28  33
HETATM   33  N5  UNL     1      27.891  31.496  41.599  1.00  0.00    -0.073 N 
ATOM     34  H53 UNL     1      27.704  32.487  41.442  1.00  0.00     0.274 HD
ATOM     35  H52 UNL     1      27.024  31.133  41.203  1.00  0.00     0.274 HD
ATOM     36  H51 UNL     1      28.004  31.265  42.586  1.00  0.00     0.274 HD
ENDBRANCH  28  33
ENDBRANCH  21  23
ENDBRANCH   1  19
TORSDOF 9
ENDMDL
MODEL 4
REMARK VINA RESULT: -5.141586487      5.080      6.756
REMARK  9 active torsions:
REMARK  status: ('A' for Active; 'I' for Inactive)
REMARK    1  A    between atoms: C2_2  and  C3_4 
REMARK    2  A    between atoms: N2_7  and  C4_8 
REMARK    3  A    between atoms: C4_8  and  C5_9 
REMARK       I    between atoms: C5_9  and  N3_11 
REMARK    4  A    between atoms: N3_11  and  C6_13 
REMARK    5  A    between atoms: C9_16  and  N4_17 
REMARK    6  A    between atoms: C11_22  and  N5_23 
REMARK    7  A    between atoms: C12_27  and  N6_28 
REMARK    8  A    between atoms: N6_28  and  N7_30 
REMARK    9  A    between atoms: N8_33  and  N9_34 
ROOT
HETATM    1  C4  UNL     1      29.320  27.058  37.445  1.00  0.00     0.270 C 
ENDROOT
BRANCH   1   2
HETATM    2  N2  UNL     1      28.891  26.920  36.067  1.00  0.00    -0.110 N 
HETATM    3  N1  UNL     1      28.943  27.836  35.114  1.00  0.00    -0.263 N 
HETATM    4  C3  UNL     1      28.455  27.339  33.962  1.00  0.00     0.205 A 
ATOM      5  H1  UNL     1      29.301  28.783  35.235  1.00  0.00     0.189 HD
HETATM    6  N8  UNL     1      28.078  26.058  34.193  1.00  0.00    -0.068 N 
HETATM    7  C12 UNL     1      28.357  25.831  35.488  1.00  0.00     0.736 A 
BRANCH   4   8
HETATM    8  C2  UNL     1      28.339  28.028  32.685  1.00  0.00     0.193 C 
HETATM    9  C1  UNL     1      29.052  29.322  32.516  1.00  0.00     0.100 C 
HETATM   10  O1  UNL     1      27.646  27.524  31.755  1.00  0.00    -0.289 OA
ENDBRANCH   4   8
BRANCH   6  11
HETATM   11  N9  UNL     1      27.518  25.146  33.307  1.00  0.00    -0.322 N 
ATOM     12  H92 UNL     1      26.637  24.648  33.435  1.00  0.00     0.178 HD
ATOM     13  H91 UNL     1      27.880  24.829  32.407  1.00  0.00     0.178 HD
ENDBRANCH   6  11
BRANCH   7  14
HETATM   14  N6  UNL     1      28.157  24.729  36.140  1.00  0.00    -0.135 N 
ATOM     15  H6  UNL     1      27.317  24.642  36.713  1.00  0.00     0.205 HD
BRANCH  14  16
HETATM   16  N7  UNL     1      29.049  23.657  36.087  1.00  0.00    -0.331 N 
ATOM     17  H72 UNL     1      29.745  23.654  35.341  1.00  0.00     0.177 HD
ATOM     18  H71 UNL     1      29.023  22.890  36.759  1.00  0.00     0.177 HD
ENDBRANCH  14  16
ENDBRANCH   7  14
ENDBRANCH   1   2
BRANCH   1  19
HETATM   19  C5  UNL     1      28.521  28.089  38.160  1.00  0.00     0.238 C 
HETATM   20  O2  UNL     1      27.434  27.760  38.691  1.00  0.00    -0.272 OA
HETATM   21  N3  UNL     1      29.005  29.420  38.225  1.00  0.00    -0.353 N 
ATOM     22  H3  UNL     1      29.893  29.653  37.782  1.00  0.00     0.163 HD
BRANCH  21  23
HETATM   23  C6  UNL     1      28.254  30.454  38.913  1.00  0.00     0.115 C 
HETATM   24  C7  UNL     1      28.489  31.779  38.222  1.00  0.00     0.029 C 
HETATM   25  C8  UNL     1      28.195  32.916  39.169  1.00  0.00     0.035 C 
HETATM   26  C9  UNL     1      29.266  32.938  40.237  1.00  0.00     0.185 C 
HETATM   27  C10 UNL     1      29.815  31.541  40.488  1.00  0.00     0.067 C 
HETATM   28  C11 UNL     1      28.731  30.495  40.342  1.00  0.00     0.208 C 
BRANCH  26  29
HETATM   29  N4  UNL     1      30.380  33.748  39.752  1.00  0.00    -0.075 N 
ATOM     30  H43 UNL     1      31.158  33.782  40.411  1.00  0.00     0.274 HD
ATOM     31  H42 UNL     1      30.875  33.311  38.976  1.00  0.00     0.274 HD
ATOM     32  H41 UNL     1      30.023  34.675  39.519  1.00  0.00     0.274 HD
ENDBRANCH  26  29
BRANCH  28  33
HETATM   33  N5  UNL     1      27.581  30.791  41.180  1.00  0.00    -0.073 N 
ATOM     34  H53 UNL     1      27.396  30.063  41.871  1.00  0.00     0.274 HD
ATOM     35  H52 UNL     1      27.753  31.555  41.833  1.00  0.00     0.274 HD
ATOM     36  H51 UNL     1      26.787  30.965  40.564  1.00  0.00     0.274 HD
ENDBRANCH  28  33
ENDBRANCH  21  23
ENDBRANCH   1  19
TORSDOF 9
ENDMDL
MODEL 5
REMARK VINA RESULT: -5.078835625      2.802      7.164
REMARK  9 active torsions:
REMARK  status: ('A' for Active; 'I' for Inactive)
REMARK    1  A    between atoms: C2_2  and  C3_4 
REMARK    2  A    between atoms: N2_7  and  C4_8 
REMARK    3  A    between atoms: C4_8  and  C5_9 
REMARK       I    between atoms: C5_9  and  N3_11 
REMARK    4  A    between atoms: N3_11  and  C6_13 
REMARK    5  A    between atoms: C9_16  and  N4_17 
REMARK    6  A    between atoms: C11_22  and  N5_23 
REMARK    7  A    between atoms: C12_27  and  N6_28 
REMARK    8  A    between atoms: N6_28  and  N7_30 
REMARK    9  A    between atoms: N8_33  and  N9_34 
ROOT
HETATM    1  C4  UNL     1      30.263  32.567  42.663  1.00  0.00     0.270 C 
ENDROOT
BRANCH   1   2
HETATM    2  N2  UNL     1      30.724  33.895  43.021  1.00  0.00    -0.110 N 
HETATM    3  N1  UNL     1      31.933  34.242  43.430  1.00  0.00    -0.263 N 
HETATM    4  C3  UNL     1      31.982  35.566  43.668  1.00  0.00     0.205 A 
ATOM      5  H1  UNL     1      32.715  33.598  43.548  1.00  0.00     0.189 HD
HETATM    6  N8  UNL     1      30.757  36.079  43.400  1.00  0.00    -0.068 N 
HETATM    7  C12 UNL     1      30.009  35.033  43.007  1.00  0.00     0.736 A 
BRANCH   4   8
HETATM    8  C2  UNL     1      33.129  36.335  44.130  1.00  0.00     0.193 C 
HETATM    9  C1  UNL     1      33.985  35.752  45.196  1.00  0.00     0.100 C 
HETATM   10  O1  UNL     1      33.375  37.468  43.625  1.00  0.00    -0.289 OA
ENDBRANCH   4   8
BRANCH   6  11
HETATM   11  N9  UNL     1      30.328  37.397  43.500  1.00  0.00    -0.322 N 
ATOM     12  H92 UNL     1      30.530  38.145  42.836  1.00  0.00     0.178 HD
ATOM     13  H91 UNL     1      29.759  37.827  44.228  1.00  0.00     0.178 HD
ENDBRANCH   6  11
BRANCH   7  14
HETATM   14  N6  UNL     1      28.764  35.064  42.653  1.00  0.00    -0.135 N 
ATOM     15  H6  UNL     1      28.526  35.397  41.718  1.00  0.00     0.205 HD
BRANCH  14  16
HETATM   16  N7  UNL     1      27.734  34.658  43.504  1.00  0.00    -0.331 N 
ATOM     17  H72 UNL     1      27.006  34.057  43.117  1.00  0.00     0.177 HD
ATOM     18  H71 UNL     1      27.691  34.940  44.483  1.00  0.00     0.177 HD
ENDBRANCH  14  16
ENDBRANCH   7  14
ENDBRANCH   1   2
BRANCH   1  19
HETATM   19  C5  UNL     1      30.564  32.254  41.241  1.00  0.00     0.238 C 
HETATM   20  O2  UNL     1      31.508  32.850  40.670  1.00  0.00    -0.272 OA
HETATM   21  N3  UNL     1      29.779  31.289  40.562  1.00  0.00    -0.353 N 
ATOM     22  H3  UNL     1      29.018  30.822  41.055  1.00  0.00     0.163 HD
BRANCH  21  23
HETATM   23  C6  UNL     1      30.041  30.956  39.174  1.00  0.00     0.115 C 
HETATM   24  C7  UNL     1      28.729  30.681  38.474  1.00  0.00     0.029 C 
HETATM   25  C8  UNL     1      28.965  29.839  37.244  1.00  0.00     0.035 C 
HETATM   26  C9  UNL     1      29.368  28.449  37.687  1.00  0.00     0.185 C 
HETATM   27  C10 UNL     1      30.088  28.492  39.027  1.00  0.00     0.067 C 
HETATM   28  C11 UNL     1      30.933  29.742  39.153  1.00  0.00     0.208 C 
BRANCH  26  29
HETATM   29  N4  UNL     1      28.155  27.661  37.885  1.00  0.00    -0.075 N 
ATOM     30  H43 UNL     1      27.865  27.624  38.863  1.00  0.00     0.274 HD
ATOM     31  H42 UNL     1      27.323  28.120  37.512  1.00  0.00     0.274 HD
ATOM     32  H41 UNL     1      28.306  26.735  37.485  1.00  0.00     0.274 HD
ENDBRANCH  26  29
BRANCH  28  33
HETATM   33  N5  UNL     1      31.848  29.887  38.033  1.00  0.00    -0.073 N 
ATOM     34  H53 UNL     1      31.787  30.803  37.588  1.00  0.00     0.274 HD
ATOM     35  H52 UNL     1      32.824  29.943  38.323  1.00  0.00     0.274 HD
ATOM     36  H51 UNL     1      31.668  29.119  37.387  1.00  0.00     0.274 HD
ENDBRANCH  28  33
ENDBRANCH  21  23
ENDBRANCH   1  19
TORSDOF 9
ENDMDL
