MODEL 1
REMARK VINA RESULT: -8.101766229      0.000      0.000
REMARK  8 active torsions:
REMARK  status: ('A' for Active; 'I' for Inactive)
REMARK    1  A    between atoms: C6_13  and  C7_14 
REMARK    2  A    between atoms: N6_17  and  C8_18 
REMARK    3  A    between atoms: C9_19  and  O3_20 
REMARK    4  A    between atoms: N7_23  and  C11_25 
REMARK    5  A    between atoms: C12_27  and  O5_28 
REMARK    6  A    between atoms: C13_30  and  C14_31 
REMARK    7  A    between atoms: C14_31  and  O6_32 
REMARK    8  A    between atoms: N8_34  and  O7_35 
ROOT
HETATM    1  C8  UNL     1      -1.618  24.574  19.167  1.00  0.00     0.227 C 
HETATM    2  C9  UNL     1      -0.514  24.084  20.125  1.00  0.00     0.206 C 
HETATM    3  C10 UNL     1      -1.163  23.444  21.335  1.00  0.00     0.051 C 
HETATM    4  N7  UNL     1      -0.455  23.316  22.412  1.00  0.00    -0.337 N 
ATOM      5  H7  UNL     1       0.509  23.650  22.409  1.00  0.00     0.168 HD
HETATM    6  C12 UNL     1      -2.559  23.000  21.220  1.00  0.00     0.188 C 
HETATM    7  C13 UNL     1      -3.402  24.118  20.671  1.00  0.00     0.146 C 
HETATM    8  N8  UNL     1      -2.535  25.142  20.076  1.00  0.00    -0.163 NA
ENDROOT
BRANCH   1   9
HETATM    9  N6  UNL     1      -1.078  25.176  18.035  1.00  0.00    -0.300 N 
HETATM   10  C4  UNL     1      -0.598  26.451  17.868  1.00  0.00     0.151 A 
HETATM   11  C3  UNL     1      -0.485  27.575  18.651  1.00  0.00     0.280 A 
HETATM   12  C5  UNL     1      -0.158  26.518  16.540  1.00  0.00     0.146 A 
HETATM   13  N2  UNL     1       0.048  28.703  18.111  1.00  0.00    -0.273 N 
HETATM   14  O2  UNL     1      -0.861  27.583  19.824  1.00  0.00    -0.265 OA
HETATM   15  C2  UNL     1       0.463  28.746  16.843  1.00  0.00     0.330 A 
ATOM     16  H2  UNL     1       0.134  29.539  18.690  1.00  0.00     0.173 HD
HETATM   17  N1  UNL     1       0.366  27.672  16.055  1.00  0.00    -0.287 N 
HETATM   18  O1  UNL     1       0.959  29.813  16.359  1.00  0.00    -0.246 OA
HETATM   19  C1  UNL     1       0.799  27.660  14.672  1.00  0.00     0.163 C 
HETATM   20  N3  UNL     1      -0.383  25.343  15.978  1.00  0.00    -0.324 N 
HETATM   21  C6  UNL     1      -0.948  24.480  16.842  1.00  0.00     0.150 A 
ATOM     22  H3  UNL     1      -0.157  25.118  15.009  1.00  0.00     0.169 HD
BRANCH  21  23
HETATM   23  C7  UNL     1      -1.345  23.142  16.440  1.00  0.00     0.172 C 
HETATM   24  N4  UNL     1      -2.658  22.873  15.997  1.00  0.00    -0.082 NA
HETATM   25  N5  UNL     1      -0.715  22.058  17.191  1.00  0.00    -0.082 NA
ENDBRANCH  21  23
ENDBRANCH   1   9
BRANCH   2  26
HETATM   26  O3  UNL     1       0.260  25.131  20.612  1.00  0.00    -0.386 OA
ATOM     27  H3  UNL     1       1.101  25.188  20.174  1.00  0.00     0.210 HD
ENDBRANCH   2  26
BRANCH   8  28
HETATM   28  O7  UNL     1      -1.896  25.681  21.204  1.00  0.00    -0.310 OA
ATOM     29  H7  UNL     1      -2.401  25.551  21.998  1.00  0.00     0.237 HD
ENDBRANCH   8  28
BRANCH   7  30
HETATM   30  C14 UNL     1      -4.589  23.734  19.895  1.00  0.00     0.189 C 
BRANCH  30  31
HETATM   31  O6  UNL     1      -4.500  23.577  18.551  1.00  0.00    -0.399 OA
ATOM     32  H6  UNL     1      -5.200  23.888  17.989  1.00  0.00     0.209 HD
ENDBRANCH  30  31
ENDBRANCH   7  30
BRANCH   4  33
HETATM   33  C11 UNL     1      -0.974  22.729  23.597  1.00  0.00     0.353 C 
HETATM   34  O4  UNL     1      -0.261  21.978  24.314  1.00  0.00    -0.283 OA
ENDBRANCH   4  33
BRANCH   6  35
HETATM   35  O5  UNL     1      -2.659  21.842  20.451  1.00  0.00    -0.388 OA
ATOM     36  H5  UNL     1      -3.215  21.979  19.693  1.00  0.00     0.210 HD
ENDBRANCH   6  35
TORSDOF 8
ENDMDL
MODEL 2
REMARK VINA RESULT: -7.739205226      2.816      5.047
REMARK  8 active torsions:
REMARK  status: ('A' for Active; 'I' for Inactive)
REMARK    1  A    between atoms: C6_13  and  C7_14 
REMARK    2  A    between atoms: N6_17  and  C8_18 
REMARK    3  A    between atoms: C9_19  and  O3_20 
REMARK    4  A    between atoms: N7_23  and  C11_25 
REMARK    5  A    between atoms: C12_27  and  O5_28 
REMARK    6  A    between atoms: C13_30  and  C14_31 
REMARK    7  A    between atoms: C14_31  and  O6_32 
REMARK    8  A    between atoms: N8_34  and  O7_35 
ROOT
HETATM    1  C8  UNL     1      -0.278  25.797  16.984  1.00  0.00     0.227 C 
HETATM    2  C9  UNL     1      -1.794  25.794  16.705  1.00  0.00     0.206 C 
HETATM    3  C10 UNL     1      -2.338  24.405  16.966  1.00  0.00     0.051 C 
HETATM    4  N7  UNL     1      -3.477  24.086  16.440  1.00  0.00    -0.337 N 
ATOM      5  H7  UNL     1      -3.967  24.776  15.870  1.00  0.00     0.168 HD
HETATM    6  C12 UNL     1      -1.545  23.495  17.805  1.00  0.00     0.188 C 
HETATM    7  C13 UNL     1      -0.129  23.445  17.299  1.00  0.00     0.146 C 
HETATM    8  N8  UNL     1       0.110  24.576  16.394  1.00  0.00    -0.163 NA
ENDROOT
BRANCH   1   9
HETATM    9  N6  UNL     1       0.279  27.052  16.757  1.00  0.00    -0.300 N 
HETATM   10  C4  UNL     1       1.132  27.461  15.763  1.00  0.00     0.151 A 
HETATM   11  C3  UNL     1       1.765  26.869  14.697  1.00  0.00     0.280 A 
HETATM   12  C5  UNL     1       1.358  28.824  15.997  1.00  0.00     0.146 A 
HETATM   13  N2  UNL     1       2.581  27.623  13.913  1.00  0.00    -0.273 N 
HETATM   14  O2  UNL     1       1.614  25.673  14.442  1.00  0.00    -0.265 OA
HETATM   15  C2  UNL     1       2.783  28.920  14.153  1.00  0.00     0.330 A 
ATOM     16  H2  UNL     1       3.052  27.185  13.120  1.00  0.00     0.173 HD
HETATM   17  N1  UNL     1       2.183  29.527  15.181  1.00  0.00    -0.287 N 
HETATM   18  O1  UNL     1       3.550  29.606  13.406  1.00  0.00    -0.246 OA
HETATM   19  C1  UNL     1       2.365  30.931  15.490  1.00  0.00     0.163 C 
HETATM   20  N3  UNL     1       0.674  29.169  17.075  1.00  0.00    -0.324 N 
HETATM   21  C6  UNL     1      -0.005  28.126  17.587  1.00  0.00     0.150 A 
ATOM     22  H3  UNL     1       0.662  30.110  17.470  1.00  0.00     0.169 HD
BRANCH  21  23
HETATM   23  C7  UNL     1      -0.784  28.243  18.806  1.00  0.00     0.172 C 
HETATM   24  N4  UNL     1      -1.185  29.505  19.298  1.00  0.00    -0.082 NA
HETATM   25  N5  UNL     1      -0.476  27.252  19.835  1.00  0.00    -0.082 NA
ENDBRANCH  21  23
ENDBRANCH   1   9
BRANCH   2  26
HETATM   26  O3  UNL     1      -2.082  26.076  15.375  1.00  0.00    -0.386 OA
ATOM     27  H3  UNL     1      -3.015  26.158  15.221  1.00  0.00     0.210 HD
ENDBRANCH   2  26
BRANCH   8  28
HETATM   28  O7  UNL     1      -0.689  24.245  15.289  1.00  0.00    -0.310 OA
ATOM     29  H7  UNL     1      -0.984  25.016  14.817  1.00  0.00     0.237 HD
ENDBRANCH   8  28
BRANCH   7  30
HETATM   30  C14 UNL     1       0.919  23.165  18.289  1.00  0.00     0.189 C 
BRANCH  30  31
HETATM   31  O6  UNL     1       1.040  23.948  19.390  1.00  0.00    -0.399 OA
ATOM     32  H6  UNL     1       1.461  23.609  20.171  1.00  0.00     0.209 HD
ENDBRANCH  30  31
ENDBRANCH   7  30
BRANCH   4  33
HETATM   33  C11 UNL     1      -4.070  22.808  16.628  1.00  0.00     0.353 C 
HETATM   34  O4  UNL     1      -5.212  22.694  17.145  1.00  0.00    -0.283 OA
ENDBRANCH   4  33
BRANCH   6  35
HETATM   35  O5  UNL     1      -1.609  23.862  19.148  1.00  0.00    -0.388 OA
ATOM     36  H5  UNL     1      -0.745  23.869  19.544  1.00  0.00     0.210 HD
ENDBRANCH   6  35
TORSDOF 8
ENDMDL
MODEL 3
REMARK VINA RESULT: -7.332464517      2.293      6.118
REMARK  8 active torsions:
REMARK  status: ('A' for Active; 'I' for Inactive)
REMARK    1  A    between atoms: C6_13  and  C7_14 
REMARK    2  A    between atoms: N6_17  and  C8_18 
REMARK    3  A    between atoms: C9_19  and  O3_20 
REMARK    4  A    between atoms: N7_23  and  C11_25 
REMARK    5  A    between atoms: C12_27  and  O5_28 
REMARK    6  A    between atoms: C13_30  and  C14_31 
REMARK    7  A    between atoms: C14_31  and  O6_32 
REMARK    8  A    between atoms: N8_34  and  O7_35 
ROOT
HETATM    1  C8  UNL     1      -0.645  25.659  17.174  1.00  0.00     0.227 C 
HETATM    2  C9  UNL     1       0.860  25.914  16.955  1.00  0.00     0.206 C 
HETATM    3  C10 UNL     1       1.036  26.781  15.726  1.00  0.00     0.051 C 
HETATM    4  N7  UNL     1       2.196  26.797  15.150  1.00  0.00    -0.337 N 
ATOM      5  H7  UNL     1       2.947  26.228  15.541  1.00  0.00     0.168 HD
HETATM    6  C12 UNL     1      -0.117  27.560  15.254  1.00  0.00     0.188 C 
HETATM    7  C13 UNL     1      -1.316  26.660  15.126  1.00  0.00     0.146 C 
HETATM    8  N8  UNL     1      -1.074  25.409  15.854  1.00  0.00    -0.163 NA
ENDROOT
BRANCH   1   9
HETATM    9  N6  UNL     1      -0.868  24.862  18.293  1.00  0.00    -0.300 N 
HETATM   10  C4  UNL     1      -0.829  25.195  19.624  1.00  0.00     0.151 A 
HETATM   11  C3  UNL     1      -0.551  26.326  20.353  1.00  0.00     0.280 A 
HETATM   12  C5  UNL     1      -1.150  24.020  20.316  1.00  0.00     0.146 A 
HETATM   13  N2  UNL     1      -0.599  26.265  21.710  1.00  0.00    -0.273 N 
HETATM   14  O2  UNL     1      -0.254  27.389  19.803  1.00  0.00    -0.265 OA
HETATM   15  C2  UNL     1      -0.908  25.135  22.350  1.00  0.00     0.330 A 
ATOM     16  H2  UNL     1      -0.393  27.103  22.253  1.00  0.00     0.173 HD
HETATM   17  N1  UNL     1      -1.183  24.017  21.673  1.00  0.00    -0.287 N 
HETATM   18  O1  UNL     1      -0.947  25.100  23.621  1.00  0.00    -0.246 OA
HETATM   19  C1  UNL     1      -1.524  22.763  22.314  1.00  0.00     0.163 C 
HETATM   20  N3  UNL     1      -1.353  23.066  19.424  1.00  0.00    -0.324 N 
HETATM   21  C6  UNL     1      -1.193  23.520  18.167  1.00  0.00     0.150 A 
ATOM     22  H3  UNL     1      -1.602  22.105  19.658  1.00  0.00     0.169 HD
BRANCH  21  23
HETATM   23  C7  UNL     1      -1.305  22.643  17.015  1.00  0.00     0.172 C 
HETATM   24  N4  UNL     1      -2.414  22.722  16.144  1.00  0.00    -0.082 NA
HETATM   25  N5  UNL     1      -0.768  21.297  17.206  1.00  0.00    -0.082 NA
ENDBRANCH  21  23
ENDBRANCH   1   9
BRANCH   2  26
HETATM   26  O3  UNL     1       1.559  24.740  16.701  1.00  0.00    -0.386 OA
ATOM     27  H3  UNL     1       2.494  24.888  16.630  1.00  0.00     0.210 HD
ENDBRANCH   2  26
BRANCH   8  28
HETATM   28  O7  UNL     1      -0.073  24.805  15.078  1.00  0.00    -0.310 OA
ATOM     29  H7  UNL     1      -0.408  24.080  14.563  1.00  0.00     0.237 HD
ENDBRANCH   8  28
BRANCH   7  30
HETATM   30  C14 UNL     1      -2.634  27.282  15.311  1.00  0.00     0.189 C 
BRANCH  30  31
HETATM   31  O6  UNL     1      -3.466  27.440  14.252  1.00  0.00    -0.399 OA
ATOM     32  H6  UNL     1      -4.218  28.017  14.319  1.00  0.00     0.209 HD
ENDBRANCH  30  31
ENDBRANCH   7  30
BRANCH   4  33
HETATM   33  C11 UNL     1       2.460  27.579  13.993  1.00  0.00     0.353 C 
HETATM   34  O4  UNL     1       2.922  28.746  14.092  1.00  0.00    -0.283 OA
ENDBRANCH   4  33
BRANCH   6  35
HETATM   35  O5  UNL     1      -0.367  28.649  16.088  1.00  0.00    -0.388 OA
ATOM     36  H5  UNL     1       0.302  29.317  15.991  1.00  0.00     0.210 HD
ENDBRANCH   6  35
TORSDOF 8
ENDMDL
MODEL 4
REMARK VINA RESULT: -7.322904773      1.824      2.123
REMARK  8 active torsions:
REMARK  status: ('A' for Active; 'I' for Inactive)
REMARK    1  A    between atoms: C6_13  and  C7_14 
REMARK    2  A    between atoms: N6_17  and  C8_18 
REMARK    3  A    between atoms: C9_19  and  O3_20 
REMARK    4  A    between atoms: N7_23  and  C11_25 
REMARK    5  A    between atoms: C12_27  and  O5_28 
REMARK    6  A    between atoms: C13_30  and  C14_31 
REMARK    7  A    between atoms: C14_31  and  O6_32 
REMARK    8  A    between atoms: N8_34  and  O7_35 
ROOT
HETATM    1  C8  UNL     1      -1.138  25.044  18.073  1.00  0.00     0.227 C 
HETATM    2  C9  UNL     1      -0.089  24.277  18.902  1.00  0.00     0.206 C 
HETATM    3  C10 UNL     1      -0.743  23.054  19.509  1.00  0.00     0.051 C 
HETATM    4  N7  UNL     1      -0.167  22.495  20.526  1.00  0.00    -0.337 N 
ATOM      5  H7  UNL     1       0.701  22.895  20.882  1.00  0.00     0.168 HD
HETATM    6  C12 UNL     1      -1.993  22.566  18.911  1.00  0.00     0.188 C 
HETATM    7  C13 UNL     1      -2.968  23.703  18.779  1.00  0.00     0.146 C 
HETATM    8  N8  UNL     1      -2.259  24.980  18.926  1.00  0.00    -0.163 NA
ENDROOT
BRANCH   1   9
HETATM    9  N6  UNL     1      -0.592  26.184  17.491  1.00  0.00    -0.300 N 
HETATM   10  C4  UNL     1      -0.385  27.428  18.034  1.00  0.00     0.151 A 
HETATM   11  C3  UNL     1      -0.632  28.033  19.243  1.00  0.00     0.280 A 
HETATM   12  C5  UNL     1       0.210  28.189  17.019  1.00  0.00     0.146 A 
HETATM   13  N2  UNL     1      -0.290  29.338  19.409  1.00  0.00    -0.273 N 
HETATM   14  O2  UNL     1      -1.160  27.420  20.173  1.00  0.00    -0.265 OA
HETATM   15  C2  UNL     1       0.277  30.045  18.429  1.00  0.00     0.330 A 
ATOM     16  H2  UNL     1      -0.471  29.789  20.306  1.00  0.00     0.173 HD
HETATM   17  N1  UNL     1       0.530  29.489  17.241  1.00  0.00    -0.287 N 
HETATM   18  O1  UNL     1       0.589  31.266  18.607  1.00  0.00    -0.246 OA
HETATM   19  C1  UNL     1       1.142  30.207  16.142  1.00  0.00     0.163 C 
HETATM   20  N3  UNL     1       0.329  27.418  15.951  1.00  0.00    -0.324 N 
HETATM   21  C6  UNL     1      -0.147  26.180  16.177  1.00  0.00     0.150 A 
ATOM     22  H3  UNL     1       0.731  27.724  15.065  1.00  0.00     0.169 HD
BRANCH  21  23
HETATM   23  C7  UNL     1      -0.180  25.169  15.135  1.00  0.00     0.172 C 
HETATM   24  N4  UNL     1      -0.976  24.010  15.269  1.00  0.00    -0.082 NA
HETATM   25  N5  UNL     1       1.081  24.971  14.424  1.00  0.00    -0.082 NA
ENDBRANCH  21  23
ENDBRANCH   1   9
BRANCH   2  26
HETATM   26  O3  UNL     1       0.387  25.030  19.970  1.00  0.00    -0.386 OA
ATOM     27  H3  UNL     1       1.319  24.909  20.106  1.00  0.00     0.210 HD
ENDBRANCH   2  26
BRANCH   8  28
HETATM   28  O7  UNL     1      -1.893  24.962  20.280  1.00  0.00    -0.310 OA
ATOM     29  H7  UNL     1      -1.887  24.081  20.638  1.00  0.00     0.237 HD
ENDBRANCH   8  28
BRANCH   7  30
HETATM   30  C14 UNL     1      -3.943  23.616  17.684  1.00  0.00     0.189 C 
BRANCH  30  31
HETATM   31  O6  UNL     1      -3.518  23.591  16.397  1.00  0.00    -0.399 OA
ATOM     32  H6  UNL     1      -3.680  24.334  15.827  1.00  0.00     0.209 HD
ENDBRANCH  30  31
ENDBRANCH   7  30
BRANCH   4  33
HETATM   33  C11 UNL     1      -0.703  21.344  21.164  1.00  0.00     0.353 C 
HETATM   34  O4  UNL     1      -0.245  20.942  22.266  1.00  0.00    -0.283 OA
ENDBRANCH   4  33
BRANCH   6  35
HETATM   35  O5  UNL     1      -1.756  21.935  17.691  1.00  0.00    -0.388 OA
ATOM     36  H5  UNL     1      -2.017  21.022  17.719  1.00  0.00     0.210 HD
ENDBRANCH   6  35
TORSDOF 8
ENDMDL
MODEL 5
REMARK VINA RESULT: -7.077084146      2.436      6.841
REMARK  8 active torsions:
REMARK  status: ('A' for Active; 'I' for Inactive)
REMARK    1  A    between atoms: C6_13  and  C7_14 
REMARK    2  A    between atoms: N6_17  and  C8_18 
REMARK    3  A    between atoms: C9_19  and  O3_20 
REMARK    4  A    between atoms: N7_23  and  C11_25 
REMARK    5  A    between atoms: C12_27  and  O5_28 
REMARK    6  A    between atoms: C13_30  and  C14_31 
REMARK    7  A    between atoms: C14_31  and  O6_32 
REMARK    8  A    between atoms: N8_34  and  O7_35 
ROOT
HETATM    1  C8  UNL     1      -1.102  23.801  18.577  1.00  0.00     0.227 C 
HETATM    2  C9  UNL     1       0.109  24.667  18.179  1.00  0.00     0.206 C 
HETATM    3  C10 UNL     1       0.081  24.890  16.681  1.00  0.00     0.051 C 
HETATM    4  N7  UNL     1       1.179  25.251  16.096  1.00  0.00    -0.337 N 
ATOM      5  H7  UNL     1       2.020  25.372  16.660  1.00  0.00     0.168 HD
HETATM    6  C12 UNL     1      -1.190  24.688  15.973  1.00  0.00     0.188 C 
HETATM    7  C13 UNL     1      -1.766  23.348  16.340  1.00  0.00     0.146 C 
HETATM    8  N8  UNL     1      -1.100  22.839  17.545  1.00  0.00    -0.163 NA
ENDROOT
BRANCH   1   9
HETATM    9  N6  UNL     1      -1.126  23.560  19.948  1.00  0.00    -0.300 N 
HETATM   10  C4  UNL     1      -1.503  22.429  20.629  1.00  0.00     0.151 A 
HETATM   11  C3  UNL     1      -2.000  21.192  20.294  1.00  0.00     0.280 A 
HETATM   12  C5  UNL     1      -1.312  22.724  21.985  1.00  0.00     0.146 A 
HETATM   13  N2  UNL     1      -2.284  20.306  21.285  1.00  0.00    -0.273 N 
HETATM   14  O2  UNL     1      -2.199  20.875  19.120  1.00  0.00    -0.265 OA
HETATM   15  C2  UNL     1      -2.093  20.606  22.571  1.00  0.00     0.330 A 
ATOM     16  H2  UNL     1      -2.652  19.387  21.039  1.00  0.00     0.173 HD
HETATM   17  N1  UNL     1      -1.612  21.800  22.931  1.00  0.00    -0.287 N 
HETATM   18  O1  UNL     1      -2.365  19.760  23.482  1.00  0.00    -0.246 OA
HETATM   19  C1  UNL     1      -1.385  22.181  24.311  1.00  0.00     0.163 C 
HETATM   20  N3  UNL     1      -0.855  23.962  22.071  1.00  0.00    -0.324 N 
HETATM   21  C6  UNL     1      -0.723  24.527  20.856  1.00  0.00     0.150 A 
ATOM     22  H3  UNL     1      -0.631  24.432  22.948  1.00  0.00     0.169 HD
BRANCH  21  23
HETATM   23  C7  UNL     1      -0.294  25.904  20.694  1.00  0.00     0.172 C 
HETATM   24  N4  UNL     1       0.523  26.533  21.660  1.00  0.00    -0.082 NA
HETATM   25  N5  UNL     1      -1.264  26.783  20.044  1.00  0.00    -0.082 NA
ENDBRANCH  21  23
ENDBRANCH   1   9
BRANCH   2  26
HETATM   26  O3  UNL     1       1.317  24.035  18.451  1.00  0.00    -0.386 OA
ATOM     27  H3  UNL     1       1.762  24.419  19.197  1.00  0.00     0.210 HD
ENDBRANCH   2  26
BRANCH   8  28
HETATM   28  O7  UNL     1       0.195  22.569  17.077  1.00  0.00    -0.310 OA
ATOM     29  H7  UNL     1       0.845  22.630  17.766  1.00  0.00     0.237 HD
ENDBRANCH   8  28
BRANCH   7  30
HETATM   30  C14 UNL     1      -3.229  23.221  16.297  1.00  0.00     0.189 C 
BRANCH  30  31
HETATM   31  O6  UNL     1      -3.991  23.825  17.242  1.00  0.00    -0.399 OA
ATOM     32  H6  UNL     1      -3.582  24.221  18.002  1.00  0.00     0.209 HD
ENDBRANCH  30  31
ENDBRANCH   7  30
BRANCH   4  33
HETATM   33  C11 UNL     1       1.253  25.485  14.697  1.00  0.00     0.353 C 
HETATM   34  O4  UNL     1       2.128  26.251  14.214  1.00  0.00    -0.283 OA
ENDBRANCH   4  33
BRANCH   6  35
HETATM   35  O5  UNL     1      -2.081  25.729  16.228  1.00  0.00    -0.388 OA
ATOM     36  H5  UNL     1      -2.979  25.461  16.067  1.00  0.00     0.210 HD
ENDBRANCH   6  35
TORSDOF 8
ENDMDL
