MODEL 1
REMARK VINA RESULT: -7.519110501      0.000      0.000
REMARK  2 active torsions:
REMARK  status: ('A' for Active; 'I' for Inactive)
REMARK    1  A    between atoms: C1_2  and  C2_3 
REMARK       I    between atoms: C1_2  and  N2_10 
REMARK    2  A    between atoms: C10_16  and  C11_17 
ROOT
HETATM    1  O1  UNL     1      13.120 -11.079  22.501  1.00  0.00    -0.271 OA
HETATM    2  C1  UNL     1      13.101 -12.063  21.681  1.00  0.00     0.251 C 
HETATM    3  N2  UNL     1      12.921 -13.384  22.106  1.00  0.00    -0.342 N 
HETATM    4  C6  UNL     1      12.863 -14.566  21.277  1.00  0.00     0.129 C 
HETATM    5  C7  UNL     1      13.903 -15.419  22.025  1.00  0.00     0.065 C 
HETATM    6  C8  UNL     1      13.334 -15.302  23.433  1.00  0.00     0.126 C 
HETATM    7  F1  UNL     1      12.348 -16.267  23.528  1.00  0.00    -0.241 F 
HETATM    8  C9  UNL     1      14.393 -15.510  24.484  1.00  0.00     0.051 C 
HETATM    9  C10 UNL     1      13.734 -15.118  25.811  1.00  0.00     0.003 C 
HETATM   10  C12 UNL     1      13.612 -13.629  25.806  1.00  0.00     0.008 C 
HETATM   11  C13 UNL     1      13.368 -13.008  24.478  1.00  0.00     0.029 C 
HETATM   12  C14 UNL     1      12.755 -13.906  23.459  1.00  0.00     0.127 C 
ENDROOT
BRANCH   2  13
HETATM   13  C2  UNL     1      13.279 -11.717  20.245  1.00  0.00     0.277 C 
HETATM   14  C3  UNL     1      14.141 -10.502  20.080  1.00  0.00     0.044 C 
HETATM   15  C4  UNL     1      13.303  -9.539  19.239  1.00  0.00     0.030 C 
HETATM   16  C5  UNL     1      12.333 -10.495  18.549  1.00  0.00     0.233 C 
HETATM   17  N1  UNL     1      11.999 -11.374  19.637  1.00  0.00    -0.062 N 
ATOM     18  H12 UNL     1      11.442 -12.183  19.361  1.00  0.00     0.278 HD
ATOM     19  H11 UNL     1      11.321 -10.985  20.291  1.00  0.00     0.278 HD
ENDBRANCH   2  13
BRANCH   9  20
HETATM   20  C11 UNL     1      14.530 -15.616  26.982  1.00  0.00     0.119 C 
HETATM   21 CL1  UNL     1      15.094 -14.240  27.966  1.00  0.00    -0.130 Cl
ENDBRANCH   9  20
TORSDOF 2
ENDMDL
MODEL 2
REMARK VINA RESULT: -7.427637196      1.389      1.673
REMARK  2 active torsions:
REMARK  status: ('A' for Active; 'I' for Inactive)
REMARK    1  A    between atoms: C1_2  and  C2_3 
REMARK       I    between atoms: C1_2  and  N2_10 
REMARK    2  A    between atoms: C10_16  and  C11_17 
ROOT
HETATM    1  O1  UNL     1      13.443 -10.514  22.277  1.00  0.00    -0.271 OA
HETATM    2  C1  UNL     1      13.652 -11.152  21.186  1.00  0.00     0.251 C 
HETATM    3  N2  UNL     1      13.521 -12.543  21.099  1.00  0.00    -0.342 N 
HETATM    4  C6  UNL     1      13.711 -13.365  19.925  1.00  0.00     0.129 C 
HETATM    5  C7  UNL     1      14.680 -14.397  20.525  1.00  0.00     0.065 C 
HETATM    6  C8  UNL     1      13.872 -14.792  21.754  1.00  0.00     0.126 C 
HETATM    7  F1  UNL     1      12.974 -15.754  21.330  1.00  0.00    -0.241 F 
HETATM    8  C9  UNL     1      14.751 -15.325  22.855  1.00  0.00     0.051 C 
HETATM    9  C10 UNL     1      13.844 -15.436  24.086  1.00  0.00     0.003 C 
HETATM   10  C12 UNL     1      13.592 -14.041  24.559  1.00  0.00     0.008 C 
HETATM   11  C13 UNL     1      13.523 -13.004  23.497  1.00  0.00     0.029 C 
HETATM   12  C14 UNL     1      13.174 -13.507  22.139  1.00  0.00     0.127 C 
ENDROOT
BRANCH   2  13
HETATM   13  C2  UNL     1      14.040 -10.325  20.012  1.00  0.00     0.277 C 
HETATM   14  C3  UNL     1      14.576  -8.991  20.438  1.00  0.00     0.044 C 
HETATM   15  C4  UNL     1      13.721  -7.968  19.692  1.00  0.00     0.030 C 
HETATM   16  C5  UNL     1      13.199  -8.797  18.520  1.00  0.00     0.233 C 
HETATM   17  N1  UNL     1      12.876 -10.031  19.184  1.00  0.00    -0.062 N 
ATOM     18  H12 UNL     1      12.617 -10.788  18.550  1.00  0.00     0.278 HD
ATOM     19  H11 UNL     1      11.997 -10.006  19.699  1.00  0.00     0.278 HD
ENDBRANCH   2  13
BRANCH   9  20
HETATM   20  C11 UNL     1      14.470 -16.289  25.150  1.00  0.00     0.119 C 
HETATM   21 CL1  UNL     1      14.362 -15.472  26.731  1.00  0.00    -0.130 Cl
ENDBRANCH   9  20
TORSDOF 2
ENDMDL
MODEL 3
REMARK VINA RESULT: -7.425919052      1.323      1.458
REMARK  2 active torsions:
REMARK  status: ('A' for Active; 'I' for Inactive)
REMARK    1  A    between atoms: C1_2  and  C2_3 
REMARK       I    between atoms: C1_2  and  N2_10 
REMARK    2  A    between atoms: C10_16  and  C11_17 
ROOT
HETATM    1  O1  UNL     1      12.037 -10.258  21.505  1.00  0.00    -0.271 OA
HETATM    2  C1  UNL     1      12.423 -11.232  20.767  1.00  0.00     0.251 C 
HETATM    3  N2  UNL     1      12.583 -12.528  21.268  1.00  0.00    -0.342 N 
HETATM    4  C6  UNL     1      12.992 -13.703  20.532  1.00  0.00     0.129 C 
HETATM    5  C7  UNL     1      14.122 -14.173  21.464  1.00  0.00     0.065 C 
HETATM    6  C8  UNL     1      13.356 -14.182  22.779  1.00  0.00     0.126 C 
HETATM    7  F1  UNL     1      12.693 -15.395  22.829  1.00  0.00    -0.241 F 
HETATM    8  C9  UNL     1      14.272 -14.020  23.963  1.00  0.00     0.051 C 
HETATM    9  C10 UNL     1      13.350 -13.796  25.167  1.00  0.00     0.003 C 
HETATM   10  C12 UNL     1      12.797 -12.415  25.032  1.00  0.00     0.008 C 
HETATM   11  C13 UNL     1      12.567 -11.947  23.640  1.00  0.00     0.029 C 
HETATM   12  C14 UNL     1      12.393 -13.026  22.627  1.00  0.00     0.127 C 
ENDROOT
BRANCH   2  13
HETATM   13  C2  UNL     1      12.689 -10.903  19.341  1.00  0.00     0.277 C 
HETATM   14  C3  UNL     1      13.915 -10.052  19.197  1.00  0.00     0.044 C 
HETATM   15  C4  UNL     1      13.450  -8.822  18.419  1.00  0.00     0.030 C 
HETATM   16  C5  UNL     1      12.199  -9.351  17.722  1.00  0.00     0.233 C 
HETATM   17  N1  UNL     1      11.598 -10.111  18.785  1.00  0.00    -0.062 N 
ATOM     18  H12 UNL     1      10.791 -10.664  18.494  1.00  0.00     0.278 HD
ATOM     19  H11 UNL     1      11.106  -9.543  19.473  1.00  0.00     0.278 HD
ENDBRANCH   2  13
BRANCH   9  20
HETATM   20  C11 UNL     1      14.086 -13.986  26.461  1.00  0.00     0.119 C 
HETATM   21 CL1  UNL     1      14.330 -12.412  27.262  1.00  0.00    -0.130 Cl
ENDBRANCH   9  20
TORSDOF 2
ENDMDL
MODEL 4
REMARK VINA RESULT: -7.419241079      3.334      4.034
REMARK  2 active torsions:
REMARK  status: ('A' for Active; 'I' for Inactive)
REMARK    1  A    between atoms: C1_2  and  C2_3 
REMARK       I    between atoms: C1_2  and  N2_10 
REMARK    2  A    between atoms: C10_16  and  C11_17 
ROOT
HETATM    1  O1  UNL     1      13.849 -10.665  25.906  1.00  0.00    -0.271 OA
HETATM    2  C1  UNL     1      13.888 -10.325  24.671  1.00  0.00     0.251 C 
HETATM    3  N2  UNL     1      13.496 -11.194  23.647  1.00  0.00    -0.342 N 
HETATM    4  C6  UNL     1      13.479 -10.917  22.228  1.00  0.00     0.129 C 
HETATM    5  C7  UNL     1      14.263 -12.149  21.746  1.00  0.00     0.065 C 
HETATM    6  C8  UNL     1      13.450 -13.233  22.441  1.00  0.00     0.126 C 
HETATM    7  F1  UNL     1      12.370 -13.491  21.617  1.00  0.00    -0.241 F 
HETATM    8  C9  UNL     1      14.261 -14.481  22.672  1.00  0.00     0.051 C 
HETATM    9  C10 UNL     1      13.403 -15.363  23.586  1.00  0.00     0.003 C 
HETATM   10  C12 UNL     1      13.437 -14.735  24.941  1.00  0.00     0.008 C 
HETATM   11  C13 UNL     1      13.517 -13.252  24.962  1.00  0.00     0.029 C 
HETATM   12  C14 UNL     1      13.022 -12.571  23.732  1.00  0.00     0.127 C 
ENDROOT
BRANCH   2  13
HETATM   13  C2  UNL     1      14.373  -8.947  24.390  1.00  0.00     0.277 C 
HETATM   14  C3  UNL     1      14.888  -8.286  25.633  1.00  0.00     0.044 C 
HETATM   15  C4  UNL     1      14.102  -6.980  25.737  1.00  0.00     0.030 C 
HETATM   16  C5  UNL     1      13.663  -6.767  24.290  1.00  0.00     0.233 C 
HETATM   17  N1  UNL     1      13.278  -8.103  23.925  1.00  0.00    -0.062 N 
ATOM     18  H12 UNL     1      13.061  -8.216  22.934  1.00  0.00     0.278 HD
ATOM     19  H11 UNL     1      12.363  -8.381  24.276  1.00  0.00     0.278 HD
ENDBRANCH   2  13
BRANCH   9  20
HETATM   20  C11 UNL     1      13.904 -16.777  23.606  1.00  0.00     0.119 C 
HETATM   21 CL1  UNL     1      15.058 -16.999  24.947  1.00  0.00    -0.130 Cl
ENDBRANCH   9  20
TORSDOF 2
ENDMDL
MODEL 5
REMARK VINA RESULT: -7.382146459      1.691      2.316
REMARK  2 active torsions:
REMARK  status: ('A' for Active; 'I' for Inactive)
REMARK    1  A    between atoms: C1_2  and  C2_3 
REMARK       I    between atoms: C1_2  and  N2_10 
REMARK    2  A    between atoms: C10_16  and  C11_17 
ROOT
HETATM    1  O1  UNL     1      12.721 -10.405  22.536  1.00  0.00    -0.271 OA
HETATM    2  C1  UNL     1      12.632 -10.836  21.333  1.00  0.00     0.251 C 
HETATM    3  N2  UNL     1      12.493 -12.197  21.038  1.00  0.00    -0.342 N 
HETATM    4  C6  UNL     1      12.365 -12.796  19.728  1.00  0.00     0.129 C 
HETATM    5  C7  UNL     1      13.468 -13.859  19.856  1.00  0.00     0.065 C 
HETATM    6  C8  UNL     1      13.027 -14.501  21.165  1.00  0.00     0.126 C 
HETATM    7  F1  UNL     1      12.055 -15.426  20.829  1.00  0.00    -0.241 F 
HETATM    8  C9  UNL     1      14.175 -15.163  21.880  1.00  0.00     0.051 C 
HETATM    9  C10 UNL     1      13.636 -15.531  23.267  1.00  0.00     0.003 C 
HETATM   10  C12 UNL     1      13.510 -14.253  24.030  1.00  0.00     0.008 C 
HETATM   11  C13 UNL     1      13.148 -13.056  23.227  1.00  0.00     0.029 C 
HETATM   12  C14 UNL     1      12.449 -13.340  21.943  1.00  0.00     0.127 C 
ENDROOT
BRANCH   2  13
HETATM   13  C2  UNL     1      12.681  -9.801  20.265  1.00  0.00     0.277 C 
HETATM   14  C3  UNL     1      14.034  -9.745  19.623  1.00  0.00     0.044 C 
HETATM   15  C4  UNL     1      14.470  -8.286  19.754  1.00  0.00     0.030 C 
HETATM   16  C5  UNL     1      13.129  -7.576  19.923  1.00  0.00     0.233 C 
HETATM   17  N1  UNL     1      12.460  -8.474  20.826  1.00  0.00    -0.062 N 
ATOM     18  H12 UNL     1      11.477  -8.248  20.982  1.00  0.00     0.278 HD
ATOM     19  H11 UNL     1      12.755  -8.380  21.797  1.00  0.00     0.278 HD
ENDBRANCH   2  13
BRANCH   9  20
HETATM   20  C11 UNL     1      14.533 -16.516  23.957  1.00  0.00     0.119 C 
HETATM   21 CL1  UNL     1      14.571 -16.185  25.709  1.00  0.00    -0.130 Cl
ENDBRANCH   9  20
TORSDOF 2
ENDMDL
