MODEL 1
REMARK VINA RESULT: -8.428568083      0.000      0.000
REMARK  2 active torsions:
REMARK  status: ('A' for Active; 'I' for Inactive)
REMARK       I    between atoms: N1_2  and  C2_4 
REMARK    1  A    between atoms: C2_4  and  C3_6 
REMARK    2  A    between atoms: N2_10  and  C7_11 
ROOT
HETATM    1  C3  UNL     1      13.666 -12.737  21.962  1.00  0.00     0.111 C 
HETATM    2  C4  UNL     1      14.696 -13.762  21.748  1.00  0.00     0.018 C 
HETATM    3  C5  UNL     1      14.574 -14.867  22.780  1.00  0.00     0.031 C 
HETATM    4  C6  UNL     1      13.297 -14.666  23.510  1.00  0.00     0.273 C 
HETATM    5  N2  UNL     1      13.230 -13.453  24.301  1.00  0.00     0.104 N 
HETATM    6  C13 UNL     1      13.368 -12.363  23.394  1.00  0.00     0.232 C 
HETATM    7  C14 UNL     1      12.088 -11.515  23.287  1.00  0.00     0.043 C 
ENDROOT
BRANCH   5   8
HETATM    8  C7  UNL     1      14.119 -13.506  25.411  1.00  0.00     0.295 C 
HETATM    9  C8  UNL     1      13.752 -14.707  26.303  1.00  0.00     0.042 C 
HETATM   10  C9  UNL     1      14.797 -14.800  27.428  1.00  0.00     0.002 C 
HETATM   11  C10 UNL     1      14.714 -13.625  28.345  1.00  0.00     0.006 C 
HETATM   12  C11 UNL     1      13.718 -12.677  27.772  1.00  0.00     0.081 C 
HETATM   13  C12 UNL     1      14.172 -12.355  26.335  1.00  0.00     0.274 C 
HETATM   14  F1  UNL     1      15.512 -11.963  26.517  1.00  0.00    -0.204 F 
HETATM   15  F2  UNL     1      13.498 -11.230  26.024  1.00  0.00    -0.204 F 
ENDBRANCH   5   8
BRANCH   1  16
HETATM   16  C2  UNL     1      14.131 -11.493  21.254  1.00  0.00     0.223 C 
HETATM   17  N1  UNL     1      13.538 -11.156  19.991  1.00  0.00    -0.365 N 
HETATM   18  C1  UNL     1      13.999  -9.957  19.330  1.00  0.00     0.149 C 
ATOM     19  H1  UNL     1      12.816 -11.744  19.575  1.00  0.00     0.161 HD
HETATM   20  O1  UNL     1      15.017 -10.777  21.770  1.00  0.00    -0.273 OA
ENDBRANCH   1  16
TORSDOF 2
ENDMDL
MODEL 2
REMARK VINA RESULT: -7.883704780      1.267      1.288
REMARK  2 active torsions:
REMARK  status: ('A' for Active; 'I' for Inactive)
REMARK       I    between atoms: N1_2  and  C2_4 
REMARK    1  A    between atoms: C2_4  and  C3_6 
REMARK    2  A    between atoms: N2_10  and  C7_11 
ROOT
HETATM    1  C3  UNL     1      13.356 -13.085  21.117  1.00  0.00     0.111 C 
HETATM    2  C4  UNL     1      14.510 -13.965  20.889  1.00  0.00     0.018 C 
HETATM    3  C5  UNL     1      14.511 -15.114  21.878  1.00  0.00     0.031 C 
HETATM    4  C6  UNL     1      13.207 -15.102  22.589  1.00  0.00     0.273 C 
HETATM    5  N2  UNL     1      12.976 -13.938  23.420  1.00  0.00     0.104 N 
HETATM    6  C13 UNL     1      12.990 -12.805  22.555  1.00  0.00     0.232 C 
HETATM    7  C14 UNL     1      11.616 -12.120  22.453  1.00  0.00     0.043 C 
ENDROOT
BRANCH   5   8
HETATM    8  C7  UNL     1      13.847 -13.921  24.546  1.00  0.00     0.295 C 
HETATM    9  C8  UNL     1      13.689 -15.235  25.333  1.00  0.00     0.042 C 
HETATM   10  C9  UNL     1      14.720 -15.232  26.475  1.00  0.00     0.002 C 
HETATM   11  C10 UNL     1      14.417 -14.167  27.477  1.00  0.00     0.006 C 
HETATM   12  C11 UNL     1      13.276 -13.367  26.952  1.00  0.00     0.081 C 
HETATM   13  C12 UNL     1      13.682 -12.856  25.556  1.00  0.00     0.274 C 
HETATM   14  F1  UNL     1      14.928 -12.249  25.803  1.00  0.00    -0.204 F 
HETATM   15  F2  UNL     1      12.822 -11.847  25.316  1.00  0.00    -0.204 F 
ENDBRANCH   5   8
BRANCH   1  16
HETATM   16  C2  UNL     1      13.673 -11.766  20.464  1.00  0.00     0.223 C 
HETATM   17  N1  UNL     1      14.518 -10.839  21.161  1.00  0.00    -0.365 N 
HETATM   18  C1  UNL     1      14.810  -9.580  20.516  1.00  0.00     0.149 C 
ATOM     19  H1  UNL     1      14.899 -11.060  22.081  1.00  0.00     0.161 HD
HETATM   20  O1  UNL     1      13.203 -11.500  19.337  1.00  0.00    -0.273 OA
ENDBRANCH   1  16
TORSDOF 2
ENDMDL
MODEL 3
REMARK VINA RESULT: -7.449256553      1.457      1.660
REMARK  2 active torsions:
REMARK  status: ('A' for Active; 'I' for Inactive)
REMARK       I    between atoms: N1_2  and  C2_4 
REMARK    1  A    between atoms: C2_4  and  C3_6 
REMARK    2  A    between atoms: N2_10  and  C7_11 
ROOT
HETATM    1  C3  UNL     1      13.410 -12.120  21.534  1.00  0.00     0.111 C 
HETATM    2  C4  UNL     1      14.565 -12.872  21.026  1.00  0.00     0.018 C 
HETATM    3  C5  UNL     1      14.559 -14.290  21.564  1.00  0.00     0.031 C 
HETATM    4  C6  UNL     1      13.250 -14.518  22.227  1.00  0.00     0.273 C 
HETATM    5  N2  UNL     1      13.013 -13.707  23.404  1.00  0.00     0.104 N 
HETATM    6  C13 UNL     1      13.034 -12.347  22.978  1.00  0.00     0.232 C 
HETATM    7  C14 UNL     1      11.661 -11.664  23.106  1.00  0.00     0.043 C 
ENDROOT
BRANCH   5   8
HETATM    8  C7  UNL     1      13.876 -14.079  24.474  1.00  0.00     0.295 C 
HETATM    9  C8  UNL     1      13.688 -15.575  24.785  1.00  0.00     0.042 C 
HETATM   10  C9  UNL     1      14.711 -15.967  25.866  1.00  0.00     0.002 C 
HETATM   11  C10 UNL     1      14.420 -15.285  27.162  1.00  0.00     0.006 C 
HETATM   12  C11 UNL     1      13.297 -14.335  26.927  1.00  0.00     0.081 C 
HETATM   13  C12 UNL     1      13.723 -13.401  25.778  1.00  0.00     0.274 C 
HETATM   14  F1  UNL     1      14.978 -12.933  26.211  1.00  0.00    -0.204 F 
HETATM   15  F2  UNL     1      12.883 -12.353  25.881  1.00  0.00    -0.204 F 
ENDBRANCH   5   8
BRANCH   1  16
HETATM   16  C2  UNL     1      13.732 -10.659  21.372  1.00  0.00     0.223 C 
HETATM   17  N1  UNL     1      14.576 -10.028  22.348  1.00  0.00    -0.365 N 
HETATM   18  C1  UNL     1      14.873  -8.625  22.173  1.00  0.00     0.149 C 
ATOM     19  H1  UNL     1      14.952 -10.552  23.137  1.00  0.00     0.161 HD
HETATM   20  O1  UNL     1      13.267 -10.022  20.403  1.00  0.00    -0.273 OA
ENDBRANCH   1  16
TORSDOF 2
ENDMDL
MODEL 4
REMARK VINA RESULT: -7.029021195      2.761      5.879
REMARK  2 active torsions:
REMARK  status: ('A' for Active; 'I' for Inactive)
REMARK       I    between atoms: N1_2  and  C2_4 
REMARK    1  A    between atoms: C2_4  and  C3_6 
REMARK    2  A    between atoms: N2_10  and  C7_11 
ROOT
HETATM    1  C3  UNL     1      13.784 -15.209  21.789  1.00  0.00     0.111 C 
HETATM    2  C4  UNL     1      12.333 -15.322  21.589  1.00  0.00     0.018 C 
HETATM    3  C5  UNL     1      11.884 -14.458  20.426  1.00  0.00     0.031 C 
HETATM    4  C6  UNL     1      13.100 -13.980  19.721  1.00  0.00     0.273 C 
HETATM    5  N2  UNL     1      13.946 -13.094  20.496  1.00  0.00     0.104 N 
HETATM    6  C13 UNL     1      14.386 -13.834  21.632  1.00  0.00     0.232 C 
HETATM    7  C14 UNL     1      15.901 -14.102  21.614  1.00  0.00     0.043 C 
ENDROOT
BRANCH   5   8
HETATM    8  C7  UNL     1      13.311 -11.841  20.728  1.00  0.00     0.295 C 
HETATM    9  C8  UNL     1      12.749 -11.299  19.401  1.00  0.00     0.042 C 
HETATM   10  C9  UNL     1      11.977 -10.004  19.706  1.00  0.00     0.002 C 
HETATM   11  C10 UNL     1      12.892  -8.925  20.182  1.00  0.00     0.006 C 
HETATM   12  C11 UNL     1      14.249  -9.520  20.331  1.00  0.00     0.081 C 
HETATM   13  C12 UNL     1      14.115 -10.729  21.277  1.00  0.00     0.274 C 
HETATM   14  F1  UNL     1      13.450 -10.177  22.388  1.00  0.00    -0.204 F 
HETATM   15  F2  UNL     1      15.376 -10.967  21.685  1.00  0.00    -0.204 F 
ENDBRANCH   5   8
BRANCH   1  16
HETATM   16  C2  UNL     1      14.071 -15.673  23.191  1.00  0.00     0.223 C 
HETATM   17  N1  UNL     1      13.639 -14.856  24.289  1.00  0.00    -0.365 N 
HETATM   18  C1  UNL     1      13.924 -15.321  25.627  1.00  0.00     0.149 C 
ATOM     19  H1  UNL     1      13.147 -13.977  24.130  1.00  0.00     0.161 HD
HETATM   20  O1  UNL     1      14.675 -16.752  23.380  1.00  0.00    -0.273 OA
ENDBRANCH   1  16
TORSDOF 2
ENDMDL
MODEL 5
REMARK VINA RESULT: -6.932494504      2.678      5.310
REMARK  2 active torsions:
REMARK  status: ('A' for Active; 'I' for Inactive)
REMARK       I    between atoms: N1_2  and  C2_4 
REMARK    1  A    between atoms: C2_4  and  C3_6 
REMARK    2  A    between atoms: N2_10  and  C7_11 
ROOT
HETATM    1  C3  UNL     1      13.404 -14.548  21.337  1.00  0.00     0.111 C 
HETATM    2  C4  UNL     1      11.985 -14.281  21.067  1.00  0.00     0.018 C 
HETATM    3  C5  UNL     1      11.830 -13.064  20.174  1.00  0.00     0.031 C 
HETATM    4  C6  UNL     1      13.178 -12.698  19.669  1.00  0.00     0.273 C 
HETATM    5  N2  UNL     1      14.111 -12.257  20.686  1.00  0.00     0.104 N 
HETATM    6  C13 UNL     1      14.285 -13.348  21.587  1.00  0.00     0.232 C 
HETATM    7  C14 UNL     1      15.709 -13.930  21.544  1.00  0.00     0.043 C 
ENDROOT
BRANCH   5   8
HETATM    8  C7  UNL     1      13.727 -11.001  21.236  1.00  0.00     0.295 C 
HETATM    9  C8  UNL     1      14.575  -9.884  20.600  1.00  0.00     0.042 C 
HETATM   10  C9  UNL     1      14.059  -8.535  21.131  1.00  0.00     0.002 C 
HETATM   11  C10 UNL     1      14.312  -8.397  22.596  1.00  0.00     0.006 C 
HETATM   12  C11 UNL     1      14.867  -9.691  23.081  1.00  0.00     0.081 C 
HETATM   13  C12 UNL     1      13.862 -10.792  22.692  1.00  0.00     0.274 C 
HETATM   14  F1  UNL     1      12.649 -10.296  23.207  1.00  0.00    -0.204 F 
HETATM   15  F2  UNL     1      14.197 -11.833  23.479  1.00  0.00    -0.204 F 
ENDBRANCH   5   8
BRANCH   1  16
HETATM   16  C2  UNL     1      13.461 -15.417  22.565  1.00  0.00     0.223 C 
HETATM   17  N1  UNL     1      13.335 -14.796  23.853  1.00  0.00    -0.365 N 
HETATM   18  C1  UNL     1      13.391 -15.649  25.018  1.00  0.00     0.149 C 
ATOM     19  H1  UNL     1      13.210 -13.788  23.943  1.00  0.00     0.161 HD
HETATM   20  O1  UNL     1      13.614 -16.652  22.448  1.00  0.00    -0.273 OA
ENDBRANCH   1  16
TORSDOF 2
ENDMDL
