MODEL 1
REMARK VINA RESULT: -8.530330582      0.000      0.000
REMARK  8 active torsions:
REMARK  status: ('A' for Active; 'I' for Inactive)
REMARK    1  A    between atoms: O1_2  and  C2_3 
REMARK    2  A    between atoms: C4_5  and  C5_6 
REMARK    3  A    between atoms: C5_6  and  O3_8 
REMARK    4  A    between atoms: O3_8  and  C6_9 
REMARK    5  A    between atoms: C6_9  and  C7_10 
REMARK       I    between atoms: C7_10  and  N1_12 
REMARK    6  A    between atoms: N1_12  and  C8_14 
REMARK    7  A    between atoms: C15_27  and  C16_28 
REMARK    8  A    between atoms: C17_33  and  O8_34 
ROOT
HETATM    1  C6  UNL     1      -0.758 -15.154  16.693  1.00  0.00     0.282 C 
ENDROOT
BRANCH   1   2
HETATM    2  O3  UNL     1      -1.532 -15.134  17.867  1.00  0.00    -0.308 OA
BRANCH   2   3
HETATM    3  C5  UNL     1      -2.129 -13.900  18.292  1.00  0.00     0.296 C 
HETATM    4  O2  UNL     1      -1.277 -13.083  18.643  1.00  0.00    -0.259 OA
BRANCH   3   5
HETATM    5  C4  UNL     1      -3.569 -13.802  18.247  1.00  0.00     0.075 A 
HETATM    6  C3  UNL     1      -4.159 -13.494  17.003  1.00  0.00     0.061 A 
HETATM    7  C2  UNL     1      -5.516 -13.395  16.873  1.00  0.00     0.120 A 
HETATM    8  C17 UNL     1      -6.343 -13.602  17.982  1.00  0.00     0.176 A 
HETATM    9  N3  UNL     1      -5.769 -13.889  19.139  1.00  0.00    -0.328 N 
HETATM   10  C15 UNL     1      -4.391 -13.997  19.302  1.00  0.00     0.128 A 
ATOM     11  H3  UNL     1      -6.366 -14.040  19.952  1.00  0.00     0.168 HD
BRANCH   7  12
HETATM   12  O1  UNL     1      -6.155 -13.098  15.690  1.00  0.00    -0.352 OA
HETATM   13  C1  UNL     1      -6.176 -11.850  15.047  1.00  0.00     0.210 C 
ENDBRANCH   7  12
BRANCH   8  14
HETATM   14  O8  UNL     1      -7.713 -13.501  17.842  1.00  0.00    -0.339 OA
HETATM   15  C18 UNL     1      -8.488 -12.740  18.746  1.00  0.00     0.211 C 
ENDBRANCH   8  14
BRANCH  10  16
HETATM   16  C16 UNL     1      -3.926 -14.302  20.628  1.00  0.00     0.228 C 
HETATM   17  O6  UNL     1      -3.937 -15.385  21.194  1.00  0.00    -0.643 OA
HETATM   18  O7  UNL     1      -3.382 -13.201  21.382  1.00  0.00    -0.643 OA
ENDBRANCH  10  16
ENDBRANCH   3   5
ENDBRANCH   2   3
ENDBRANCH   1   2
BRANCH   1  19
HETATM   19  C7  UNL     1      -1.446 -15.683  15.511  1.00  0.00     0.249 C 
HETATM   20  O4  UNL     1      -1.090 -16.854  15.138  1.00  0.00    -0.271 OA
HETATM   21  N1  UNL     1      -2.442 -15.052  14.746  1.00  0.00    -0.290 N 
ATOM     22  H1  UNL     1      -2.467 -14.035  14.678  1.00  0.00     0.172 HD
BRANCH  21  23
HETATM   23  C8  UNL     1      -3.339 -15.776  14.123  1.00  0.00     0.232 A 
HETATM   24  N2  UNL     1      -3.120 -16.604  13.096  1.00  0.00    -0.318 N 
HETATM   25  C9  UNL     1      -4.290 -17.157  12.742  1.00  0.00     0.093 A 
ATOM     26  H2  UNL     1      -2.218 -16.785  12.657  1.00  0.00     0.169 HD
HETATM   27  C10 UNL     1      -4.693 -18.065  11.776  1.00  0.00     0.087 A 
HETATM   28  C14 UNL     1      -5.264 -16.645  13.588  1.00  0.00     0.109 A 
HETATM   29 CL1  UNL     1      -3.473 -18.733  10.692  1.00  0.00    -0.080 Cl
HETATM   30  C11 UNL     1      -5.987 -18.462  11.634  1.00  0.00     0.080 A 
HETATM   31 CL2  UNL     1      -6.471 -19.607  10.406  1.00  0.00    -0.081 Cl
HETATM   32  C12 UNL     1      -6.952 -17.939  12.489  1.00  0.00     0.060 A 
HETATM   33 CL3  UNL     1      -8.615 -18.437  12.323  1.00  0.00    -0.082 Cl
HETATM   34  C13 UNL     1      -6.585 -17.036  13.460  1.00  0.00     0.065 A 
HETATM   35  O5  UNL     1      -4.628 -15.826  14.389  1.00  0.00    -0.277 OA
ENDBRANCH  21  23
ENDBRANCH   1  19
TORSDOF 8
ENDMDL
MODEL 2
REMARK VINA RESULT: -8.459347847      1.009      1.844
REMARK  8 active torsions:
REMARK  status: ('A' for Active; 'I' for Inactive)
REMARK    1  A    between atoms: O1_2  and  C2_3 
REMARK    2  A    between atoms: C4_5  and  C5_6 
REMARK    3  A    between atoms: C5_6  and  O3_8 
REMARK    4  A    between atoms: O3_8  and  C6_9 
REMARK    5  A    between atoms: C6_9  and  C7_10 
REMARK       I    between atoms: C7_10  and  N1_12 
REMARK    6  A    between atoms: N1_12  and  C8_14 
REMARK    7  A    between atoms: C15_27  and  C16_28 
REMARK    8  A    between atoms: C17_33  and  O8_34 
ROOT
HETATM    1  C6  UNL     1      -0.343 -15.055  17.232  1.00  0.00     0.282 C 
ENDROOT
BRANCH   1   2
HETATM    2  O3  UNL     1      -1.219 -15.075  18.332  1.00  0.00    -0.308 OA
BRANCH   2   3
HETATM    3  C5  UNL     1      -1.899 -13.868  18.710  1.00  0.00     0.296 C 
HETATM    4  O2  UNL     1      -1.121 -13.043  19.190  1.00  0.00    -0.259 OA
BRANCH   3   5
HETATM    5  C4  UNL     1      -3.323 -13.802  18.481  1.00  0.00     0.075 A 
HETATM    6  C3  UNL     1      -3.758 -13.578  17.157  1.00  0.00     0.061 A 
HETATM    7  C2  UNL     1      -5.089 -13.514  16.855  1.00  0.00     0.120 A 
HETATM    8  C17 UNL     1      -6.045 -13.673  17.863  1.00  0.00     0.176 A 
HETATM    9  N3  UNL     1      -5.616 -13.881  19.098  1.00  0.00    -0.328 N 
HETATM   10  C15 UNL     1      -4.267 -13.951  19.437  1.00  0.00     0.128 A 
ATOM     11  H3  UNL     1      -6.307 -13.996  19.839  1.00  0.00     0.168 HD
BRANCH   7  12
HETATM   12  O1  UNL     1      -5.579 -13.299  15.586  1.00  0.00    -0.352 OA
HETATM   13  C1  UNL     1      -5.918 -12.057  15.026  1.00  0.00     0.210 C 
ENDBRANCH   7  12
BRANCH   8  14
HETATM   14  O8  UNL     1      -7.388 -13.607  17.550  1.00  0.00    -0.339 OA
HETATM   15  C18 UNL     1      -8.328 -13.072  18.459  1.00  0.00     0.211 C 
ENDBRANCH   8  14
BRANCH  10  16
HETATM   16  C16 UNL     1      -3.968 -14.169  20.825  1.00  0.00     0.228 C 
HETATM   17  O6  UNL     1      -3.740 -13.329  21.683  1.00  0.00    -0.643 OA
HETATM   18  O7  UNL     1      -3.930 -15.542  21.261  1.00  0.00    -0.643 OA
ENDBRANCH  10  16
ENDBRANCH   3   5
ENDBRANCH   2   3
ENDBRANCH   1   2
BRANCH   1  19
HETATM   19  C7  UNL     1      -0.849 -15.720  16.028  1.00  0.00     0.249 C 
HETATM   20  O4  UNL     1      -0.564 -16.963  15.919  1.00  0.00    -0.271 OA
HETATM   21  N1  UNL     1      -1.603 -15.150  14.988  1.00  0.00    -0.290 N 
ATOM     22  H1  UNL     1      -1.498 -14.162  14.762  1.00  0.00     0.172 HD
BRANCH  21  23
HETATM   23  C8  UNL     1      -2.441 -15.895  14.311  1.00  0.00     0.232 A 
HETATM   24  N2  UNL     1      -3.777 -15.824  14.342  1.00  0.00    -0.318 N 
HETATM   25  C9  UNL     1      -4.270 -16.753  13.511  1.00  0.00     0.093 A 
ATOM     26  H2  UNL     1      -4.326 -15.173  14.903  1.00  0.00     0.169 HD
HETATM   27  C10 UNL     1      -5.541 -17.153  13.130  1.00  0.00     0.087 A 
HETATM   28  C14 UNL     1      -3.191 -17.421  12.948  1.00  0.00     0.109 A 
HETATM   29 CL1  UNL     1      -6.927 -16.316  13.828  1.00  0.00    -0.080 Cl
HETATM   30  C11 UNL     1      -5.759 -18.159  12.240  1.00  0.00     0.080 A 
HETATM   31 CL2  UNL     1      -7.372 -18.646  11.777  1.00  0.00    -0.081 Cl
HETATM   32  C12 UNL     1      -4.668 -18.819  11.684  1.00  0.00     0.060 A 
HETATM   33 CL3  UNL     1      -4.929 -20.110  10.540  1.00  0.00    -0.082 Cl
HETATM   34  C13 UNL     1      -3.393 -18.447  12.040  1.00  0.00     0.065 A 
HETATM   35  O5  UNL     1      -2.128 -16.859  13.469  1.00  0.00    -0.277 OA
ENDBRANCH  21  23
ENDBRANCH   1  19
TORSDOF 8
ENDMDL
MODEL 3
REMARK VINA RESULT: -8.304288834      1.521      2.259
REMARK  8 active torsions:
REMARK  status: ('A' for Active; 'I' for Inactive)
REMARK    1  A    between atoms: O1_2  and  C2_3 
REMARK    2  A    between atoms: C4_5  and  C5_6 
REMARK    3  A    between atoms: C5_6  and  O3_8 
REMARK    4  A    between atoms: O3_8  and  C6_9 
REMARK    5  A    between atoms: C6_9  and  C7_10 
REMARK       I    between atoms: C7_10  and  N1_12 
REMARK    6  A    between atoms: N1_12  and  C8_14 
REMARK    7  A    between atoms: C15_27  and  C16_28 
REMARK    8  A    between atoms: C17_33  and  O8_34 
ROOT
HETATM    1  C6  UNL     1      -0.105 -15.474  16.209  1.00  0.00     0.282 C 
ENDROOT
BRANCH   1   2
HETATM    2  O3  UNL     1       0.051 -14.086  16.045  1.00  0.00    -0.308 OA
BRANCH   2   3
HETATM    3  C5  UNL     1      -0.585 -13.193  16.972  1.00  0.00     0.296 C 
HETATM    4  O2  UNL     1       0.188 -12.317  17.359  1.00  0.00    -0.259 OA
BRANCH   3   5
HETATM    5  C4  UNL     1      -1.970 -13.442  17.296  1.00  0.00     0.075 A 
HETATM    6  C3  UNL     1      -2.921 -13.250  16.272  1.00  0.00     0.061 A 
HETATM    7  C2  UNL     1      -4.251 -13.475  16.495  1.00  0.00     0.120 A 
HETATM    8  C17 UNL     1      -4.688 -13.904  17.752  1.00  0.00     0.176 A 
HETATM    9  N3  UNL     1      -3.779 -14.077  18.699  1.00  0.00    -0.328 N 
HETATM   10  C15 UNL     1      -2.419 -13.856  18.503  1.00  0.00     0.128 A 
ATOM     11  H3  UNL     1      -4.091 -14.388  19.619  1.00  0.00     0.168 HD
BRANCH   7  12
HETATM   12  O1  UNL     1      -5.229 -13.308  15.540  1.00  0.00    -0.352 OA
HETATM   13  C1  UNL     1      -5.835 -12.096  15.176  1.00  0.00     0.210 C 
ENDBRANCH   7  12
BRANCH   8  14
HETATM   14  O8  UNL     1      -6.033 -14.130  17.969  1.00  0.00    -0.339 OA
HETATM   15  C18 UNL     1      -6.829 -13.197  18.671  1.00  0.00     0.211 C 
ENDBRANCH   8  14
BRANCH  10  16
HETATM   16  C16 UNL     1      -1.566 -14.077  19.637  1.00  0.00     0.228 C 
HETATM   17  O6  UNL     1      -1.409 -13.352  20.609  1.00  0.00    -0.643 OA
HETATM   18  O7  UNL     1      -0.801 -15.298  19.632  1.00  0.00    -0.643 OA
ENDBRANCH  10  16
ENDBRANCH   3   5
ENDBRANCH   2   3
ENDBRANCH   1   2
BRANCH   1  19
HETATM   19  C7  UNL     1      -0.889 -16.134  15.162  1.00  0.00     0.249 C 
HETATM   20  O4  UNL     1      -0.837 -17.413  15.151  1.00  0.00    -0.271 OA
HETATM   21  N1  UNL     1      -1.682 -15.526  14.174  1.00  0.00    -0.290 N 
ATOM     22  H1  UNL     1      -1.447 -14.595  13.830  1.00  0.00     0.172 HD
BRANCH  21  23
HETATM   23  C8  UNL     1      -2.725 -16.160  13.697  1.00  0.00     0.232 A 
HETATM   24  N2  UNL     1      -4.009 -15.896  13.964  1.00  0.00    -0.318 N 
HETATM   25  C9  UNL     1      -4.770 -16.766  13.284  1.00  0.00     0.093 A 
ATOM     26  H2  UNL     1      -4.351 -15.159  14.580  1.00  0.00     0.169 HD
HETATM   27  C10 UNL     1      -6.132 -16.988  13.158  1.00  0.00     0.087 A 
HETATM   28  C14 UNL     1      -3.915 -17.596  12.571  1.00  0.00     0.109 A 
HETATM   29 CL1  UNL     1      -7.237 -15.944  14.050  1.00  0.00    -0.080 Cl
HETATM   30  C11 UNL     1      -6.646 -17.975  12.374  1.00  0.00     0.080 A 
HETATM   31 CL2  UNL     1      -8.368 -18.237  12.234  1.00  0.00    -0.081 Cl
HETATM   32  C12 UNL     1      -5.777 -18.798  11.666  1.00  0.00     0.060 A 
HETATM   33 CL3  UNL     1      -6.419 -20.067  10.655  1.00  0.00    -0.082 Cl
HETATM   34  C13 UNL     1      -4.419 -18.604  11.768  1.00  0.00     0.065 A 
HETATM   35  O5  UNL     1      -2.708 -17.179  12.863  1.00  0.00    -0.277 OA
ENDBRANCH  21  23
ENDBRANCH   1  19
TORSDOF 8
ENDMDL
MODEL 4
REMARK VINA RESULT: -8.126127726      4.473      7.306
REMARK  8 active torsions:
REMARK  status: ('A' for Active; 'I' for Inactive)
REMARK    1  A    between atoms: O1_2  and  C2_3 
REMARK    2  A    between atoms: C4_5  and  C5_6 
REMARK    3  A    between atoms: C5_6  and  O3_8 
REMARK    4  A    between atoms: O3_8  and  C6_9 
REMARK    5  A    between atoms: C6_9  and  C7_10 
REMARK       I    between atoms: C7_10  and  N1_12 
REMARK    6  A    between atoms: N1_12  and  C8_14 
REMARK    7  A    between atoms: C15_27  and  C16_28 
REMARK    8  A    between atoms: C17_33  and  O8_34 
ROOT
HETATM    1  C6  UNL     1      -6.474 -16.833  13.243  1.00  0.00     0.282 C 
ENDROOT
BRANCH   1   2
HETATM    2  O3  UNL     1      -7.301 -16.097  12.375  1.00  0.00    -0.308 OA
BRANCH   2   3
HETATM    3  C5  UNL     1      -8.312 -15.240  12.927  1.00  0.00     0.296 C 
HETATM    4  O2  UNL     1      -9.238 -15.889  13.413  1.00  0.00    -0.259 OA
BRANCH   3   5
HETATM    5  C4  UNL     1      -8.102 -13.815  12.838  1.00  0.00     0.075 A 
HETATM    6  C3  UNL     1      -7.853 -13.274  11.558  1.00  0.00     0.061 A 
HETATM    7  C2  UNL     1      -7.656 -11.932  11.387  1.00  0.00     0.120 A 
HETATM    8  C17 UNL     1      -7.701 -11.071  12.488  1.00  0.00     0.176 A 
HETATM    9  N3  UNL     1      -7.935 -11.599  13.679  1.00  0.00    -0.328 N 
HETATM   10  C15 UNL     1      -8.139 -12.960  13.885  1.00  0.00     0.128 A 
ATOM     11  H3  UNL     1      -7.968 -10.977  14.487  1.00  0.00     0.168 HD
BRANCH   7  12
HETATM   12  O1  UNL     1      -7.409 -11.342  10.168  1.00  0.00    -0.352 OA
HETATM   13  C1  UNL     1      -6.706 -11.912   9.095  1.00  0.00     0.210 C 
ENDBRANCH   7  12
BRANCH   8  14
HETATM   14  O8  UNL     1      -7.501  -9.717  12.307  1.00  0.00    -0.339 OA
HETATM   15  C18 UNL     1      -8.429  -8.768  12.792  1.00  0.00     0.211 C 
ENDBRANCH   8  14
BRANCH  10  16
HETATM   16  C16 UNL     1      -8.368 -13.374  15.242  1.00  0.00     0.228 C 
HETATM   17  O6  UNL     1      -7.534 -13.653  16.091  1.00  0.00    -0.643 OA
HETATM   18  O7  UNL     1      -9.745 -13.474  15.655  1.00  0.00    -0.643 OA
ENDBRANCH  10  16
ENDBRANCH   3   5
ENDBRANCH   2   3
ENDBRANCH   1   2
BRANCH   1  19
HETATM   19  C7  UNL     1      -5.897 -16.060  14.347  1.00  0.00     0.249 C 
HETATM   20  O4  UNL     1      -6.069 -16.547  15.517  1.00  0.00    -0.271 OA
HETATM   21  N1  UNL     1      -5.184 -14.851  14.264  1.00  0.00    -0.290 N 
ATOM     22  H1  UNL     1      -5.373 -14.196  13.506  1.00  0.00     0.172 HD
BRANCH  21  23
HETATM   23  C8  UNL     1      -4.275 -14.571  15.166  1.00  0.00     0.232 A 
HETATM   24  N2  UNL     1      -4.471 -14.448  16.483  1.00  0.00    -0.318 N 
HETATM   25  C9  UNL     1      -3.296 -14.156  17.060  1.00  0.00     0.093 A 
ATOM     26  H2  UNL     1      -5.362 -14.559  16.967  1.00  0.00     0.169 HD
HETATM   27  C10 UNL     1      -2.874 -13.918  18.358  1.00  0.00     0.087 A 
HETATM   28  C14 UNL     1      -2.343 -14.097  16.053  1.00  0.00     0.109 A 
HETATM   29 CL1  UNL     1      -4.065 -13.992  19.655  1.00  0.00    -0.080 Cl
HETATM   30  C11 UNL     1      -1.579 -13.634  18.669  1.00  0.00     0.080 A 
HETATM   31 CL2  UNL     1      -1.071 -13.335  20.314  1.00  0.00    -0.081 Cl
HETATM   32  C12 UNL     1      -0.635 -13.578  17.649  1.00  0.00     0.060 A 
HETATM   33 CL3  UNL     1       1.029 -13.217  18.029  1.00  0.00    -0.082 Cl
HETATM   34  C13 UNL     1      -1.022 -13.810  16.349  1.00  0.00     0.065 A 
HETATM   35  O5  UNL     1      -2.995 -14.355  14.946  1.00  0.00    -0.277 OA
ENDBRANCH  21  23
ENDBRANCH   1  19
TORSDOF 8
ENDMDL
MODEL 5
REMARK VINA RESULT: -8.003747014      4.029      6.901
REMARK  8 active torsions:
REMARK  status: ('A' for Active; 'I' for Inactive)
REMARK    1  A    between atoms: O1_2  and  C2_3 
REMARK    2  A    between atoms: C4_5  and  C5_6 
REMARK    3  A    between atoms: C5_6  and  O3_8 
REMARK    4  A    between atoms: O3_8  and  C6_9 
REMARK    5  A    between atoms: C6_9  and  C7_10 
REMARK       I    between atoms: C7_10  and  N1_12 
REMARK    6  A    between atoms: N1_12  and  C8_14 
REMARK    7  A    between atoms: C15_27  and  C16_28 
REMARK    8  A    between atoms: C17_33  and  O8_34 
ROOT
HETATM    1  C6  UNL     1      -7.213 -16.712  13.663  1.00  0.00     0.282 C 
ENDROOT
BRANCH   1   2
HETATM    2  O3  UNL     1      -7.692 -15.919  12.603  1.00  0.00    -0.308 OA
BRANCH   2   3
HETATM    3  C5  UNL     1      -8.757 -14.989  12.849  1.00  0.00     0.296 C 
HETATM    4  O2  UNL     1      -9.832 -15.566  13.011  1.00  0.00    -0.259 OA
BRANCH   3   5
HETATM    5  C4  UNL     1      -8.427 -13.584  12.871  1.00  0.00     0.075 A 
HETATM    6  C3  UNL     1      -8.104 -12.973  11.640  1.00  0.00     0.061 A 
HETATM    7  C2  UNL     1      -7.792 -11.644  11.574  1.00  0.00     0.120 A 
HETATM    8  C17 UNL     1      -7.790 -10.866  12.736  1.00  0.00     0.176 A 
HETATM    9  N3  UNL     1      -8.095 -11.459  13.880  1.00  0.00    -0.328 N 
HETATM   10  C15 UNL     1      -8.417 -12.809  13.979  1.00  0.00     0.128 A 
ATOM     11  H3  UNL     1      -8.094 -10.898  14.732  1.00  0.00     0.168 HD
BRANCH   7  12
HETATM   12  O1  UNL     1      -7.469 -10.988  10.407  1.00  0.00    -0.352 OA
HETATM   13  C1  UNL     1      -6.712 -11.506   9.345  1.00  0.00     0.210 C 
ENDBRANCH   7  12
BRANCH   8  14
HETATM   14  O8  UNL     1      -7.474  -9.524  12.661  1.00  0.00    -0.339 OA
HETATM   15  C18 UNL     1      -8.472  -8.529  12.761  1.00  0.00     0.211 C 
ENDBRANCH   8  14
BRANCH  10  16
HETATM   16  C16 UNL     1      -8.710 -13.301  15.297  1.00  0.00     0.228 C 
HETATM   17  O6  UNL     1      -9.809 -13.475  15.804  1.00  0.00    -0.643 OA
HETATM   18  O7  UNL     1      -7.576 -13.630  16.123  1.00  0.00    -0.643 OA
ENDBRANCH  10  16
ENDBRANCH   3   5
ENDBRANCH   2   3
ENDBRANCH   1   2
BRANCH   1  19
HETATM   19  C7  UNL     1      -6.182 -16.078  14.490  1.00  0.00     0.249 C 
HETATM   20  O4  UNL     1      -5.994 -16.603  15.642  1.00  0.00    -0.271 OA
HETATM   21  N1  UNL     1      -5.386 -14.967  14.164  1.00  0.00    -0.290 N 
ATOM     22  H1  UNL     1      -5.740 -14.253  13.527  1.00  0.00     0.172 HD
BRANCH  21  23
HETATM   23  C8  UNL     1      -4.188 -14.853  14.681  1.00  0.00     0.232 A 
HETATM   24  N2  UNL     1      -3.227 -15.783  14.681  1.00  0.00    -0.318 N 
HETATM   25  C9  UNL     1      -2.153 -15.282  15.307  1.00  0.00     0.093 A 
ATOM     26  H2  UNL     1      -3.300 -16.716  14.274  1.00  0.00     0.169 HD
HETATM   27  C10 UNL     1      -0.887 -15.756  15.614  1.00  0.00     0.087 A 
HETATM   28  C14 UNL     1      -2.470 -13.991  15.707  1.00  0.00     0.109 A 
HETATM   29 CL1  UNL     1      -0.460 -17.392  15.113  1.00  0.00    -0.080 Cl
HETATM   30  C11 UNL     1       0.035 -15.010  16.282  1.00  0.00     0.080 A 
HETATM   31 CL2  UNL     1       1.624 -15.631  16.659  1.00  0.00    -0.081 Cl
HETATM   32  C12 UNL     1      -0.297 -13.718  16.676  1.00  0.00     0.060 A 
HETATM   33 CL3  UNL     1       0.873 -12.747  17.531  1.00  0.00    -0.082 Cl
HETATM   34  C13 UNL     1      -1.545 -13.217  16.386  1.00  0.00     0.065 A 
HETATM   35  O5  UNL     1      -3.700 -13.798  15.301  1.00  0.00    -0.277 OA
ENDBRANCH  21  23
ENDBRANCH   1  19
TORSDOF 8
ENDMDL
