MODEL 1
REMARK VINA RESULT: -9.183031190      0.000      0.000
REMARK  9 active torsions:
REMARK  status: ('A' for Active; 'I' for Inactive)
REMARK    1  A    between atoms: C2_2  and  C3_3 
REMARK    2  A    between atoms: C2_2  and  N3_15 
REMARK    3  A    between atoms: C3_3  and  O1_4 
REMARK    4  A    between atoms: O1_4  and  C4_5 
REMARK       I    between atoms: C4_5  and  N1_7 
REMARK    5  A    between atoms: N1_7  and  C5_9 
REMARK    6  A    between atoms: N3_15  and  C8_17 
REMARK    7  A    between atoms: C17_30  and  C18_31 
REMARK    8  A    between atoms: C18_31  and  O3_32 
REMARK    9  A    between atoms: O3_32  and  C19_33 
ROOT
HETATM    1  C8  UNL     1      -6.375 -14.137  17.261  1.00  0.00     0.146 A 
HETATM    2  N4  UNL     1      -6.299 -13.840  18.551  1.00  0.00    -0.336 N 
ATOM      3  H4  UNL     1      -7.147 -13.645  19.083  1.00  0.00     0.168 HD
HETATM    4  C9  UNL     1      -5.127 -13.797  19.138  1.00  0.00     0.052 A 
HETATM    5  C10 UNL     1      -4.867 -13.500  20.495  1.00  0.00     0.034 A 
HETATM    6  C11 UNL     1      -3.577 -13.495  20.961  1.00  0.00     0.040 A 
HETATM    7  C12 UNL     1      -2.469 -13.762  20.201  1.00  0.00     0.079 A 
HETATM    8  C13 UNL     1      -2.717 -14.052  18.880  1.00  0.00     0.034 A 
HETATM    9  C14 UNL     1      -4.024 -14.065  18.375  1.00  0.00     0.047 A 
HETATM   10  S2  UNL     1      -4.710 -14.369  16.843  1.00  0.00    -0.051 SA
HETATM   11  C15 UNL     1      -1.653 -14.368  17.899  1.00  0.00     0.138 C 
HETATM   12  C16 UNL     1      -1.396 -13.119  17.105  1.00  0.00     0.058 C 
HETATM   13  F1  UNL     1      -2.123 -15.341  17.032  1.00  0.00    -0.237 F 
HETATM   14  C17 UNL     1      -0.454 -14.910  18.614  1.00  0.00     0.078 C 
HETATM   15  C20 UNL     1      -0.060 -14.077  19.810  1.00  0.00     0.186 C 
HETATM   16  O4  UNL     1      -1.173 -13.766  20.629  1.00  0.00    -0.350 OA
ENDROOT
BRANCH   1  17
HETATM   17  N3  UNL     1      -7.373 -14.245  16.457  1.00  0.00    -0.364 N 
ATOM     18  H3  UNL     1      -8.089 -14.949  16.634  1.00  0.00     0.162 HD
BRANCH  17  19
HETATM   19  C2  UNL     1      -7.490 -13.381  15.308  1.00  0.00     0.104 C 
HETATM   20  C1  UNL     1      -6.643 -12.165  15.357  1.00  0.00     0.034 C 
BRANCH  19  21
HETATM   21  C3  UNL     1      -7.510 -14.173  14.028  1.00  0.00     0.205 C 
BRANCH  21  22
HETATM   22  O1  UNL     1      -6.410 -14.909  13.763  1.00  0.00    -0.302 OA
BRANCH  22  23
HETATM   23  C4  UNL     1      -6.151 -16.218  13.943  1.00  0.00     0.366 C 
HETATM   24  O2  UNL     1      -6.604 -16.869  14.908  1.00  0.00    -0.238 OA
HETATM   25  N1  UNL     1      -5.306 -16.870  12.960  1.00  0.00    -0.282 N 
ATOM     26  H1  UNL     1      -5.664 -17.226  12.074  1.00  0.00     0.173 HD
BRANCH  25  27
HETATM   27  C5  UNL     1      -4.041 -16.962  13.305  1.00  0.00     0.152 A 
HETATM   28  N2  UNL     1      -3.208 -16.034  13.766  1.00  0.00    -0.346 N 
HETATM   29  C6  UNL     1      -1.982 -16.363  14.044  1.00  0.00     0.097 A 
ATOM     30  H2  UNL     1      -3.528 -15.075  13.900  1.00  0.00     0.167 HD
HETATM   31  C7  UNL     1      -1.602 -17.664  13.848  1.00  0.00     0.070 A 
HETATM   32  S1  UNL     1      -3.041 -18.369  13.263  1.00  0.00    -0.064 SA
ENDBRANCH  25  27
ENDBRANCH  22  23
ENDBRANCH  21  22
ENDBRANCH  19  21
ENDBRANCH  17  19
ENDBRANCH   1  17
BRANCH  14  33
HETATM   33  C18 UNL     1       0.682 -15.059  17.658  1.00  0.00     0.184 C 
BRANCH  33  34
HETATM   34  O3  UNL     1       1.578 -16.059  17.974  1.00  0.00    -0.332 OA
BRANCH  34  35
HETATM   35  C19 UNL     1       1.160 -17.254  17.440  1.00  0.00     0.500 C 
HETATM   36  F2  UNL     1       0.310 -17.895  18.349  1.00  0.00    -0.185 F 
HETATM   37  F3  UNL     1       0.447 -17.101  16.266  1.00  0.00    -0.185 F 
ENDBRANCH  34  35
ENDBRANCH  33  34
ENDBRANCH  14  33
TORSDOF 9
ENDMDL
MODEL 2
REMARK VINA RESULT: -9.031309113      3.021      4.256
REMARK  9 active torsions:
REMARK  status: ('A' for Active; 'I' for Inactive)
REMARK    1  A    between atoms: C2_2  and  C3_3 
REMARK    2  A    between atoms: C2_2  and  N3_15 
REMARK    3  A    between atoms: C3_3  and  O1_4 
REMARK    4  A    between atoms: O1_4  and  C4_5 
REMARK       I    between atoms: C4_5  and  N1_7 
REMARK    5  A    between atoms: N1_7  and  C5_9 
REMARK    6  A    between atoms: N3_15  and  C8_17 
REMARK    7  A    between atoms: C17_30  and  C18_31 
REMARK    8  A    between atoms: C18_31  and  O3_32 
REMARK    9  A    between atoms: O3_32  and  C19_33 
ROOT
HETATM    1  C8  UNL     1      -6.731 -13.530  18.090  1.00  0.00     0.146 A 
HETATM    2  N4  UNL     1      -6.195 -13.465  19.301  1.00  0.00    -0.336 N 
ATOM      3  H4  UNL     1      -6.780 -13.257  20.110  1.00  0.00     0.168 HD
HETATM    4  C9  UNL     1      -4.908 -13.670  19.452  1.00  0.00     0.052 A 
HETATM    5  C10 UNL     1      -4.179 -13.639  20.662  1.00  0.00     0.034 A 
HETATM    6  C11 UNL     1      -2.828 -13.875  20.655  1.00  0.00     0.040 A 
HETATM    7  C12 UNL     1      -2.087 -14.150  19.536  1.00  0.00     0.079 A 
HETATM    8  C13 UNL     1      -2.792 -14.181  18.356  1.00  0.00     0.034 A 
HETATM    9  C14 UNL     1      -4.173 -13.943  18.331  1.00  0.00     0.047 A 
HETATM   10  S2  UNL     1      -5.355 -13.898  17.103  1.00  0.00    -0.051 SA
HETATM   11  C15 UNL     1      -2.171 -14.460  17.040  1.00  0.00     0.138 C 
HETATM   12  C16 UNL     1      -1.968 -13.138  16.356  1.00  0.00     0.058 C 
HETATM   13  F1  UNL     1      -3.057 -15.207  16.281  1.00  0.00    -0.237 F 
HETATM   14  C17 UNL     1      -0.921 -15.260  17.234  1.00  0.00     0.078 C 
HETATM   15  C20 UNL     1      -0.024 -14.697  18.310  1.00  0.00     0.186 C 
HETATM   16  O4  UNL     1      -0.744 -14.389  19.490  1.00  0.00    -0.350 OA
ENDROOT
BRANCH   1  17
HETATM   17  N3  UNL     1      -7.937 -13.375  17.670  1.00  0.00    -0.364 N 
ATOM     18  H3  UNL     1      -8.130 -13.407  16.669  1.00  0.00     0.162 HD
BRANCH  17  19
HETATM   19  C2  UNL     1      -9.017 -13.155  18.598  1.00  0.00     0.104 C 
HETATM   20  C1  UNL     1      -8.940 -11.880  19.352  1.00  0.00     0.034 C 
BRANCH  19  21
HETATM   21  C3  UNL     1     -10.343 -13.535  17.995  1.00  0.00     0.205 C 
BRANCH  21  22
HETATM   22  O1  UNL     1     -10.991 -12.566  17.316  1.00  0.00    -0.302 OA
BRANCH  22  23
HETATM   23  C4  UNL     1     -11.059 -12.296  15.998  1.00  0.00     0.366 C 
HETATM   24  O2  UNL     1     -11.774 -12.950  15.211  1.00  0.00    -0.238 OA
HETATM   25  N1  UNL     1     -10.255 -11.193  15.504  1.00  0.00    -0.282 N 
ATOM     26  H1  UNL     1     -10.560 -10.221  15.556  1.00  0.00     0.173 HD
BRANCH  25  27
HETATM   27  C5  UNL     1      -9.102 -11.551  14.983  1.00  0.00     0.152 A 
HETATM   28  N2  UNL     1      -7.904 -10.985  15.082  1.00  0.00    -0.346 N 
HETATM   29  C6  UNL     1      -6.893 -11.526  14.471  1.00  0.00     0.097 A 
ATOM     30  H2  UNL     1      -7.779 -10.134  15.632  1.00  0.00     0.167 HD
HETATM   31  C7  UNL     1      -7.111 -12.668  13.748  1.00  0.00     0.070 A 
HETATM   32  S1  UNL     1      -8.783 -12.918  13.977  1.00  0.00    -0.064 SA
ENDBRANCH  25  27
ENDBRANCH  22  23
ENDBRANCH  21  22
ENDBRANCH  19  21
ENDBRANCH  17  19
ENDBRANCH   1  17
BRANCH  14  33
HETATM   33  C18 UNL     1      -0.195 -15.391  15.936  1.00  0.00     0.184 C 
BRANCH  33  34
HETATM   34  O3  UNL     1       0.020 -16.687  15.518  1.00  0.00    -0.332 OA
BRANCH  34  35
HETATM   35  C19 UNL     1      -0.959 -17.065  14.631  1.00  0.00     0.500 C 
HETATM   36  F2  UNL     1      -1.398 -15.944  13.918  1.00  0.00    -0.185 F 
HETATM   37  F3  UNL     1      -0.517 -17.984  13.698  1.00  0.00    -0.185 F 
ENDBRANCH  34  35
ENDBRANCH  33  34
ENDBRANCH  14  33
TORSDOF 9
ENDMDL
MODEL 3
REMARK VINA RESULT: -8.953763734      2.912      4.603
REMARK  9 active torsions:
REMARK  status: ('A' for Active; 'I' for Inactive)
REMARK    1  A    between atoms: C2_2  and  C3_3 
REMARK    2  A    between atoms: C2_2  and  N3_15 
REMARK    3  A    between atoms: C3_3  and  O1_4 
REMARK    4  A    between atoms: O1_4  and  C4_5 
REMARK       I    between atoms: C4_5  and  N1_7 
REMARK    5  A    between atoms: N1_7  and  C5_9 
REMARK    6  A    between atoms: N3_15  and  C8_17 
REMARK    7  A    between atoms: C17_30  and  C18_31 
REMARK    8  A    between atoms: C18_31  and  O3_32 
REMARK    9  A    between atoms: O3_32  and  C19_33 
ROOT
HETATM    1  C8  UNL     1      -6.736 -13.941  17.653  1.00  0.00     0.146 A 
HETATM    2  N4  UNL     1      -6.386 -13.762  18.920  1.00  0.00    -0.336 N 
ATOM      3  H4  UNL     1      -7.098 -13.588  19.629  1.00  0.00     0.168 HD
HETATM    4  C9  UNL     1      -5.119 -13.810  19.254  1.00  0.00     0.052 A 
HETATM    5  C10 UNL     1      -4.575 -13.643  20.548  1.00  0.00     0.034 A 
HETATM    6  C11 UNL     1      -3.219 -13.721  20.738  1.00  0.00     0.040 A 
HETATM    7  C12 UNL     1      -2.302 -13.957  19.747  1.00  0.00     0.079 A 
HETATM    8  C13 UNL     1      -2.826 -14.120  18.487  1.00  0.00     0.034 A 
HETATM    9  C14 UNL     1      -4.208 -14.045  18.262  1.00  0.00     0.047 A 
HETATM   10  S2  UNL     1      -5.203 -14.190  16.885  1.00  0.00    -0.051 SA
HETATM   11  C15 UNL     1      -2.000 -14.382  17.285  1.00  0.00     0.138 C 
HETATM   12  C16 UNL     1      -1.847 -13.077  16.558  1.00  0.00     0.058 C 
HETATM   13  F1  UNL     1      -2.683 -15.258  16.459  1.00  0.00    -0.237 F 
HETATM   14  C17 UNL     1      -0.710 -15.024  17.692  1.00  0.00     0.078 C 
HETATM   15  C20 UNL     1      -0.040 -14.314  18.845  1.00  0.00     0.186 C 
HETATM   16  O4  UNL     1      -0.948 -14.041  19.897  1.00  0.00    -0.350 OA
ENDROOT
BRANCH   1  17
HETATM   17  N3  UNL     1      -7.880 -13.945  17.066  1.00  0.00    -0.364 N 
ATOM     18  H3  UNL     1      -8.122 -14.711  16.438  1.00  0.00     0.162 HD
BRANCH  17  19
HETATM   19  C2  UNL     1      -8.824 -12.877  17.285  1.00  0.00     0.104 C 
HETATM   20  C1  UNL     1      -8.938 -12.428  18.694  1.00  0.00     0.034 C 
BRANCH  19  21
HETATM   21  C3  UNL     1      -8.713 -11.821  16.218  1.00  0.00     0.205 C 
BRANCH  21  22
HETATM   22  O1  UNL     1      -8.061 -12.176  15.091  1.00  0.00    -0.302 OA
BRANCH  22  23
HETATM   23  C4  UNL     1      -7.140 -11.526  14.354  1.00  0.00     0.366 C 
HETATM   24  O2  UNL     1      -6.041 -11.158  14.819  1.00  0.00    -0.238 OA
HETATM   25  N1  UNL     1      -7.469 -11.257  12.966  1.00  0.00    -0.282 N 
ATOM     26  H1  UNL     1      -7.343 -11.947  12.226  1.00  0.00     0.173 HD
BRANCH  25  27
HETATM   27  C5  UNL     1      -7.942 -10.051  12.744  1.00  0.00     0.152 A 
HETATM   28  N2  UNL     1      -8.140  -9.039  13.582  1.00  0.00    -0.346 N 
HETATM   29  C6  UNL     1      -8.626  -7.923  13.127  1.00  0.00     0.097 A 
ATOM     30  H2  UNL     1      -7.912  -9.137  14.572  1.00  0.00     0.167 HD
HETATM   31  C7  UNL     1      -8.914  -7.841  11.791  1.00  0.00     0.070 A 
HETATM   32  S1  UNL     1      -8.469  -9.392  11.237  1.00  0.00    -0.064 SA
ENDBRANCH  25  27
ENDBRANCH  22  23
ENDBRANCH  21  22
ENDBRANCH  19  21
ENDBRANCH  17  19
ENDBRANCH   1  17
BRANCH  14  33
HETATM   33  C18 UNL     1       0.201 -15.125  16.515  1.00  0.00     0.184 C 
BRANCH  33  34
HETATM   34  O3  UNL     1       0.661 -16.396  16.244  1.00  0.00    -0.332 OA
BRANCH  34  35
HETATM   35  C19 UNL     1      -0.274 -17.092  15.517  1.00  0.00     0.500 C 
HETATM   36  F2  UNL     1      -0.637 -16.345  14.391  1.00  0.00    -0.185 F 
HETATM   37  F3  UNL     1       0.196 -18.307  15.056  1.00  0.00    -0.185 F 
ENDBRANCH  34  35
ENDBRANCH  33  34
ENDBRANCH  14  33
TORSDOF 9
ENDMDL
MODEL 4
REMARK VINA RESULT: -8.791672801      2.028      2.824
REMARK  9 active torsions:
REMARK  status: ('A' for Active; 'I' for Inactive)
REMARK    1  A    between atoms: C2_2  and  C3_3 
REMARK    2  A    between atoms: C2_2  and  N3_15 
REMARK    3  A    between atoms: C3_3  and  O1_4 
REMARK    4  A    between atoms: O1_4  and  C4_5 
REMARK       I    between atoms: C4_5  and  N1_7 
REMARK    5  A    between atoms: N1_7  and  C5_9 
REMARK    6  A    between atoms: N3_15  and  C8_17 
REMARK    7  A    between atoms: C17_30  and  C18_31 
REMARK    8  A    between atoms: C18_31  and  O3_32 
REMARK    9  A    between atoms: O3_32  and  C19_33 
ROOT
HETATM    1  C8  UNL     1      -6.633 -14.006  17.474  1.00  0.00     0.146 A 
HETATM    2  N4  UNL     1      -6.358 -13.797  18.754  1.00  0.00    -0.336 N 
ATOM      3  H4  UNL     1      -7.112 -13.614  19.416  1.00  0.00     0.168 HD
HETATM    4  C9  UNL     1      -5.112 -13.827  19.163  1.00  0.00     0.052 A 
HETATM    5  C10 UNL     1      -4.646 -13.627  20.482  1.00  0.00     0.034 A 
HETATM    6  C11 UNL     1      -3.303 -13.689  20.752  1.00  0.00     0.040 A 
HETATM    7  C12 UNL     1      -2.328 -13.938  19.822  1.00  0.00     0.079 A 
HETATM    8  C13 UNL     1      -2.777 -14.133  18.537  1.00  0.00     0.034 A 
HETATM    9  C14 UNL     1      -4.143 -14.075  18.230  1.00  0.00     0.047 A 
HETATM   10  S2  UNL     1      -5.056 -14.258  16.801  1.00  0.00    -0.051 SA
HETATM   11  C15 UNL     1      -1.880 -14.414  17.391  1.00  0.00     0.138 C 
HETATM   12  C16 UNL     1      -1.695 -13.123  16.646  1.00  0.00     0.058 C 
HETATM   13  F1  UNL     1      -2.507 -15.314  16.546  1.00  0.00    -0.237 F 
HETATM   14  C17 UNL     1      -0.611 -15.035  17.887  1.00  0.00     0.078 C 
HETATM   15  C20 UNL     1      -0.015 -14.295  19.061  1.00  0.00     0.186 C 
HETATM   16  O4  UNL     1      -0.985 -14.007  20.052  1.00  0.00    -0.350 OA
ENDROOT
BRANCH   1  17
HETATM   17  N3  UNL     1      -7.740 -14.032  16.821  1.00  0.00    -0.364 N 
ATOM     18  H3  UNL     1      -8.157 -14.929  16.570  1.00  0.00     0.162 HD
BRANCH  17  19
HETATM   19  C2  UNL     1      -8.399 -12.808  16.440  1.00  0.00     0.104 C 
HETATM   20  C1  UNL     1      -9.068 -12.090  17.551  1.00  0.00     0.034 C 
BRANCH  19  21
HETATM   21  C3  UNL     1      -7.552 -12.003  15.491  1.00  0.00     0.205 C 
BRANCH  21  22
HETATM   22  O1  UNL     1      -7.888 -12.068  14.186  1.00  0.00    -0.302 OA
BRANCH  22  23
HETATM   23  C4  UNL     1      -7.368 -12.779  13.168  1.00  0.00     0.366 C 
HETATM   24  O2  UNL     1      -7.544 -12.472  11.970  1.00  0.00    -0.238 OA
HETATM   25  N1  UNL     1      -6.575 -13.946  13.509  1.00  0.00    -0.282 N 
ATOM     26  H1  UNL     1      -5.589 -13.888  13.762  1.00  0.00     0.173 HD
BRANCH  25  27
HETATM   27  C5  UNL     1      -7.234 -15.083  13.465  1.00  0.00     0.152 A 
HETATM   28  N2  UNL     1      -8.506 -15.326  13.169  1.00  0.00    -0.346 N 
HETATM   29  C6  UNL     1      -8.941 -16.551  13.191  1.00  0.00     0.097 A 
ATOM     30  H2  UNL     1      -9.135 -14.560  12.926  1.00  0.00     0.167 HD
HETATM   31  C7  UNL     1      -8.058 -17.543  13.520  1.00  0.00     0.070 A 
HETATM   32  S1  UNL     1      -6.620 -16.664  13.790  1.00  0.00    -0.064 SA
ENDBRANCH  25  27
ENDBRANCH  22  23
ENDBRANCH  21  22
ENDBRANCH  19  21
ENDBRANCH  17  19
ENDBRANCH   1  17
BRANCH  14  33
HETATM   33  C18 UNL     1       0.368 -15.154  16.767  1.00  0.00     0.184 C 
BRANCH  33  34
HETATM   34  O3  UNL     1       0.851 -16.427  16.551  1.00  0.00    -0.332 OA
BRANCH  34  35
HETATM   35  C19 UNL     1      -0.056 -17.159  15.824  1.00  0.00     0.500 C 
HETATM   36  F2  UNL     1      -0.498 -16.401  14.734  1.00  0.00    -0.185 F 
HETATM   37  F3  UNL     1       0.479 -18.325  15.309  1.00  0.00    -0.185 F 
ENDBRANCH  34  35
ENDBRANCH  33  34
ENDBRANCH  14  33
TORSDOF 9
ENDMDL
MODEL 5
REMARK VINA RESULT: -8.773670621      1.059      1.196
REMARK  9 active torsions:
REMARK  status: ('A' for Active; 'I' for Inactive)
REMARK    1  A    between atoms: C2_2  and  C3_3 
REMARK    2  A    between atoms: C2_2  and  N3_15 
REMARK    3  A    between atoms: C3_3  and  O1_4 
REMARK    4  A    between atoms: O1_4  and  C4_5 
REMARK       I    between atoms: C4_5  and  N1_7 
REMARK    5  A    between atoms: N1_7  and  C5_9 
REMARK    6  A    between atoms: N3_15  and  C8_17 
REMARK    7  A    between atoms: C17_30  and  C18_31 
REMARK    8  A    between atoms: C18_31  and  O3_32 
REMARK    9  A    between atoms: O3_32  and  C19_33 
ROOT
HETATM    1  C8  UNL     1      -6.316 -14.206  17.121  1.00  0.00     0.146 A 
HETATM    2  N4  UNL     1      -6.264 -13.940  18.419  1.00  0.00    -0.336 N 
ATOM      3  H4  UNL     1      -7.123 -13.774  18.943  1.00  0.00     0.168 HD
HETATM    4  C9  UNL     1      -5.102 -13.891  19.024  1.00  0.00     0.052 A 
HETATM    5  C10 UNL     1      -4.866 -13.624  20.392  1.00  0.00     0.034 A 
HETATM    6  C11 UNL     1      -3.584 -13.608  20.878  1.00  0.00     0.040 A 
HETATM    7  C12 UNL     1      -2.460 -13.837  20.128  1.00  0.00     0.079 A 
HETATM    8  C13 UNL     1      -2.684 -14.097  18.796  1.00  0.00     0.034 A 
HETATM    9  C14 UNL     1      -3.983 -14.120  18.271  1.00  0.00     0.047 A 
HETATM   10  S2  UNL     1      -4.641 -14.397  16.722  1.00  0.00    -0.051 SA
HETATM   11  C15 UNL     1      -1.600 -14.369  17.823  1.00  0.00     0.138 C 
HETATM   12  C16 UNL     1      -1.355 -13.096  17.065  1.00  0.00     0.058 C 
HETATM   13  F1  UNL     1      -2.039 -15.328  16.926  1.00  0.00    -0.237 F 
HETATM   14  C17 UNL     1      -0.402 -14.907  18.542  1.00  0.00     0.078 C 
HETATM   15  C20 UNL     1      -0.040 -14.099  19.765  1.00  0.00     0.186 C 
HETATM   16  O4  UNL     1      -1.171 -13.828  20.574  1.00  0.00    -0.350 OA
ENDROOT
BRANCH   1  17
HETATM   17  N3  UNL     1      -7.300 -14.310  16.300  1.00  0.00    -0.364 N 
ATOM     18  H3  UNL     1      -8.039 -14.989  16.482  1.00  0.00     0.162 HD
BRANCH  17  19
HETATM   19  C2  UNL     1      -7.370 -13.479  15.124  1.00  0.00     0.104 C 
HETATM   20  C1  UNL     1      -7.168 -12.032  15.373  1.00  0.00     0.034 C 
BRANCH  19  21
HETATM   21  C3  UNL     1      -6.633 -14.103  13.968  1.00  0.00     0.205 C 
BRANCH  21  22
HETATM   22  O1  UNL     1      -7.173 -15.227  13.451  1.00  0.00    -0.302 OA
BRANCH  22  23
HETATM   23  C4  UNL     1      -6.974 -16.526  13.744  1.00  0.00     0.366 C 
HETATM   24  O2  UNL     1      -6.817 -16.938  14.913  1.00  0.00    -0.238 OA
HETATM   25  N1  UNL     1      -6.943 -17.460  12.634  1.00  0.00    -0.282 N 
ATOM     26  H1  UNL     1      -7.788 -17.849  12.217  1.00  0.00     0.173 HD
BRANCH  25  27
HETATM   27  C5  UNL     1      -5.735 -17.763  12.212  1.00  0.00     0.152 A 
HETATM   28  N2  UNL     1      -4.556 -17.245  12.540  1.00  0.00    -0.346 N 
HETATM   29  C6  UNL     1      -3.479 -17.712  11.983  1.00  0.00     0.097 A 
ATOM     30  H2  UNL     1      -4.498 -16.487  13.221  1.00  0.00     0.167 HD
HETATM   31  C7  UNL     1      -3.611 -18.730  11.076  1.00  0.00     0.070 A 
HETATM   32  S1  UNL     1      -5.300 -18.974  11.060  1.00  0.00    -0.064 SA
ENDBRANCH  25  27
ENDBRANCH  22  23
ENDBRANCH  21  22
ENDBRANCH  19  21
ENDBRANCH  17  19
ENDBRANCH   1  17
BRANCH  14  33
HETATM   33  C18 UNL     1       0.751 -15.012  17.601  1.00  0.00     0.184 C 
BRANCH  33  34
HETATM   34  O3  UNL     1       1.631 -16.038  17.873  1.00  0.00    -0.332 OA
BRANCH  34  35
HETATM   35  C19 UNL     1       1.134 -17.226  17.395  1.00  0.00     0.500 C 
HETATM   36  F2  UNL     1       0.317 -17.813  18.368  1.00  0.00    -0.185 F 
HETATM   37  F3  UNL     1       0.358 -17.071  16.262  1.00  0.00    -0.185 F 
ENDBRANCH  34  35
ENDBRANCH  33  34
ENDBRANCH  14  33
TORSDOF 9
ENDMDL
