MODEL 1
REMARK VINA RESULT: -8.708450001      0.000      0.000
REMARK  9 active torsions:
REMARK  status: ('A' for Active; 'I' for Inactive)
REMARK    1  A    between atoms: C3_5  and  C4_6 
REMARK    2  A    between atoms: C4_6  and  O1_7 
REMARK    3  A    between atoms: C4_6  and  C12_18 
REMARK    4  A    between atoms: O1_7  and  C5_8 
REMARK    5  A    between atoms: C5_8  and  C6_10 
REMARK    6  A    between atoms: C12_18  and  O3_19 
REMARK    7  A    between atoms: N2_21  and  C13_23 
REMARK    8  A    between atoms: C14_28  and  C15_29 
REMARK    9  A    between atoms: C15_29  and  C16_30 
ROOT
HETATM    1  C4  UNL     1      -4.517 -15.572  14.621  1.00  0.00     0.281 C 
ENDROOT
BRANCH   1   2
HETATM    2  C3  UNL     1      -5.903 -15.863  14.098  1.00  0.00     0.163 A 
HETATM    3  N1  UNL     1      -6.661 -15.048  13.348  1.00  0.00    -0.338 N 
HETATM    4  C2  UNL     1      -7.815 -15.661  13.093  1.00  0.00     0.053 A 
ATOM      5  H1  UNL     1      -6.397 -14.116  13.028  1.00  0.00     0.167 HD
HETATM    6  C1  UNL     1      -8.990 -15.187  12.307  1.00  0.00     0.072 C 
HETATM    7  C17 UNL     1      -7.749 -16.890  13.712  1.00  0.00     0.169 A 
HETATM    8  O6  UNL     1      -6.582 -16.956  14.296  1.00  0.00    -0.280 OA
HETATM    9 CL3  UNL     1      -9.011 -18.133  13.704  1.00  0.00    -0.054 Cl
ENDBRANCH   1   2
BRANCH   1  10
HETATM   10  O1  UNL     1      -4.322 -14.149  14.397  1.00  0.00    -0.295 OA
BRANCH  10  11
HETATM   11  C5  UNL     1      -4.906 -13.322  15.381  1.00  0.00     0.296 C 
HETATM   12  O2  UNL     1      -5.705 -12.407  15.046  1.00  0.00    -0.259 OA
BRANCH  11  13
HETATM   13  C6  UNL     1      -4.602 -13.512  16.783  1.00  0.00     0.061 A 
HETATM   14  C7  UNL     1      -3.329 -13.426  17.282  1.00  0.00     0.021 A 
HETATM   15  C8  UNL     1      -3.107 -13.634  18.642  1.00  0.00     0.025 A 
HETATM   16  C9  UNL     1      -4.141 -13.926  19.508  1.00  0.00     0.035 A 
HETATM   17 CL1  UNL     1      -3.868 -14.199  21.215  1.00  0.00    -0.084 Cl
HETATM   18  C10 UNL     1      -5.405 -13.998  18.944  1.00  0.00     0.048 A 
HETATM   19  C11 UNL     1      -5.668 -13.804  17.632  1.00  0.00     0.051 A 
HETATM   20 CL2  UNL     1      -7.285 -13.906  16.976  1.00  0.00    -0.083 Cl
ENDBRANCH  11  13
ENDBRANCH  10  11
ENDBRANCH   1  10
BRANCH   1  21
HETATM   21  C12 UNL     1      -3.472 -16.259  13.833  1.00  0.00     0.156 C 
HETATM   22  N2  UNL     1      -2.201 -16.362  14.106  1.00  0.00    -0.317 N 
ATOM     23  H2  UNL     1      -1.744 -16.444  13.198  1.00  0.00     0.170 HD
BRANCH  21  24
HETATM   24  O3  UNL     1      -3.878 -16.834  12.705  1.00  0.00    -0.347 OA
ATOM     25  H3  UNL     1      -3.334 -17.543  12.380  1.00  0.00     0.219 HD
ENDBRANCH  21  24
BRANCH  22  26
HETATM   26  C13 UNL     1      -1.284 -16.410  14.925  1.00  0.00     0.167 A 
HETATM   27  N3  UNL     1      -0.474 -17.365  15.370  1.00  0.00    -0.279 N 
HETATM   28  N4  UNL     1       0.394 -17.121  16.257  1.00  0.00    -0.295 N 
ATOM     29  H3  UNL     1      -0.554 -18.309  14.991  1.00  0.00     0.189 HD
HETATM   30  C14 UNL     1       0.512 -15.905  16.759  1.00  0.00     0.079 A 
ATOM     31  H4  UNL     1       1.007 -17.866  16.587  1.00  0.00     0.187 HD
HETATM   32  S1  UNL     1      -0.693 -15.059  15.908  1.00  0.00    -0.037 SA
BRANCH  30  33
HETATM   33  C15 UNL     1       1.461 -15.411  17.821  1.00  0.00     0.179 C 
BRANCH  33  34
HETATM   34  C16 UNL     1       0.838 -14.308  18.545  1.00  0.00     0.178 C 
HETATM   35  O4  UNL     1       0.068 -14.415  19.540  1.00  0.00    -0.648 OA
HETATM   36  O5  UNL     1       1.137 -13.009  18.072  1.00  0.00    -0.648 OA
ENDBRANCH  33  34
ENDBRANCH  30  33
ENDBRANCH  22  26
ENDBRANCH   1  21
TORSDOF 9
ENDMDL
MODEL 2
REMARK VINA RESULT: -8.630871741      3.711      6.769
REMARK  9 active torsions:
REMARK  status: ('A' for Active; 'I' for Inactive)
REMARK    1  A    between atoms: C3_5  and  C4_6 
REMARK    2  A    between atoms: C4_6  and  O1_7 
REMARK    3  A    between atoms: C4_6  and  C12_18 
REMARK    4  A    between atoms: O1_7  and  C5_8 
REMARK    5  A    between atoms: C5_8  and  C6_10 
REMARK    6  A    between atoms: C12_18  and  O3_19 
REMARK    7  A    between atoms: N2_21  and  C13_23 
REMARK    8  A    between atoms: C14_28  and  C15_29 
REMARK    9  A    between atoms: C15_29  and  C16_30 
ROOT
HETATM    1  C4  UNL     1      -5.116 -15.190  14.835  1.00  0.00     0.281 C 
ENDROOT
BRANCH   1   2
HETATM    2  C3  UNL     1      -4.385 -16.253  14.051  1.00  0.00     0.163 A 
HETATM    3  N1  UNL     1      -4.810 -16.850  12.927  1.00  0.00    -0.338 N 
HETATM    4  C2  UNL     1      -3.888 -17.731  12.543  1.00  0.00     0.053 A 
ATOM      5  H1  UNL     1      -5.690 -16.660  12.447  1.00  0.00     0.167 HD
HETATM    6  C1  UNL     1      -3.878 -18.644  11.364  1.00  0.00     0.072 C 
HETATM    7  C17 UNL     1      -2.872 -17.662  13.471  1.00  0.00     0.169 A 
HETATM    8  O6  UNL     1      -3.223 -16.761  14.349  1.00  0.00    -0.280 OA
HETATM    9 CL3  UNL     1      -1.380 -18.617  13.460  1.00  0.00    -0.054 Cl
ENDBRANCH   1   2
BRANCH   1  10
HETATM   10  O1  UNL     1      -4.631 -15.326  16.198  1.00  0.00    -0.295 OA
BRANCH  10  11
HETATM   11  C5  UNL     1      -4.296 -14.104  16.818  1.00  0.00     0.296 C 
HETATM   12  O2  UNL     1      -5.200 -13.286  17.138  1.00  0.00    -0.259 OA
BRANCH  11  13
HETATM   13  C6  UNL     1      -2.915 -13.769  17.097  1.00  0.00     0.061 A 
HETATM   14  C7  UNL     1      -2.013 -13.469  16.112  1.00  0.00     0.021 A 
HETATM   15  C8  UNL     1      -0.695 -13.170  16.453  1.00  0.00     0.025 A 
HETATM   16  C9  UNL     1      -0.270 -13.166  17.765  1.00  0.00     0.035 A 
HETATM   17 CL1  UNL     1       1.385 -12.802  18.200  1.00  0.00    -0.084 Cl
HETATM   18  C10 UNL     1      -1.229 -13.475  18.716  1.00  0.00     0.048 A 
HETATM   19  C11 UNL     1      -2.518 -13.772  18.433  1.00  0.00     0.051 A 
HETATM   20 CL2  UNL     1      -3.685 -14.153  19.676  1.00  0.00    -0.083 Cl
ENDBRANCH  11  13
ENDBRANCH  10  11
ENDBRANCH   1  10
BRANCH   1  21
HETATM   21  C12 UNL     1      -6.572 -15.445  14.890  1.00  0.00     0.156 C 
HETATM   22  N2  UNL     1      -7.530 -14.580  15.075  1.00  0.00    -0.317 N 
ATOM     23  H2  UNL     1      -8.279 -15.110  15.520  1.00  0.00     0.170 HD
BRANCH  21  24
HETATM   24  O3  UNL     1      -6.947 -16.712  14.740  1.00  0.00    -0.347 OA
ATOM     25  H3  UNL     1      -7.717 -16.857  14.202  1.00  0.00     0.219 HD
ENDBRANCH  21  24
BRANCH  22  26
HETATM   26  C13 UNL     1      -7.971 -13.436  14.974  1.00  0.00     0.167 A 
HETATM   27  N3  UNL     1      -7.947 -12.351  15.743  1.00  0.00    -0.279 N 
HETATM   28  N4  UNL     1      -8.518 -11.283  15.378  1.00  0.00    -0.295 N 
ATOM     29  H3  UNL     1      -7.462 -12.381  16.640  1.00  0.00     0.189 HD
HETATM   30  C14 UNL     1      -9.150 -11.225  14.221  1.00  0.00     0.079 A 
ATOM     31  H4  UNL     1      -8.489 -10.460  15.981  1.00  0.00     0.187 HD
HETATM   32  S1  UNL     1      -8.914 -12.797  13.616  1.00  0.00    -0.037 SA
BRANCH  30  33
HETATM   33  C15 UNL     1      -9.899 -10.067  13.611  1.00  0.00     0.179 C 
BRANCH  33  34
HETATM   34  C16 UNL     1      -8.941  -9.062  13.161  1.00  0.00     0.178 C 
HETATM   35  O4  UNL     1      -9.174  -7.830  13.010  1.00  0.00    -0.648 OA
HETATM   36  O5  UNL     1      -7.639  -9.533  12.872  1.00  0.00    -0.648 OA
ENDBRANCH  33  34
ENDBRANCH  30  33
ENDBRANCH  22  26
ENDBRANCH   1  21
TORSDOF 9
ENDMDL
MODEL 3
REMARK VINA RESULT: -8.627809720      3.287      4.973
REMARK  9 active torsions:
REMARK  status: ('A' for Active; 'I' for Inactive)
REMARK    1  A    between atoms: C3_5  and  C4_6 
REMARK    2  A    between atoms: C4_6  and  O1_7 
REMARK    3  A    between atoms: C4_6  and  C12_18 
REMARK    4  A    between atoms: O1_7  and  C5_8 
REMARK    5  A    between atoms: C5_8  and  C6_10 
REMARK    6  A    between atoms: C12_18  and  O3_19 
REMARK    7  A    between atoms: N2_21  and  C13_23 
REMARK    8  A    between atoms: C14_28  and  C15_29 
REMARK    9  A    between atoms: C15_29  and  C16_30 
ROOT
HETATM    1  C4  UNL     1      -6.236 -13.351  16.870  1.00  0.00     0.281 C 
ENDROOT
BRANCH   1   2
HETATM    2  C3  UNL     1      -7.716 -13.065  16.926  1.00  0.00     0.163 A 
HETATM    3  N1  UNL     1      -8.622 -13.688  17.695  1.00  0.00    -0.338 N 
HETATM    4  C2  UNL     1      -9.818 -13.154  17.457  1.00  0.00     0.053 A 
ATOM      5  H1  UNL     1      -8.426 -14.444  18.353  1.00  0.00     0.167 HD
HETATM    6  C1  UNL     1     -11.144 -13.488  18.051  1.00  0.00     0.072 C 
HETATM    7  C17 UNL     1      -9.625 -12.174  16.509  1.00  0.00     0.169 A 
HETATM    8  O6  UNL     1      -8.349 -12.164  16.229  1.00  0.00    -0.280 OA
HETATM    9 CL3  UNL     1     -10.878 -11.131  15.813  1.00  0.00    -0.054 Cl
ENDBRANCH   1   2
BRANCH   1  10
HETATM   10  O1  UNL     1      -6.127 -14.653  16.230  1.00  0.00    -0.295 OA
BRANCH  10  11
HETATM   11  C5  UNL     1      -5.607 -14.611  14.919  1.00  0.00     0.296 C 
HETATM   12  O2  UNL     1      -6.022 -13.749  14.099  1.00  0.00    -0.259 OA
BRANCH  11  13
HETATM   13  C6  UNL     1      -4.592 -15.552  14.495  1.00  0.00     0.061 A 
HETATM   14  C7  UNL     1      -3.252 -15.308  14.637  1.00  0.00     0.021 A 
HETATM   15  C8  UNL     1      -2.329 -16.253  14.193  1.00  0.00     0.025 A 
HETATM   16  C9  UNL     1      -2.730 -17.439  13.612  1.00  0.00     0.035 A 
HETATM   17 CL1  UNL     1      -1.577 -18.625  13.042  1.00  0.00    -0.084 Cl
HETATM   18  C10 UNL     1      -4.098 -17.629  13.497  1.00  0.00     0.048 A 
HETATM   19  C11 UNL     1      -5.029 -16.740  13.912  1.00  0.00     0.051 A 
HETATM   20 CL2  UNL     1      -6.744 -17.035  13.744  1.00  0.00    -0.083 Cl
ENDBRANCH  11  13
ENDBRANCH  10  11
ENDBRANCH   1  10
BRANCH   1  21
HETATM   21  C12 UNL     1      -5.650 -13.508  18.219  1.00  0.00     0.156 C 
HETATM   22  N2  UNL     1      -4.419 -13.808  18.528  1.00  0.00    -0.317 N 
ATOM     23  H2  UNL     1      -4.485 -14.284  19.428  1.00  0.00     0.170 HD
BRANCH  21  24
HETATM   24  O3  UNL     1      -6.484 -13.327  19.239  1.00  0.00    -0.347 OA
ATOM     25  H3  UNL     1      -7.104 -14.029  19.399  1.00  0.00     0.219 HD
ENDBRANCH  21  24
BRANCH  22  26
HETATM   26  C13 UNL     1      -3.218 -13.797  18.264  1.00  0.00     0.167 A 
HETATM   27  N3  UNL     1      -2.479 -13.291  17.281  1.00  0.00    -0.279 N 
HETATM   28  N4  UNL     1      -1.225 -13.454  17.260  1.00  0.00    -0.295 N 
ATOM     29  H3  UNL     1      -2.931 -12.765  16.533  1.00  0.00     0.189 HD
HETATM   30  C14 UNL     1      -0.623 -14.132  18.220  1.00  0.00     0.079 A 
ATOM     31  H4  UNL     1      -0.674 -13.059  16.497  1.00  0.00     0.187 HD
HETATM   32  S1  UNL     1      -1.934 -14.563  19.215  1.00  0.00    -0.037 SA
BRANCH  30  33
HETATM   33  C15 UNL     1       0.842 -14.450  18.374  1.00  0.00     0.179 C 
BRANCH  33  34
HETATM   34  C16 UNL     1       1.182 -15.574  17.508  1.00  0.00     0.178 C 
HETATM   35  O4  UNL     1       1.825 -16.606  17.850  1.00  0.00    -0.648 OA
HETATM   36  O5  UNL     1       0.744 -15.478  16.167  1.00  0.00    -0.648 OA
ENDBRANCH  33  34
ENDBRANCH  30  33
ENDBRANCH  22  26
ENDBRANCH   1  21
TORSDOF 9
ENDMDL
MODEL 4
REMARK VINA RESULT: -8.603505486      3.974      8.020
REMARK  9 active torsions:
REMARK  status: ('A' for Active; 'I' for Inactive)
REMARK    1  A    between atoms: C3_5  and  C4_6 
REMARK    2  A    between atoms: C4_6  and  O1_7 
REMARK    3  A    between atoms: C4_6  and  C12_18 
REMARK    4  A    between atoms: O1_7  and  C5_8 
REMARK    5  A    between atoms: C5_8  and  C6_10 
REMARK    6  A    between atoms: C12_18  and  O3_19 
REMARK    7  A    between atoms: N2_21  and  C13_23 
REMARK    8  A    between atoms: C14_28  and  C15_29 
REMARK    9  A    between atoms: C15_29  and  C16_30 
ROOT
HETATM    1  C4  UNL     1      -6.093 -14.167  16.871  1.00  0.00     0.281 C 
ENDROOT
BRANCH   1   2
HETATM    2  C3  UNL     1      -5.090 -14.061  17.994  1.00  0.00     0.163 A 
HETATM    3  N1  UNL     1      -5.360 -14.070  19.308  1.00  0.00    -0.338 N 
HETATM    4  C2  UNL     1      -4.213 -13.953  19.975  1.00  0.00     0.053 A 
ATOM      5  H1  UNL     1      -6.287 -14.152  19.726  1.00  0.00     0.167 HD
HETATM    6  C1  UNL     1      -3.968 -13.913  21.445  1.00  0.00     0.072 C 
HETATM    7  C17 UNL     1      -3.217 -13.872  19.027  1.00  0.00     0.169 A 
HETATM    8  O6  UNL     1      -3.800 -13.943  17.860  1.00  0.00    -0.280 OA
HETATM    9 CL3  UNL     1      -1.482 -13.705  19.345  1.00  0.00    -0.054 Cl
ENDBRANCH   1   2
BRANCH   1  10
HETATM   10  O1  UNL     1      -5.490 -13.451  15.758  1.00  0.00    -0.295 OA
BRANCH  10  11
HETATM   11  C5  UNL     1      -5.462 -14.178  14.549  1.00  0.00     0.296 C 
HETATM   12  O2  UNL     1      -6.336 -13.972  13.665  1.00  0.00    -0.259 OA
BRANCH  11  13
HETATM   13  C6  UNL     1      -4.433 -15.167  14.303  1.00  0.00     0.061 A 
HETATM   14  C7  UNL     1      -3.099 -14.858  14.290  1.00  0.00     0.021 A 
HETATM   15  C8  UNL     1      -2.163 -15.858  14.032  1.00  0.00     0.025 A 
HETATM   16  C9  UNL     1      -2.545 -17.161  13.790  1.00  0.00     0.035 A 
HETATM   17 CL1  UNL     1      -1.377 -18.420  13.454  1.00  0.00    -0.084 Cl
HETATM   18  C10 UNL     1      -3.908 -17.412  13.819  1.00  0.00     0.048 A 
HETATM   19  C11 UNL     1      -4.851 -16.474  14.063  1.00  0.00     0.051 A 
HETATM   20 CL2  UNL     1      -6.558 -16.849  14.089  1.00  0.00    -0.083 Cl
ENDBRANCH  11  13
ENDBRANCH  10  11
ENDBRANCH   1  10
BRANCH   1  21
HETATM   21  C12 UNL     1      -7.351 -13.455  17.182  1.00  0.00     0.156 C 
HETATM   22  N2  UNL     1      -7.832 -12.389  16.605  1.00  0.00    -0.317 N 
ATOM     23  H2  UNL     1      -8.387 -11.929  17.327  1.00  0.00     0.170 HD
BRANCH  21  24
HETATM   24  O3  UNL     1      -8.075 -13.961  18.176  1.00  0.00    -0.347 OA
ATOM     25  H3  UNL     1      -8.807 -14.510  17.919  1.00  0.00     0.219 HD
ENDBRANCH  21  24
BRANCH  22  26
HETATM   26  C13 UNL     1      -7.943 -11.667  15.615  1.00  0.00     0.167 A 
HETATM   27  N3  UNL     1      -7.201 -10.712  15.064  1.00  0.00    -0.279 N 
HETATM   28  N4  UNL     1      -7.586 -10.110  14.019  1.00  0.00    -0.295 N 
ATOM     29  H3  UNL     1      -6.309 -10.460  15.489  1.00  0.00     0.189 HD
HETATM   30  C14 UNL     1      -8.738 -10.423  13.455  1.00  0.00     0.079 A 
ATOM     31  H4  UNL     1      -7.003  -9.380  13.611  1.00  0.00     0.187 HD
HETATM   32  S1  UNL     1      -9.305 -11.655  14.481  1.00  0.00    -0.037 SA
BRANCH  30  33
HETATM   33  C15 UNL     1      -9.380  -9.826  12.229  1.00  0.00     0.179 C 
BRANCH  33  34
HETATM   34  C16 UNL     1      -8.373  -9.687  11.181  1.00  0.00     0.178 C 
HETATM   35  O4  UNL     1      -7.192 -10.132  11.223  1.00  0.00    -0.648 OA
HETATM   36  O5  UNL     1      -8.778  -8.985  10.022  1.00  0.00    -0.648 OA
ENDBRANCH  33  34
ENDBRANCH  30  33
ENDBRANCH  22  26
ENDBRANCH   1  21
TORSDOF 9
ENDMDL
MODEL 5
REMARK VINA RESULT: -8.589378196      3.567      5.053
REMARK  9 active torsions:
REMARK  status: ('A' for Active; 'I' for Inactive)
REMARK    1  A    between atoms: C3_5  and  C4_6 
REMARK    2  A    between atoms: C4_6  and  O1_7 
REMARK    3  A    between atoms: C4_6  and  C12_18 
REMARK    4  A    between atoms: O1_7  and  C5_8 
REMARK    5  A    between atoms: C5_8  and  C6_10 
REMARK    6  A    between atoms: C12_18  and  O3_19 
REMARK    7  A    between atoms: N2_21  and  C13_23 
REMARK    8  A    between atoms: C14_28  and  C15_29 
REMARK    9  A    between atoms: C15_29  and  C16_30 
ROOT
HETATM    1  C4  UNL     1      -7.321 -13.175  16.519  1.00  0.00     0.281 C 
ENDROOT
BRANCH   1   2
HETATM    2  C3  UNL     1      -8.724 -12.677  16.273  1.00  0.00     0.163 A 
HETATM    3  N1  UNL     1      -9.070 -11.497  15.736  1.00  0.00    -0.338 N 
HETATM    4  C2  UNL     1     -10.399 -11.428  15.687  1.00  0.00     0.053 A 
ATOM      5  H1  UNL     1      -8.423 -10.774  15.418  1.00  0.00     0.167 HD
HETATM    6  C1  UNL     1     -11.277 -10.334  15.181  1.00  0.00     0.072 C 
HETATM    7  C17 UNL     1     -10.870 -12.610  16.214  1.00  0.00     0.169 A 
HETATM    8  O6  UNL     1      -9.824 -13.319  16.546  1.00  0.00    -0.280 OA
HETATM    9 CL3  UNL     1     -12.572 -13.068  16.398  1.00  0.00    -0.054 Cl
ENDBRANCH   1   2
BRANCH   1  10
HETATM   10  O1  UNL     1      -7.226 -14.419  15.772  1.00  0.00    -0.295 OA
BRANCH  10  11
HETATM   11  C5  UNL     1      -6.492 -14.318  14.571  1.00  0.00     0.296 C 
HETATM   12  O2  UNL     1      -6.856 -13.514  13.671  1.00  0.00    -0.259 OA
BRANCH  11  13
HETATM   13  C6  UNL     1      -5.314 -15.131  14.353  1.00  0.00     0.061 A 
HETATM   14  C7  UNL     1      -4.043 -14.655  14.536  1.00  0.00     0.021 A 
HETATM   15  C8  UNL     1      -2.954 -15.489  14.293  1.00  0.00     0.025 A 
HETATM   16  C9  UNL     1      -3.120 -16.792  13.872  1.00  0.00     0.035 A 
HETATM   17 CL1  UNL     1      -1.757 -17.842  13.554  1.00  0.00    -0.084 Cl
HETATM   18  C10 UNL     1      -4.429 -17.216  13.705  1.00  0.00     0.048 A 
HETATM   19  C11 UNL     1      -5.516 -16.443  13.928  1.00  0.00     0.051 A 
HETATM   20 CL2  UNL     1      -7.146 -17.032  13.703  1.00  0.00    -0.083 Cl
ENDBRANCH  11  13
ENDBRANCH  10  11
ENDBRANCH   1  10
BRANCH   1  21
HETATM   21  C12 UNL     1      -7.100 -13.531  17.937  1.00  0.00     0.156 C 
HETATM   22  N2  UNL     1      -5.978 -13.859  18.515  1.00  0.00    -0.317 N 
ATOM     23  H2  UNL     1      -6.250 -14.470  19.286  1.00  0.00     0.170 HD
BRANCH  21  24
HETATM   24  O3  UNL     1      -8.179 -13.520  18.714  1.00  0.00    -0.347 OA
ATOM     25  H3  UNL     1      -8.291 -12.750  19.260  1.00  0.00     0.219 HD
ENDBRANCH  21  24
BRANCH  22  26
HETATM   26  C13 UNL     1      -4.752 -13.792  18.584  1.00  0.00     0.167 A 
HETATM   27  N3  UNL     1      -3.779 -13.513  17.722  1.00  0.00    -0.279 N 
HETATM   28  N4  UNL     1      -2.566 -13.536  18.081  1.00  0.00    -0.295 N 
ATOM     29  H3  UNL     1      -4.013 -13.276  16.758  1.00  0.00     0.189 HD
HETATM   30  C14 UNL     1      -2.243 -13.839  19.325  1.00  0.00     0.079 A 
ATOM     31  H4  UNL     1      -1.832 -13.318  17.406  1.00  0.00     0.187 HD
HETATM   32  S1  UNL     1      -3.769 -14.107  20.025  1.00  0.00    -0.037 SA
BRANCH  30  33
HETATM   33  C15 UNL     1      -0.873 -13.935  19.947  1.00  0.00     0.179 C 
BRANCH  33  34
HETATM   34  C16 UNL     1       0.134 -13.915  18.891  1.00  0.00     0.178 C 
HETATM   35  O4  UNL     1       0.823 -14.901  18.505  1.00  0.00    -0.648 OA
HETATM   36  O5  UNL     1       0.343 -12.669  18.258  1.00  0.00    -0.648 OA
ENDBRANCH  33  34
ENDBRANCH  30  33
ENDBRANCH  22  26
ENDBRANCH   1  21
TORSDOF 9
ENDMDL
