MODEL 1
REMARK VINA RESULT: -9.248221782      0.000      0.000
REMARK  6 active torsions:
REMARK  status: ('A' for Active; 'I' for Inactive)
REMARK    1  A    between atoms: O1_2  and  C2_3 
REMARK    2  A    between atoms: C4_6  and  S1_7 
REMARK    3  A    between atoms: S1_7  and  N1_10 
REMARK    4  A    between atoms: N1_10  and  C5_12 
REMARK    5  A    between atoms: C6_13  and  C7_14 
REMARK    6  A    between atoms: C7_14  and  C8_16 
ROOT
HETATM    1  C5  UNL     1      -3.436 -15.654  14.211  1.00  0.00     0.098 A 
HETATM    2  C6  UNL     1      -2.507 -15.176  15.110  1.00  0.00     0.128 A 
HETATM    3  N2  UNL     1      -1.473 -16.061  15.041  1.00  0.00    -0.293 N 
ATOM      4  H2  UNL     1      -0.616 -15.993  15.589  1.00  0.00     0.187 HD
HETATM    5  N3  UNL     1      -1.727 -17.017  14.172  1.00  0.00    -0.298 N 
HETATM    6  C14 UNL     1      -0.850 -18.129  13.839  1.00  0.00     0.177 C 
HETATM    7  C15 UNL     1      -2.947 -16.802  13.626  1.00  0.00     0.054 A 
HETATM    8  C16 UNL     1      -3.546 -17.692  12.589  1.00  0.00     0.072 C 
ENDROOT
BRANCH   1   9
HETATM    9  N1  UNL     1      -4.686 -15.091  13.912  1.00  0.00    -0.275 N 
ATOM     10  H1  UNL     1      -4.691 -14.300  13.268  1.00  0.00     0.179 HD
BRANCH   9  11
HETATM   11  S1  UNL     1      -6.208 -15.599  14.523  1.00  0.00     0.282 S 
HETATM   12  O2  UNL     1      -6.928 -16.567  13.654  1.00  0.00    -0.199 OA
HETATM   13  O3  UNL     1      -5.963 -16.302  15.853  1.00  0.00    -0.199 OA
BRANCH  11  14
HETATM   14  C4  UNL     1      -7.213 -14.185  14.863  1.00  0.00     0.194 A 
HETATM   15  C3  UNL     1      -7.583 -13.781  16.154  1.00  0.00     0.193 A 
HETATM   16  C2  UNL     1      -8.362 -12.651  16.020  1.00  0.00     0.151 A 
HETATM   17  F1  UNL     1      -7.254 -14.366  17.320  1.00  0.00    -0.200 F 
HETATM   18  C18 UNL     1      -8.472 -12.362  14.678  1.00  0.00     0.156 A 
HETATM   19  N4  UNL     1      -7.762 -13.315  14.004  1.00  0.00    -0.324 N 
HETATM   20  N5  UNL     1      -9.175 -11.295  14.054  1.00  0.00    -0.079 NA
HETATM   21  C17 UNL     1      -7.634 -13.352  12.567  1.00  0.00     0.158 C 
BRANCH  16  22
HETATM   22  O1  UNL     1      -8.972 -11.873  17.000  1.00  0.00    -0.350 OA
HETATM   23  C1  UNL     1      -9.829 -12.415  17.982  1.00  0.00     0.210 C 
ENDBRANCH  16  22
ENDBRANCH  11  14
ENDBRANCH   9  11
ENDBRANCH   1   9
BRANCH   2  24
HETATM   24  C7  UNL     1      -2.541 -13.982  15.930  1.00  0.00     0.214 C 
HETATM   25  O4  UNL     1      -2.225 -12.851  15.420  1.00  0.00    -0.285 OA
BRANCH  24  26
HETATM   26  C8  UNL     1      -2.915 -13.964  17.335  1.00  0.00     0.038 A 
HETATM   27  C9  UNL     1      -4.230 -13.871  17.720  1.00  0.00     0.019 A 
HETATM   28  C10 UNL     1      -4.503 -13.845  19.090  1.00  0.00     0.025 A 
HETATM   29  C11 UNL     1      -3.521 -13.908  20.029  1.00  0.00     0.035 A 
HETATM   30 CL1  UNL     1      -3.851 -13.876  21.763  1.00  0.00    -0.084 Cl
HETATM   31  C12 UNL     1      -2.213 -14.000  19.651  1.00  0.00     0.048 A 
HETATM   32  C13 UNL     1      -1.922 -14.028  18.325  1.00  0.00     0.050 A 
HETATM   33 CL2  UNL     1      -0.237 -14.146  17.801  1.00  0.00    -0.083 Cl
ENDBRANCH  24  26
ENDBRANCH   2  24
TORSDOF 6
ENDMDL
MODEL 2
REMARK VINA RESULT: -8.724592319      1.333      1.546
REMARK  6 active torsions:
REMARK  status: ('A' for Active; 'I' for Inactive)
REMARK    1  A    between atoms: O1_2  and  C2_3 
REMARK    2  A    between atoms: C4_6  and  S1_7 
REMARK    3  A    between atoms: S1_7  and  N1_10 
REMARK    4  A    between atoms: N1_10  and  C5_12 
REMARK    5  A    between atoms: C6_13  and  C7_14 
REMARK    6  A    between atoms: C7_14  and  C8_16 
ROOT
HETATM    1  C5  UNL     1      -3.271 -15.855  14.178  1.00  0.00     0.098 A 
HETATM    2  C6  UNL     1      -2.429 -15.270  15.100  1.00  0.00     0.128 A 
HETATM    3  N2  UNL     1      -1.331 -16.076  15.125  1.00  0.00    -0.293 N 
ATOM      4  H2  UNL     1      -0.513 -15.920  15.714  1.00  0.00     0.187 HD
HETATM    5  N3  UNL     1      -1.466 -17.084  14.290  1.00  0.00    -0.298 N 
HETATM    6  C14 UNL     1      -0.494 -18.140  14.054  1.00  0.00     0.177 C 
HETATM    7  C15 UNL     1      -2.667 -16.986  13.673  1.00  0.00     0.054 A 
HETATM    8  C16 UNL     1      -3.142 -17.962  12.649  1.00  0.00     0.072 C 
ENDROOT
BRANCH   1   9
HETATM    9  N1  UNL     1      -4.540 -15.400  13.790  1.00  0.00    -0.275 N 
ATOM     10  H1  UNL     1      -4.569 -14.580  13.184  1.00  0.00     0.179 HD
BRANCH   9  11
HETATM   11  S1  UNL     1      -6.050 -16.087  14.233  1.00  0.00     0.282 S 
HETATM   12  O2  UNL     1      -6.425 -17.300  13.460  1.00  0.00    -0.199 OA
HETATM   13  O3  UNL     1      -5.957 -16.509  15.694  1.00  0.00    -0.199 OA
BRANCH  11  14
HETATM   14  C4  UNL     1      -7.314 -14.855  14.128  1.00  0.00     0.194 A 
HETATM   15  C3  UNL     1      -7.141 -13.521  14.525  1.00  0.00     0.193 A 
HETATM   16  C2  UNL     1      -8.335 -12.870  14.300  1.00  0.00     0.151 A 
HETATM   17  F1  UNL     1      -6.030 -12.956  15.032  1.00  0.00    -0.200 F 
HETATM   18  C18 UNL     1      -9.228 -13.779  13.777  1.00  0.00     0.156 A 
HETATM   19  N4  UNL     1      -8.574 -14.975  13.686  1.00  0.00    -0.324 N 
HETATM   20  N5  UNL     1     -10.580 -13.573  13.387  1.00  0.00    -0.079 NA
HETATM   21  C17 UNL     1      -9.178 -16.183  13.178  1.00  0.00     0.158 C 
BRANCH  16  22
HETATM   22  O1  UNL     1      -8.677 -11.540  14.527  1.00  0.00    -0.350 OA
HETATM   23  C1  UNL     1      -8.204 -10.482  13.722  1.00  0.00     0.210 C 
ENDBRANCH  16  22
ENDBRANCH  11  14
ENDBRANCH   9  11
ENDBRANCH   1   9
BRANCH   2  24
HETATM   24  C7  UNL     1      -2.595 -14.048  15.861  1.00  0.00     0.214 C 
HETATM   25  O4  UNL     1      -2.397 -12.916  15.298  1.00  0.00    -0.285 OA
BRANCH  24  26
HETATM   26  C8  UNL     1      -2.979 -14.002  17.263  1.00  0.00     0.038 A 
HETATM   27  C9  UNL     1      -4.300 -13.989  17.639  1.00  0.00     0.019 A 
HETATM   28  C10 UNL     1      -4.584 -13.929  19.005  1.00  0.00     0.025 A 
HETATM   29  C11 UNL     1      -3.606 -13.885  19.950  1.00  0.00     0.035 A 
HETATM   30 CL1  UNL     1      -3.949 -13.809  21.680  1.00  0.00    -0.084 Cl
HETATM   31  C12 UNL     1      -2.292 -13.897  19.581  1.00  0.00     0.048 A 
HETATM   32  C13 UNL     1      -1.991 -13.955  18.259  1.00  0.00     0.050 A 
HETATM   33 CL2  UNL     1      -0.298 -13.972  17.746  1.00  0.00    -0.083 Cl
ENDBRANCH  24  26
ENDBRANCH   2  24
TORSDOF 6
ENDMDL
MODEL 3
REMARK VINA RESULT: -8.524913893      3.281      6.954
REMARK  6 active torsions:
REMARK  status: ('A' for Active; 'I' for Inactive)
REMARK    1  A    between atoms: O1_2  and  C2_3 
REMARK    2  A    between atoms: C4_6  and  S1_7 
REMARK    3  A    between atoms: S1_7  and  N1_10 
REMARK    4  A    between atoms: N1_10  and  C5_12 
REMARK    5  A    between atoms: C6_13  and  C7_14 
REMARK    6  A    between atoms: C7_14  and  C8_16 
ROOT
HETATM    1  C5  UNL     1      -3.310 -13.939  17.931  1.00  0.00     0.098 A 
HETATM    2  C6  UNL     1      -4.661 -14.214  17.947  1.00  0.00     0.128 A 
HETATM    3  N2  UNL     1      -5.010 -14.149  19.263  1.00  0.00    -0.293 N 
ATOM      4  H2  UNL     1      -5.953 -14.306  19.619  1.00  0.00     0.187 HD
HETATM    5  N3  UNL     1      -3.970 -13.857  20.014  1.00  0.00    -0.298 N 
HETATM    6  C14 UNL     1      -3.971 -13.706  21.460  1.00  0.00     0.177 C 
HETATM    7  C15 UNL     1      -2.882 -13.715  19.221  1.00  0.00     0.054 A 
HETATM    8  C16 UNL     1      -1.528 -13.369  19.746  1.00  0.00     0.072 C 
ENDROOT
BRANCH   1   9
HETATM    9  N1  UNL     1      -2.475 -13.884  16.804  1.00  0.00    -0.275 N 
ATOM     10  H1  UNL     1      -2.684 -13.165  16.112  1.00  0.00     0.179 HD
BRANCH   9  11
HETATM   11  S1  UNL     1      -1.138 -14.909  16.474  1.00  0.00     0.282 S 
HETATM   12  O2  UNL     1       0.122 -14.190  16.146  1.00  0.00    -0.199 OA
HETATM   13  O3  UNL     1      -0.860 -15.729  17.728  1.00  0.00    -0.199 OA
BRANCH  11  14
HETATM   14  C4  UNL     1      -1.566 -16.050  15.193  1.00  0.00     0.194 A 
HETATM   15  C3  UNL     1      -2.618 -15.848  14.287  1.00  0.00     0.193 A 
HETATM   16  C2  UNL     1      -2.648 -16.942  13.448  1.00  0.00     0.151 A 
HETATM   17  F1  UNL     1      -3.454 -14.796  14.225  1.00  0.00    -0.200 F 
HETATM   18  C18 UNL     1      -1.639 -17.800  13.825  1.00  0.00     0.156 A 
HETATM   19  N4  UNL     1      -1.002 -17.226  14.889  1.00  0.00    -0.324 N 
HETATM   20  N5  UNL     1      -1.281 -19.054  13.257  1.00  0.00    -0.079 NA
HETATM   21  C17 UNL     1       0.121 -17.825  15.569  1.00  0.00     0.158 C 
BRANCH  16  22
HETATM   22  O1  UNL     1      -3.501 -17.221  12.385  1.00  0.00    -0.350 OA
HETATM   23  C1  UNL     1      -4.854 -17.581  12.565  1.00  0.00     0.210 C 
ENDBRANCH  16  22
ENDBRANCH  11  14
ENDBRANCH   9  11
ENDBRANCH   1   9
BRANCH   2  24
HETATM   24  C7  UNL     1      -5.567 -14.468  16.846  1.00  0.00     0.214 C 
HETATM   25  O4  UNL     1      -5.766 -15.669  16.450  1.00  0.00    -0.285 OA
BRANCH  24  26
HETATM   26  C8  UNL     1      -6.293 -13.433  16.127  1.00  0.00     0.038 A 
HETATM   27  C9  UNL     1      -5.772 -12.853  14.996  1.00  0.00     0.019 A 
HETATM   28  C10 UNL     1      -6.527 -11.856  14.374  1.00  0.00     0.025 A 
HETATM   29  C11 UNL     1      -7.737 -11.455  14.851  1.00  0.00     0.035 A 
HETATM   30 CL1  UNL     1      -8.701 -10.195  14.076  1.00  0.00    -0.084 Cl
HETATM   31  C12 UNL     1      -8.258 -12.028  15.975  1.00  0.00     0.048 A 
HETATM   32  C13 UNL     1      -7.543 -13.000  16.596  1.00  0.00     0.050 A 
HETATM   33 CL2  UNL     1      -8.189 -13.763  18.056  1.00  0.00    -0.083 Cl
ENDBRANCH  24  26
ENDBRANCH   2  24
TORSDOF 6
ENDMDL
MODEL 4
REMARK VINA RESULT: -8.494355713      1.526      1.857
REMARK  6 active torsions:
REMARK  status: ('A' for Active; 'I' for Inactive)
REMARK    1  A    between atoms: O1_2  and  C2_3 
REMARK    2  A    between atoms: C4_6  and  S1_7 
REMARK    3  A    between atoms: S1_7  and  N1_10 
REMARK    4  A    between atoms: N1_10  and  C5_12 
REMARK    5  A    between atoms: C6_13  and  C7_14 
REMARK    6  A    between atoms: C7_14  and  C8_16 
ROOT
HETATM    1  C5  UNL     1      -3.390 -15.747  14.204  1.00  0.00     0.098 A 
HETATM    2  C6  UNL     1      -2.524 -15.203  15.129  1.00  0.00     0.128 A 
HETATM    3  N2  UNL     1      -1.446 -16.036  15.123  1.00  0.00    -0.293 N 
ATOM      4  H2  UNL     1      -0.617 -15.912  15.705  1.00  0.00     0.187 HD
HETATM    5  N3  UNL     1      -1.614 -17.022  14.267  1.00  0.00    -0.298 N 
HETATM    6  C14 UNL     1      -0.670 -18.094  13.997  1.00  0.00     0.177 C 
HETATM    7  C15 UNL     1      -2.819 -16.881  13.667  1.00  0.00     0.054 A 
HETATM    8  C16 UNL     1      -3.329 -17.822  12.627  1.00  0.00     0.072 C 
ENDROOT
BRANCH   1   9
HETATM    9  N1  UNL     1      -4.653 -15.254  13.841  1.00  0.00    -0.275 N 
ATOM     10  H1  UNL     1      -4.669 -14.450  13.214  1.00  0.00     0.179 HD
BRANCH   9  11
HETATM   11  S1  UNL     1      -6.173 -15.870  14.346  1.00  0.00     0.282 S 
HETATM   12  O2  UNL     1      -6.593 -17.118  13.655  1.00  0.00    -0.199 OA
HETATM   13  O3  UNL     1      -6.069 -16.205  15.829  1.00  0.00    -0.199 OA
BRANCH  11  14
HETATM   14  C4  UNL     1      -7.406 -14.613  14.185  1.00  0.00     0.194 A 
HETATM   15  C3  UNL     1      -8.691 -14.840  13.671  1.00  0.00     0.193 A 
HETATM   16  C2  UNL     1      -9.360 -13.634  13.698  1.00  0.00     0.151 A 
HETATM   17  F1  UNL     1      -9.202 -16.004  13.230  1.00  0.00    -0.200 F 
HETATM   18  C18 UNL     1      -8.508 -12.683  14.215  1.00  0.00     0.156 A 
HETATM   19  N4  UNL     1      -7.330 -13.313  14.500  1.00  0.00    -0.324 N 
HETATM   20  N5  UNL     1      -8.751 -11.299  14.434  1.00  0.00    -0.079 NA
HETATM   21  C17 UNL     1      -6.181 -12.646  15.064  1.00  0.00     0.158 C 
BRANCH  16  22
HETATM   22  O1  UNL     1     -10.657 -13.331  13.298  1.00  0.00    -0.350 OA
HETATM   23  C1  UNL     1     -10.981 -12.953  11.977  1.00  0.00     0.210 C 
ENDBRANCH  16  22
ENDBRANCH  11  14
ENDBRANCH   9  11
ENDBRANCH   1   9
BRANCH   2  24
HETATM   24  C7  UNL     1      -2.652 -13.995  15.918  1.00  0.00     0.214 C 
HETATM   25  O4  UNL     1      -2.449 -12.855  15.373  1.00  0.00    -0.285 OA
BRANCH  24  26
HETATM   26  C8  UNL     1      -3.003 -13.972  17.329  1.00  0.00     0.038 A 
HETATM   27  C9  UNL     1      -4.314 -13.959  17.737  1.00  0.00     0.019 A 
HETATM   28  C10 UNL     1      -4.565 -13.922  19.111  1.00  0.00     0.025 A 
HETATM   29  C11 UNL     1      -3.564 -13.900  20.033  1.00  0.00     0.035 A 
HETATM   30 CL1  UNL     1      -3.865 -13.854  21.771  1.00  0.00    -0.084 Cl
HETATM   31  C12 UNL     1      -2.260 -13.913  19.632  1.00  0.00     0.048 A 
HETATM   32  C13 UNL     1      -1.991 -13.949  18.302  1.00  0.00     0.050 A 
HETATM   33 CL2  UNL     1      -0.311 -13.966  17.749  1.00  0.00    -0.083 Cl
ENDBRANCH  24  26
ENDBRANCH   2  24
TORSDOF 6
ENDMDL
MODEL 5
REMARK VINA RESULT: -8.431295235      2.345      4.569
REMARK  6 active torsions:
REMARK  status: ('A' for Active; 'I' for Inactive)
REMARK    1  A    between atoms: O1_2  and  C2_3 
REMARK    2  A    between atoms: C4_6  and  S1_7 
REMARK    3  A    between atoms: S1_7  and  N1_10 
REMARK    4  A    between atoms: N1_10  and  C5_12 
REMARK    5  A    between atoms: C6_13  and  C7_14 
REMARK    6  A    between atoms: C7_14  and  C8_16 
ROOT
HETATM    1  C5  UNL     1      -4.143 -13.999  17.497  1.00  0.00     0.098 A 
HETATM    2  C6  UNL     1      -2.913 -13.935  16.878  1.00  0.00     0.128 A 
HETATM    3  N2  UNL     1      -2.023 -13.766  17.897  1.00  0.00    -0.293 N 
ATOM      4  H2  UNL     1      -1.014 -13.680  17.775  1.00  0.00     0.187 HD
HETATM    5  N3  UNL     1      -2.639 -13.727  19.060  1.00  0.00    -0.298 N 
HETATM    6  C14 UNL     1      -2.008 -13.559  20.359  1.00  0.00     0.177 C 
HETATM    7  C15 UNL     1      -3.969 -13.870  18.857  1.00  0.00     0.054 A 
HETATM    8  C16 UNL     1      -4.967 -13.885  19.967  1.00  0.00     0.072 C 
ENDROOT
BRANCH   1   9
HETATM    9  N1  UNL     1      -5.390 -14.169  16.875  1.00  0.00    -0.275 N 
ATOM     10  H1  UNL     1      -5.940 -14.978  17.163  1.00  0.00     0.179 HD
BRANCH   9  11
HETATM   11  S1  UNL     1      -6.081 -13.151  15.678  1.00  0.00     0.282 S 
HETATM   12  O2  UNL     1      -5.283 -11.935  15.368  1.00  0.00    -0.199 OA
HETATM   13  O3  UNL     1      -6.178 -13.953  14.386  1.00  0.00    -0.199 OA
BRANCH  11  14
HETATM   14  C4  UNL     1      -7.731 -12.722  16.146  1.00  0.00     0.194 A 
HETATM   15  C3  UNL     1      -8.347 -13.159  17.327  1.00  0.00     0.193 A 
HETATM   16  C2  UNL     1      -9.620 -12.628  17.344  1.00  0.00     0.151 A 
HETATM   17  F1  UNL     1      -7.820 -13.947  18.282  1.00  0.00    -0.200 F 
HETATM   18  C18 UNL     1      -9.788 -11.880  16.200  1.00  0.00     0.156 A 
HETATM   19  N4  UNL     1      -8.620 -11.959  15.495  1.00  0.00    -0.324 N 
HETATM   20  N5  UNL     1     -10.930 -11.145  15.779  1.00  0.00    -0.079 NA
HETATM   21  C17 UNL     1      -8.402 -11.300  14.230  1.00  0.00     0.158 C 
BRANCH  16  22
HETATM   22  O1  UNL     1     -10.625 -12.764  18.297  1.00  0.00    -0.350 OA
HETATM   23  C1  UNL     1     -11.587 -13.796  18.250  1.00  0.00     0.210 C 
ENDBRANCH  16  22
ENDBRANCH  11  14
ENDBRANCH   9  11
ENDBRANCH   1   9
BRANCH   2  24
HETATM   24  C7  UNL     1      -2.573 -14.066  15.476  1.00  0.00     0.214 C 
HETATM   25  O4  UNL     1      -2.358 -13.018  14.773  1.00  0.00    -0.285 OA
BRANCH  24  26
HETATM   26  C8  UNL     1      -2.455 -15.336  14.777  1.00  0.00     0.038 A 
HETATM   27  C9  UNL     1      -3.518 -15.873  14.093  1.00  0.00     0.019 A 
HETATM   28  C10 UNL     1      -3.326 -17.104  13.462  1.00  0.00     0.025 A 
HETATM   29  C11 UNL     1      -2.138 -17.767  13.507  1.00  0.00     0.035 A 
HETATM   30 CL1  UNL     1      -1.881 -19.324  12.714  1.00  0.00    -0.084 Cl
HETATM   31  C12 UNL     1      -1.080 -17.237  14.186  1.00  0.00     0.048 A 
HETATM   32  C13 UNL     1      -1.242 -16.042  14.807  1.00  0.00     0.050 A 
HETATM   33 CL2  UNL     1       0.110 -15.326  15.696  1.00  0.00    -0.083 Cl
ENDBRANCH  24  26
ENDBRANCH   2  24
TORSDOF 6
ENDMDL
