MODEL 1
REMARK VINA RESULT: -8.023032639      0.000      0.000
REMARK  6 active torsions:
REMARK  status: ('A' for Active; 'I' for Inactive)
REMARK       I    between atoms: N1_2  and  C2_4 
REMARK    1  A    between atoms: C2_4  and  C3_6 
REMARK    2  A    between atoms: C8_11  and  O2_12 
REMARK    3  A    between atoms: O2_12  and  C9_13 
REMARK    4  A    between atoms: C9_13  and  C11_15 
REMARK    5  A    between atoms: C12_16  and  C13_17 
REMARK    6  A    between atoms: C16_20  and  N2_21 
ROOT
HETATM    1  C13 UNL     1      -8.179  -2.863 -15.052  1.00  0.00     0.060 A 
HETATM    2  C14 UNL     1      -9.052  -2.796 -16.106  1.00  0.00     0.031 A 
HETATM    3  C15 UNL     1     -10.135  -3.579 -16.075  1.00  0.00     0.039 A 
HETATM    4  C16 UNL     1     -10.284  -4.395 -14.975  1.00  0.00     0.082 A 
HETATM    5  S1  UNL     1      -8.908  -4.026 -14.048  1.00  0.00    -0.063 SA
ENDROOT
BRANCH   1   6
HETATM    6  C12 UNL     1      -6.941  -2.109 -14.871  1.00  0.00    -0.057 C 
HETATM    7  C11 UNL     1      -5.933  -1.470 -14.719  1.00  0.00    -0.068 C 
BRANCH   7   8
HETATM    8  C9  UNL     1      -4.674  -0.697 -14.547  1.00  0.00     0.204 C 
HETATM    9  C10 UNL     1      -4.545  -0.284 -13.070  1.00  0.00     0.054 C 
BRANCH   8  10
HETATM   10  O2  UNL     1      -3.620  -1.553 -14.805  1.00  0.00    -0.333 OA
BRANCH  10  11
HETATM   11  C8  UNL     1      -2.613  -1.435 -15.732  1.00  0.00     0.086 A 
HETATM   12  C3  UNL     1      -1.690  -2.448 -15.865  1.00  0.00     0.065 A 
HETATM   13  C4  UNL     1      -0.688  -2.265 -16.828  1.00  0.00     0.020 A 
HETATM   14  C5  UNL     1      -0.607  -1.153 -17.605  1.00  0.00     0.001 A 
HETATM   15  C6  UNL     1      -1.540  -0.159 -17.449  1.00  0.00     0.003 A 
HETATM   16  C7  UNL     1      -2.535  -0.300 -16.520  1.00  0.00     0.038 A 
BRANCH  12  17
HETATM   17  C2  UNL     1      -1.693  -3.674 -15.081  1.00  0.00     0.254 C 
HETATM   18  N1  UNL     1      -2.296  -4.888 -15.365  1.00  0.00    -0.361 N 
HETATM   19  C1  UNL     1      -2.170  -6.003 -14.422  1.00  0.00     0.149 C 
ATOM     20  H1  UNL     1      -2.826  -5.006 -16.228  1.00  0.00     0.162 HD
HETATM   21  O1  UNL     1      -1.042  -3.612 -13.966  1.00  0.00    -0.268 OA
ENDBRANCH  12  17
ENDBRANCH  10  11
ENDBRANCH   8  10
ENDBRANCH   7   8
ENDBRANCH   1   6
BRANCH   4  22
HETATM   22  N2  UNL     1     -11.364  -5.328 -14.707  1.00  0.00    -0.288 N 
HETATM   23  C17 UNL     1     -11.300  -6.586 -15.334  1.00  0.00     0.200 A 
HETATM   24  N3  UNL     1     -10.150  -6.825 -16.189  1.00  0.00    -0.063 NA
HETATM   25  N4  UNL     1     -12.189  -7.518 -15.192  1.00  0.00    -0.304 N 
HETATM   26  C18 UNL     1     -13.272  -7.183 -14.334  1.00  0.00     0.192 A 
ATOM     27  H4  UNL     1     -12.117  -8.422 -15.659  1.00  0.00     0.171 HD
HETATM   28  N5  UNL     1     -14.333  -8.134 -14.088  1.00  0.00    -0.063 NA
HETATM   29  N6  UNL     1     -13.382  -6.069 -13.744  1.00  0.00    -0.338 N 
HETATM   30  C19 UNL     1     -12.449  -5.015 -13.859  1.00  0.00     0.108 A 
ATOM     31  H6  UNL     1     -14.197  -5.922 -13.147  1.00  0.00     0.164 HD
HETATM   32  C20 UNL     1     -12.034  -4.445 -12.513  1.00  0.00     0.063 C 
HETATM   33  C21 UNL     1     -13.231  -3.839 -14.507  1.00  0.00     0.063 C 
ENDBRANCH   4  22
TORSDOF 6
ENDMDL
MODEL 2
REMARK VINA RESULT: -7.975475701      5.193      9.094
REMARK  6 active torsions:
REMARK  status: ('A' for Active; 'I' for Inactive)
REMARK       I    between atoms: N1_2  and  C2_4 
REMARK    1  A    between atoms: C2_4  and  C3_6 
REMARK    2  A    between atoms: C8_11  and  O2_12 
REMARK    3  A    between atoms: O2_12  and  C9_13 
REMARK    4  A    between atoms: C9_13  and  C11_15 
REMARK    5  A    between atoms: C12_16  and  C13_17 
REMARK    6  A    between atoms: C16_20  and  N2_21 
ROOT
HETATM    1  C13 UNL     1     -10.344  -4.506 -18.107  1.00  0.00     0.060 A 
HETATM    2  C14 UNL     1      -8.985  -4.571 -18.269  1.00  0.00     0.031 A 
HETATM    3  C15 UNL     1      -8.493  -4.416 -19.502  1.00  0.00     0.039 A 
HETATM    4  C16 UNL     1      -9.400  -4.203 -20.515  1.00  0.00     0.082 A 
HETATM    5  S1  UNL     1     -10.889  -4.230 -19.694  1.00  0.00    -0.063 SA
ENDROOT
BRANCH   1   6
HETATM    6  C12 UNL     1     -11.101  -4.645 -16.864  1.00  0.00    -0.057 C 
HETATM    7  C11 UNL     1     -11.740  -4.769 -15.852  1.00  0.00    -0.068 C 
BRANCH   7   8
HETATM    8  C9  UNL     1     -12.519  -4.902 -14.593  1.00  0.00     0.204 C 
HETATM    9  C10 UNL     1     -13.008  -6.354 -14.463  1.00  0.00     0.054 C 
BRANCH   8  10
HETATM   10  O2  UNL     1     -11.649  -4.689 -13.540  1.00  0.00    -0.333 OA
BRANCH  10  11
HETATM   11  C8  UNL     1     -11.716  -3.757 -12.532  1.00  0.00     0.086 A 
HETATM   12  C3  UNL     1     -10.611  -2.988 -12.242  1.00  0.00     0.065 A 
HETATM   13  C4  UNL     1     -10.746  -2.057 -11.203  1.00  0.00     0.020 A 
HETATM   14  C5  UNL     1     -11.898  -1.901 -10.499  1.00  0.00     0.001 A 
HETATM   15  C6  UNL     1     -12.983  -2.682 -10.810  1.00  0.00     0.003 A 
HETATM   16  C7  UNL     1     -12.891  -3.603 -11.819  1.00  0.00     0.038 A 
BRANCH  12  17
HETATM   17  C2  UNL     1      -9.336  -3.083 -12.938  1.00  0.00     0.254 C 
HETATM   18  N1  UNL     1      -8.891  -4.060 -13.813  1.00  0.00    -0.361 N 
HETATM   19  C1  UNL     1      -7.555  -3.956 -14.404  1.00  0.00     0.149 C 
ATOM     20  H1  UNL     1      -9.493  -4.850 -14.045  1.00  0.00     0.162 HD
HETATM   21  O1  UNL     1      -8.510  -2.118 -12.699  1.00  0.00    -0.268 OA
ENDBRANCH  12  17
ENDBRANCH  10  11
ENDBRANCH   8  10
ENDBRANCH   7   8
ENDBRANCH   1   6
BRANCH   4  22
HETATM   22  N2  UNL     1      -9.120  -4.006 -21.926  1.00  0.00    -0.288 N 
HETATM   23  C17 UNL     1      -9.135  -5.146 -22.751  1.00  0.00     0.200 A 
HETATM   24  N3  UNL     1      -9.434  -6.411 -22.102  1.00  0.00    -0.063 NA
HETATM   25  N4  UNL     1      -8.903  -5.128 -24.026  1.00  0.00    -0.304 N 
HETATM   26  C18 UNL     1      -8.622  -3.841 -24.562  1.00  0.00     0.192 A 
ATOM     27  H4  UNL     1      -8.920  -5.971 -24.600  1.00  0.00     0.171 HD
HETATM   28  N5  UNL     1      -8.345  -3.680 -25.971  1.00  0.00    -0.063 NA
HETATM   29  N6  UNL     1      -8.595  -2.782 -23.869  1.00  0.00    -0.338 N 
HETATM   30  C19 UNL     1      -8.838  -2.738 -22.479  1.00  0.00     0.108 A 
ATOM     31  H6  UNL     1      -8.384  -1.905 -24.345  1.00  0.00     0.164 HD
HETATM   32  C20 UNL     1      -9.837  -1.661 -22.089  1.00  0.00     0.063 C 
HETATM   33  C21 UNL     1      -7.514  -2.230 -21.843  1.00  0.00     0.063 C 
ENDBRANCH   4  22
TORSDOF 6
ENDMDL
MODEL 3
REMARK VINA RESULT: -7.919522447      0.979      1.928
REMARK  6 active torsions:
REMARK  status: ('A' for Active; 'I' for Inactive)
REMARK       I    between atoms: N1_2  and  C2_4 
REMARK    1  A    between atoms: C2_4  and  C3_6 
REMARK    2  A    between atoms: C8_11  and  O2_12 
REMARK    3  A    between atoms: O2_12  and  C9_13 
REMARK    4  A    between atoms: C9_13  and  C11_15 
REMARK    5  A    between atoms: C12_16  and  C13_17 
REMARK    6  A    between atoms: C16_20  and  N2_21 
ROOT
HETATM    1  C13 UNL     1      -7.937  -2.602 -15.147  1.00  0.00     0.060 A 
HETATM    2  C14 UNL     1      -8.878  -2.400 -16.122  1.00  0.00     0.031 A 
HETATM    3  C15 UNL     1      -9.941  -3.211 -16.147  1.00  0.00     0.039 A 
HETATM    4  C16 UNL     1     -10.001  -4.190 -15.181  1.00  0.00     0.082 A 
HETATM    5  S1  UNL     1      -8.575  -3.927 -14.293  1.00  0.00    -0.063 SA
ENDROOT
BRANCH   1   6
HETATM    6  C12 UNL     1      -6.705  -1.848 -14.927  1.00  0.00    -0.057 C 
HETATM    7  C11 UNL     1      -5.693  -1.230 -14.725  1.00  0.00    -0.068 C 
BRANCH   7   8
HETATM    8  C9  UNL     1      -4.446  -0.452 -14.497  1.00  0.00     0.204 C 
HETATM    9  C10 UNL     1      -4.292  -0.196 -12.988  1.00  0.00     0.054 C 
BRANCH   8  10
HETATM   10  O2  UNL     1      -3.382  -1.253 -14.866  1.00  0.00    -0.333 OA
BRANCH  10  11
HETATM   11  C8  UNL     1      -2.568  -1.160 -15.970  1.00  0.00     0.086 A 
HETATM   12  C3  UNL     1      -1.774  -2.230 -16.320  1.00  0.00     0.065 A 
HETATM   13  C4  UNL     1      -0.967  -2.070 -17.455  1.00  0.00     0.020 A 
HETATM   14  C5  UNL     1      -0.950  -0.929 -18.193  1.00  0.00     0.001 A 
HETATM   15  C6  UNL     1      -1.752   0.121 -17.819  1.00  0.00     0.003 A 
HETATM   16  C7  UNL     1      -2.554   0.004 -16.716  1.00  0.00     0.038 A 
BRANCH  12  17
HETATM   17  C2  UNL     1      -1.722  -3.491 -15.595  1.00  0.00     0.254 C 
HETATM   18  N1  UNL     1      -1.492  -3.712 -14.247  1.00  0.00    -0.361 N 
HETATM   19  C1  UNL     1      -1.484  -5.080 -13.723  1.00  0.00     0.149 C 
ATOM     20  H1  UNL     1      -1.329  -2.923 -13.621  1.00  0.00     0.162 HD
HETATM   21  O1  UNL     1      -1.919  -4.545 -16.316  1.00  0.00    -0.268 OA
ENDBRANCH  12  17
ENDBRANCH  10  11
ENDBRANCH   8  10
ENDBRANCH   7   8
ENDBRANCH   1   6
BRANCH   4  22
HETATM   22  N2  UNL     1     -11.043  -5.185 -14.995  1.00  0.00    -0.288 N 
HETATM   23  C17 UNL     1     -12.009  -4.930 -14.005  1.00  0.00     0.200 A 
HETATM   24  N3  UNL     1     -11.866  -3.686 -13.266  1.00  0.00    -0.063 NA
HETATM   25  N4  UNL     1     -12.994  -5.723 -13.724  1.00  0.00    -0.304 N 
HETATM   26  C18 UNL     1     -13.044  -6.911 -14.505  1.00  0.00     0.192 A 
ATOM     27  H4  UNL     1     -13.681  -5.512 -13.000  1.00  0.00     0.171 HD
HETATM   28  N5  UNL     1     -14.093  -7.882 -14.294  1.00  0.00    -0.063 NA
HETATM   29  N6  UNL     1     -12.203  -7.193 -15.408  1.00  0.00    -0.338 N 
HETATM   30  C19 UNL     1     -11.110  -6.371 -15.759  1.00  0.00     0.108 A 
ATOM     31  H6  UNL     1     -12.322  -8.070 -15.915  1.00  0.00     0.164 HD
HETATM   32  C20 UNL     1     -10.999  -6.145 -17.257  1.00  0.00     0.063 C 
HETATM   33  C21 UNL     1      -9.841  -7.210 -15.439  1.00  0.00     0.063 C 
ENDBRANCH   4  22
TORSDOF 6
ENDMDL
MODEL 4
REMARK VINA RESULT: -7.796456402      4.929      9.135
REMARK  6 active torsions:
REMARK  status: ('A' for Active; 'I' for Inactive)
REMARK       I    between atoms: N1_2  and  C2_4 
REMARK    1  A    between atoms: C2_4  and  C3_6 
REMARK    2  A    between atoms: C8_11  and  O2_12 
REMARK    3  A    between atoms: O2_12  and  C9_13 
REMARK    4  A    between atoms: C9_13  and  C11_15 
REMARK    5  A    between atoms: C12_16  and  C13_17 
REMARK    6  A    between atoms: C16_20  and  N2_21 
ROOT
HETATM    1  C13 UNL     1     -10.586  -4.080 -18.154  1.00  0.00     0.060 A 
HETATM    2  C14 UNL     1     -11.063  -4.288 -19.421  1.00  0.00     0.031 A 
HETATM    3  C15 UNL     1     -10.306  -3.892 -20.450  1.00  0.00     0.039 A 
HETATM    4  C16 UNL     1      -9.099  -3.303 -20.146  1.00  0.00     0.082 A 
HETATM    5  S1  UNL     1      -9.086  -3.334 -18.446  1.00  0.00    -0.063 SA
ENDROOT
BRANCH   1   6
HETATM    6  C12 UNL     1     -11.232  -4.426 -16.890  1.00  0.00    -0.057 C 
HETATM    7  C11 UNL     1     -11.784  -4.707 -15.858  1.00  0.00    -0.068 C 
BRANCH   7   8
HETATM    8  C9  UNL     1     -12.444  -5.046 -14.570  1.00  0.00     0.204 C 
HETATM    9  C10 UNL     1     -12.671  -6.567 -14.515  1.00  0.00     0.054 C 
BRANCH   8  10
HETATM   10  O2  UNL     1     -11.554  -4.749 -13.554  1.00  0.00    -0.333 OA
BRANCH  10  11
HETATM   11  C8  UNL     1     -11.661  -3.814 -12.553  1.00  0.00     0.086 A 
HETATM   12  C3  UNL     1     -10.583  -3.008 -12.259  1.00  0.00     0.065 A 
HETATM   13  C4  UNL     1     -10.758  -2.075 -11.226  1.00  0.00     0.020 A 
HETATM   14  C5  UNL     1     -11.920  -1.951 -10.534  1.00  0.00     0.001 A 
HETATM   15  C6  UNL     1     -12.977  -2.769 -10.849  1.00  0.00     0.003 A 
HETATM   16  C7  UNL     1     -12.847  -3.692 -11.851  1.00  0.00     0.038 A 
BRANCH  12  17
HETATM   17  C2  UNL     1      -9.300  -3.066 -12.942  1.00  0.00     0.254 C 
HETATM   18  N1  UNL     1      -8.830  -4.014 -13.835  1.00  0.00    -0.361 N 
HETATM   19  C1  UNL     1      -7.490  -3.876 -14.410  1.00  0.00     0.149 C 
ATOM     20  H1  UNL     1      -9.417  -4.808 -14.093  1.00  0.00     0.162 HD
HETATM   21  O1  UNL     1      -8.491  -2.095 -12.671  1.00  0.00    -0.268 OA
ENDBRANCH  12  17
ENDBRANCH  10  11
ENDBRANCH   8  10
ENDBRANCH   7   8
ENDBRANCH   1   6
BRANCH   4  22
HETATM   22  N2  UNL     1      -8.106  -2.794 -21.075  1.00  0.00    -0.288 N 
HETATM   23  C17 UNL     1      -7.112  -3.690 -21.511  1.00  0.00     0.200 A 
HETATM   24  N3  UNL     1      -7.184  -5.043 -20.986  1.00  0.00    -0.063 NA
HETATM   25  N4  UNL     1      -6.162  -3.381 -22.336  1.00  0.00    -0.304 N 
HETATM   26  C18 UNL     1      -6.183  -2.034 -22.792  1.00  0.00     0.192 A 
ATOM     27  H4  UNL     1      -5.454  -4.052 -22.635  1.00  0.00     0.171 HD
HETATM   28  N5  UNL     1      -5.179  -1.558 -23.716  1.00  0.00    -0.063 NA
HETATM   29  N6  UNL     1      -7.051  -1.185 -22.434  1.00  0.00    -0.338 N 
HETATM   30  C19 UNL     1      -8.108  -1.461 -21.540  1.00  0.00     0.108 A 
ATOM     31  H6  UNL     1      -6.983  -0.242 -22.816  1.00  0.00     0.164 HD
HETATM   32  C20 UNL     1      -9.457  -0.992 -22.059  1.00  0.00     0.063 C 
HETATM   33  C21 UNL     1      -7.867  -0.534 -20.316  1.00  0.00     0.063 C 
ENDBRANCH   4  22
TORSDOF 6
ENDMDL
MODEL 5
REMARK VINA RESULT: -7.796414189      5.745      9.343
REMARK  6 active torsions:
REMARK  status: ('A' for Active; 'I' for Inactive)
REMARK       I    between atoms: N1_2  and  C2_4 
REMARK    1  A    between atoms: C2_4  and  C3_6 
REMARK    2  A    between atoms: C8_11  and  O2_12 
REMARK    3  A    between atoms: O2_12  and  C9_13 
REMARK    4  A    between atoms: C9_13  and  C11_15 
REMARK    5  A    between atoms: C12_16  and  C13_17 
REMARK    6  A    between atoms: C16_20  and  N2_21 
ROOT
HETATM    1  C13 UNL     1     -10.551  -3.957 -18.849  1.00  0.00     0.060 A 
HETATM    2  C14 UNL     1      -9.631  -2.980 -19.121  1.00  0.00     0.031 A 
HETATM    3  C15 UNL     1      -9.283  -2.783 -20.397  1.00  0.00     0.039 A 
HETATM    4  C16 UNL     1      -9.884  -3.587 -21.339  1.00  0.00     0.082 A 
HETATM    5  S1  UNL     1     -10.900  -4.572 -20.396  1.00  0.00    -0.063 SA
ENDROOT
BRANCH   1   6
HETATM    6  C12 UNL     1     -11.078  -4.347 -17.542  1.00  0.00    -0.057 C 
HETATM    7  C11 UNL     1     -11.496  -4.683 -16.465  1.00  0.00    -0.068 C 
BRANCH   7   8
HETATM    8  C9  UNL     1     -12.036  -5.091 -15.141  1.00  0.00     0.204 C 
HETATM    9  C10 UNL     1     -12.043  -6.627 -15.061  1.00  0.00     0.054 C 
BRANCH   8  10
HETATM   10  O2  UNL     1     -11.148  -4.654 -14.176  1.00  0.00    -0.333 OA
BRANCH  10  11
HETATM   11  C8  UNL     1     -11.390  -3.912 -13.045  1.00  0.00     0.086 A 
HETATM   12  C3  UNL     1     -10.394  -3.112 -12.532  1.00  0.00     0.065 A 
HETATM   13  C4  UNL     1     -10.706  -2.381 -11.376  1.00  0.00     0.020 A 
HETATM   14  C5  UNL     1     -11.922  -2.441 -10.773  1.00  0.00     0.001 A 
HETATM   15  C6  UNL     1     -12.895  -3.248 -11.307  1.00  0.00     0.003 A 
HETATM   16  C7  UNL     1     -12.630  -3.977 -12.434  1.00  0.00     0.038 A 
BRANCH  12  17
HETATM   17  C2  UNL     1      -9.063  -2.982 -13.105  1.00  0.00     0.254 C 
HETATM   18  N1  UNL     1      -8.451  -3.763 -14.072  1.00  0.00    -0.361 N 
HETATM   19  C1  UNL     1      -7.087  -3.449 -14.507  1.00  0.00     0.149 C 
ATOM     20  H1  UNL     1      -8.949  -4.554 -14.479  1.00  0.00     0.162 HD
HETATM   21  O1  UNL     1      -8.361  -2.001 -12.643  1.00  0.00    -0.268 OA
ENDBRANCH  12  17
ENDBRANCH  10  11
ENDBRANCH   8  10
ENDBRANCH   7   8
ENDBRANCH   1   6
BRANCH   4  22
HETATM   22  N2  UNL     1      -9.678  -3.571 -22.776  1.00  0.00    -0.288 N 
HETATM   23  C17 UNL     1     -10.388  -2.608 -23.518  1.00  0.00     0.200 A 
HETATM   24  N3  UNL     1     -11.258  -1.722 -22.764  1.00  0.00    -0.063 NA
HETATM   25  N4  UNL     1     -10.309  -2.473 -24.804  1.00  0.00    -0.304 N 
HETATM   26  C18 UNL     1      -9.429  -3.388 -25.446  1.00  0.00     0.192 A 
ATOM     27  H4  UNL     1     -10.835  -1.766 -25.316  1.00  0.00     0.171 HD
HETATM   28  N5  UNL     1      -9.248  -3.346 -26.879  1.00  0.00    -0.063 NA
HETATM   29  N6  UNL     1      -8.766  -4.273 -24.831  1.00  0.00    -0.338 N 
HETATM   30  C19 UNL     1      -8.810  -4.470 -23.434  1.00  0.00     0.108 A 
ATOM     31  H6  UNL     1      -8.160  -4.884 -25.380  1.00  0.00     0.164 HD
HETATM   32  C20 UNL     1      -7.429  -4.562 -22.806  1.00  0.00     0.063 C 
HETATM   33  C21 UNL     1      -9.378  -5.903 -23.235  1.00  0.00     0.063 C 
ENDBRANCH   4  22
TORSDOF 6
ENDMDL
