MODEL 1
REMARK VINA RESULT: -6.738199494      0.000      0.000
REMARK  5 active torsions:
REMARK  status: ('A' for Active; 'I' for Inactive)
REMARK    1  A    between atoms: N1_2  and  C2_4 
REMARK    2  A    between atoms: C2_4  and  C3_5 
REMARK    3  A    between atoms: C6_8  and  N2_9 
REMARK    4  A    between atoms: N2_9  and  C7_11 
REMARK    5  A    between atoms: C7_11  and  C8_12 
ROOT
HETATM    1  C3  UNL     1      40.366  -7.700   1.386  1.00  0.00    -0.025 A 
HETATM    2  C4  UNL     1      41.247  -8.745   1.557  1.00  0.00     0.014 A 
HETATM    3  C5  UNL     1      40.778 -10.045   1.610  1.00  0.00     0.049 A 
HETATM    4  C6  UNL     1      39.429 -10.298   1.491  1.00  0.00     0.102 A 
HETATM    5  N5  UNL     1      38.561  -9.263   1.322  1.00  0.00    -0.347 N 
HETATM    6  C11 UNL     1      37.133  -9.563   1.198  1.00  0.00     0.157 C 
HETATM    7  C12 UNL     1      39.031  -8.029   1.274  1.00  0.00     0.100 A 
ENDROOT
BRANCH   4   8
HETATM    8  N2  UNL     1      38.945 -11.635   1.553  1.00  0.00    -0.370 N 
ATOM      9  H2  UNL     1      38.619 -11.981   2.456  1.00  0.00     0.161 HD
BRANCH   8  10
HETATM   10  C7  UNL     1      38.883 -12.529   0.433  1.00  0.00     0.179 C 
BRANCH  10  11
HETATM   11  C8  UNL     1      38.500 -13.915   0.780  1.00  0.00     0.043 A 
HETATM   12  C9  UNL     1      37.578 -14.765   0.217  1.00  0.00     0.115 A 
HETATM   13  N3  UNL     1      37.596 -15.925   0.890  1.00  0.00    -0.360 N 
HETATM   14  C10 UNL     1      38.511 -15.812   1.858  1.00  0.00     0.180 A 
ATOM     15  H3  UNL     1      37.018 -16.743   0.698  1.00  0.00     0.166 HD
HETATM   16  N4  UNL     1      39.061 -14.594   1.793  1.00  0.00    -0.353 N 
ATOM     17  H4  UNL     1      39.789 -14.238   2.413  1.00  0.00     0.166 HD
ENDBRANCH  10  11
ENDBRANCH   8  10
ENDBRANCH   4   8
BRANCH   1  18
HETATM   18  C2  UNL     1      40.889  -6.311   1.333  1.00  0.00     0.153 C 
BRANCH  18  19
HETATM   19  N1  UNL     1      40.632  -5.792   0.024  1.00  0.00    -0.421 N 
HETATM   20  C1  UNL     1      41.576  -4.828  -0.435  1.00  0.00     0.140 C 
ATOM     21  H1  UNL     1      39.834  -6.089  -0.537  1.00  0.00     0.153 HD
ENDBRANCH  18  19
ENDBRANCH   1  18
TORSDOF 5
ENDMDL
MODEL 2
REMARK VINA RESULT: -6.429516971      1.182      7.366
REMARK  5 active torsions:
REMARK  status: ('A' for Active; 'I' for Inactive)
REMARK    1  A    between atoms: N1_2  and  C2_4 
REMARK    2  A    between atoms: C2_4  and  C3_5 
REMARK    3  A    between atoms: C6_8  and  N2_9 
REMARK    4  A    between atoms: N2_9  and  C7_11 
REMARK    5  A    between atoms: C7_11  and  C8_12 
ROOT
HETATM    1  C3  UNL     1      38.188 -11.779   1.279  1.00  0.00    -0.025 A 
HETATM    2  C4  UNL     1      37.191 -10.833   1.187  1.00  0.00     0.014 A 
HETATM    3  C5  UNL     1      37.512  -9.488   1.162  1.00  0.00     0.049 A 
HETATM    4  C6  UNL     1      38.830  -9.091   1.230  1.00  0.00     0.102 A 
HETATM    5  N5  UNL     1      39.812 -10.029   1.320  1.00  0.00    -0.347 N 
HETATM    6  C11 UNL     1      41.204  -9.577   1.390  1.00  0.00     0.157 C 
HETATM    7  C12 UNL     1      39.483 -11.309   1.342  1.00  0.00     0.100 A 
ENDROOT
BRANCH   4   8
HETATM    8  N2  UNL     1      39.161  -7.707   1.212  1.00  0.00    -0.370 N 
ATOM      9  H2  UNL     1      38.560  -7.082   0.675  1.00  0.00     0.161 HD
BRANCH   8  10
HETATM   10  C7  UNL     1      40.282  -7.131   1.898  1.00  0.00     0.179 C 
BRANCH  10  11
HETATM   11  C8  UNL     1      41.123  -6.251   1.057  1.00  0.00     0.043 A 
HETATM   12  C9  UNL     1      42.488  -6.095   0.999  1.00  0.00     0.115 A 
HETATM   13  N3  UNL     1      42.775  -5.170   0.072  1.00  0.00    -0.360 N 
HETATM   14  C10 UNL     1      41.616  -4.750  -0.447  1.00  0.00     0.180 A 
ATOM     15  H3  UNL     1      43.706  -4.846  -0.190  1.00  0.00     0.166 HD
HETATM   16  N4  UNL     1      40.614  -5.405   0.150  1.00  0.00    -0.353 N 
ATOM     17  H4  UNL     1      39.621  -5.281  -0.052  1.00  0.00     0.166 HD
ENDBRANCH  10  11
ENDBRANCH   8  10
ENDBRANCH   4   8
BRANCH   1  18
HETATM   18  C2  UNL     1      37.823 -13.218   1.305  1.00  0.00     0.153 C 
BRANCH  18  19
HETATM   19  N1  UNL     1      38.977 -13.961   1.711  1.00  0.00    -0.421 N 
HETATM   20  C1  UNL     1      38.824 -15.377   1.674  1.00  0.00     0.140 C 
ATOM     21  H1  UNL     1      39.844 -13.510   2.004  1.00  0.00     0.153 HD
ENDBRANCH  18  19
ENDBRANCH   1  18
TORSDOF 5
ENDMDL
MODEL 3
REMARK VINA RESULT: -6.367256883      0.990      1.067
REMARK  5 active torsions:
REMARK  status: ('A' for Active; 'I' for Inactive)
REMARK    1  A    between atoms: N1_2  and  C2_4 
REMARK    2  A    between atoms: C2_4  and  C3_5 
REMARK    3  A    between atoms: C6_8  and  N2_9 
REMARK    4  A    between atoms: N2_9  and  C7_11 
REMARK    5  A    between atoms: C7_11  and  C8_12 
ROOT
HETATM    1  C3  UNL     1      40.488  -7.743   1.234  1.00  0.00    -0.025 A 
HETATM    2  C4  UNL     1      41.336  -8.813   1.417  1.00  0.00     0.014 A 
HETATM    3  C5  UNL     1      40.823 -10.093   1.526  1.00  0.00     0.049 A 
HETATM    4  C6  UNL     1      39.463 -10.301   1.452  1.00  0.00     0.102 A 
HETATM    5  N5  UNL     1      38.628  -9.242   1.270  1.00  0.00    -0.347 N 
HETATM    6  C11 UNL     1      37.188  -9.493   1.194  1.00  0.00     0.157 C 
HETATM    7  C12 UNL     1      39.140  -8.027   1.169  1.00  0.00     0.100 A 
ENDROOT
BRANCH   4   8
HETATM    8  N2  UNL     1      38.934 -11.617   1.571  1.00  0.00    -0.370 N 
ATOM      9  H2  UNL     1      38.690 -11.948   2.505  1.00  0.00     0.161 HD
BRANCH   8  10
HETATM   10  C7  UNL     1      38.718 -12.509   0.468  1.00  0.00     0.179 C 
BRANCH  10  11
HETATM   11  C8  UNL     1      38.904 -13.939   0.797  1.00  0.00     0.043 A 
HETATM   12  C9  UNL     1      39.759 -14.881   0.274  1.00  0.00     0.115 A 
HETATM   13  N3  UNL     1      39.551 -16.046   0.903  1.00  0.00    -0.360 N 
HETATM   14  C10 UNL     1      38.586 -15.846   1.807  1.00  0.00     0.180 A 
ATOM     15  H3  UNL     1      40.039 -16.923   0.726  1.00  0.00     0.166 HD
HETATM   16  N4  UNL     1      38.193 -14.569   1.743  1.00  0.00    -0.353 N 
ATOM     17  H4  UNL     1      37.468 -14.142   2.322  1.00  0.00     0.166 HD
ENDBRANCH  10  11
ENDBRANCH   8  10
ENDBRANCH   4   8
BRANCH   1  18
HETATM   18  C2  UNL     1      41.058  -6.377   1.121  1.00  0.00     0.153 C 
BRANCH  18  19
HETATM   19  N1  UNL     1      42.486  -6.491   1.141  1.00  0.00    -0.421 N 
HETATM   20  C1  UNL     1      43.128  -6.205  -0.099  1.00  0.00     0.140 C 
ATOM     21  H1  UNL     1      43.003  -6.757   1.979  1.00  0.00     0.153 HD
ENDBRANCH  18  19
ENDBRANCH   1  18
TORSDOF 5
ENDMDL
MODEL 4
REMARK VINA RESULT: -5.801018126      1.131      7.165
REMARK  5 active torsions:
REMARK  status: ('A' for Active; 'I' for Inactive)
REMARK    1  A    between atoms: N1_2  and  C2_4 
REMARK    2  A    between atoms: C2_4  and  C3_5 
REMARK    3  A    between atoms: C6_8  and  N2_9 
REMARK    4  A    between atoms: N2_9  and  C7_11 
REMARK    5  A    between atoms: C7_11  and  C8_12 
ROOT
HETATM    1  C3  UNL     1      38.121 -12.339   1.169  1.00  0.00    -0.025 A 
HETATM    2  C4  UNL     1      39.446 -11.964   1.128  1.00  0.00     0.014 A 
HETATM    3  C5  UNL     1      39.787 -10.623   1.145  1.00  0.00     0.049 A 
HETATM    4  C6  UNL     1      38.803  -9.660   1.203  1.00  0.00     0.102 A 
HETATM    5  N5  UNL     1      37.495 -10.035   1.244  1.00  0.00    -0.347 N 
HETATM    6  C11 UNL     1      36.472  -8.990   1.306  1.00  0.00     0.157 C 
HETATM    7  C12 UNL     1      37.192 -11.321   1.227  1.00  0.00     0.100 A 
ENDROOT
BRANCH   4   8
HETATM    8  N2  UNL     1      39.152  -8.281   1.214  1.00  0.00    -0.370 N 
ATOM      9  H2  UNL     1      38.549  -7.635   0.704  1.00  0.00     0.161 HD
BRANCH   8  10
HETATM   10  C7  UNL     1      40.294  -7.737   1.891  1.00  0.00     0.179 C 
BRANCH  10  11
HETATM   11  C8  UNL     1      41.073  -6.767   1.090  1.00  0.00     0.043 A 
HETATM   12  C9  UNL     1      42.429  -6.579   0.969  1.00  0.00     0.115 A 
HETATM   13  N3  UNL     1      42.649  -5.568   0.117  1.00  0.00    -0.360 N 
HETATM   14  C10 UNL     1      41.456  -5.124  -0.294  1.00  0.00     0.180 A 
ATOM     15  H3  UNL     1      43.558  -5.203  -0.165  1.00  0.00     0.166 HD
HETATM   16  N4  UNL     1      40.499  -5.851   0.295  1.00  0.00    -0.353 N 
ATOM     17  H4  UNL     1      39.495  -5.728   0.161  1.00  0.00     0.166 HD
ENDBRANCH  10  11
ENDBRANCH   8  10
ENDBRANCH   4   8
BRANCH   1  18
HETATM   18  C2  UNL     1      37.776 -13.783   1.149  1.00  0.00     0.153 C 
BRANCH  18  19
HETATM   19  N1  UNL     1      38.843 -14.501   1.776  1.00  0.00    -0.421 N 
HETATM   20  C1  UNL     1      38.669 -15.915   1.823  1.00  0.00     0.140 C 
ATOM     21  H1  UNL     1      39.666 -14.037   2.160  1.00  0.00     0.153 HD
ENDBRANCH  18  19
ENDBRANCH   1  18
TORSDOF 5
ENDMDL
MODEL 5
REMARK VINA RESULT: -5.683423963      1.285      1.403
REMARK  5 active torsions:
REMARK  status: ('A' for Active; 'I' for Inactive)
REMARK    1  A    between atoms: N1_2  and  C2_4 
REMARK    2  A    between atoms: C2_4  and  C3_5 
REMARK    3  A    between atoms: C6_8  and  N2_9 
REMARK    4  A    between atoms: N2_9  and  C7_11 
REMARK    5  A    between atoms: C7_11  and  C8_12 
ROOT
HETATM    1  C3  UNL     1      39.553  -8.306   1.314  1.00  0.00    -0.025 A 
HETATM    2  C4  UNL     1      40.625  -9.170   1.256  1.00  0.00     0.014 A 
HETATM    3  C5  UNL     1      40.413 -10.536   1.243  1.00  0.00     0.049 A 
HETATM    4  C6  UNL     1      39.131 -11.038   1.290  1.00  0.00     0.102 A 
HETATM    5  N5  UNL     1      38.074 -10.181   1.347  1.00  0.00    -0.347 N 
HETATM    6  C11 UNL     1      36.723 -10.742   1.395  1.00  0.00     0.157 C 
HETATM    7  C12 UNL     1      38.299  -8.879   1.358  1.00  0.00     0.100 A 
ENDROOT
BRANCH   4   8
HETATM    8  N2  UNL     1      38.912 -12.444   1.284  1.00  0.00    -0.370 N 
ATOM      9  H2  UNL     1      38.535 -12.869   2.132  1.00  0.00     0.161 HD
BRANCH   8  10
HETATM   10  C7  UNL     1      39.185 -13.304   0.170  1.00  0.00     0.179 C 
BRANCH  10  11
HETATM   11  C8  UNL     1      39.248 -14.743   0.512  1.00  0.00     0.043 A 
HETATM   12  C9  UNL     1      38.939 -15.408   1.674  1.00  0.00     0.115 A 
HETATM   13  N3  UNL     1      39.164 -16.717   1.492  1.00  0.00    -0.360 N 
HETATM   14  C10 UNL     1      39.605 -16.877   0.240  1.00  0.00     0.180 A 
ATOM     15  H3  UNL     1      39.024 -17.455   2.182  1.00  0.00     0.166 HD
HETATM   16  N4  UNL     1      39.656 -15.681  -0.356  1.00  0.00    -0.353 N 
ATOM     17  H4  UNL     1      39.957 -15.509  -1.316  1.00  0.00     0.166 HD
ENDBRANCH  10  11
ENDBRANCH   8  10
ENDBRANCH   4   8
BRANCH   1  18
HETATM   18  C2  UNL     1      39.802  -6.842   1.328  1.00  0.00     0.153 C 
BRANCH  18  19
HETATM   19  N1  UNL     1      41.206  -6.631   1.150  1.00  0.00    -0.421 N 
HETATM   20  C1  UNL     1      41.551  -5.757   0.077  1.00  0.00     0.140 C 
ATOM     21  H1  UNL     1      41.907  -7.071   1.746  1.00  0.00     0.153 HD
ENDBRANCH  18  19
ENDBRANCH   1  18
TORSDOF 5
ENDMDL
