MODEL 1
REMARK VINA RESULT: -8.451710770      0.000      0.000
REMARK  6 active torsions:
REMARK  status: ('A' for Active; 'I' for Inactive)
REMARK    1  A    between atoms: C6_8  and  N2_9 
REMARK    2  A    between atoms: N2_9  and  C7_11 
REMARK    3  A    between atoms: C7_11  and  C8_12 
REMARK    4  A    between atoms: C8_12  and  C9_13 
REMARK    5  A    between atoms: C9_13  and  O1_15 
REMARK    6  A    between atoms: C9_13  and  C11_17 
ROOT
HETATM    1  C7  UNL     1      -6.196  -6.754 -19.376  1.00  0.00     0.124 C 
ENDROOT
BRANCH   1   2
HETATM    2  N2  UNL     1      -6.664  -5.589 -18.628  1.00  0.00    -0.376 N 
ATOM      3  H2  UNL     1      -6.929  -4.746 -19.137  1.00  0.00     0.161 HD
BRANCH   2   4
HETATM    4  C6  UNL     1      -6.751  -5.596 -17.357  1.00  0.00     0.102 A 
HETATM    5  N1  UNL     1      -5.626  -5.581 -16.629  1.00  0.00    -0.352 N 
HETATM    6  C5  UNL     1      -5.565  -5.587 -15.303  1.00  0.00     0.102 A 
ATOM      7  H1  UNL     1      -4.742  -5.564 -17.137  1.00  0.00     0.166 HD
HETATM    8  C4  UNL     1      -6.735  -5.609 -14.525  1.00  0.00    -0.003 A 
HETATM    9  C3  UNL     1      -6.828  -5.617 -13.186  1.00  0.00     0.028 A 
HETATM   10  C18 UNL     1      -7.908  -5.625 -15.232  1.00  0.00     0.020 A 
HETATM   11  C2  UNL     1      -8.084  -5.640 -12.635  1.00  0.00    -0.020 A 
HETATM   12  C1  UNL     1      -8.444  -5.653 -11.168  1.00  0.00     0.056 C 
HETATM   13  S1  UNL     1      -9.097  -5.650 -14.007  1.00  0.00    -0.094 SA
HETATM   14  C17 UNL     1      -7.923  -5.619 -16.635  1.00  0.00     0.068 A 
ENDBRANCH   2   4
ENDBRANCH   1   2
BRANCH   1  15
HETATM   15  C8  UNL     1      -7.234  -7.842 -19.333  1.00  0.00     0.062 C 
BRANCH  15  16
HETATM   16  C9  UNL     1      -6.850  -9.016 -18.489  1.00  0.00     0.086 C 
HETATM   17  C10 UNL     1      -6.515 -10.174 -19.398  1.00  0.00     0.051 C 
BRANCH  16  18
HETATM   18  O1  UNL     1      -5.691  -8.656 -17.765  1.00  0.00    -0.385 OA
ATOM     19  H1  UNL     1      -5.062  -9.359 -17.869  1.00  0.00     0.211 HD
ENDBRANCH  16  18
BRANCH  16  20
HETATM   20  C11 UNL     1      -7.903  -9.435 -17.535  1.00  0.00     0.014 A 
HETATM   21  C12 UNL     1      -9.058 -10.025 -17.981  1.00  0.00     0.016 A 
HETATM   22  C13 UNL     1     -10.069 -10.431 -17.103  1.00  0.00     0.043 A 
HETATM   23  C14 UNL     1      -9.924 -10.243 -15.757  1.00  0.00     0.119 A 
HETATM   24  F1  UNL     1     -10.906 -10.637 -14.904  1.00  0.00    -0.206 F 
HETATM   25  C15 UNL     1      -8.780  -9.656 -15.278  1.00  0.00     0.085 A 
HETATM   26  C16 UNL     1      -7.778  -9.256 -16.171  1.00  0.00     0.128 A 
HETATM   27  F2  UNL     1      -6.681  -8.689 -15.644  1.00  0.00    -0.205 F 
ENDBRANCH  16  20
ENDBRANCH  15  16
ENDBRANCH   1  15
TORSDOF 6
ENDMDL
MODEL 2
REMARK VINA RESULT: -8.308546221      3.187      6.120
REMARK  6 active torsions:
REMARK  status: ('A' for Active; 'I' for Inactive)
REMARK    1  A    between atoms: C6_8  and  N2_9 
REMARK    2  A    between atoms: N2_9  and  C7_11 
REMARK    3  A    between atoms: C7_11  and  C8_12 
REMARK    4  A    between atoms: C8_12  and  C9_13 
REMARK    5  A    between atoms: C9_13  and  O1_15 
REMARK    6  A    between atoms: C9_13  and  C11_17 
ROOT
HETATM    1  C7  UNL     1      -8.450  -6.095 -13.752  1.00  0.00     0.124 C 
ENDROOT
BRANCH   1   2
HETATM    2  N2  UNL     1      -8.063  -7.497 -13.613  1.00  0.00    -0.376 N 
ATOM      3  H2  UNL     1      -7.550  -7.789 -12.781  1.00  0.00     0.161 HD
BRANCH   2   4
HETATM    4  C6  UNL     1      -8.347  -8.365 -14.501  1.00  0.00     0.102 A 
HETATM    5  N1  UNL     1      -9.393  -9.179 -14.302  1.00  0.00    -0.352 N 
HETATM    6  C5  UNL     1      -9.803 -10.126 -15.137  1.00  0.00     0.102 A 
ATOM      7  H1  UNL     1      -9.918  -9.061 -13.436  1.00  0.00     0.166 HD
HETATM    8  C4  UNL     1      -9.138 -10.356 -16.353  1.00  0.00    -0.003 A 
HETATM    9  C3  UNL     1      -9.436 -11.270 -17.290  1.00  0.00     0.028 A 
HETATM   10  C18 UNL     1      -8.062  -9.543 -16.595  1.00  0.00     0.020 A 
HETATM   11  C2  UNL     1      -8.645 -11.318 -18.408  1.00  0.00    -0.020 A 
HETATM   12  C1  UNL     1      -8.777 -12.250 -19.589  1.00  0.00     0.056 C 
HETATM   13  S1  UNL     1      -7.506 -10.082 -18.116  1.00  0.00    -0.094 SA
HETATM   14  C17 UNL     1      -7.665  -8.556 -15.681  1.00  0.00     0.068 A 
ENDBRANCH   2   4
ENDBRANCH   1   2
BRANCH   1  15
HETATM   15  C8  UNL     1      -7.222  -5.231 -13.848  1.00  0.00     0.062 C 
BRANCH  15  16
HETATM   16  C9  UNL     1      -7.118  -4.460 -15.125  1.00  0.00     0.086 C 
HETATM   17  C10 UNL     1      -8.495  -3.976 -15.511  1.00  0.00     0.051 C 
BRANCH  16  18
HETATM   18  O1  UNL     1      -6.295  -3.339 -14.876  1.00  0.00    -0.385 OA
ATOM     19  H1  UNL     1      -5.414  -3.660 -14.726  1.00  0.00     0.211 HD
ENDBRANCH  16  18
BRANCH  16  20
HETATM   20  C11 UNL     1      -6.544  -5.239 -16.248  1.00  0.00     0.014 A 
HETATM   21  C12 UNL     1      -7.272  -5.464 -17.388  1.00  0.00     0.016 A 
HETATM   22  C13 UNL     1      -6.757  -6.196 -18.463  1.00  0.00     0.043 A 
HETATM   23  C14 UNL     1      -5.492  -6.712 -18.397  1.00  0.00     0.119 A 
HETATM   24  F1  UNL     1      -4.992  -7.423 -19.441  1.00  0.00    -0.206 F 
HETATM   25  C15 UNL     1      -4.738  -6.505 -17.269  1.00  0.00     0.085 A 
HETATM   26  C16 UNL     1      -5.270  -5.769 -16.203  1.00  0.00     0.128 A 
HETATM   27  F2  UNL     1      -4.485  -5.598 -15.127  1.00  0.00    -0.205 F 
ENDBRANCH  16  20
ENDBRANCH  15  16
ENDBRANCH   1  15
TORSDOF 6
ENDMDL
MODEL 3
REMARK VINA RESULT: -8.200570229      0.938      1.349
REMARK  6 active torsions:
REMARK  status: ('A' for Active; 'I' for Inactive)
REMARK    1  A    between atoms: C6_8  and  N2_9 
REMARK    2  A    between atoms: N2_9  and  C7_11 
REMARK    3  A    between atoms: C7_11  and  C8_12 
REMARK    4  A    between atoms: C8_12  and  C9_13 
REMARK    5  A    between atoms: C9_13  and  O1_15 
REMARK    6  A    between atoms: C9_13  and  C11_17 
ROOT
HETATM    1  C7  UNL     1      -6.239  -6.728 -19.349  1.00  0.00     0.124 C 
ENDROOT
BRANCH   1   2
HETATM    2  N2  UNL     1      -6.703  -5.563 -18.599  1.00  0.00    -0.376 N 
ATOM      3  H2  UNL     1      -6.972  -4.721 -19.107  1.00  0.00     0.161 HD
BRANCH   2   4
HETATM    4  C6  UNL     1      -6.783  -5.570 -17.327  1.00  0.00     0.102 A 
HETATM    5  N1  UNL     1      -5.654  -5.540 -16.606  1.00  0.00    -0.352 N 
HETATM    6  C5  UNL     1      -5.585  -5.543 -15.280  1.00  0.00     0.102 A 
ATOM      7  H1  UNL     1      -4.773  -5.513 -17.118  1.00  0.00     0.166 HD
HETATM    8  C4  UNL     1      -6.750  -5.579 -14.495  1.00  0.00    -0.003 A 
HETATM    9  C3  UNL     1      -6.836  -5.586 -13.156  1.00  0.00     0.028 A 
HETATM   10  C18 UNL     1      -7.927  -5.609 -15.195  1.00  0.00     0.020 A 
HETATM   11  C2  UNL     1      -8.087  -5.623 -12.597  1.00  0.00    -0.020 A 
HETATM   12  C1  UNL     1      -8.439  -5.639 -11.129  1.00  0.00     0.056 C 
HETATM   13  S1  UNL     1      -9.108  -5.647 -13.963  1.00  0.00    -0.094 SA
HETATM   14  C17 UNL     1      -7.950  -5.606 -16.598  1.00  0.00     0.068 A 
ENDBRANCH   2   4
ENDBRANCH   1   2
BRANCH   1  15
HETATM   15  C8  UNL     1      -7.244  -7.841 -19.242  1.00  0.00     0.062 C 
BRANCH  15  16
HETATM   16  C9  UNL     1      -6.809  -8.973 -18.367  1.00  0.00     0.086 C 
HETATM   17  C10 UNL     1      -6.477 -10.159 -19.240  1.00  0.00     0.051 C 
BRANCH  16  18
HETATM   18  O1  UNL     1      -5.636  -8.561 -17.695  1.00  0.00    -0.385 OA
ATOM     19  H1  UNL     1      -5.455  -9.204 -17.019  1.00  0.00     0.211 HD
ENDBRANCH  16  18
BRANCH  16  20
HETATM   20  C11 UNL     1      -7.822  -9.377 -17.364  1.00  0.00     0.014 A 
HETATM   21  C12 UNL     1      -7.610  -9.159 -16.027  1.00  0.00     0.016 A 
HETATM   22  C13 UNL     1      -8.548  -9.531 -15.058  1.00  0.00     0.043 A 
HETATM   23  C14 UNL     1      -9.718 -10.131 -15.432  1.00  0.00     0.119 A 
HETATM   24  F1  UNL     1     -10.630 -10.493 -14.491  1.00  0.00    -0.206 F 
HETATM   25  C15 UNL     1      -9.961 -10.364 -16.763  1.00  0.00     0.085 A 
HETATM   26  C16 UNL     1      -9.011  -9.984 -17.719  1.00  0.00     0.128 A 
HETATM   27  F2  UNL     1      -9.305 -10.236 -19.005  1.00  0.00    -0.205 F 
ENDBRANCH  16  20
ENDBRANCH  15  16
ENDBRANCH   1  15
TORSDOF 6
ENDMDL
MODEL 4
REMARK VINA RESULT: -8.139401271      2.423      5.127
REMARK  6 active torsions:
REMARK  status: ('A' for Active; 'I' for Inactive)
REMARK    1  A    between atoms: C6_8  and  N2_9 
REMARK    2  A    between atoms: N2_9  and  C7_11 
REMARK    3  A    between atoms: C7_11  and  C8_12 
REMARK    4  A    between atoms: C8_12  and  C9_13 
REMARK    5  A    between atoms: C9_13  and  O1_15 
REMARK    6  A    between atoms: C9_13  and  C11_17 
ROOT
HETATM    1  C7  UNL     1      -4.327  -5.738 -16.590  1.00  0.00     0.124 C 
ENDROOT
BRANCH   1   2
HETATM    2  N2  UNL     1      -4.390  -7.121 -17.057  1.00  0.00    -0.376 N 
ATOM      3  H2  UNL     1      -3.555  -7.548 -17.457  1.00  0.00     0.161 HD
BRANCH   2   4
HETATM    4  C6  UNL     1      -5.459  -7.810 -16.978  1.00  0.00     0.102 A 
HETATM    5  N1  UNL     1      -5.924  -8.416 -18.079  1.00  0.00    -0.352 N 
HETATM    6  C5  UNL     1      -7.021  -9.161 -18.145  1.00  0.00     0.102 A 
ATOM      7  H1  UNL     1      -5.390  -8.295 -18.939  1.00  0.00     0.166 HD
HETATM    8  C4  UNL     1      -7.816  -9.381 -17.007  1.00  0.00    -0.003 A 
HETATM    9  C3  UNL     1      -8.942 -10.105 -16.922  1.00  0.00     0.028 A 
HETATM   10  C18 UNL     1      -7.374  -8.777 -15.859  1.00  0.00     0.020 A 
HETATM   11  C2  UNL     1      -9.559 -10.184 -15.700  1.00  0.00    -0.020 A 
HETATM   12  C1  UNL     1     -10.825 -10.930 -15.355  1.00  0.00     0.056 C 
HETATM   13  S1  UNL     1      -8.543  -9.241 -14.705  1.00  0.00    -0.094 SA
HETATM   14  C17 UNL     1      -6.208  -7.997 -15.839  1.00  0.00     0.068 A 
ENDBRANCH   2   4
ENDBRANCH   1   2
BRANCH   1  15
HETATM   15  C8  UNL     1      -5.527  -4.976 -17.079  1.00  0.00     0.062 C 
BRANCH  15  16
HETATM   16  C9  UNL     1      -6.076  -4.002 -16.087  1.00  0.00     0.086 C 
HETATM   17  C10 UNL     1      -4.923  -3.337 -15.375  1.00  0.00     0.051 C 
BRANCH  16  18
HETATM   18  O1  UNL     1      -6.792  -3.020 -16.809  1.00  0.00    -0.385 OA
ATOM     19  H1  UNL     1      -7.713  -3.245 -16.758  1.00  0.00     0.211 HD
ENDBRANCH  16  18
BRANCH  16  20
HETATM   20  C11 UNL     1      -6.978  -4.614 -15.083  1.00  0.00     0.014 A 
HETATM   21  C12 UNL     1      -6.547  -4.846 -13.803  1.00  0.00     0.016 A 
HETATM   22  C13 UNL     1      -7.376  -5.424 -12.835  1.00  0.00     0.043 A 
HETATM   23  C14 UNL     1      -8.658  -5.776 -13.153  1.00  0.00     0.119 A 
HETATM   24  F1  UNL     1      -9.464  -6.337 -12.214  1.00  0.00    -0.206 F 
HETATM   25  C15 UNL     1      -9.121  -5.557 -14.427  1.00  0.00     0.085 A 
HETATM   26  C16 UNL     1      -8.277  -4.977 -15.382  1.00  0.00     0.128 A 
HETATM   27  F2  UNL     1      -8.785  -4.786 -16.610  1.00  0.00    -0.205 F 
ENDBRANCH  16  20
ENDBRANCH  15  16
ENDBRANCH   1  15
TORSDOF 6
ENDMDL
MODEL 5
REMARK VINA RESULT: -8.024430456      2.399      5.095
REMARK  6 active torsions:
REMARK  status: ('A' for Active; 'I' for Inactive)
REMARK    1  A    between atoms: C6_8  and  N2_9 
REMARK    2  A    between atoms: N2_9  and  C7_11 
REMARK    3  A    between atoms: C7_11  and  C8_12 
REMARK    4  A    between atoms: C8_12  and  C9_13 
REMARK    5  A    between atoms: C9_13  and  O1_15 
REMARK    6  A    between atoms: C9_13  and  C11_17 
ROOT
HETATM    1  C7  UNL     1      -4.815  -5.558 -17.803  1.00  0.00     0.124 C 
ENDROOT
BRANCH   1   2
HETATM    2  N2  UNL     1      -4.640  -6.997 -17.621  1.00  0.00    -0.376 N 
ATOM      3  H2  UNL     1      -3.698  -7.386 -17.619  1.00  0.00     0.161 HD
BRANCH   2   4
HETATM    4  C6  UNL     1      -5.633  -7.780 -17.464  1.00  0.00     0.102 A 
HETATM    5  N1  UNL     1      -6.009  -8.565 -18.483  1.00  0.00    -0.352 N 
HETATM    6  C5  UNL     1      -7.020  -9.425 -18.462  1.00  0.00     0.102 A 
ATOM      7  H1  UNL     1      -5.473  -8.495 -19.348  1.00  0.00     0.166 HD
HETATM    8  C4  UNL     1      -7.810  -9.585 -17.312  1.00  0.00    -0.003 A 
HETATM    9  C3  UNL     1      -8.856 -10.410 -17.145  1.00  0.00     0.028 A 
HETATM   10  C18 UNL     1      -7.458  -8.801 -16.245  1.00  0.00     0.020 A 
HETATM   11  C2  UNL     1      -9.485 -10.401 -15.926  1.00  0.00    -0.020 A 
HETATM   12  C1  UNL     1     -10.674 -11.230 -15.500  1.00  0.00     0.056 C 
HETATM   13  S1  UNL     1      -8.595  -9.239 -15.051  1.00  0.00    -0.094 SA
HETATM   14  C17 UNL     1      -6.381  -7.904 -16.315  1.00  0.00     0.068 A 
ENDBRANCH   2   4
ENDBRANCH   1   2
BRANCH   1  15
HETATM   15  C8  UNL     1      -4.577  -4.843 -16.501  1.00  0.00     0.062 C 
BRANCH  15  16
HETATM   16  C9  UNL     1      -5.637  -3.850 -16.149  1.00  0.00     0.086 C 
HETATM   17  C10 UNL     1      -5.020  -2.765 -15.299  1.00  0.00     0.051 C 
BRANCH  16  18
HETATM   18  O1  UNL     1      -6.097  -3.276 -17.356  1.00  0.00    -0.385 OA
ATOM     19  H1  UNL     1      -5.975  -3.921 -18.042  1.00  0.00     0.211 HD
ENDBRANCH  16  18
BRANCH  16  20
HETATM   20  C11 UNL     1      -6.790  -4.436 -15.425  1.00  0.00     0.014 A 
HETATM   21  C12 UNL     1      -8.057  -4.358 -15.944  1.00  0.00     0.016 A 
HETATM   22  C13 UNL     1      -9.163  -4.901 -15.284  1.00  0.00     0.043 A 
HETATM   23  C14 UNL     1      -9.001  -5.534 -14.083  1.00  0.00     0.119 A 
HETATM   24  F1  UNL     1     -10.075  -6.062 -13.440  1.00  0.00    -0.206 F 
HETATM   25  C15 UNL     1      -7.746  -5.630 -13.535  1.00  0.00     0.085 A 
HETATM   26  C16 UNL     1      -6.649  -5.080 -14.212  1.00  0.00     0.128 A 
HETATM   27  F2  UNL     1      -5.447  -5.206 -13.628  1.00  0.00    -0.205 F 
ENDBRANCH  16  20
ENDBRANCH  15  16
ENDBRANCH   1  15
TORSDOF 6
ENDMDL
