MODEL 1
REMARK VINA RESULT: -8.863900035      0.000      0.000
REMARK  5 active torsions:
REMARK  status: ('A' for Active; 'I' for Inactive)
REMARK    1  A    between atoms: C6_8  and  C7_9 
REMARK    2  A    between atoms: C7_9  and  N1_10 
REMARK    3  A    between atoms: N1_10  and  C8_13 
REMARK    4  A    between atoms: C8_13  and  C9_14 
REMARK    5  A    between atoms: C14_19  and  C15_20 
ROOT
HETATM    1  C8  UNL     1      -4.477  -5.881 -15.744  1.00  0.00     0.237 C 
ENDROOT
BRANCH   1   2
HETATM    2  N1  UNL     1      -3.995  -5.003 -16.736  1.00  0.00    -0.071 N 
ATOM      3  H12 UNL     1      -3.337  -4.326 -16.350  1.00  0.00     0.277 HD
ATOM      4  H11 UNL     1      -4.720  -4.357 -17.047  1.00  0.00     0.277 HD
BRANCH   2   5
HETATM    5  C7  UNL     1      -3.425  -5.723 -17.836  1.00  0.00     0.272 C 
BRANCH   5   6
HETATM    6  C6  UNL     1      -3.307  -4.970 -19.102  1.00  0.00    -0.013 A 
HETATM    7  C4  UNL     1      -4.330  -4.868 -20.036  1.00  0.00     0.022 A 
HETATM    8  C3  UNL     1      -4.110  -4.231 -21.259  1.00  0.00     0.294 A 
HETATM    9  C5  UNL     1      -5.647  -5.425 -19.682  1.00  0.00     0.055 C 
HETATM   10  O1  UNL     1      -2.964  -3.733 -21.545  1.00  0.00    -0.279 OA
HETATM   11  O2  UNL     1      -5.069  -4.138 -22.112  1.00  0.00    -0.259 OA
HETATM   12  C2  UNL     1      -1.977  -3.808 -20.698  1.00  0.00     0.059 A 
HETATM   13  C1  UNL     1      -0.630  -3.223 -21.051  1.00  0.00     0.077 C 
HETATM   14  C18 UNL     1      -2.099  -4.424 -19.442  1.00  0.00    -0.024 A 
HETATM   15  C19 UNL     1      -0.892  -4.446 -18.572  1.00  0.00     0.051 C 
ENDBRANCH   5   6
ENDBRANCH   2   5
ENDBRANCH   1   2
BRANCH   1  16
HETATM   16  C9  UNL     1      -5.855  -6.330 -15.591  1.00  0.00     0.017 C 
HETATM   17  C10 UNL     1      -6.476  -6.319 -14.256  1.00  0.00     0.011 C 
HETATM   18  C11 UNL     1      -7.882  -6.904 -14.255  1.00  0.00     0.041 C 
HETATM   19  C12 UNL     1      -8.040  -8.030 -15.182  1.00  0.00    -0.033 A 
HETATM   20  C13 UNL     1      -9.140  -8.839 -15.437  1.00  0.00     0.043 A 
HETATM   21  C16 UNL     1      -7.040  -8.490 -15.997  1.00  0.00     0.016 A 
HETATM   22  C14 UNL     1      -8.810  -9.766 -16.379  1.00  0.00     0.117 A 
HETATM   23  N2  UNL     1      -7.535  -9.542 -16.708  1.00  0.00    -0.355 N 
ATOM     24  H2  UNL     1      -7.006 -10.081 -17.395  1.00  0.00     0.166 HD
HETATM   25  C17 UNL     1      -5.726  -7.860 -15.975  1.00  0.00     0.064 C 
BRANCH  22  26
HETATM   26  C15 UNL     1      -9.655 -10.852 -16.965  1.00  0.00     0.432 C 
HETATM   27  F1  UNL     1      -9.967 -11.793 -16.032  1.00  0.00    -0.165 F 
HETATM   28  F2  UNL     1      -8.924 -11.474 -17.984  1.00  0.00    -0.165 F 
HETATM   29  F3  UNL     1     -10.766 -10.318 -17.591  1.00  0.00    -0.165 F 
ENDBRANCH  22  26
ENDBRANCH   1  16
TORSDOF 5
ENDMDL
MODEL 2
REMARK VINA RESULT: -8.841460790      6.052      8.994
REMARK  5 active torsions:
REMARK  status: ('A' for Active; 'I' for Inactive)
REMARK    1  A    between atoms: C6_8  and  C7_9 
REMARK    2  A    between atoms: C7_9  and  N1_10 
REMARK    3  A    between atoms: N1_10  and  C8_13 
REMARK    4  A    between atoms: C8_13  and  C9_14 
REMARK    5  A    between atoms: C14_19  and  C15_20 
ROOT
HETATM    1  C8  UNL     1      -8.402 -12.233 -19.261  1.00  0.00     0.237 C 
ENDROOT
BRANCH   1   2
HETATM    2  N1  UNL     1      -9.403 -11.909 -18.324  1.00  0.00    -0.071 N 
ATOM      3  H12 UNL     1      -9.245 -12.376 -17.430  1.00  0.00     0.277 HD
ATOM      4  H11 UNL     1     -10.297 -12.337 -18.568  1.00  0.00     0.277 HD
BRANCH   2   5
HETATM    5  C7  UNL     1      -9.525 -10.491 -18.161  1.00  0.00     0.272 C 
BRANCH   5   6
HETATM    6  C6  UNL     1      -8.840  -9.921 -16.982  1.00  0.00    -0.013 A 
HETATM    7  C4  UNL     1      -9.392  -9.892 -15.708  1.00  0.00     0.022 A 
HETATM    8  C3  UNL     1      -8.731  -9.240 -14.666  1.00  0.00     0.294 A 
HETATM    9  C5  UNL     1     -10.670 -10.593 -15.493  1.00  0.00     0.055 C 
HETATM   10  O1  UNL     1      -7.609  -8.653 -14.862  1.00  0.00    -0.279 OA
HETATM   11  O2  UNL     1      -9.252  -9.228 -13.489  1.00  0.00    -0.259 OA
HETATM   12  C2  UNL     1      -7.057  -8.653 -16.042  1.00  0.00     0.059 A 
HETATM   13  C1  UNL     1      -5.738  -7.951 -16.263  1.00  0.00     0.077 C 
HETATM   14  C18 UNL     1      -7.640  -9.285 -17.153  1.00  0.00    -0.024 A 
HETATM   15  C19 UNL     1      -6.907  -9.206 -18.446  1.00  0.00     0.051 C 
ENDBRANCH   5   6
ENDBRANCH   2   5
ENDBRANCH   1   2
BRANCH   1  16
HETATM   16  C9  UNL     1      -8.622 -12.685 -20.629  1.00  0.00     0.017 C 
HETATM   17  C10 UNL     1      -8.104 -13.998 -21.050  1.00  0.00     0.011 C 
HETATM   18  C11 UNL     1      -8.337 -14.277 -22.529  1.00  0.00     0.041 C 
HETATM   19  C12 UNL     1      -8.211 -13.081 -23.370  1.00  0.00    -0.033 A 
HETATM   20  C13 UNL     1      -8.312 -12.934 -24.747  1.00  0.00     0.043 A 
HETATM   21  C16 UNL     1      -7.949 -11.830 -22.877  1.00  0.00     0.016 A 
HETATM   22  C14 UNL     1      -8.111 -11.627 -25.077  1.00  0.00     0.117 A 
HETATM   23  N2  UNL     1      -7.892 -10.971 -23.934  1.00  0.00    -0.355 N 
ATOM     24  H2  UNL     1      -7.709  -9.970 -23.862  1.00  0.00     0.166 HD
HETATM   25  C17 UNL     1      -7.774 -11.626 -21.445  1.00  0.00     0.064 C 
BRANCH  22  26
HETATM   26  C15 UNL     1      -8.111 -10.990 -26.430  1.00  0.00     0.432 C 
HETATM   27  F1  UNL     1      -6.998 -10.229 -26.619  1.00  0.00    -0.165 F 
HETATM   28  F2  UNL     1      -9.230 -10.154 -26.519  1.00  0.00    -0.165 F 
HETATM   29  F3  UNL     1      -8.292 -11.943 -27.415  1.00  0.00    -0.165 F 
ENDBRANCH  22  26
ENDBRANCH   1  16
TORSDOF 5
ENDMDL
MODEL 3
REMARK VINA RESULT: -8.832157625      1.767      2.250
REMARK  5 active torsions:
REMARK  status: ('A' for Active; 'I' for Inactive)
REMARK    1  A    between atoms: C6_8  and  C7_9 
REMARK    2  A    between atoms: C7_9  and  N1_10 
REMARK    3  A    between atoms: N1_10  and  C8_13 
REMARK    4  A    between atoms: C8_13  and  C9_14 
REMARK    5  A    between atoms: C14_19  and  C15_20 
ROOT
HETATM    1  C8  UNL     1      -5.643  -5.245 -14.626  1.00  0.00     0.237 C 
ENDROOT
BRANCH   1   2
HETATM    2  N1  UNL     1      -4.649  -5.388 -15.616  1.00  0.00    -0.071 N 
ATOM      3  H12 UNL     1      -4.458  -6.370 -15.816  1.00  0.00     0.277 HD
ATOM      4  H11 UNL     1      -3.730  -5.118 -15.266  1.00  0.00     0.277 HD
BRANCH   2   5
HETATM    5  C7  UNL     1      -4.993  -4.667 -16.805  1.00  0.00     0.272 C 
BRANCH   5   6
HETATM    6  C6  UNL     1      -4.937  -5.442 -18.062  1.00  0.00    -0.013 A 
HETATM    7  C4  UNL     1      -6.035  -6.083 -18.622  1.00  0.00     0.022 A 
HETATM    8  C3  UNL     1      -5.883  -6.887 -19.753  1.00  0.00     0.294 A 
HETATM    9  C5  UNL     1      -7.353  -5.863 -18.002  1.00  0.00     0.055 C 
HETATM   10  O1  UNL     1      -4.733  -7.052 -20.295  1.00  0.00    -0.279 OA
HETATM   11  O2  UNL     1      -6.911  -7.469 -20.264  1.00  0.00    -0.259 OA
HETATM   12  C2  UNL     1      -3.677  -6.471 -19.801  1.00  0.00     0.059 A 
HETATM   13  C1  UNL     1      -2.326  -6.679 -20.444  1.00  0.00     0.077 C 
HETATM   14  C18 UNL     1      -3.726  -5.640 -18.670  1.00  0.00    -0.024 A 
HETATM   15  C19 UNL     1      -2.445  -5.042 -18.205  1.00  0.00     0.051 C 
ENDBRANCH   5   6
ENDBRANCH   2   5
ENDBRANCH   1   2
BRANCH   1  16
HETATM   16  C9  UNL     1      -6.881  -6.008 -14.537  1.00  0.00     0.017 C 
HETATM   17  C10 UNL     1      -7.413  -6.374 -13.213  1.00  0.00     0.011 C 
HETATM   18  C11 UNL     1      -8.658  -7.247 -13.300  1.00  0.00     0.041 C 
HETATM   19  C12 UNL     1      -8.622  -8.197 -14.417  1.00  0.00    -0.033 A 
HETATM   20  C13 UNL     1      -9.534  -9.171 -14.800  1.00  0.00     0.043 A 
HETATM   21  C16 UNL     1      -7.593  -8.270 -15.319  1.00  0.00     0.016 A 
HETATM   22  C14 UNL     1      -9.065  -9.819 -15.904  1.00  0.00     0.117 A 
HETATM   23  N2  UNL     1      -7.889  -9.262 -16.205  1.00  0.00    -0.355 N 
ATOM     24  H2  UNL     1      -7.296  -9.540 -16.988  1.00  0.00     0.166 HD
HETATM   25  C17 UNL     1      -6.447  -7.378 -15.201  1.00  0.00     0.064 C 
BRANCH  22  26
HETATM   26  C15 UNL     1      -9.688 -10.944 -16.667  1.00  0.00     0.432 C 
HETATM   27  F1  UNL     1      -8.865 -11.385 -17.658  1.00  0.00    -0.165 F 
HETATM   28  F2  UNL     1     -10.867 -10.473 -17.257  1.00  0.00    -0.165 F 
HETATM   29  F3  UNL     1     -10.091 -11.949 -15.807  1.00  0.00    -0.165 F 
ENDBRANCH  22  26
ENDBRANCH   1  16
TORSDOF 5
ENDMDL
MODEL 4
REMARK VINA RESULT: -8.756672335      4.480      7.468
REMARK  5 active torsions:
REMARK  status: ('A' for Active; 'I' for Inactive)
REMARK    1  A    between atoms: C6_8  and  C7_9 
REMARK    2  A    between atoms: C7_9  and  N1_10 
REMARK    3  A    between atoms: N1_10  and  C8_13 
REMARK    4  A    between atoms: C8_13  and  C9_14 
REMARK    5  A    between atoms: C14_19  and  C15_20 
ROOT
HETATM    1  C8  UNL     1      -8.170  -6.055 -14.937  1.00  0.00     0.237 C 
ENDROOT
BRANCH   1   2
HETATM    2  N1  UNL     1      -8.739  -7.337 -14.789  1.00  0.00    -0.071 N 
ATOM      3  H12 UNL     1      -9.602  -7.428 -15.326  1.00  0.00     0.277 HD
ATOM      4  H11 UNL     1      -9.122  -7.470 -13.853  1.00  0.00     0.277 HD
BRANCH   2   5
HETATM    5  C7  UNL     1      -7.800  -8.365 -15.125  1.00  0.00     0.272 C 
BRANCH   5   6
HETATM    6  C6  UNL     1      -8.239  -9.316 -16.168  1.00  0.00    -0.013 A 
HETATM    7  C4  UNL     1      -9.307 -10.191 -16.015  1.00  0.00     0.022 A 
HETATM    8  C3  UNL     1      -9.594 -11.135 -17.001  1.00  0.00     0.294 A 
HETATM    9  C5  UNL     1     -10.133 -10.065 -14.801  1.00  0.00     0.055 C 
HETATM   10  O1  UNL     1      -8.880 -11.219 -18.062  1.00  0.00    -0.279 OA
HETATM   11  O2  UNL     1     -10.592 -11.934 -16.848  1.00  0.00    -0.259 OA
HETATM   12  C2  UNL     1      -7.867 -10.420 -18.245  1.00  0.00     0.059 A 
HETATM   13  C1  UNL     1      -7.029 -10.532 -19.497  1.00  0.00     0.077 C 
HETATM   14  C18 UNL     1      -7.500  -9.434 -17.315  1.00  0.00    -0.024 A 
HETATM   15  C19 UNL     1      -6.319  -8.590 -17.644  1.00  0.00     0.051 C 
ENDBRANCH   5   6
ENDBRANCH   2   5
ENDBRANCH   1   2
BRANCH   1  16
HETATM   16  C9  UNL     1      -6.864  -5.759 -15.511  1.00  0.00     0.017 C 
HETATM   17  C10 UNL     1      -6.070  -4.644 -14.967  1.00  0.00     0.011 C 
HETATM   18  C11 UNL     1      -4.777  -4.411 -15.736  1.00  0.00     0.041 C 
HETATM   19  C12 UNL     1      -4.912  -4.643 -17.178  1.00  0.00    -0.033 A 
HETATM   20  C13 UNL     1      -3.986  -4.501 -18.204  1.00  0.00     0.043 A 
HETATM   21  C16 UNL     1      -6.071  -5.064 -17.775  1.00  0.00     0.016 A 
HETATM   22  C14 UNL     1      -4.574  -4.825 -19.390  1.00  0.00     0.117 A 
HETATM   23  N2  UNL     1      -5.836  -5.164 -19.113  1.00  0.00    -0.355 N 
ATOM     24  H2  UNL     1      -6.527  -5.456 -19.806  1.00  0.00     0.166 HD
HETATM   25  C17 UNL     1      -7.264  -5.306 -16.974  1.00  0.00     0.064 C 
BRANCH  22  26
HETATM   26  C15 UNL     1      -3.984  -4.815 -20.764  1.00  0.00     0.432 C 
HETATM   27  F1  UNL     1      -3.419  -6.015 -21.069  1.00  0.00    -0.165 F 
HETATM   28  F2  UNL     1      -2.981  -3.839 -20.802  1.00  0.00    -0.165 F 
HETATM   29  F3  UNL     1      -4.923  -4.404 -21.692  1.00  0.00    -0.165 F 
ENDBRANCH  22  26
ENDBRANCH   1  16
TORSDOF 5
ENDMDL
MODEL 5
REMARK VINA RESULT: -8.656987496      5.863      8.482
REMARK  5 active torsions:
REMARK  status: ('A' for Active; 'I' for Inactive)
REMARK    1  A    between atoms: C6_8  and  C7_9 
REMARK    2  A    between atoms: C7_9  and  N1_10 
REMARK    3  A    between atoms: N1_10  and  C8_13 
REMARK    4  A    between atoms: C8_13  and  C9_14 
REMARK    5  A    between atoms: C14_19  and  C15_20 
ROOT
HETATM    1  C8  UNL     1      -5.073  -7.685 -16.341  1.00  0.00     0.237 C 
ENDROOT
BRANCH   1   2
HETATM    2  N1  UNL     1      -6.003  -8.742 -16.279  1.00  0.00    -0.071 N 
ATOM      3  H12 UNL     1      -6.245  -8.972 -15.315  1.00  0.00     0.277 HD
ATOM      4  H11 UNL     1      -5.580  -9.630 -16.549  1.00  0.00     0.277 HD
BRANCH   2   5
HETATM    5  C7  UNL     1      -7.170  -8.456 -17.060  1.00  0.00     0.272 C 
BRANCH   5   6
HETATM    6  C6  UNL     1      -8.115  -9.580 -17.234  1.00  0.00    -0.013 A 
HETATM    7  C4  UNL     1      -9.051  -9.956 -16.279  1.00  0.00     0.022 A 
HETATM    8  C3  UNL     1      -9.836 -11.094 -16.468  1.00  0.00     0.294 A 
HETATM    9  C5  UNL     1      -9.202  -9.102 -15.087  1.00  0.00     0.055 C 
HETATM   10  O1  UNL     1      -9.708 -11.815 -17.520  1.00  0.00    -0.279 OA
HETATM   11  O2  UNL     1     -10.703 -11.426 -15.577  1.00  0.00    -0.259 OA
HETATM   12  C2  UNL     1      -8.841 -11.500 -18.440  1.00  0.00     0.059 A 
HETATM   13  C1  UNL     1      -8.695 -12.362 -19.671  1.00  0.00     0.077 C 
HETATM   14  C18 UNL     1      -8.009 -10.373 -18.344  1.00  0.00    -0.024 A 
HETATM   15  C19 UNL     1      -7.057 -10.130 -19.463  1.00  0.00     0.051 C 
ENDBRANCH   5   6
ENDBRANCH   2   5
ENDBRANCH   1   2
BRANCH   1  16
HETATM   16  C9  UNL     1      -5.105  -6.467 -15.541  1.00  0.00     0.017 C 
HETATM   17  C10 UNL     1      -6.344  -6.094 -14.838  1.00  0.00     0.011 C 
HETATM   18  C11 UNL     1      -6.236  -4.752 -14.127  1.00  0.00     0.041 C 
HETATM   19  C12 UNL     1      -5.428  -3.771 -14.860  1.00  0.00    -0.033 A 
HETATM   20  C13 UNL     1      -5.132  -2.447 -14.564  1.00  0.00     0.043 A 
HETATM   21  C16 UNL     1      -4.799  -4.041 -16.047  1.00  0.00     0.016 A 
HETATM   22  C14 UNL     1      -4.347  -1.930 -15.550  1.00  0.00     0.117 A 
HETATM   23  N2  UNL     1      -4.154  -2.907 -16.441  1.00  0.00    -0.355 N 
ATOM     24  H2  UNL     1      -3.602  -2.817 -17.294  1.00  0.00     0.166 HD
HETATM   25  C17 UNL     1      -4.912  -5.360 -16.656  1.00  0.00     0.064 C 
BRANCH  22  26
HETATM   26  C15 UNL     1      -3.787  -0.549 -15.677  1.00  0.00     0.432 C 
HETATM   27  F1  UNL     1      -2.548  -0.567 -16.242  1.00  0.00    -0.165 F 
HETATM   28  F2  UNL     1      -3.672  -0.004 -14.393  1.00  0.00    -0.165 F 
HETATM   29  F3  UNL     1      -4.676   0.276 -16.342  1.00  0.00    -0.165 F 
ENDBRANCH  22  26
ENDBRANCH   1  16
TORSDOF 5
ENDMDL
