MODEL 1
REMARK VINA RESULT: -8.727824073      0.000      0.000
REMARK  6 active torsions:
REMARK  status: ('A' for Active; 'I' for Inactive)
REMARK    1  A    between atoms: C2_2  and  N1_3 
REMARK    2  A    between atoms: N1_3  and  C3_5 
REMARK    3  A    between atoms: C4_8  and  N3_9 
REMARK    4  A    between atoms: C10_17  and  N5_18 
REMARK    5  A    between atoms: N5_18  and  C11_20 
REMARK    6  A    between atoms: C15_24  and  C16_25 
ROOT
HETATM    1  C3  UNL     1      -4.715  -3.234 -18.199  1.00  0.00     0.707 A 
HETATM    2  N2  UNL     1      -4.141  -2.120 -17.664  1.00  0.00    -0.021 N 
ATOM      3  H2  UNL     1      -3.661  -1.491 -18.307  1.00  0.00     0.203 HD
HETATM    4  C4  UNL     1      -4.151  -1.781 -16.378  1.00  0.00     0.713 A 
HETATM    5  N4  UNL     1      -4.786  -2.620 -15.540  1.00  0.00    -0.021 N 
ATOM      6  H4  UNL     1      -4.816  -2.398 -14.545  1.00  0.00     0.203 HD
HETATM    7  C10 UNL     1      -5.388  -3.754 -15.983  1.00  0.00     0.711 A 
HETATM    8  N6  UNL     1      -5.339  -4.037 -17.303  1.00  0.00    -0.021 N 
ATOM      9  H6  UNL     1      -5.789  -4.888 -17.639  1.00  0.00     0.203 HD
ENDROOT
BRANCH   7  10
HETATM   10  N5  UNL     1      -5.921  -4.482 -15.094  1.00  0.00    -0.190 N 
ATOM     11  H5  UNL     1      -5.970  -4.108 -14.146  1.00  0.00     0.184 HD
BRANCH  10  12
HETATM   12  C11 UNL     1      -6.452  -5.772 -15.314  1.00  0.00     0.061 A 
HETATM   13  C12 UNL     1      -5.659  -6.879 -15.497  1.00  0.00    -0.033 A 
HETATM   14  C13 UNL     1      -4.159  -6.742 -15.479  1.00  0.00     0.050 C 
HETATM   15  C14 UNL     1      -6.238  -8.126 -15.693  1.00  0.00     0.025 A 
HETATM   16  C15 UNL     1      -7.595  -8.323 -15.716  1.00  0.00     0.049 A 
HETATM   17  C17 UNL     1      -8.371  -7.178 -15.530  1.00  0.00     0.025 A 
HETATM   18  C18 UNL     1      -7.821  -5.928 -15.330  1.00  0.00    -0.033 A 
HETATM   19  C19 UNL     1      -8.768  -4.745 -15.171  1.00  0.00     0.050 C 
BRANCH  16  20
HETATM   20  C16 UNL     1      -8.250  -9.620 -15.977  1.00  0.00     0.417 C 
HETATM   21  F1  UNL     1      -8.270 -10.416 -14.834  1.00  0.00    -0.166 F 
HETATM   22  F2  UNL     1      -9.601  -9.381 -16.249  1.00  0.00    -0.166 F 
HETATM   23  F3  UNL     1      -7.691 -10.245 -17.068  1.00  0.00    -0.166 F 
ENDBRANCH  16  20
ENDBRANCH  10  12
ENDBRANCH   7  10
BRANCH   4  24
HETATM   24  N3  UNL     1      -3.404  -0.635 -16.000  1.00  0.00    -0.196 N 
HETATM   25  C5  UNL     1      -2.018  -0.534 -16.238  1.00  0.00     0.082 C 
HETATM   26  C6  UNL     1      -1.352   0.619 -15.565  1.00  0.00     0.045 C 
HETATM   27  C7  UNL     1      -2.165   1.847 -15.394  1.00  0.00     0.007 C 
HETATM   28  C8  UNL     1      -3.542   1.772 -15.977  1.00  0.00     0.021 C 
HETATM   29  C9  UNL     1      -4.146   0.452 -15.404  1.00  0.00     0.146 C 
ENDBRANCH   4  24
BRANCH   1  30
HETATM   30  N1  UNL     1      -4.646  -3.398 -19.442  1.00  0.00    -0.225 N 
ATOM     31  H1  UNL     1      -4.208  -2.585 -19.876  1.00  0.00     0.177 HD
BRANCH  30  32
HETATM   32  C2  UNL     1      -4.981  -4.345 -20.424  1.00  0.00     0.133 C 
HETATM   33  C1  UNL     1      -4.223  -5.653 -20.153  1.00  0.00     0.027 C 
ENDBRANCH  30  32
ENDBRANCH   1  30
TORSDOF 6
ENDMDL
MODEL 2
REMARK VINA RESULT: -8.666546223      0.085      1.615
REMARK  6 active torsions:
REMARK  status: ('A' for Active; 'I' for Inactive)
REMARK    1  A    between atoms: C2_2  and  N1_3 
REMARK    2  A    between atoms: N1_3  and  C3_5 
REMARK    3  A    between atoms: C4_8  and  N3_9 
REMARK    4  A    between atoms: C10_17  and  N5_18 
REMARK    5  A    between atoms: N5_18  and  C11_20 
REMARK    6  A    between atoms: C15_24  and  C16_25 
ROOT
HETATM    1  C3  UNL     1      -4.757  -3.265 -18.214  1.00  0.00     0.707 A 
HETATM    2  N2  UNL     1      -4.185  -2.144 -17.692  1.00  0.00    -0.021 N 
ATOM      3  H2  UNL     1      -3.732  -1.506 -18.346  1.00  0.00     0.203 HD
HETATM    4  C4  UNL     1      -4.165  -1.807 -16.405  1.00  0.00     0.713 A 
HETATM    5  N4  UNL     1      -4.765  -2.657 -15.553  1.00  0.00    -0.021 N 
ATOM      6  H4  UNL     1      -4.772  -2.437 -14.557  1.00  0.00     0.203 HD
HETATM    7  C10 UNL     1      -5.362  -3.799 -15.982  1.00  0.00     0.711 A 
HETATM    8  N6  UNL     1      -5.345  -4.079 -17.303  1.00  0.00    -0.021 N 
ATOM      9  H6  UNL     1      -5.791  -4.936 -17.629  1.00  0.00     0.203 HD
ENDROOT
BRANCH   7  10
HETATM   10  N5  UNL     1      -5.859  -4.537 -15.080  1.00  0.00    -0.190 N 
ATOM     11  H5  UNL     1      -5.796  -4.210 -14.116  1.00  0.00     0.184 HD
BRANCH  10  12
HETATM   12  C11 UNL     1      -6.496  -5.777 -15.307  1.00  0.00     0.061 A 
HETATM   13  C12 UNL     1      -7.863  -5.916 -15.330  1.00  0.00    -0.033 A 
HETATM   14  C13 UNL     1      -8.745  -4.717 -15.096  1.00  0.00     0.050 C 
HETATM   15  C14 UNL     1      -8.433  -7.158 -15.574  1.00  0.00     0.025 A 
HETATM   16  C15 UNL     1      -7.689  -8.288 -15.800  1.00  0.00     0.049 A 
HETATM   17  C17 UNL     1      -6.305  -8.113 -15.766  1.00  0.00     0.025 A 
HETATM   18  C18 UNL     1      -5.713  -6.889 -15.529  1.00  0.00    -0.033 A 
HETATM   19  C19 UNL     1      -4.192  -6.825 -15.484  1.00  0.00     0.050 C 
BRANCH  16  20
HETATM   20  C16 UNL     1      -8.255  -9.636 -16.007  1.00  0.00     0.417 C 
HETATM   21  F1  UNL     1      -8.224 -10.384 -14.831  1.00  0.00    -0.166 F 
HETATM   22  F2  UNL     1      -9.620  -9.499 -16.286  1.00  0.00    -0.166 F 
HETATM   23  F3  UNL     1      -7.655 -10.267 -17.072  1.00  0.00    -0.166 F 
ENDBRANCH  16  20
ENDBRANCH  10  12
ENDBRANCH   7  10
BRANCH   4  24
HETATM   24  N3  UNL     1      -3.426  -0.650 -16.045  1.00  0.00    -0.196 N 
HETATM   25  C5  UNL     1      -2.035  -0.557 -16.258  1.00  0.00     0.082 C 
HETATM   26  C6  UNL     1      -1.382   0.615 -15.605  1.00  0.00     0.045 C 
HETATM   27  C7  UNL     1      -2.197   1.847 -15.485  1.00  0.00     0.007 C 
HETATM   28  C8  UNL     1      -3.563   1.756 -16.094  1.00  0.00     0.021 C 
HETATM   29  C9  UNL     1      -4.178   0.452 -15.496  1.00  0.00     0.146 C 
ENDBRANCH   4  24
BRANCH   1  30
HETATM   30  N1  UNL     1      -4.720  -3.425 -19.458  1.00  0.00    -0.225 N 
ATOM     31  H1  UNL     1      -4.454  -2.552 -19.914  1.00  0.00     0.177 HD
BRANCH  30  32
HETATM   32  C2  UNL     1      -4.927  -4.426 -20.423  1.00  0.00     0.133 C 
HETATM   33  C1  UNL     1      -4.013  -5.623 -20.122  1.00  0.00     0.027 C 
ENDBRANCH  30  32
ENDBRANCH   1  30
TORSDOF 6
ENDMDL
MODEL 3
REMARK VINA RESULT: -8.402876782      4.141      6.920
REMARK  6 active torsions:
REMARK  status: ('A' for Active; 'I' for Inactive)
REMARK    1  A    between atoms: C2_2  and  N1_3 
REMARK    2  A    between atoms: N1_3  and  C3_5 
REMARK    3  A    between atoms: C4_8  and  N3_9 
REMARK    4  A    between atoms: C10_17  and  N5_18 
REMARK    5  A    between atoms: N5_18  and  C11_20 
REMARK    6  A    between atoms: C15_24  and  C16_25 
ROOT
HETATM    1  C3  UNL     1      -4.401  -6.627 -19.947  1.00  0.00     0.707 A 
HETATM    2  N2  UNL     1      -5.109  -7.789 -19.905  1.00  0.00    -0.021 N 
ATOM      3  H2  UNL     1      -4.826  -8.529 -20.547  1.00  0.00     0.203 HD
HETATM    4  C4  UNL     1      -6.136  -8.046 -19.100  1.00  0.00     0.713 A 
HETATM    5  N4  UNL     1      -6.500  -7.062 -18.258  1.00  0.00    -0.021 N 
ATOM      6  H4  UNL     1      -7.284  -7.217 -17.624  1.00  0.00     0.203 HD
HETATM    7  C10 UNL     1      -5.852  -5.869 -18.229  1.00  0.00     0.711 A 
HETATM    8  N6  UNL     1      -4.816  -5.676 -19.074  1.00  0.00    -0.021 N 
ATOM      9  H6  UNL     1      -4.328  -4.781 -19.056  1.00  0.00     0.203 HD
ENDROOT
BRANCH   7  10
HETATM   10  N5  UNL     1      -6.311  -5.009 -17.420  1.00  0.00    -0.190 N 
ATOM     11  H5  UNL     1      -6.429  -4.056 -17.762  1.00  0.00     0.184 HD
BRANCH  10  12
HETATM   12  C11 UNL     1      -6.671  -5.269 -16.079  1.00  0.00     0.061 A 
HETATM   13  C12 UNL     1      -5.774  -5.732 -15.147  1.00  0.00    -0.033 A 
HETATM   14  C13 UNL     1      -4.343  -5.992 -15.543  1.00  0.00     0.050 C 
HETATM   15  C14 UNL     1      -6.181  -5.955 -13.838  1.00  0.00     0.025 A 
HETATM   16  C15 UNL     1      -7.465  -5.734 -13.409  1.00  0.00     0.049 A 
HETATM   17  C17 UNL     1      -8.351  -5.268 -14.382  1.00  0.00     0.025 A 
HETATM   18  C18 UNL     1      -7.971  -5.035 -15.688  1.00  0.00    -0.033 A 
HETATM   19  C19 UNL     1      -9.034  -4.557 -16.669  1.00  0.00     0.050 C 
BRANCH  16  20
HETATM   20  C16 UNL     1      -7.951  -6.011 -12.043  1.00  0.00     0.417 C 
HETATM   21  F1  UNL     1      -7.793  -4.902 -11.214  1.00  0.00    -0.166 F 
HETATM   22  F2  UNL     1      -9.337  -6.197 -12.102  1.00  0.00    -0.166 F 
HETATM   23  F3  UNL     1      -7.381  -7.156 -11.538  1.00  0.00    -0.166 F 
ENDBRANCH  16  20
ENDBRANCH  10  12
ENDBRANCH   7  10
BRANCH   4  24
HETATM   24  N3  UNL     1      -6.814  -9.280 -19.280  1.00  0.00    -0.196 N 
HETATM   25  C5  UNL     1      -6.181 -10.403 -19.851  1.00  0.00     0.082 C 
HETATM   26  C6  UNL     1      -7.098 -11.530 -20.189  1.00  0.00     0.045 C 
HETATM   27  C7  UNL     1      -8.277 -11.713 -19.309  1.00  0.00     0.007 C 
HETATM   28  C8  UNL     1      -8.352 -10.759 -18.157  1.00  0.00     0.021 C 
HETATM   29  C9  UNL     1      -8.173  -9.347 -18.798  1.00  0.00     0.146 C 
ENDBRANCH   4  24
BRANCH   1  30
HETATM   30  N1  UNL     1      -3.433  -6.550 -20.744  1.00  0.00    -0.225 N 
ATOM     31  H1  UNL     1      -3.682  -5.960 -21.538  1.00  0.00     0.177 HD
BRANCH  30  32
HETATM   32  C2  UNL     1      -2.116  -7.019 -20.888  1.00  0.00     0.133 C 
HETATM   33  C1  UNL     1      -1.939  -7.620 -22.290  1.00  0.00     0.027 C 
ENDBRANCH  30  32
ENDBRANCH   1  30
TORSDOF 6
ENDMDL
MODEL 4
REMARK VINA RESULT: -8.387961539      2.169      4.278
REMARK  6 active torsions:
REMARK  status: ('A' for Active; 'I' for Inactive)
REMARK    1  A    between atoms: C2_2  and  N1_3 
REMARK    2  A    between atoms: N1_3  and  C3_5 
REMARK    3  A    between atoms: C4_8  and  N3_9 
REMARK    4  A    between atoms: C10_17  and  N5_18 
REMARK    5  A    between atoms: N5_18  and  C11_20 
REMARK    6  A    between atoms: C15_24  and  C16_25 
ROOT
HETATM    1  C3  UNL     1      -4.503  -2.505 -16.875  1.00  0.00     0.707 A 
HETATM    2  N2  UNL     1      -3.377  -3.026 -17.439  1.00  0.00    -0.021 N 
ATOM      3  H2  UNL     1      -2.516  -2.488 -17.339  1.00  0.00     0.203 HD
HETATM    4  C4  UNL     1      -3.302  -4.173 -18.108  1.00  0.00     0.713 A 
HETATM    5  N4  UNL     1      -4.444  -4.871 -18.234  1.00  0.00    -0.021 N 
ATOM      6  H4  UNL     1      -4.431  -5.756 -18.741  1.00  0.00     0.203 HD
HETATM    7  C10 UNL     1      -5.615  -4.430 -17.704  1.00  0.00     0.711 A 
HETATM    8  N6  UNL     1      -5.619  -3.256 -17.037  1.00  0.00    -0.021 N 
ATOM      9  H6  UNL     1      -6.496  -2.922 -16.638  1.00  0.00     0.203 HD
ENDROOT
BRANCH   7  10
HETATM   10  N5  UNL     1      -6.630  -5.157 -17.921  1.00  0.00    -0.190 N 
ATOM     11  H5  UNL     1      -7.143  -5.003 -18.789  1.00  0.00     0.184 HD
BRANCH  10  12
HETATM   12  C11 UNL     1      -7.105  -6.165 -17.053  1.00  0.00     0.061 A 
HETATM   13  C12 UNL     1      -6.743  -7.484 -17.180  1.00  0.00    -0.033 A 
HETATM   14  C13 UNL     1      -5.811  -7.906 -18.286  1.00  0.00     0.050 C 
HETATM   15  C14 UNL     1      -7.229  -8.429 -16.286  1.00  0.00     0.025 A 
HETATM   16  C15 UNL     1      -8.075  -8.113 -15.254  1.00  0.00     0.049 A 
HETATM   17  C17 UNL     1      -8.426  -6.766 -15.157  1.00  0.00     0.025 A 
HETATM   18  C18 UNL     1      -7.955  -5.806 -16.029  1.00  0.00    -0.033 A 
HETATM   19  C19 UNL     1      -8.432  -4.371 -15.844  1.00  0.00     0.050 C 
BRANCH  16  20
HETATM   20  C16 UNL     1      -8.659  -9.095 -14.318  1.00  0.00     0.417 C 
HETATM   21  F1  UNL     1     -10.018  -9.283 -14.565  1.00  0.00    -0.166 F 
HETATM   22  F2  UNL     1      -8.089 -10.345 -14.584  1.00  0.00    -0.166 F 
HETATM   23  F3  UNL     1      -8.382  -8.760 -13.013  1.00  0.00    -0.166 F 
ENDBRANCH  16  20
ENDBRANCH  10  12
ENDBRANCH   7  10
BRANCH   4  24
HETATM   24  N3  UNL     1      -2.059  -4.494 -18.714  1.00  0.00    -0.196 N 
HETATM   25  C5  UNL     1      -0.843  -3.947 -18.258  1.00  0.00     0.082 C 
HETATM   26  C6  UNL     1       0.326  -4.195 -19.152  1.00  0.00     0.045 C 
HETATM   27  C7  UNL     1       0.325  -5.471 -19.906  1.00  0.00     0.007 C 
HETATM   28  C8  UNL     1      -0.841  -6.367 -19.620  1.00  0.00     0.021 C 
HETATM   29  C9  UNL     1      -2.095  -5.454 -19.792  1.00  0.00     0.146 C 
ENDBRANCH   4  24
BRANCH   1  30
HETATM   30  N1  UNL     1      -4.404  -1.423 -16.246  1.00  0.00    -0.225 N 
ATOM     31  H1  UNL     1      -5.284  -1.212 -15.776  1.00  0.00     0.177 HD
BRANCH  30  32
HETATM   32  C2  UNL     1      -3.465  -0.410 -15.984  1.00  0.00     0.133 C 
HETATM   33  C1  UNL     1      -4.160   0.958 -16.041  1.00  0.00     0.027 C 
ENDBRANCH  30  32
ENDBRANCH   1  30
TORSDOF 6
ENDMDL
MODEL 5
REMARK VINA RESULT: -8.385220042      2.196      4.487
REMARK  6 active torsions:
REMARK  status: ('A' for Active; 'I' for Inactive)
REMARK    1  A    between atoms: C2_2  and  N1_3 
REMARK    2  A    between atoms: N1_3  and  C3_5 
REMARK    3  A    between atoms: C4_8  and  N3_9 
REMARK    4  A    between atoms: C10_17  and  N5_18 
REMARK    5  A    between atoms: N5_18  and  C11_20 
REMARK    6  A    between atoms: C15_24  and  C16_25 
ROOT
HETATM    1  C3  UNL     1      -4.504  -2.568 -17.026  1.00  0.00     0.707 A 
HETATM    2  N2  UNL     1      -3.384  -3.173 -17.510  1.00  0.00    -0.021 N 
ATOM      3  H2  UNL     1      -2.505  -2.663 -17.422  1.00  0.00     0.203 HD
HETATM    4  C4  UNL     1      -3.334  -4.370 -18.088  1.00  0.00     0.713 A 
HETATM    5  N4  UNL     1      -4.499  -5.032 -18.201  1.00  0.00    -0.021 N 
ATOM      6  H4  UNL     1      -4.505  -5.954 -18.638  1.00  0.00     0.203 HD
HETATM    7  C10 UNL     1      -5.667  -4.508 -17.746  1.00  0.00     0.711 A 
HETATM    8  N6  UNL     1      -5.644  -3.287 -17.169  1.00  0.00    -0.021 N 
ATOM      9  H6  UNL     1      -6.520  -2.891 -16.828  1.00  0.00     0.203 HD
ENDROOT
BRANCH   7  10
HETATM   10  N5  UNL     1      -6.702  -5.211 -17.943  1.00  0.00    -0.190 N 
ATOM     11  H5  UNL     1      -7.194  -5.088 -18.827  1.00  0.00     0.184 HD
BRANCH  10  12
HETATM   12  C11 UNL     1      -7.228  -6.152 -17.030  1.00  0.00     0.061 A 
HETATM   13  C12 UNL     1      -8.002  -5.789 -15.954  1.00  0.00    -0.033 A 
HETATM   14  C13 UNL     1      -8.310  -4.335 -15.705  1.00  0.00     0.050 C 
HETATM   15  C14 UNL     1      -8.506  -6.760 -15.099  1.00  0.00     0.025 A 
HETATM   16  C15 UNL     1      -8.268  -8.100 -15.270  1.00  0.00     0.049 A 
HETATM   17  C17 UNL     1      -7.476  -8.434 -16.370  1.00  0.00     0.025 A 
HETATM   18  C18 UNL     1      -6.966  -7.489 -17.237  1.00  0.00    -0.033 A 
HETATM   19  C19 UNL     1      -6.088  -7.969 -18.385  1.00  0.00     0.050 C 
BRANCH  16  20
HETATM   20  C16 UNL     1      -8.737  -9.158 -14.353  1.00  0.00     0.417 C 
HETATM   21  F1  UNL     1     -10.081  -9.457 -14.571  1.00  0.00    -0.166 F 
HETATM   22  F2  UNL     1      -8.069 -10.344 -14.676  1.00  0.00    -0.166 F 
HETATM   23  F3  UNL     1      -8.453  -8.841 -13.045  1.00  0.00    -0.166 F 
ENDBRANCH  16  20
ENDBRANCH  10  12
ENDBRANCH   7  10
BRANCH   4  24
HETATM   24  N3  UNL     1      -2.086  -4.784 -18.625  1.00  0.00    -0.196 N 
HETATM   25  C5  UNL     1      -1.978  -5.881 -19.503  1.00  0.00     0.082 C 
HETATM   26  C6  UNL     1      -0.580  -6.326 -19.775  1.00  0.00     0.045 C 
HETATM   27  C7  UNL     1       0.463  -5.274 -19.774  1.00  0.00     0.007 C 
HETATM   28  C8  UNL     1      -0.050  -3.884 -19.550  1.00  0.00     0.021 C 
HETATM   29  C9  UNL     1      -0.935  -3.990 -18.268  1.00  0.00     0.146 C 
ENDBRANCH   4  24
BRANCH   1  30
HETATM   30  N1  UNL     1      -4.382  -1.446 -16.478  1.00  0.00    -0.225 N 
ATOM     31  H1  UNL     1      -5.303  -1.056 -16.275  1.00  0.00     0.177 HD
BRANCH  30  32
HETATM   32  C2  UNL     1      -3.380  -0.557 -16.054  1.00  0.00     0.133 C 
HETATM   33  C1  UNL     1      -3.939   0.873 -16.038  1.00  0.00     0.027 C 
ENDBRANCH  30  32
ENDBRANCH   1  30
TORSDOF 6
ENDMDL
