MODEL 1
REMARK VINA RESULT: -8.870511680      0.000      0.000
REMARK  5 active torsions:
REMARK  status: ('A' for Active; 'I' for Inactive)
REMARK    1  A    between atoms: C4_9  and  N3_10 
REMARK    2  A    between atoms: C4_9  and  C18_26 
REMARK    3  A    between atoms: N3_10  and  C5_12 
REMARK    4  A    between atoms: C5_12  and  C6_13 
REMARK    5  A    between atoms: C10_17  and  C11_18 
ROOT
HETATM    1  N3  UNL     1      -7.636  -7.771 -14.073  1.00  0.00    -0.364 N 
ATOM      2  H3  UNL     1      -6.751  -8.250 -13.907  1.00  0.00     0.161 HD
ENDROOT
BRANCH   1   3
HETATM    3  C4  UNL     1      -7.655  -6.378 -14.324  1.00  0.00     0.216 C 
HETATM    4  N1  UNL     1      -6.666  -5.941 -15.214  1.00  0.00    -0.332 N 
HETATM    5  C1  UNL     1      -5.397  -6.637 -15.501  1.00  0.00     0.154 C 
HETATM    6  C2  UNL     1      -6.912  -4.701 -15.884  1.00  0.00     0.138 C 
HETATM    7  N2  UNL     1      -6.080  -3.991 -16.576  1.00  0.00    -0.380 N 
HETATM    8  S1  UNL     1      -8.624  -4.324 -15.539  1.00  0.00    -0.090 SA
ATOM      9  H22 UNL     1      -5.103  -4.206 -16.772  1.00  0.00     0.158 HD
ATOM     10  H21 UNL     1      -6.255  -3.106 -17.053  1.00  0.00     0.158 HD
HETATM   11  C3  UNL     1      -9.037  -5.911 -14.747  1.00  0.00     0.146 C 
BRANCH   3  12
HETATM   12  C18 UNL     1      -7.340  -5.704 -12.969  1.00  0.00     0.432 C 
HETATM   13  F1  UNL     1      -6.930  -6.642 -12.032  1.00  0.00    -0.166 F 
HETATM   14  F2  UNL     1      -6.336  -4.771 -13.094  1.00  0.00    -0.166 F 
HETATM   15  F3  UNL     1      -8.516  -5.163 -12.447  1.00  0.00    -0.166 F 
ENDBRANCH   3  12
ENDBRANCH   1   3
BRANCH   1  16
HETATM   16  C5  UNL     1      -8.843  -8.492 -14.054  1.00  0.00     0.097 C 
BRANCH  16  17
HETATM   17  C6  UNL     1      -9.030  -9.382 -15.247  1.00  0.00    -0.021 A 
HETATM   18  C7  UNL     1     -10.082 -10.258 -15.263  1.00  0.00     0.013 A 
HETATM   19  C8  UNL     1     -10.230 -11.040 -16.416  1.00  0.00     0.001 A 
HETATM   20  C9  UNL     1      -9.343 -10.903 -17.462  1.00  0.00     0.008 A 
HETATM   21  C10 UNL     1      -8.280 -10.010 -17.446  1.00  0.00    -0.049 A 
HETATM   22  C17 UNL     1      -8.147  -9.244 -16.286  1.00  0.00     0.020 A 
BRANCH  21  23
HETATM   23  C11 UNL     1      -7.336  -9.816 -18.579  1.00  0.00    -0.013 C 
HETATM   24  C12 UNL     1      -6.023  -9.296 -18.028  1.00  0.00     0.020 C 
HETATM   25  C13 UNL     1      -7.045 -11.138 -19.257  1.00  0.00     0.040 C 
HETATM   26  C14 UNL     1      -7.293 -11.123 -20.728  1.00  0.00     0.168 C 
HETATM   27  O1  UNL     1      -6.691 -10.078 -21.381  1.00  0.00    -0.391 OA
HETATM   28  C15 UNL     1      -6.937  -8.847 -20.816  1.00  0.00     0.168 C 
HETATM   29  C16 UNL     1      -7.850  -8.866 -19.628  1.00  0.00     0.040 C 
ENDBRANCH  21  23
ENDBRANCH  16  17
ENDBRANCH   1  16
TORSDOF 5
ENDMDL
MODEL 2
REMARK VINA RESULT: -8.528700748      2.073      2.828
REMARK  5 active torsions:
REMARK  status: ('A' for Active; 'I' for Inactive)
REMARK    1  A    between atoms: C4_9  and  N3_10 
REMARK    2  A    between atoms: C4_9  and  C18_26 
REMARK    3  A    between atoms: N3_10  and  C5_12 
REMARK    4  A    between atoms: C5_12  and  C6_13 
REMARK    5  A    between atoms: C10_17  and  C11_18 
ROOT
HETATM    1  N3  UNL     1      -6.349  -7.025 -15.366  1.00  0.00    -0.364 N 
ATOM      2  H3  UNL     1      -6.883  -7.225 -14.520  1.00  0.00     0.161 HD
ENDROOT
BRANCH   1   3
HETATM    3  C4  UNL     1      -6.239  -5.695 -15.839  1.00  0.00     0.216 C 
HETATM    4  N1  UNL     1      -5.929  -4.756 -14.848  1.00  0.00    -0.332 N 
HETATM    5  C1  UNL     1      -6.181  -4.913 -13.403  1.00  0.00     0.154 C 
HETATM    6  C2  UNL     1      -5.331  -3.533 -15.292  1.00  0.00     0.138 C 
HETATM    7  N2  UNL     1      -5.150  -2.445 -14.616  1.00  0.00    -0.380 N 
HETATM    8  S1  UNL     1      -4.904  -3.825 -17.002  1.00  0.00    -0.090 SA
ATOM      9  H22 UNL     1      -5.394  -2.279 -13.640  1.00  0.00     0.158 HD
ATOM     10  H21 UNL     1      -4.724  -1.573 -14.932  1.00  0.00     0.158 HD
HETATM   11  C3  UNL     1      -5.285  -5.605 -17.018  1.00  0.00     0.146 C 
BRANCH   3  12
HETATM   12  C18 UNL     1      -7.645  -5.318 -16.361  1.00  0.00     0.432 C 
HETATM   13  F1  UNL     1      -8.621  -6.111 -15.773  1.00  0.00    -0.166 F 
HETATM   14  F2  UNL     1      -7.948  -4.005 -16.083  1.00  0.00    -0.166 F 
HETATM   15  F3  UNL     1      -7.717  -5.610 -17.724  1.00  0.00    -0.166 F 
ENDBRANCH   3  12
ENDBRANCH   1   3
BRANCH   1  16
HETATM   16  C5  UNL     1      -5.719  -8.068 -16.066  1.00  0.00     0.097 C 
BRANCH  16  17
HETATM   17  C6  UNL     1      -6.675  -8.965 -16.795  1.00  0.00    -0.021 A 
HETATM   18  C7  UNL     1      -7.868  -9.286 -16.202  1.00  0.00     0.013 A 
HETATM   19  C8  UNL     1      -8.738 -10.098 -16.941  1.00  0.00     0.001 A 
HETATM   20  C9  UNL     1      -8.379 -10.528 -18.200  1.00  0.00     0.008 A 
HETATM   21  C10 UNL     1      -7.172 -10.197 -18.802  1.00  0.00    -0.049 A 
HETATM   22  C17 UNL     1      -6.317  -9.392 -18.046  1.00  0.00     0.020 A 
BRANCH  21  23
HETATM   23  C11 UNL     1      -6.783 -10.616 -20.175  1.00  0.00    -0.013 C 
HETATM   24  C12 UNL     1      -5.279 -10.804 -20.212  1.00  0.00     0.020 C 
HETATM   25  C13 UNL     1      -7.409 -11.950 -20.518  1.00  0.00     0.040 C 
HETATM   26  C14 UNL     1      -8.188 -11.937 -21.789  1.00  0.00     0.168 C 
HETATM   27  O1  UNL     1      -7.501 -11.412 -22.855  1.00  0.00    -0.391 OA
HETATM   28  C15 UNL     1      -6.926 -10.188 -22.603  1.00  0.00     0.168 C 
HETATM   29  C16 UNL     1      -7.191  -9.631 -21.237  1.00  0.00     0.040 C 
ENDBRANCH  21  23
ENDBRANCH  16  17
ENDBRANCH   1  16
TORSDOF 5
ENDMDL
MODEL 3
REMARK VINA RESULT: -8.522255543      2.691      3.204
REMARK  5 active torsions:
REMARK  status: ('A' for Active; 'I' for Inactive)
REMARK    1  A    between atoms: C4_9  and  N3_10 
REMARK    2  A    between atoms: C4_9  and  C18_26 
REMARK    3  A    between atoms: N3_10  and  C5_12 
REMARK    4  A    between atoms: C5_12  and  C6_13 
REMARK    5  A    between atoms: C10_17  and  C11_18 
ROOT
HETATM    1  N3  UNL     1      -7.761  -7.344 -16.433  1.00  0.00    -0.364 N 
ATOM      2  H3  UNL     1      -8.597  -6.927 -16.841  1.00  0.00     0.161 HD
ENDROOT
BRANCH   1   3
HETATM    3  C4  UNL     1      -6.522  -6.662 -16.501  1.00  0.00     0.216 C 
HETATM    4  N1  UNL     1      -6.536  -5.384 -15.930  1.00  0.00    -0.332 N 
HETATM    5  C1  UNL     1      -7.733  -4.543 -15.733  1.00  0.00     0.154 C 
HETATM    6  C2  UNL     1      -5.272  -4.852 -15.521  1.00  0.00     0.138 C 
HETATM    7  N2  UNL     1      -4.996  -3.637 -15.171  1.00  0.00    -0.380 N 
HETATM    8  S1  UNL     1      -4.140  -6.231 -15.619  1.00  0.00    -0.090 SA
ATOM      9  H22 UNL     1      -5.642  -2.851 -15.115  1.00  0.00     0.158 HD
ATOM     10  H21 UNL     1      -4.094  -3.258 -14.879  1.00  0.00     0.158 HD
HETATM   11  C3  UNL     1      -5.391  -7.513 -15.946  1.00  0.00     0.146 C 
BRANCH   3  12
HETATM   12  C18 UNL     1      -6.240  -6.455 -18.007  1.00  0.00     0.432 C 
HETATM   13  F1  UNL     1      -7.383  -6.678 -18.761  1.00  0.00    -0.166 F 
HETATM   14  F2  UNL     1      -5.811  -5.173 -18.265  1.00  0.00    -0.166 F 
HETATM   15  F3  UNL     1      -5.330  -7.423 -18.436  1.00  0.00    -0.166 F 
ENDBRANCH   3  12
ENDBRANCH   1   3
BRANCH   1  16
HETATM   16  C5  UNL     1      -7.832  -8.598 -15.801  1.00  0.00     0.097 C 
BRANCH  16  17
HETATM   17  C6  UNL     1      -8.222  -9.714 -16.724  1.00  0.00    -0.021 A 
HETATM   18  C7  UNL     1      -9.253 -10.541 -16.366  1.00  0.00     0.013 A 
HETATM   19  C8  UNL     1      -9.599 -11.545 -17.280  1.00  0.00     0.001 A 
HETATM   20  C9  UNL     1      -8.915 -11.660 -18.471  1.00  0.00     0.008 A 
HETATM   21  C10 UNL     1      -7.873 -10.816 -18.835  1.00  0.00    -0.049 A 
HETATM   22  C17 UNL     1      -7.541  -9.826 -17.907  1.00  0.00     0.020 A 
BRANCH  21  23
HETATM   23  C11 UNL     1      -7.150 -10.895 -20.132  1.00  0.00    -0.013 C 
HETATM   24  C12 UNL     1      -5.659 -10.880 -19.853  1.00  0.00     0.020 C 
HETATM   25  C13 UNL     1      -7.461 -12.201 -20.832  1.00  0.00     0.040 C 
HETATM   26  C14 UNL     1      -7.958 -12.028 -22.227  1.00  0.00     0.168 C 
HETATM   27  O1  UNL     1      -7.168 -11.216 -23.001  1.00  0.00    -0.391 OA
HETATM   28  C15 UNL     1      -6.869 -10.006 -22.419  1.00  0.00     0.168 C 
HETATM   29  C16 UNL     1      -7.494  -9.775 -21.077  1.00  0.00     0.040 C 
ENDBRANCH  21  23
ENDBRANCH  16  17
ENDBRANCH   1  16
TORSDOF 5
ENDMDL
MODEL 4
REMARK VINA RESULT: -8.508215956      2.378      3.458
REMARK  5 active torsions:
REMARK  status: ('A' for Active; 'I' for Inactive)
REMARK    1  A    between atoms: C4_9  and  N3_10 
REMARK    2  A    between atoms: C4_9  and  C18_26 
REMARK    3  A    between atoms: N3_10  and  C5_12 
REMARK    4  A    between atoms: C5_12  and  C6_13 
REMARK    5  A    between atoms: C10_17  and  C11_18 
ROOT
HETATM    1  N3  UNL     1      -6.719  -6.124 -16.598  1.00  0.00    -0.364 N 
ATOM      2  H3  UNL     1      -7.117  -6.570 -17.424  1.00  0.00     0.161 HD
ENDROOT
BRANCH   1   3
HETATM    3  C4  UNL     1      -5.614  -5.249 -16.724  1.00  0.00     0.216 C 
HETATM    4  N1  UNL     1      -5.309  -4.894 -18.045  1.00  0.00    -0.332 N 
HETATM    5  C1  UNL     1      -5.668  -5.668 -19.248  1.00  0.00     0.154 C 
HETATM    6  C2  UNL     1      -4.569  -3.683 -18.226  1.00  0.00     0.138 C 
HETATM    7  N2  UNL     1      -3.992  -3.257 -19.304  1.00  0.00    -0.380 N 
HETATM    8  S1  UNL     1      -4.592  -2.887 -16.627  1.00  0.00    -0.090 SA
ATOM      9  H22 UNL     1      -3.980  -3.711 -20.216  1.00  0.00     0.158 HD
ATOM     10  H21 UNL     1      -3.465  -2.393 -19.433  1.00  0.00     0.158 HD
HETATM   11  C3  UNL     1      -5.771  -4.026 -15.836  1.00  0.00     0.146 C 
BRANCH   3  12
HETATM   12  C18 UNL     1      -4.392  -6.038 -16.201  1.00  0.00     0.432 C 
HETATM   13  F1  UNL     1      -4.626  -7.406 -16.252  1.00  0.00    -0.166 F 
HETATM   14  F2  UNL     1      -3.267  -5.778 -16.949  1.00  0.00    -0.166 F 
HETATM   15  F3  UNL     1      -4.215  -5.754 -14.845  1.00  0.00    -0.166 F 
ENDBRANCH   3  12
ENDBRANCH   1   3
BRANCH   1  16
HETATM   16  C5  UNL     1      -7.267  -6.374 -15.327  1.00  0.00     0.097 C 
BRANCH  16  17
HETATM   17  C6  UNL     1      -7.980  -7.690 -15.231  1.00  0.00    -0.021 A 
HETATM   18  C7  UNL     1      -8.450  -8.103 -14.012  1.00  0.00     0.013 A 
HETATM   19  C8  UNL     1      -9.139  -9.322 -13.984  1.00  0.00     0.001 A 
HETATM   20  C9  UNL     1      -9.318 -10.040 -15.147  1.00  0.00     0.008 A 
HETATM   21  C10 UNL     1      -8.846  -9.618 -16.383  1.00  0.00    -0.049 A 
HETATM   22  C17 UNL     1      -8.158  -8.403 -16.387  1.00  0.00     0.020 A 
BRANCH  21  23
HETATM   23  C11 UNL     1      -9.064 -10.356 -17.655  1.00  0.00    -0.013 C 
HETATM   24  C12 UNL     1     -10.516 -10.195 -18.062  1.00  0.00     0.020 C 
HETATM   25  C13 UNL     1      -8.222  -9.762 -18.763  1.00  0.00     0.040 C 
HETATM   26  C14 UNL     1      -7.360 -10.759 -19.460  1.00  0.00     0.168 C 
HETATM   27  O1  UNL     1      -8.036 -11.875 -19.885  1.00  0.00    -0.391 OA
HETATM   28  C15 UNL     1      -8.807 -12.468 -18.911  1.00  0.00     0.168 C 
HETATM   29  C16 UNL     1      -8.731 -11.821 -17.561  1.00  0.00     0.040 C 
ENDBRANCH  21  23
ENDBRANCH  16  17
ENDBRANCH   1  16
TORSDOF 5
ENDMDL
MODEL 5
REMARK VINA RESULT: -8.469128677      2.968      4.040
REMARK  5 active torsions:
REMARK  status: ('A' for Active; 'I' for Inactive)
REMARK    1  A    between atoms: C4_9  and  N3_10 
REMARK    2  A    between atoms: C4_9  and  C18_26 
REMARK    3  A    between atoms: N3_10  and  C5_12 
REMARK    4  A    between atoms: C5_12  and  C6_13 
REMARK    5  A    between atoms: C10_17  and  C11_18 
ROOT
HETATM    1  N3  UNL     1      -6.326  -5.944 -16.171  1.00  0.00    -0.364 N 
ATOM      2  H3  UNL     1      -7.108  -5.301 -16.047  1.00  0.00     0.161 HD
ENDROOT
BRANCH   1   3
HETATM    3  C4  UNL     1      -5.428  -5.771 -17.251  1.00  0.00     0.216 C 
HETATM    4  N1  UNL     1      -4.859  -4.493 -17.328  1.00  0.00    -0.332 N 
HETATM    5  C1  UNL     1      -5.430  -3.261 -16.752  1.00  0.00     0.154 C 
HETATM    6  C2  UNL     1      -3.625  -4.385 -18.044  1.00  0.00     0.138 C 
HETATM    7  N2  UNL     1      -3.021  -3.309 -18.431  1.00  0.00    -0.380 N 
HETATM    8  S1  UNL     1      -3.101  -6.072 -18.313  1.00  0.00    -0.090 SA
ATOM      9  H22 UNL     1      -3.320  -2.346 -18.278  1.00  0.00     0.158 HD
ATOM     10  H21 UNL     1      -2.141  -3.232 -18.942  1.00  0.00     0.158 HD
HETATM   11  C3  UNL     1      -4.369  -6.860 -17.270  1.00  0.00     0.146 C 
BRANCH   3  12
HETATM   12  C18 UNL     1      -6.277  -5.938 -18.532  1.00  0.00     0.432 C 
HETATM   13  F1  UNL     1      -7.633  -5.860 -18.243  1.00  0.00    -0.166 F 
HETATM   14  F2  UNL     1      -5.990  -4.959 -19.457  1.00  0.00    -0.166 F 
HETATM   15  F3  UNL     1      -6.090  -7.226 -19.037  1.00  0.00    -0.166 F 
ENDBRANCH   3  12
ENDBRANCH   1   3
BRANCH   1  16
HETATM   16  C5  UNL     1      -6.134  -7.005 -15.269  1.00  0.00     0.097 C 
BRANCH  16  17
HETATM   17  C6  UNL     1      -7.281  -7.972 -15.228  1.00  0.00    -0.021 A 
HETATM   18  C7  UNL     1      -8.010  -8.088 -14.074  1.00  0.00     0.013 A 
HETATM   19  C8  UNL     1      -9.090  -8.979 -14.102  1.00  0.00     0.001 A 
HETATM   20  C9  UNL     1      -9.377  -9.682 -15.252  1.00  0.00     0.008 A 
HETATM   21  C10 UNL     1      -8.641  -9.558 -16.423  1.00  0.00    -0.049 A 
HETATM   22  C17 UNL     1      -7.565  -8.669 -16.372  1.00  0.00     0.020 A 
BRANCH  21  23
HETATM   23  C11 UNL     1      -8.958 -10.275 -17.687  1.00  0.00    -0.013 C 
HETATM   24  C12 UNL     1     -10.443 -10.134 -17.960  1.00  0.00     0.020 C 
HETATM   25  C13 UNL     1      -8.227  -9.641 -18.851  1.00  0.00     0.040 C 
HETATM   26  C14 UNL     1      -7.413 -10.606 -19.644  1.00  0.00     0.168 C 
HETATM   27  O1  UNL     1      -8.103 -11.727 -20.031  1.00  0.00    -0.391 OA
HETATM   28  C15 UNL     1      -8.774 -12.355 -19.006  1.00  0.00     0.168 C 
HETATM   29  C16 UNL     1      -8.590 -11.734 -17.654  1.00  0.00     0.040 C 
ENDBRANCH  21  23
ENDBRANCH  16  17
ENDBRANCH   1  16
TORSDOF 5
ENDMDL
