MODEL 1
REMARK VINA RESULT: -9.585108065      0.000      0.000
REMARK  1 active torsions:
REMARK  status: ('A' for Active; 'I' for Inactive)
REMARK    1  A    between atoms: C17_20  and  O4_22 
ROOT
HETATM    1  C1  UNL     1      79.634  47.274 -34.978  1.00  0.00     0.043 C 
HETATM    2  C2  UNL     1      80.514  48.084 -34.091  1.00  0.00     0.157 C 
HETATM    3  O1  UNL     1      81.765  47.543 -33.819  1.00  0.00    -0.314 OA
HETATM    4  C3  UNL     1      82.181  46.250 -33.818  1.00  0.00     0.259 C 
HETATM    5  O2  UNL     1      82.613  45.619 -32.791  1.00  0.00    -0.265 OA
HETATM    6  C4  UNL     1      82.152  45.469 -35.079  1.00  0.00     0.111 C 
HETATM    7  C5  UNL     1      83.092  44.306 -35.082  1.00  0.00     0.010 C 
HETATM    8  C6  UNL     1      84.524  44.617 -34.884  1.00  0.00     0.000 C 
HETATM    9  C7  UNL     1      84.946  46.011 -35.232  1.00  0.00     0.000 C 
HETATM   10  C8  UNL     1      86.151  46.039 -36.148  1.00  0.00     0.000 C 
HETATM   11  C9  UNL     1      85.842  46.356 -37.560  1.00  0.00     0.000 C 
HETATM   12  C10 UNL     1      84.799  47.401 -37.786  1.00  0.00     0.000 C 
HETATM   13  C11 UNL     1      85.147  48.741 -37.174  1.00  0.00     0.000 C 
HETATM   14  C12 UNL     1      84.119  49.760 -37.587  1.00  0.00     0.000 C 
HETATM   15  C13 UNL     1      82.765  49.296 -37.173  1.00  0.00     0.001 C 
HETATM   16  C14 UNL     1      81.944  50.393 -36.493  1.00  0.00     0.013 C 
HETATM   17  C15 UNL     1      80.666  49.718 -36.012  1.00  0.00     0.079 C 
HETATM   18  C16 UNL     1      80.607  49.533 -34.541  1.00  0.00     0.163 C 
HETATM   19  O3  UNL     1      79.346  50.104 -34.481  1.00  0.00    -0.347 OA
HETATM   20  C17 UNL     1      79.613  50.773 -35.650  1.00  0.00     0.164 C 
HETATM   21  C18 UNL     1      78.476  50.718 -36.648  1.00  0.00     0.079 C 
ENDROOT
BRANCH  20  22
HETATM   22  O4  UNL     1      80.165  52.028 -35.448  1.00  0.00    -0.365 OA
ATOM     23  H4  UNL     1      79.555  52.632 -35.043  1.00  0.00     0.213 HD
ENDBRANCH  20  22
TORSDOF 1
ENDMDL
MODEL 2
REMARK VINA RESULT: -9.453621457      2.270      5.788
REMARK  1 active torsions:
REMARK  status: ('A' for Active; 'I' for Inactive)
REMARK    1  A    between atoms: C17_20  and  O4_22 
ROOT
HETATM    1  C1  UNL     1      84.193  45.395 -34.344  1.00  0.00     0.043 C 
HETATM    2  C2  UNL     1      83.650  45.065 -35.691  1.00  0.00     0.157 C 
HETATM    3  O1  UNL     1      82.354  45.498 -35.946  1.00  0.00    -0.314 OA
HETATM    4  C3  UNL     1      81.331  45.756 -35.092  1.00  0.00     0.259 C 
HETATM    5  O2  UNL     1      80.218  45.123 -35.068  1.00  0.00    -0.265 OA
HETATM    6  C4  UNL     1      81.464  46.845 -34.094  1.00  0.00     0.111 C 
HETATM    7  C5  UNL     1      80.153  47.374 -33.608  1.00  0.00     0.010 C 
HETATM    8  C6  UNL     1      79.248  47.935 -34.635  1.00  0.00     0.000 C 
HETATM    9  C7  UNL     1      79.902  48.404 -35.898  1.00  0.00     0.000 C 
HETATM   10  C8  UNL     1      79.487  49.810 -36.275  1.00  0.00     0.000 C 
HETATM   11  C9  UNL     1      80.507  50.847 -35.999  1.00  0.00     0.000 C 
HETATM   12  C10 UNL     1      81.924  50.466 -36.274  1.00  0.00     0.000 C 
HETATM   13  C11 UNL     1      82.174  50.077 -37.716  1.00  0.00     0.000 C 
HETATM   14  C12 UNL     1      83.649  49.864 -37.926  1.00  0.00     0.000 C 
HETATM   15  C13 UNL     1      84.141  48.825 -36.979  1.00  0.00     0.001 C 
HETATM   16  C14 UNL     1      85.034  47.782 -37.653  1.00  0.00     0.013 C 
HETATM   17  C15 UNL     1      85.324  46.731 -36.589  1.00  0.00     0.079 C 
HETATM   18  C16 UNL     1      84.609  45.449 -36.806  1.00  0.00     0.163 C 
HETATM   19  O3  UNL     1      85.782  44.726 -36.660  1.00  0.00    -0.347 OA
HETATM   20  C17 UNL     1      86.494  45.841 -37.026  1.00  0.00     0.164 C 
HETATM   21  C18 UNL     1      87.693  46.108 -36.142  1.00  0.00     0.079 C 
ENDROOT
BRANCH  20  22
HETATM   22  O4  UNL     1      86.735  45.913 -38.389  1.00  0.00    -0.365 OA
ATOM     23  H4  UNL     1      87.366  46.587 -38.612  1.00  0.00     0.213 HD
ENDBRANCH  20  22
TORSDOF 1
ENDMDL
MODEL 3
REMARK VINA RESULT: -8.149419360      1.596      5.615
REMARK  1 active torsions:
REMARK  status: ('A' for Active; 'I' for Inactive)
REMARK    1  A    between atoms: C17_20  and  O4_22 
ROOT
HETATM    1  C1  UNL     1      81.798  46.325 -33.227  1.00  0.00     0.043 C 
HETATM    2  C2  UNL     1      81.316  45.741 -34.511  1.00  0.00     0.157 C 
HETATM    3  O1  UNL     1      80.868  46.652 -35.460  1.00  0.00    -0.314 OA
HETATM    4  C3  UNL     1      80.361  47.902 -35.308  1.00  0.00     0.259 C 
HETATM    5  O2  UNL     1      79.174  48.255 -35.632  1.00  0.00    -0.265 OA
HETATM    6  C4  UNL     1      81.208  48.972 -34.728  1.00  0.00     0.111 C 
HETATM    7  C5  UNL     1      80.762  50.351 -35.096  1.00  0.00     0.010 C 
HETATM    8  C6  UNL     1      80.723  50.666 -36.541  1.00  0.00     0.000 C 
HETATM    9  C7  UNL     1      81.600  49.828 -37.418  1.00  0.00     0.000 C 
HETATM   10  C8  UNL     1      82.468  50.664 -38.334  1.00  0.00     0.000 C 
HETATM   11  C9  UNL     1      83.887  50.759 -37.920  1.00  0.00     0.000 C 
HETATM   12  C10 UNL     1      84.495  49.510 -37.370  1.00  0.00     0.000 C 
HETATM   13  C11 UNL     1      84.469  48.349 -38.340  1.00  0.00     0.000 C 
HETATM   14  C12 UNL     1      85.238  47.195 -37.755  1.00  0.00     0.000 C 
HETATM   15  C13 UNL     1      84.656  46.827 -36.434  1.00  0.00     0.001 C 
HETATM   16  C14 UNL     1      84.456  45.319 -36.273  1.00  0.00     0.013 C 
HETATM   17  C15 UNL     1      83.730  45.135 -34.947  1.00  0.00     0.079 C 
HETATM   18  C16 UNL     1      82.306  44.747 -35.096  1.00  0.00     0.163 C 
HETATM   19  O3  UNL     1      82.461  43.692 -34.211  1.00  0.00    -0.347 OA
HETATM   20  C17 UNL     1      83.802  43.669 -34.501  1.00  0.00     0.164 C 
HETATM   21  C18 UNL     1      84.682  43.554 -33.274  1.00  0.00     0.079 C 
ENDROOT
BRANCH  20  22
HETATM   22  O4  UNL     1      84.122  42.812 -35.542  1.00  0.00    -0.365 OA
ATOM     23  H4  UNL     1      83.401  42.694 -36.150  1.00  0.00     0.213 HD
ENDBRANCH  20  22
TORSDOF 1
ENDMDL
MODEL 4
REMARK VINA RESULT: -7.991438112      2.699      7.016
REMARK  1 active torsions:
REMARK  status: ('A' for Active; 'I' for Inactive)
REMARK    1  A    between atoms: C17_20  and  O4_22 
ROOT
HETATM    1  C1  UNL     1      86.036  45.950 -38.194  1.00  0.00     0.043 C 
HETATM    2  C2  UNL     1      86.382  46.433 -36.827  1.00  0.00     0.157 C 
HETATM    3  O1  UNL     1      85.746  47.599 -36.417  1.00  0.00    -0.314 OA
HETATM    4  C3  UNL     1      85.231  48.622 -37.146  1.00  0.00     0.259 C 
HETATM    5  O2  UNL     1      85.647  49.832 -37.108  1.00  0.00    -0.265 OA
HETATM    6  C4  UNL     1      84.100  48.367 -38.071  1.00  0.00     0.111 C 
HETATM    7  C5  UNL     1      83.301  49.591 -38.387  1.00  0.00     0.010 C 
HETATM    8  C6  UNL     1      82.678  50.286 -37.239  1.00  0.00     0.000 C 
HETATM    9  C7  UNL     1      82.451  49.454 -36.015  1.00  0.00     0.000 C 
HETATM   10  C8  UNL     1      81.033  49.564 -35.498  1.00  0.00     0.000 C 
HETATM   11  C9  UNL     1      80.177  48.393 -35.796  1.00  0.00     0.000 C 
HETATM   12  C10 UNL     1      80.832  47.055 -35.688  1.00  0.00     0.000 C 
HETATM   13  C11 UNL     1      81.387  46.766 -34.310  1.00  0.00     0.000 C 
HETATM   14  C12 UNL     1      81.881  45.346 -34.260  1.00  0.00     0.000 C 
HETATM   15  C13 UNL     1      82.904  45.138 -35.324  1.00  0.00     0.001 C 
HETATM   16  C14 UNL     1      84.148  44.406 -34.817  1.00  0.00     0.013 C 
HETATM   17  C15 UNL     1      85.134  44.407 -35.978  1.00  0.00     0.079 C 
HETATM   18  C16 UNL     1      86.279  45.331 -35.786  1.00  0.00     0.163 C 
HETATM   19  O3  UNL     1      87.186  44.331 -36.098  1.00  0.00    -0.347 OA
HETATM   20  C17 UNL     1      86.256  43.394 -35.722  1.00  0.00     0.164 C 
HETATM   21  C18 UNL     1      86.133  42.243 -36.698  1.00  0.00     0.079 C 
ENDROOT
BRANCH  20  22
HETATM   22  O4  UNL     1      86.352  43.033 -34.387  1.00  0.00    -0.365 OA
ATOM     23  H4  UNL     1      85.556  43.216 -33.903  1.00  0.00     0.213 HD
ENDBRANCH  20  22
TORSDOF 1
ENDMDL
MODEL 5
REMARK VINA RESULT: -7.283514102      2.093      4.060
REMARK  1 active torsions:
REMARK  status: ('A' for Active; 'I' for Inactive)
REMARK    1  A    between atoms: C17_20  and  O4_22 
ROOT
HETATM    1  C1  UNL     1      83.356  51.006 -36.796  1.00  0.00     0.043 C 
HETATM    2  C2  UNL     1      82.592  50.245 -37.824  1.00  0.00     0.157 C 
HETATM    3  O1  UNL     1      83.058  48.966 -38.102  1.00  0.00    -0.314 OA
HETATM    4  C3  UNL     1      84.302  48.437 -37.973  1.00  0.00     0.259 C 
HETATM    5  O2  UNL     1      85.017  48.001 -38.941  1.00  0.00    -0.265 OA
HETATM    6  C4  UNL     1      84.921  48.336 -36.629  1.00  0.00     0.111 C 
HETATM    7  C5  UNL     1      85.993  47.297 -36.542  1.00  0.00     0.010 C 
HETATM    8  C6  UNL     1      85.592  45.909 -36.860  1.00  0.00     0.000 C 
HETATM    9  C7  UNL     1      84.136  45.597 -36.706  1.00  0.00     0.000 C 
HETATM   10  C8  UNL     1      83.896  44.357 -35.872  1.00  0.00     0.000 C 
HETATM   11  C9  UNL     1      83.433  44.624 -34.491  1.00  0.00     0.000 C 
HETATM   12  C10 UNL     1      82.457  45.743 -34.331  1.00  0.00     0.000 C 
HETATM   13  C11 UNL     1      81.179  45.546 -35.118  1.00  0.00     0.000 C 
HETATM   14  C12 UNL     1      80.206  46.639 -34.769  1.00  0.00     0.000 C 
HETATM   15  C13 UNL     1      80.827  47.965 -35.045  1.00  0.00     0.001 C 
HETATM   16  C14 UNL     1      79.894  48.912 -35.801  1.00  0.00     0.013 C 
HETATM   17  C15 UNL     1      80.726  50.147 -36.123  1.00  0.00     0.079 C 
HETATM   18  C16 UNL     1      81.096  50.260 -37.555  1.00  0.00     0.163 C 
HETATM   19  O3  UNL     1      80.643  51.568 -37.608  1.00  0.00    -0.347 OA
HETATM   20  C17 UNL     1      79.814  51.306 -36.545  1.00  0.00     0.164 C 
HETATM   21  C18 UNL     1      79.839  52.384 -35.482  1.00  0.00     0.079 C 
ENDROOT
BRANCH  20  22
HETATM   22  O4  UNL     1      78.553  50.878 -36.927  1.00  0.00    -0.365 OA
ATOM     23  H4  UNL     1      77.906  51.572 -36.888  1.00  0.00     0.213 HD
ENDBRANCH  20  22
TORSDOF 1
ENDMDL
