MODEL 1
REMARK VINA RESULT: -6.761760524      0.000      0.000
REMARK  2 active torsions:
REMARK  status: ('A' for Active; 'I' for Inactive)
REMARK    1  A    between atoms: C15_17  and  O3_18 
REMARK    2  A    between atoms: O3_18  and  O4_19 
ROOT
HETATM    1  C1  UNL     1      87.388  45.214 -35.614  1.00  0.00     0.046 C 
HETATM    2  C2  UNL     1      85.896  45.031 -35.421  1.00  0.00    -0.044 C 
HETATM    3  C3  UNL     1      85.568  45.334 -34.157  1.00  0.00    -0.021 C 
HETATM    4  C4  UNL     1      84.382  45.376 -33.328  1.00  0.00     0.030 C 
HETATM    5  C5  UNL     1      83.125  45.931 -33.819  1.00  0.00     0.044 C 
HETATM    6  C6  UNL     1      82.693  45.726 -35.207  1.00  0.00     0.093 C 
HETATM    7  C7  UNL     1      81.591  46.782 -35.477  1.00  0.00     0.049 C 
HETATM    8  C8  UNL     1      82.079  44.434 -35.578  1.00  0.00     0.041 C 
HETATM    9  C9  UNL     1      82.811  43.180 -35.460  1.00  0.00     0.004 C 
HETATM   10  C10 UNL     1      83.551  42.711 -36.712  1.00  0.00     0.013 C 
HETATM   11  C11 UNL     1      85.020  43.080 -36.688  1.00  0.00     0.008 C 
HETATM   12  C12 UNL     1      85.723  42.342 -35.573  1.00  0.00     0.019 C 
HETATM   13  C13 UNL     1      85.611  42.532 -37.981  1.00  0.00     0.124 C 
HETATM   14  C14 UNL     1      84.986  43.295 -39.095  1.00  0.00     0.262 C 
HETATM   15  O1  UNL     1      84.442  42.731 -40.083  1.00  0.00    -0.265 OA
HETATM   16  O2  UNL     1      85.052  44.676 -38.956  1.00  0.00    -0.283 OA
HETATM   17  C15 UNL     1      85.935  45.103 -37.873  1.00  0.00     0.348 C 
HETATM   18  C16 UNL     1      85.244  44.577 -36.637  1.00  0.00     0.179 C 
HETATM   19  O5  UNL     1      83.934  45.103 -36.822  1.00  0.00    -0.218 OA
HETATM   20  O6  UNL     1      83.705  46.144 -36.112  1.00  0.00    -0.229 OA
ENDROOT
BRANCH  17  21
HETATM   21  O3  UNL     1      85.780  46.498 -37.904  1.00  0.00    -0.206 OA
BRANCH  21  22
HETATM   22  O4  UNL     1      85.100  46.926 -38.920  1.00  0.00    -0.248 OA
ATOM     23  H4  UNL     1      85.625  47.379 -39.569  1.00  0.00     0.253 HD
ENDBRANCH  21  22
ENDBRANCH  17  21
TORSDOF 2
ENDMDL
MODEL 2
REMARK VINA RESULT: -6.747556223      1.986      3.377
REMARK  2 active torsions:
REMARK  status: ('A' for Active; 'I' for Inactive)
REMARK    1  A    between atoms: C15_17  and  O3_18 
REMARK    2  A    between atoms: O3_18  and  O4_19 
ROOT
HETATM    1  C1  UNL     1      85.563  44.633 -38.311  1.00  0.00     0.046 C 
HETATM    2  C2  UNL     1      84.837  45.123 -37.073  1.00  0.00    -0.044 C 
HETATM    3  C3  UNL     1      84.653  46.448 -37.158  1.00  0.00    -0.021 C 
HETATM    4  C4  UNL     1      84.063  47.509 -36.370  1.00  0.00     0.030 C 
HETATM    5  C5  UNL     1      82.778  47.342 -35.700  1.00  0.00     0.044 C 
HETATM    6  C6  UNL     1      82.404  46.065 -35.080  1.00  0.00     0.093 C 
HETATM    7  C7  UNL     1      80.869  46.120 -34.870  1.00  0.00     0.049 C 
HETATM    8  C8  UNL     1      82.956  45.731 -33.751  1.00  0.00     0.041 C 
HETATM    9  C9  UNL     1      84.390  45.589 -33.534  1.00  0.00     0.004 C 
HETATM   10  C10 UNL     1      84.955  44.176 -33.662  1.00  0.00     0.013 C 
HETATM   11  C11 UNL     1      85.565  43.918 -35.024  1.00  0.00     0.008 C 
HETATM   12  C12 UNL     1      86.778  44.795 -35.226  1.00  0.00     0.019 C 
HETATM   13  C13 UNL     1      86.093  42.489 -34.983  1.00  0.00     0.124 C 
HETATM   14  C14 UNL     1      84.908  41.598 -34.857  1.00  0.00     0.262 C 
HETATM   15  O1  UNL     1      84.822  40.706 -33.971  1.00  0.00    -0.265 OA
HETATM   16  O2  UNL     1      83.910  41.830 -35.796  1.00  0.00    -0.283 OA
HETATM   17  C15 UNL     1      84.327  42.732 -36.867  1.00  0.00     0.348 C 
HETATM   18  C16 UNL     1      84.556  44.040 -36.146  1.00  0.00     0.179 C 
HETATM   19  O5  UNL     1      83.320  44.179 -35.453  1.00  0.00    -0.218 OA
HETATM   20  O6  UNL     1      82.518  45.003 -36.016  1.00  0.00    -0.229 OA
ENDROOT
BRANCH  17  21
HETATM   21  O3  UNL     1      83.151  42.846 -37.625  1.00  0.00    -0.206 OA
BRANCH  21  22
HETATM   22  O4  UNL     1      82.139  42.214 -37.120  1.00  0.00    -0.248 OA
ATOM     23  H4  UNL     1      81.336  42.720 -37.114  1.00  0.00     0.253 HD
ENDBRANCH  21  22
ENDBRANCH  17  21
TORSDOF 2
ENDMDL
MODEL 3
REMARK VINA RESULT: -6.674926774      1.858      4.570
REMARK  2 active torsions:
REMARK  status: ('A' for Active; 'I' for Inactive)
REMARK    1  A    between atoms: C15_17  and  O3_18 
REMARK    2  A    between atoms: O3_18  and  O4_19 
ROOT
HETATM    1  C1  UNL     1      84.615  42.674 -33.507  1.00  0.00     0.046 C 
HETATM    2  C2  UNL     1      84.921  43.591 -34.674  1.00  0.00    -0.044 C 
HETATM    3  C3  UNL     1      86.226  43.514 -34.973  1.00  0.00    -0.021 C 
HETATM    4  C4  UNL     1      87.152  44.090 -35.924  1.00  0.00     0.030 C 
HETATM    5  C5  UNL     1      86.806  44.244 -37.333  1.00  0.00     0.044 C 
HETATM    6  C6  UNL     1      85.449  44.621 -37.747  1.00  0.00     0.093 C 
HETATM    7  C7  UNL     1      85.342  44.268 -39.253  1.00  0.00     0.049 C 
HETATM    8  C8  UNL     1      85.049  46.041 -37.661  1.00  0.00     0.041 C 
HETATM    9  C9  UNL     1      85.022  46.751 -36.390  1.00  0.00     0.004 C 
HETATM   10  C10 UNL     1      83.685  46.763 -35.652  1.00  0.00     0.013 C 
HETATM   11  C11 UNL     1      83.608  45.699 -34.575  1.00  0.00     0.008 C 
HETATM   12  C12 UNL     1      84.609  45.993 -33.483  1.00  0.00     0.019 C 
HETATM   13  C13 UNL     1      82.237  45.854 -33.929  1.00  0.00     0.124 C 
HETATM   14  C14 UNL     1      81.232  45.500 -34.968  1.00  0.00     0.262 C 
HETATM   15  O1  UNL     1      80.259  46.249 -35.253  1.00  0.00    -0.265 OA
HETATM   16  O2  UNL     1      81.454  44.279 -35.592  1.00  0.00    -0.283 OA
HETATM   17  C15 UNL     1      82.484  43.477 -34.936  1.00  0.00     0.348 C 
HETATM   18  C16 UNL     1      83.737  44.297 -35.132  1.00  0.00     0.179 C 
HETATM   19  O5  UNL     1      83.698  44.506 -36.540  1.00  0.00    -0.218 OA
HETATM   20  O6  UNL     1      84.491  43.736 -37.185  1.00  0.00    -0.229 OA
ENDROOT
BRANCH  17  21
HETATM   21  O3  UNL     1      82.557  42.354 -35.774  1.00  0.00    -0.206 OA
BRANCH  21  22
HETATM   22  O4  UNL     1      81.931  42.499 -36.899  1.00  0.00    -0.248 OA
ATOM     23  H4  UNL     1      82.101  41.804 -37.525  1.00  0.00     0.253 HD
ENDBRANCH  21  22
ENDBRANCH  17  21
TORSDOF 2
ENDMDL
MODEL 4
REMARK VINA RESULT: -6.569519912      1.838      3.085
REMARK  2 active torsions:
REMARK  status: ('A' for Active; 'I' for Inactive)
REMARK    1  A    between atoms: C15_17  and  O3_18 
REMARK    2  A    between atoms: O3_18  and  O4_19 
ROOT
HETATM    1  C1  UNL     1      85.896  45.570 -38.979  1.00  0.00     0.046 C 
HETATM    2  C2  UNL     1      85.217  45.651 -37.626  1.00  0.00    -0.044 C 
HETATM    3  C3  UNL     1      84.733  46.887 -37.442  1.00  0.00    -0.021 C 
HETATM    4  C4  UNL     1      84.009  47.624 -36.428  1.00  0.00     0.030 C 
HETATM    5  C5  UNL     1      82.875  47.041 -35.721  1.00  0.00     0.044 C 
HETATM    6  C6  UNL     1      82.864  45.625 -35.336  1.00  0.00     0.093 C 
HETATM    7  C7  UNL     1      81.387  45.273 -35.021  1.00  0.00     0.049 C 
HETATM    8  C8  UNL     1      83.617  45.209 -34.135  1.00  0.00     0.041 C 
HETATM    9  C9  UNL     1      85.061  45.380 -34.042  1.00  0.00     0.004 C 
HETATM   10  C10 UNL     1      85.911  44.187 -34.476  1.00  0.00     0.013 C 
HETATM   11  C11 UNL     1      86.413  44.321 -35.899  1.00  0.00     0.008 C 
HETATM   12  C12 UNL     1      87.369  45.485 -36.006  1.00  0.00     0.019 C 
HETATM   13  C13 UNL     1      87.248  43.076 -36.168  1.00  0.00     0.124 C 
HETATM   14  C14 UNL     1      86.313  41.918 -36.140  1.00  0.00     0.262 C 
HETATM   15  O1  UNL     1      86.525  40.893 -35.438  1.00  0.00    -0.265 OA
HETATM   16  O2  UNL     1      85.193  42.063 -36.950  1.00  0.00    -0.283 OA
HETATM   17  C15 UNL     1      85.280  43.209 -37.852  1.00  0.00     0.348 C 
HETATM   18  C16 UNL     1      85.286  44.389 -36.909  1.00  0.00     0.179 C 
HETATM   19  O5  UNL     1      84.133  44.107 -36.124  1.00  0.00    -0.218 OA
HETATM   20  O6  UNL     1      83.111  44.798 -36.464  1.00  0.00    -0.229 OA
ENDROOT
BRANCH  17  21
HETATM   21  O3  UNL     1      84.034  43.167 -38.496  1.00  0.00    -0.206 OA
BRANCH  21  22
HETATM   22  O4  UNL     1      83.231  42.265 -38.025  1.00  0.00    -0.248 OA
ATOM     23  H4  UNL     1      83.667  41.594 -37.514  1.00  0.00     0.253 HD
ENDBRANCH  21  22
ENDBRANCH  17  21
TORSDOF 2
ENDMDL
MODEL 5
REMARK VINA RESULT: -6.478884702      1.381      2.181
REMARK  2 active torsions:
REMARK  status: ('A' for Active; 'I' for Inactive)
REMARK    1  A    between atoms: C15_17  and  O3_18 
REMARK    2  A    between atoms: O3_18  and  O4_19 
ROOT
HETATM    1  C1  UNL     1      85.504  45.939 -33.276  1.00  0.00     0.046 C 
HETATM    2  C2  UNL     1      84.061  45.833 -33.725  1.00  0.00    -0.044 C 
HETATM    3  C3  UNL     1      83.251  46.176 -32.713  1.00  0.00    -0.021 C 
HETATM    4  C4  UNL     1      81.832  46.294 -32.456  1.00  0.00     0.030 C 
HETATM    5  C5  UNL     1      80.926  46.898 -33.426  1.00  0.00     0.044 C 
HETATM    6  C6  UNL     1      81.103  46.687 -34.868  1.00  0.00     0.093 C 
HETATM    7  C7  UNL     1      80.271  47.789 -35.573  1.00  0.00     0.049 C 
HETATM    8  C8  UNL     1      80.633  45.419 -35.464  1.00  0.00     0.041 C 
HETATM    9  C9  UNL     1      81.182  44.133 -35.053  1.00  0.00     0.004 C 
HETATM   10  C10 UNL     1      82.351  43.604 -35.882  1.00  0.00     0.013 C 
HETATM   11  C11 UNL     1      83.693  43.901 -35.245  1.00  0.00     0.008 C 
HETATM   12  C12 UNL     1      83.827  43.153 -33.940  1.00  0.00     0.019 C 
HETATM   13  C13 UNL     1      84.740  43.299 -36.174  1.00  0.00     0.124 C 
HETATM   14  C14 UNL     1      84.679  44.069 -37.446  1.00  0.00     0.262 C 
HETATM   15  O1  UNL     1      84.568  43.512 -38.571  1.00  0.00    -0.265 OA
HETATM   16  O2  UNL     1      84.753  45.448 -37.289  1.00  0.00    -0.283 OA
HETATM   17  C15 UNL     1      85.124  45.853 -35.936  1.00  0.00     0.348 C 
HETATM   18  C16 UNL     1      83.953  45.386 -35.103  1.00  0.00     0.179 C 
HETATM   19  O5  UNL     1      82.870  45.972 -35.817  1.00  0.00    -0.218 OA
HETATM   20  O6  UNL     1      82.420  47.036 -35.266  1.00  0.00    -0.229 OA
ENDROOT
BRANCH  17  21
HETATM   21  O3  UNL     1      85.070  47.253 -36.026  1.00  0.00    -0.206 OA
BRANCH  21  22
HETATM   22  O4  UNL     1      84.646  47.688 -37.170  1.00  0.00    -0.248 OA
ATOM     23  H4  UNL     1      85.211  47.461 -37.899  1.00  0.00     0.253 HD
ENDBRANCH  21  22
ENDBRANCH  17  21
TORSDOF 2
ENDMDL
