MODEL 1
REMARK VINA RESULT: -7.301603075      0.000      0.000
REMARK  5 active torsions:
REMARK  status: ('A' for Active; 'I' for Inactive)
REMARK    1  A    between atoms: C2_2  and  C3_3 
REMARK    2  A    between atoms: C6_6  and  C8_8 
REMARK    3  A    between atoms: C8_8  and  C9_9 
REMARK    4  A    between atoms: C9_9  and  N1_10 
REMARK    5  A    between atoms: C10_11  and  O1_12 
ROOT
HETATM    1  N1  UNL     1     -28.253 -26.488   3.409  1.00  0.00    -0.161 N 
HETATM    2  C10 UNL     1     -29.111 -26.759   2.397  1.00  0.00     0.180 A 
HETATM    3  C11 UNL     1     -29.133 -25.721   1.495  1.00  0.00     0.074 A 
HETATM    4  C12 UNL     1     -29.947 -25.642   0.253  1.00  0.00     0.073 C 
HETATM    5  N2  UNL     1     -28.272 -24.810   1.975  1.00  0.00    -0.192 N 
ATOM      6  H2  UNL     1     -28.053 -23.913   1.541  1.00  0.00     0.184 HD
HETATM    7  C13 UNL     1     -27.745 -25.275   3.127  1.00  0.00     0.680 A 
HETATM    8  N3  UNL     1     -26.872 -24.629   3.848  1.00  0.00    -0.234 N 
ATOM      9  H31 UNL     1     -26.486 -23.709   3.634  1.00  0.00     0.174 HD
ATOM     10  H32 UNL     1     -26.474 -24.980   4.718  1.00  0.00     0.174 HD
ENDROOT
BRANCH   1  11
HETATM   11  C9  UNL     1     -27.958 -27.354   4.562  1.00  0.00     0.151 C 
BRANCH  11  12
HETATM   12  C8  UNL     1     -28.931 -27.170   5.650  1.00  0.00     0.030 C 
BRANCH  12  13
HETATM   13  C6  UNL     1     -28.580 -27.661   7.010  1.00  0.00    -0.039 C 
HETATM   14  C5  UNL     1     -28.773 -29.082   7.290  1.00  0.00     0.010 C 
HETATM   15  C4  UNL     1     -27.447 -29.653   7.706  1.00  0.00     0.006 C 
HETATM   16  C3  UNL     1     -26.417 -28.630   7.215  1.00  0.00    -0.010 C 
HETATM   17  C14 UNL     1     -27.160 -27.362   7.393  1.00  0.00    -0.006 C 
HETATM   18  C15 UNL     1     -27.072 -26.971   8.856  1.00  0.00     0.011 C 
HETATM   19  C7  UNL     1     -29.443 -26.856   8.013  1.00  0.00     0.015 C 
BRANCH  16  20
HETATM   20  C2  UNL     1     -25.158 -28.739   8.050  1.00  0.00     0.000 C 
HETATM   21  C1  UNL     1     -25.055 -30.071   8.736  1.00  0.00     0.005 C 
ENDBRANCH  16  20
ENDBRANCH  12  13
ENDBRANCH  11  12
ENDBRANCH   1  11
BRANCH   2  22
HETATM   22  O1  UNL     1     -29.866 -27.908   2.270  1.00  0.00    -0.344 OA
ATOM     23  H1  UNL     1     -29.583 -28.710   1.846  1.00  0.00     0.219 HD
ENDBRANCH   2  22
TORSDOF 5
ENDMDL
MODEL 2
REMARK VINA RESULT: -7.299676046      1.777      1.973
REMARK  5 active torsions:
REMARK  status: ('A' for Active; 'I' for Inactive)
REMARK    1  A    between atoms: C2_2  and  C3_3 
REMARK    2  A    between atoms: C6_6  and  C8_8 
REMARK    3  A    between atoms: C8_8  and  C9_9 
REMARK    4  A    between atoms: C9_9  and  N1_10 
REMARK    5  A    between atoms: C10_11  and  O1_12 
ROOT
HETATM    1  N1  UNL     1     -26.808 -26.054   3.765  1.00  0.00    -0.161 N 
HETATM    2  C10 UNL     1     -27.211 -25.599   2.555  1.00  0.00     0.180 A 
HETATM    3  C11 UNL     1     -26.310 -25.960   1.581  1.00  0.00     0.074 A 
HETATM    4  C12 UNL     1     -26.399 -25.649   0.130  1.00  0.00     0.073 C 
HETATM    5  N2  UNL     1     -25.348 -26.645   2.219  1.00  0.00    -0.192 N 
ATOM      6  H2  UNL     1     -24.522 -27.057   1.783  1.00  0.00     0.184 HD
HETATM    7  C13 UNL     1     -25.651 -26.700   3.533  1.00  0.00     0.680 A 
HETATM    8  N3  UNL     1     -24.917 -27.294   4.431  1.00  0.00    -0.234 N 
ATOM      9  H31 UNL     1     -24.040 -27.784   4.256  1.00  0.00     0.174 HD
ATOM     10  H32 UNL     1     -25.146 -27.335   5.424  1.00  0.00     0.174 HD
ENDROOT
BRANCH   1  11
HETATM   11  C9  UNL     1     -27.506 -25.867   5.048  1.00  0.00     0.151 C 
BRANCH  11  12
HETATM   12  C8  UNL     1     -28.337 -27.030   5.394  1.00  0.00     0.030 C 
BRANCH  12  13
HETATM   13  C6  UNL     1     -28.310 -27.535   6.793  1.00  0.00    -0.039 C 
HETATM   14  C5  UNL     1     -28.805 -28.887   7.037  1.00  0.00     0.010 C 
HETATM   15  C4  UNL     1     -27.693 -29.677   7.668  1.00  0.00     0.006 C 
HETATM   16  C3  UNL     1     -26.426 -28.873   7.355  1.00  0.00    -0.010 C 
HETATM   17  C14 UNL     1     -26.941 -27.487   7.407  1.00  0.00    -0.006 C 
HETATM   18  C15 UNL     1     -27.022 -27.074   8.864  1.00  0.00     0.011 C 
HETATM   19  C7  UNL     1     -29.162 -26.555   7.639  1.00  0.00     0.015 C 
BRANCH  16  20
HETATM   20  C2  UNL     1     -25.362 -29.184   8.387  1.00  0.00     0.000 C 
HETATM   21  C1  UNL     1     -25.251 -30.659   8.651  1.00  0.00     0.005 C 
ENDBRANCH  16  20
ENDBRANCH  12  13
ENDBRANCH  11  12
ENDBRANCH   1  11
BRANCH   2  22
HETATM   22  O1  UNL     1     -28.360 -24.873   2.312  1.00  0.00    -0.344 OA
ATOM     23  H1  UNL     1     -28.920 -24.964   1.550  1.00  0.00     0.219 HD
ENDBRANCH   2  22
TORSDOF 5
ENDMDL
MODEL 3
REMARK VINA RESULT: -7.279603182      0.887      1.068
REMARK  5 active torsions:
REMARK  status: ('A' for Active; 'I' for Inactive)
REMARK    1  A    between atoms: C2_2  and  C3_3 
REMARK    2  A    between atoms: C6_6  and  C8_8 
REMARK    3  A    between atoms: C8_8  and  C9_9 
REMARK    4  A    between atoms: C9_9  and  N1_10 
REMARK    5  A    between atoms: C10_11  and  O1_12 
ROOT
HETATM    1  N1  UNL     1     -28.702 -26.210   3.607  1.00  0.00    -0.161 N 
HETATM    2  C10 UNL     1     -29.103 -26.749   2.431  1.00  0.00     0.180 A 
HETATM    3  C11 UNL     1     -28.694 -25.963   1.379  1.00  0.00     0.074 A 
HETATM    4  C12 UNL     1     -28.939 -26.216  -0.065  1.00  0.00     0.073 C 
HETATM    5  N2  UNL     1     -28.037 -24.933   1.935  1.00  0.00    -0.192 N 
ATOM      6  H2  UNL     1     -27.604 -24.161   1.427  1.00  0.00     0.184 HD
HETATM    7  C13 UNL     1     -28.044 -25.085   3.276  1.00  0.00     0.680 A 
HETATM    8  N3  UNL     1     -27.489 -24.253   4.112  1.00  0.00    -0.234 N 
ATOM      9  H31 UNL     1     -26.989 -23.400   3.861  1.00  0.00     0.174 HD
ATOM     10  H32 UNL     1     -27.494 -24.368   5.125  1.00  0.00     0.174 HD
ENDROOT
BRANCH   1  11
HETATM   11  C9  UNL     1     -28.949 -26.759   4.951  1.00  0.00     0.151 C 
BRANCH  11  12
HETATM   12  C8  UNL     1     -27.765 -27.445   5.490  1.00  0.00     0.030 C 
BRANCH  12  13
HETATM   13  C6  UNL     1     -27.777 -27.876   6.914  1.00  0.00    -0.039 C 
HETATM   14  C5  UNL     1     -28.739 -28.905   7.303  1.00  0.00     0.010 C 
HETATM   15  C4  UNL     1     -27.969 -30.058   7.881  1.00  0.00     0.006 C 
HETATM   16  C3  UNL     1     -26.532 -29.846   7.390  1.00  0.00    -0.010 C 
HETATM   17  C14 UNL     1     -26.442 -28.369   7.389  1.00  0.00    -0.006 C 
HETATM   18  C15 UNL     1     -26.181 -27.916   8.812  1.00  0.00     0.011 C 
HETATM   19  C7  UNL     1     -28.063 -26.612   7.762  1.00  0.00     0.015 C 
BRANCH  16  20
HETATM   20  C2  UNL     1     -25.568 -30.530   8.336  1.00  0.00     0.000 C 
HETATM   21  C1  UNL     1     -25.851 -32.000   8.458  1.00  0.00     0.005 C 
ENDBRANCH  16  20
ENDBRANCH  12  13
ENDBRANCH  11  12
ENDBRANCH   1  11
BRANCH   2  22
HETATM   22  O1  UNL     1     -29.819 -27.920   2.287  1.00  0.00    -0.344 OA
ATOM     23  H1  UNL     1     -30.493 -28.079   1.637  1.00  0.00     0.219 HD
ENDBRANCH   2  22
TORSDOF 5
ENDMDL
MODEL 4
REMARK VINA RESULT: -7.218300712      1.647      1.909
REMARK  5 active torsions:
REMARK  status: ('A' for Active; 'I' for Inactive)
REMARK    1  A    between atoms: C2_2  and  C3_3 
REMARK    2  A    between atoms: C6_6  and  C8_8 
REMARK    3  A    between atoms: C8_8  and  C9_9 
REMARK    4  A    between atoms: C9_9  and  N1_10 
REMARK    5  A    between atoms: C10_11  and  O1_12 
ROOT
HETATM    1  N1  UNL     1     -27.873 -26.578   3.292  1.00  0.00    -0.161 N 
HETATM    2  C10 UNL     1     -26.790 -26.529   2.481  1.00  0.00     0.180 A 
HETATM    3  C11 UNL     1     -27.022 -25.686   1.420  1.00  0.00     0.074 A 
HETATM    4  C12 UNL     1     -26.079 -25.369   0.315  1.00  0.00     0.073 C 
HETATM    5  N2  UNL     1     -28.270 -25.221   1.597  1.00  0.00    -0.192 N 
ATOM      6  H2  UNL     1     -28.753 -24.568   0.981  1.00  0.00     0.184 HD
HETATM    7  C13 UNL     1     -28.778 -25.760   2.725  1.00  0.00     0.680 A 
HETATM    8  N3  UNL     1     -29.973 -25.513   3.182  1.00  0.00    -0.234 N 
ATOM      9  H31 UNL     1     -30.659 -24.892   2.752  1.00  0.00     0.174 HD
ATOM     10  H32 UNL     1     -30.358 -25.920   4.034  1.00  0.00     0.174 HD
ENDROOT
BRANCH   1  11
HETATM   11  C9  UNL     1     -28.008 -27.368   4.527  1.00  0.00     0.151 C 
BRANCH  11  12
HETATM   12  C8  UNL     1     -27.402 -26.688   5.682  1.00  0.00     0.030 C 
BRANCH  12  13
HETATM   13  C6  UNL     1     -27.567 -27.292   7.032  1.00  0.00    -0.039 C 
HETATM   14  C5  UNL     1     -28.471 -28.433   7.159  1.00  0.00     0.010 C 
HETATM   15  C4  UNL     1     -27.680 -29.585   7.712  1.00  0.00     0.006 C 
HETATM   16  C3  UNL     1     -26.217 -29.202   7.463  1.00  0.00    -0.010 C 
HETATM   17  C14 UNL     1     -26.268 -27.734   7.640  1.00  0.00    -0.006 C 
HETATM   18  C15 UNL     1     -26.247 -27.441   9.128  1.00  0.00     0.011 C 
HETATM   19  C7  UNL     1     -28.084 -26.168   7.965  1.00  0.00     0.015 C 
BRANCH  16  20
HETATM   20  C2  UNL     1     -25.330 -29.921   8.459  1.00  0.00     0.000 C 
HETATM   21  C1  UNL     1     -25.597 -31.399   8.481  1.00  0.00     0.005 C 
ENDBRANCH  16  20
ENDBRANCH  12  13
ENDBRANCH  11  12
ENDBRANCH   1  11
BRANCH   2  22
HETATM   22  O1  UNL     1     -25.610 -27.219   2.675  1.00  0.00    -0.344 OA
ATOM     23  H1  UNL     1     -25.172 -27.341   3.509  1.00  0.00     0.219 HD
ENDBRANCH   2  22
TORSDOF 5
ENDMDL
MODEL 5
REMARK VINA RESULT: -7.199609750      1.629      1.954
REMARK  5 active torsions:
REMARK  status: ('A' for Active; 'I' for Inactive)
REMARK    1  A    between atoms: C2_2  and  C3_3 
REMARK    2  A    between atoms: C6_6  and  C8_8 
REMARK    3  A    between atoms: C8_8  and  C9_9 
REMARK    4  A    between atoms: C9_9  and  N1_10 
REMARK    5  A    between atoms: C10_11  and  O1_12 
ROOT
HETATM    1  N1  UNL     1     -28.385 -25.689   4.051  1.00  0.00    -0.161 N 
HETATM    2  C10 UNL     1     -27.896 -25.402   2.822  1.00  0.00     0.180 A 
HETATM    3  C11 UNL     1     -28.902 -25.438   1.885  1.00  0.00     0.074 A 
HETATM    4  C12 UNL     1     -28.766 -25.179   0.427  1.00  0.00     0.073 C 
HETATM    5  N2  UNL     1     -30.015 -25.753   2.565  1.00  0.00    -0.192 N 
ATOM      6  H2  UNL     1     -30.947 -25.862   2.163  1.00  0.00     0.184 HD
HETATM    7  C13 UNL     1     -29.700 -25.904   3.869  1.00  0.00     0.680 A 
HETATM    8  N3  UNL     1     -30.559 -26.212   4.800  1.00  0.00    -0.234 N 
ATOM      9  H31 UNL     1     -31.556 -26.374   4.661  1.00  0.00     0.174 HD
ATOM     10  H32 UNL     1     -30.320 -26.326   5.785  1.00  0.00     0.174 HD
ENDROOT
BRANCH   1  11
HETATM   11  C9  UNL     1     -27.619 -25.748   5.307  1.00  0.00     0.151 C 
BRANCH  11  12
HETATM   12  C8  UNL     1     -27.156 -27.112   5.604  1.00  0.00     0.030 C 
BRANCH  12  13
HETATM   13  C6  UNL     1     -27.369 -27.656   6.972  1.00  0.00    -0.039 C 
HETATM   14  C5  UNL     1     -28.315 -28.759   7.125  1.00  0.00     0.010 C 
HETATM   15  C4  UNL     1     -27.577 -29.915   7.740  1.00  0.00     0.006 C 
HETATM   16  C3  UNL     1     -26.097 -29.592   7.508  1.00  0.00    -0.010 C 
HETATM   17  C14 UNL     1     -26.099 -28.117   7.625  1.00  0.00    -0.006 C 
HETATM   18  C15 UNL     1     -26.099 -27.766   9.101  1.00  0.00     0.011 C 
HETATM   19  C7  UNL     1     -27.865 -26.478   7.849  1.00  0.00     0.015 C 
BRANCH  16  20
HETATM   20  C2  UNL     1     -25.256 -30.300   8.550  1.00  0.00     0.000 C 
HETATM   21  C1  UNL     1     -25.612 -31.755   8.662  1.00  0.00     0.005 C 
ENDBRANCH  16  20
ENDBRANCH  12  13
ENDBRANCH  11  12
ENDBRANCH   1  11
BRANCH   2  22
HETATM   22  O1  UNL     1     -26.579 -25.111   2.530  1.00  0.00    -0.344 OA
ATOM     23  H1  UNL     1     -26.278 -24.597   1.790  1.00  0.00     0.219 HD
ENDBRANCH   2  22
TORSDOF 5
ENDMDL
