MODEL 1
REMARK VINA RESULT: -4.701593908      0.000      0.000
REMARK  4 active torsions:
REMARK  status: ('A' for Active; 'I' for Inactive)
REMARK    1  A    between atoms: N1_1  and  C1_4 
REMARK    2  A    between atoms: C2_9  and  S1_10 
REMARK    3  A    between atoms: S1_10  and  C3_11 
REMARK    4  A    between atoms: C3_11  and  C4_12 
ROOT
HETATM    1  C1  UNL     1       7.855 -17.424 110.438  1.00  0.00     0.239 A 
HETATM    2  N2  UNL     1       8.689 -17.715 111.456  1.00  0.00    -0.263 N 
ATOM      3  H2  UNL     1       9.662 -18.015 111.383  1.00  0.00     0.190 HD
HETATM    4  N3  UNL     1       7.989 -17.531 112.576  1.00  0.00    -0.271 N 
ATOM      5  H3  UNL     1       8.344 -17.671 113.521  1.00  0.00     0.189 HD
HETATM    6  C2  UNL     1       6.735 -17.130 112.263  1.00  0.00     0.205 A 
HETATM    7  O1  UNL     1       6.704 -17.082 110.957  1.00  0.00    -0.253 OA
ENDROOT
BRANCH   6   8
HETATM    8  S1  UNL     1       5.498 -16.779 113.477  1.00  0.00    -0.084 SA
BRANCH   8   9
HETATM    9  C3  UNL     1       6.019 -15.647 114.752  1.00  0.00     0.087 C 
BRANCH   9  10
HETATM   10  C4  UNL     1       6.231 -16.247 116.094  1.00  0.00    -0.005 C 
HETATM   11  C5  UNL     1       6.334 -17.713 116.155  1.00  0.00     0.005 C 
HETATM   12  C6  UNL     1       7.454 -18.252 117.000  1.00  0.00     0.000 C 
HETATM   13  C7  UNL     1       7.702 -17.529 118.278  1.00  0.00     0.000 C 
HETATM   14  C8  UNL     1       7.283 -16.082 118.255  1.00  0.00     0.000 C 
HETATM   15  C9  UNL     1       7.455 -15.637 116.796  1.00  0.00     0.005 C 
ENDBRANCH   9  10
ENDBRANCH   8   9
ENDBRANCH   6   8
BRANCH   1  16
HETATM   16  N1  UNL     1       8.226 -17.502 109.207  1.00  0.00    -0.364 N 
ATOM     17  H12 UNL     1       8.597 -18.290 108.677  1.00  0.00     0.159 HD
ATOM     18  H11 UNL     1       8.181 -16.701 108.577  1.00  0.00     0.159 HD
ENDBRANCH   1  16
TORSDOF 4
ENDMDL
MODEL 2
REMARK VINA RESULT: -4.657043352      1.539      1.623
REMARK  4 active torsions:
REMARK  status: ('A' for Active; 'I' for Inactive)
REMARK    1  A    between atoms: N1_1  and  C1_4 
REMARK    2  A    between atoms: C2_9  and  S1_10 
REMARK    3  A    between atoms: S1_10  and  C3_11 
REMARK    4  A    between atoms: C3_11  and  C4_12 
ROOT
HETATM    1  C1  UNL     1       8.152 -16.046 110.718  1.00  0.00     0.239 A 
HETATM    2  N2  UNL     1       6.985 -16.706 110.595  1.00  0.00    -0.263 N 
ATOM      3  H2  UNL     1       6.692 -17.292 109.812  1.00  0.00     0.190 HD
HETATM    4  N3  UNL     1       6.288 -16.441 111.701  1.00  0.00    -0.271 N 
ATOM      5  H3  UNL     1       5.355 -16.797 111.908  1.00  0.00     0.189 HD
HETATM    6  C2  UNL     1       7.011 -15.626 112.504  1.00  0.00     0.205 A 
HETATM    7  O1  UNL     1       8.131 -15.416 111.864  1.00  0.00    -0.253 OA
ENDROOT
BRANCH   6   8
HETATM    8  S1  UNL     1       6.432 -15.047 114.071  1.00  0.00    -0.084 SA
BRANCH   8   9
HETATM    9  C3  UNL     1       5.378 -16.197 114.938  1.00  0.00     0.087 C 
BRANCH   9  10
HETATM   10  C4  UNL     1       6.074 -17.144 115.846  1.00  0.00    -0.005 C 
HETATM   11  C5  UNL     1       6.935 -18.155 115.214  1.00  0.00     0.005 C 
HETATM   12  C6  UNL     1       8.286 -18.346 115.846  1.00  0.00     0.000 C 
HETATM   13  C7  UNL     1       8.312 -18.309 117.334  1.00  0.00     0.000 C 
HETATM   14  C8  UNL     1       7.201 -17.494 117.945  1.00  0.00     0.000 C 
HETATM   15  C9  UNL     1       6.890 -16.400 116.915  1.00  0.00     0.005 C 
ENDBRANCH   9  10
ENDBRANCH   8   9
ENDBRANCH   6   8
BRANCH   1  16
HETATM   16  N1  UNL     1       9.063 -16.094 109.808  1.00  0.00    -0.364 N 
ATOM     17  H12 UNL     1       9.100 -15.660 108.886  1.00  0.00     0.159 HD
ATOM     18  H11 UNL     1       9.925 -16.624 109.934  1.00  0.00     0.159 HD
ENDBRANCH   1  16
TORSDOF 4
ENDMDL
MODEL 3
REMARK VINA RESULT: -4.627654903      4.201      5.820
REMARK  4 active torsions:
REMARK  status: ('A' for Active; 'I' for Inactive)
REMARK    1  A    between atoms: N1_1  and  C1_4 
REMARK    2  A    between atoms: C2_9  and  S1_10 
REMARK    3  A    between atoms: S1_10  and  C3_11 
REMARK    4  A    between atoms: C3_11  and  C4_12 
ROOT
HETATM    1  C1  UNL     1      10.850 -21.005 117.561  1.00  0.00     0.239 A 
HETATM    2  N2  UNL     1      10.352 -21.229 116.329  1.00  0.00    -0.263 N 
ATOM      3  H2  UNL     1      10.487 -22.063 115.757  1.00  0.00     0.190 HD
HETATM    4  N3  UNL     1       9.649 -20.143 116.008  1.00  0.00    -0.271 N 
ATOM      5  H3  UNL     1       9.146 -20.005 115.132  1.00  0.00     0.189 HD
HETATM    6  C2  UNL     1       9.706 -19.252 117.025  1.00  0.00     0.205 A 
HETATM    7  O1  UNL     1      10.445 -19.821 117.941  1.00  0.00    -0.253 OA
ENDROOT
BRANCH   6   8
HETATM    8  S1  UNL     1       8.895 -17.681 116.985  1.00  0.00    -0.084 SA
BRANCH   8   9
HETATM    9  C3  UNL     1       7.120 -17.765 117.128  1.00  0.00     0.087 C 
BRANCH   9  10
HETATM   10  C4  UNL     1       6.366 -17.605 115.858  1.00  0.00    -0.005 C 
HETATM   11  C5  UNL     1       5.624 -16.348 115.682  1.00  0.00     0.005 C 
HETATM   12  C6  UNL     1       5.775 -15.685 114.341  1.00  0.00     0.000 C 
HETATM   13  C7  UNL     1       5.789 -16.602 113.168  1.00  0.00     0.000 C 
HETATM   14  C8  UNL     1       6.277 -17.992 113.482  1.00  0.00     0.000 C 
HETATM   15  C9  UNL     1       7.274 -17.817 114.636  1.00  0.00     0.005 C 
ENDBRANCH   9  10
ENDBRANCH   8   9
ENDBRANCH   6   8
BRANCH   1  16
HETATM   16  N1  UNL     1      11.585 -21.871 118.169  1.00  0.00    -0.364 N 
ATOM     17  H12 UNL     1      12.521 -21.784 118.563  1.00  0.00     0.159 HD
ATOM     18  H11 UNL     1      11.270 -22.827 118.332  1.00  0.00     0.159 HD
ENDBRANCH   1  16
TORSDOF 4
ENDMDL
MODEL 4
REMARK VINA RESULT: -4.611740539      2.604      3.798
REMARK  4 active torsions:
REMARK  status: ('A' for Active; 'I' for Inactive)
REMARK    1  A    between atoms: N1_1  and  C1_4 
REMARK    2  A    between atoms: C2_9  and  S1_10 
REMARK    3  A    between atoms: S1_10  and  C3_11 
REMARK    4  A    between atoms: C3_11  and  C4_12 
ROOT
HETATM    1  C1  UNL     1       9.677 -20.046 108.772  1.00  0.00     0.239 A 
HETATM    2  N2  UNL     1      10.336 -20.112 109.945  1.00  0.00    -0.263 N 
ATOM      3  H2  UNL     1      10.943 -20.867 110.265  1.00  0.00     0.190 HD
HETATM    4  N3  UNL     1      10.036 -18.993 110.604  1.00  0.00    -0.271 N 
ATOM      5  H3  UNL     1      10.382 -18.745 111.531  1.00  0.00     0.189 HD
HETATM    6  C2  UNL     1       9.201 -18.237 109.853  1.00  0.00     0.205 A 
HETATM    7  O1  UNL     1       9.014 -18.919 108.754  1.00  0.00    -0.253 OA
ENDROOT
BRANCH   6   8
HETATM    8  S1  UNL     1       8.574 -16.669 110.380  1.00  0.00    -0.084 SA
BRANCH   8   9
HETATM    9  C3  UNL     1       6.971 -16.741 111.157  1.00  0.00     0.087 C 
BRANCH   9  10
HETATM   10  C4  UNL     1       6.974 -16.667 112.640  1.00  0.00    -0.005 C 
HETATM   11  C5  UNL     1       6.439 -15.437 113.243  1.00  0.00     0.005 C 
HETATM   12  C6  UNL     1       5.497 -15.634 114.397  1.00  0.00     0.000 C 
HETATM   13  C7  UNL     1       5.864 -16.718 115.350  1.00  0.00     0.000 C 
HETATM   14  C8  UNL     1       6.690 -17.818 114.737  1.00  0.00     0.000 C 
HETATM   15  C9  UNL     1       6.257 -17.874 113.265  1.00  0.00     0.005 C 
ENDBRANCH   9  10
ENDBRANCH   8   9
ENDBRANCH   6   8
BRANCH   1  16
HETATM   16  N1  UNL     1       9.756 -20.983 107.891  1.00  0.00    -0.364 N 
ATOM     17  H12 UNL     1      10.383 -21.785 107.833  1.00  0.00     0.159 HD
ATOM     18  H11 UNL     1       9.134 -21.019 107.083  1.00  0.00     0.159 HD
ENDBRANCH   1  16
TORSDOF 4
ENDMDL
MODEL 5
REMARK VINA RESULT: -4.598070214      1.384      1.571
REMARK  4 active torsions:
REMARK  status: ('A' for Active; 'I' for Inactive)
REMARK    1  A    between atoms: N1_1  and  C1_4 
REMARK    2  A    between atoms: C2_9  and  S1_10 
REMARK    3  A    between atoms: S1_10  and  C3_11 
REMARK    4  A    between atoms: C3_11  and  C4_12 
ROOT
HETATM    1  C1  UNL     1       6.930 -16.656 111.118  1.00  0.00     0.239 A 
HETATM    2  N2  UNL     1       7.547 -17.788 111.509  1.00  0.00    -0.263 N 
ATOM      3  H2  UNL     1       7.746 -18.607 110.934  1.00  0.00     0.190 HD
HETATM    4  N3  UNL     1       7.845 -17.624 112.799  1.00  0.00    -0.271 N 
ATOM      5  H3  UNL     1       8.319 -18.310 113.385  1.00  0.00     0.189 HD
HETATM    6  C2  UNL     1       7.421 -16.406 113.208  1.00  0.00     0.205 A 
HETATM    7  O1  UNL     1       6.873 -15.859 112.154  1.00  0.00    -0.253 OA
ENDROOT
BRANCH   6   8
HETATM    8  S1  UNL     1       7.633 -15.809 114.859  1.00  0.00    -0.084 SA
BRANCH   8   9
HETATM    9  C3  UNL     1       6.302 -16.227 115.970  1.00  0.00     0.087 C 
BRANCH   9  10
HETATM   10  C4  UNL     1       6.664 -17.132 117.090  1.00  0.00    -0.005 C 
HETATM   11  C5  UNL     1       7.309 -18.404 116.732  1.00  0.00     0.005 C 
HETATM   12  C6  UNL     1       8.511 -18.779 117.555  1.00  0.00     0.000 C 
HETATM   13  C7  UNL     1       8.409 -18.489 119.012  1.00  0.00     0.000 C 
HETATM   14  C8  UNL     1       7.477 -17.354 119.347  1.00  0.00     0.000 C 
HETATM   15  C9  UNL     1       7.534 -16.415 118.134  1.00  0.00     0.005 C 
ENDBRANCH   9  10
ENDBRANCH   8   9
ENDBRANCH   6   8
BRANCH   1  16
HETATM   16  N1  UNL     1       6.509 -16.489 109.912  1.00  0.00    -0.364 N 
ATOM     17  H12 UNL     1       5.568 -16.559 109.525  1.00  0.00     0.159 HD
ATOM     18  H11 UNL     1       7.140 -16.246 109.148  1.00  0.00     0.159 HD
ENDBRANCH   1  16
TORSDOF 4
ENDMDL
