MODEL 1
REMARK VINA RESULT: -4.869471790      0.000      0.000
REMARK  4 active torsions:
REMARK  status: ('A' for Active; 'I' for Inactive)
REMARK    1  A    between atoms: C3_6  and  C4_7 
REMARK    2  A    between atoms: C4_7  and  N2_9 
REMARK    3  A    between atoms: N2_9  and  C6_11 
REMARK    4  A    between atoms: C6_11  and  C7_15 
ROOT
HETATM    1  C4  UNL     1       8.529 -17.011 113.214  1.00  0.00     0.156 C 
HETATM    2  C5  UNL     1       8.483 -15.536 113.584  1.00  0.00     0.041 C 
ENDROOT
BRANCH   1   3
HETATM    3  C3  UNL     1       8.288 -17.104 111.754  1.00  0.00     0.170 A 
HETATM    4  O1  UNL     1       7.338 -16.514 111.043  1.00  0.00    -0.221 OA
HETATM    5  N1  UNL     1       7.434 -16.825 109.794  1.00  0.00    -0.247 N 
HETATM    6  C2  UNL     1       8.482 -17.659 109.621  1.00  0.00     0.100 A 
ATOM      7  H1  UNL     1       6.816 -16.493 109.053  1.00  0.00     0.196 HD
HETATM    8  C1  UNL     1       8.936 -18.252 108.328  1.00  0.00     0.091 C 
HETATM    9  N4  UNL     1       8.998 -17.818 110.854  1.00  0.00    -0.325 N 
ATOM     10  H4  UNL     1       9.810 -18.395 111.076  1.00  0.00     0.169 HD
ENDBRANCH   1   3
BRANCH   1  11
HETATM   11  N2  UNL     1       7.469 -17.726 113.883  1.00  0.00    -0.368 N 
ATOM     12  H2  UNL     1       6.599 -17.877 113.373  1.00  0.00     0.161 HD
BRANCH  11  13
HETATM   13  C6  UNL     1       7.562 -18.229 115.195  1.00  0.00     0.075 C 
HETATM   14  N3  UNL     1       8.524 -18.985 115.527  1.00  0.00    -0.389 N 
ATOM     15  H32 UNL     1       9.238 -19.232 114.841  1.00  0.00     0.157 HD
ATOM     16  H31 UNL     1       8.592 -19.349 116.478  1.00  0.00     0.157 HD
BRANCH  13  17
HETATM   17  C7  UNL     1       6.537 -17.875 116.180  1.00  0.00     0.052 C 
HETATM   18  C8  UNL     1       6.020 -16.441 116.011  1.00  0.00     0.012 C 
HETATM   19  C9  UNL     1       6.989 -16.055 117.129  1.00  0.00     0.002 C 
HETATM   20  C10 UNL     1       7.122 -17.528 117.537  1.00  0.00     0.012 C 
ENDBRANCH  13  17
ENDBRANCH  11  13
ENDBRANCH   1  11
TORSDOF 4
ENDMDL
MODEL 2
REMARK VINA RESULT: -4.857562484      1.929      2.351
REMARK  4 active torsions:
REMARK  status: ('A' for Active; 'I' for Inactive)
REMARK    1  A    between atoms: C3_6  and  C4_7 
REMARK    2  A    between atoms: C4_7  and  N2_9 
REMARK    3  A    between atoms: N2_9  and  C6_11 
REMARK    4  A    between atoms: C6_11  and  C7_15 
ROOT
HETATM    1  C4  UNL     1       8.334 -16.832 111.681  1.00  0.00     0.156 C 
HETATM    2  C5  UNL     1       8.863 -15.422 111.466  1.00  0.00     0.041 C 
ENDROOT
BRANCH   1   3
HETATM    3  C3  UNL     1       8.651 -17.611 110.459  1.00  0.00     0.170 A 
HETATM    4  O1  UNL     1       8.413 -17.284 109.198  1.00  0.00    -0.221 OA
HETATM    5  N1  UNL     1       8.827 -18.207 108.395  1.00  0.00    -0.247 N 
HETATM    6  C2  UNL     1       9.372 -19.211 109.113  1.00  0.00     0.100 A 
ATOM      7  H1  UNL     1       8.754 -18.181 107.377  1.00  0.00     0.196 HD
HETATM    8  C1  UNL     1       9.967 -20.467 108.566  1.00  0.00     0.091 C 
HETATM    9  N4  UNL     1       9.252 -18.818 110.394  1.00  0.00    -0.325 N 
ATOM     10  H4  UNL     1       9.569 -19.357 111.201  1.00  0.00     0.169 HD
ENDBRANCH   1   3
BRANCH   1  11
HETATM   11  N2  UNL     1       6.899 -16.809 111.829  1.00  0.00    -0.368 N 
ATOM     12  H2  UNL     1       6.349 -16.369 111.092  1.00  0.00     0.161 HD
BRANCH  11  13
HETATM   13  C6  UNL     1       6.211 -17.359 112.927  1.00  0.00     0.075 C 
HETATM   14  N3  UNL     1       6.275 -18.603 113.171  1.00  0.00    -0.389 N 
ATOM     15  H32 UNL     1       6.830 -19.210 112.568  1.00  0.00     0.157 HD
ATOM     16  H31 UNL     1       5.777 -19.001 113.967  1.00  0.00     0.157 HD
BRANCH  13  17
HETATM   17  C7  UNL     1       5.413 -16.486 113.793  1.00  0.00     0.052 C 
HETATM   18  C8  UNL     1       5.918 -15.038 113.803  1.00  0.00     0.012 C 
HETATM   19  C9  UNL     1       6.636 -15.393 115.106  1.00  0.00     0.002 C 
HETATM   20  C10 UNL     1       5.760 -16.642 115.263  1.00  0.00     0.012 C 
ENDBRANCH  13  17
ENDBRANCH  11  13
ENDBRANCH   1  11
TORSDOF 4
ENDMDL
MODEL 3
REMARK VINA RESULT: -4.814153993      2.491      5.521
REMARK  4 active torsions:
REMARK  status: ('A' for Active; 'I' for Inactive)
REMARK    1  A    between atoms: C3_6  and  C4_7 
REMARK    2  A    between atoms: C4_7  and  N2_9 
REMARK    3  A    between atoms: N2_9  and  C6_11 
REMARK    4  A    between atoms: C6_11  and  C7_15 
ROOT
HETATM    1  C4  UNL     1       6.614 -17.780 115.111  1.00  0.00     0.156 C 
HETATM    2  C5  UNL     1       6.723 -16.305 115.466  1.00  0.00     0.041 C 
ENDROOT
BRANCH   1   3
HETATM    3  C3  UNL     1       7.690 -18.489 115.846  1.00  0.00     0.170 A 
HETATM    4  O1  UNL     1       7.709 -18.844 117.123  1.00  0.00    -0.221 OA
HETATM    5  N1  UNL     1       8.813 -19.446 117.419  1.00  0.00    -0.247 N 
HETATM    6  C2  UNL     1       9.591 -19.516 116.318  1.00  0.00     0.100 A 
ATOM      7  H1  UNL     1       9.058 -19.812 118.339  1.00  0.00     0.196 HD
HETATM    8  C1  UNL     1      10.948 -20.135 116.233  1.00  0.00     0.091 C 
HETATM    9  N4  UNL     1       8.872 -18.916 115.353  1.00  0.00    -0.325 N 
ATOM     10  H4  UNL     1       9.177 -18.799 114.386  1.00  0.00     0.169 HD
ENDBRANCH   1   3
BRANCH   1  11
HETATM   11  N2  UNL     1       6.845 -17.972 113.700  1.00  0.00    -0.368 N 
ATOM     12  H2  UNL     1       7.473 -18.723 113.416  1.00  0.00     0.161 HD
BRANCH  11  13
HETATM   13  C6  UNL     1       6.256 -17.187 112.690  1.00  0.00     0.075 C 
HETATM   14  N3  UNL     1       5.002 -17.215 112.503  1.00  0.00    -0.389 N 
ATOM     15  H32 UNL     1       4.413 -17.809 113.087  1.00  0.00     0.157 HD
ATOM     16  H31 UNL     1       4.575 -16.645 111.772  1.00  0.00     0.157 HD
BRANCH  13  17
HETATM   17  C7  UNL     1       7.102 -16.333 111.851  1.00  0.00     0.052 C 
HETATM   18  C8  UNL     1       6.898 -16.587 110.352  1.00  0.00     0.012 C 
HETATM   19  C9  UNL     1       8.147 -17.466 110.423  1.00  0.00     0.002 C 
HETATM   20  C10 UNL     1       8.534 -16.829 111.764  1.00  0.00     0.012 C 
ENDBRANCH  13  17
ENDBRANCH  11  13
ENDBRANCH   1  11
TORSDOF 4
ENDMDL
MODEL 4
REMARK VINA RESULT: -4.661132495      1.979      5.861
REMARK  4 active torsions:
REMARK  status: ('A' for Active; 'I' for Inactive)
REMARK    1  A    between atoms: C3_6  and  C4_7 
REMARK    2  A    between atoms: C4_7  and  N2_9 
REMARK    3  A    between atoms: N2_9  and  C6_11 
REMARK    4  A    between atoms: C6_11  and  C7_15 
ROOT
HETATM    1  C4  UNL     1       5.759 -16.730 113.811  1.00  0.00     0.156 C 
HETATM    2  C5  UNL     1       6.007 -15.229 113.826  1.00  0.00     0.041 C 
ENDROOT
BRANCH   1   3
HETATM    3  C3  UNL     1       6.380 -17.290 115.037  1.00  0.00     0.170 A 
HETATM    4  O1  UNL     1       7.023 -18.439 115.175  1.00  0.00    -0.221 OA
HETATM    5  N1  UNL     1       7.430 -18.599 116.390  1.00  0.00    -0.247 N 
HETATM    6  C2  UNL     1       7.062 -17.531 117.127  1.00  0.00     0.100 A 
ATOM      7  H1  UNL     1       7.949 -19.406 116.738  1.00  0.00     0.196 HD
HETATM    8  C1  UNL     1       7.336 -17.322 118.581  1.00  0.00     0.091 C 
HETATM    9  N4  UNL     1       6.410 -16.729 116.265  1.00  0.00    -0.325 N 
ATOM     10  H4  UNL     1       5.999 -15.827 116.505  1.00  0.00     0.169 HD
ENDBRANCH   1   3
BRANCH   1  11
HETATM   11  N2  UNL     1       6.410 -17.333 112.674  1.00  0.00    -0.368 N 
ATOM     12  H2  UNL     1       5.904 -18.053 112.159  1.00  0.00     0.161 HD
BRANCH  11  13
HETATM   13  C6  UNL     1       7.700 -16.987 112.229  1.00  0.00     0.075 C 
HETATM   14  N3  UNL     1       8.727 -17.390 112.855  1.00  0.00    -0.389 N 
ATOM     15  H32 UNL     1       8.619 -17.971 113.688  1.00  0.00     0.157 HD
ATOM     16  H31 UNL     1       9.662 -17.140 112.532  1.00  0.00     0.157 HD
BRANCH  13  17
HETATM   17  C7  UNL     1       7.855 -16.153 111.033  1.00  0.00     0.052 C 
HETATM   18  C8  UNL     1       6.905 -16.558 109.899  1.00  0.00     0.012 C 
HETATM   19  C9  UNL     1       8.086 -17.331 109.309  1.00  0.00     0.002 C 
HETATM   20  C10 UNL     1       9.060 -16.544 110.197  1.00  0.00     0.012 C 
ENDBRANCH  13  17
ENDBRANCH  11  13
ENDBRANCH   1  11
TORSDOF 4
ENDMDL
MODEL 5
REMARK VINA RESULT: -4.630489801      2.778      6.000
REMARK  4 active torsions:
REMARK  status: ('A' for Active; 'I' for Inactive)
REMARK    1  A    between atoms: C3_6  and  C4_7 
REMARK    2  A    between atoms: C4_7  and  N2_9 
REMARK    3  A    between atoms: N2_9  and  C6_11 
REMARK    4  A    between atoms: C6_11  and  C7_15 
ROOT
HETATM    1  C4  UNL     1       6.438 -17.558 115.941  1.00  0.00     0.156 C 
HETATM    2  C5  UNL     1       6.218 -16.094 116.293  1.00  0.00     0.041 C 
ENDROOT
BRANCH   1   3
HETATM    3  C3  UNL     1       7.237 -18.157 117.038  1.00  0.00     0.170 A 
HETATM    4  O1  UNL     1       7.490 -17.650 118.235  1.00  0.00    -0.221 OA
HETATM    5  N1  UNL     1       8.222 -18.453 118.933  1.00  0.00    -0.247 N 
HETATM    6  C2  UNL     1       8.492 -19.557 118.204  1.00  0.00     0.100 A 
ATOM      7  H1  UNL     1       8.547 -18.281 119.885  1.00  0.00     0.196 HD
HETATM    8  C1  UNL     1       9.307 -20.729 118.642  1.00  0.00     0.091 C 
HETATM    9  N4  UNL     1       7.868 -19.351 117.030  1.00  0.00    -0.325 N 
ATOM     10  H4  UNL     1       7.872 -20.004 116.245  1.00  0.00     0.169 HD
ENDBRANCH   1   3
BRANCH   1  11
HETATM   11  N2  UNL     1       7.207 -17.668 114.725  1.00  0.00    -0.368 N 
ATOM     12  H2  UNL     1       8.222 -17.731 114.805  1.00  0.00     0.161 HD
BRANCH  11  13
HETATM   13  C6  UNL     1       6.643 -17.694 113.435  1.00  0.00     0.075 C 
HETATM   14  N3  UNL     1       6.251 -18.788 112.926  1.00  0.00    -0.389 N 
ATOM     15  H32 UNL     1       6.343 -19.656 113.454  1.00  0.00     0.157 HD
ATOM     16  H31 UNL     1       5.842 -18.806 111.992  1.00  0.00     0.157 HD
BRANCH  13  17
HETATM   17  C7  UNL     1       6.511 -16.447 112.677  1.00  0.00     0.052 C 
HETATM   18  C8  UNL     1       6.893 -16.607 111.200  1.00  0.00     0.012 C 
HETATM   19  C9  UNL     1       8.257 -16.032 111.584  1.00  0.00     0.002 C 
HETATM   20  C10 UNL     1       7.675 -15.498 112.900  1.00  0.00     0.012 C 
ENDBRANCH  13  17
ENDBRANCH  11  13
ENDBRANCH   1  11
TORSDOF 4
ENDMDL
