MODEL 1
REMARK VINA RESULT: -7.072010613      0.000      0.000
REMARK  7 active torsions:
REMARK  status: ('A' for Active; 'I' for Inactive)
REMARK    1  A    between atoms: C2_2  and  O1_3 
REMARK    2  A    between atoms: O1_3  and  C3_4 
REMARK    3  A    between atoms: C4_5  and  N1_6 
REMARK    4  A    between atoms: N1_6  and  C5_8 
REMARK    5  A    between atoms: C5_8  and  N2_10 
REMARK    6  A    between atoms: N2_10  and  C6_12 
REMARK    7  A    between atoms: C11_17  and  O2_18 
ROOT
HETATM    1  C3  UNL     1      22.446  -1.734  12.433  1.00  0.00     0.155 C 
HETATM    2  C4  UNL     1      21.805  -1.756  13.812  1.00  0.00     0.114 C 
HETATM    3  C9  UNL     1      22.276  -0.621  14.589  1.00  0.00     0.030 C 
HETATM    4  C10 UNL     1      23.493   0.119  14.200  1.00  0.00     0.035 C 
HETATM    5  C11 UNL     1      23.711   0.377  12.741  1.00  0.00     0.132 C 
HETATM    6  C13 UNL     1      22.705  -0.381  11.883  1.00  0.00     0.014 C 
HETATM    7  C14 UNL     1      21.442   0.392  11.739  1.00  0.00     0.015 C 
HETATM    8  C15 UNL     1      21.167   0.582  10.267  1.00  0.00     0.001 C 
HETATM    9  C16 UNL     1      22.598   0.672   9.735  1.00  0.00     0.001 C 
HETATM   10  C17 UNL     1      23.187  -0.529  10.464  1.00  0.00     0.015 C 
ENDROOT
BRANCH   2  11
HETATM   11  N1  UNL     1      20.400  -2.038  13.748  1.00  0.00    -0.360 N 
ATOM     12  H1  UNL     1      19.885  -1.420  13.120  1.00  0.00     0.162 HD
BRANCH  11  13
HETATM   13  C5  UNL     1      19.611  -2.980  14.370  1.00  0.00     0.168 C 
HETATM   14  S1  UNL     1      19.620  -2.996  16.038  1.00  0.00    -0.041 SA
BRANCH  13  15
HETATM   15  N2  UNL     1      18.770  -3.966  13.817  1.00  0.00    -0.363 N 
ATOM     16  H2  UNL     1      17.808  -4.011  14.156  1.00  0.00     0.162 HD
BRANCH  15  17
HETATM   17  C6  UNL     1      19.170  -4.921  12.802  1.00  0.00     0.075 C 
HETATM   18  C7  UNL     1      17.963  -5.638  12.228  1.00  0.00     0.032 C 
HETATM   19  C8  UNL     1      20.097  -5.975  13.366  1.00  0.00     0.032 C 
ENDBRANCH  15  17
ENDBRANCH  13  15
ENDBRANCH  11  13
ENDBRANCH   2  11
BRANCH   1  20
HETATM   20  O1  UNL     1      21.749  -2.517  11.563  1.00  0.00    -0.383 OA
BRANCH  20  21
HETATM   21  C2  UNL     1      22.376  -3.746  11.418  1.00  0.00     0.163 C 
HETATM   22  C1  UNL     1      21.846  -4.427  10.178  1.00  0.00     0.033 C 
ENDBRANCH  20  21
ENDBRANCH   1  20
BRANCH   5  23
HETATM   23  O2  UNL     1      24.961   0.114  12.285  1.00  0.00    -0.390 OA
HETATM   24  C12 UNL     1      25.896   1.081  12.258  1.00  0.00     0.202 C 
ENDBRANCH   5  23
TORSDOF 7
ENDMDL
MODEL 2
REMARK VINA RESULT: -6.990378986      2.277      2.584
REMARK  7 active torsions:
REMARK  status: ('A' for Active; 'I' for Inactive)
REMARK    1  A    between atoms: C2_2  and  O1_3 
REMARK    2  A    between atoms: O1_3  and  C3_4 
REMARK    3  A    between atoms: C4_5  and  N1_6 
REMARK    4  A    between atoms: N1_6  and  C5_8 
REMARK    5  A    between atoms: C5_8  and  N2_10 
REMARK    6  A    between atoms: N2_10  and  C6_12 
REMARK    7  A    between atoms: C11_17  and  O2_18 
ROOT
HETATM    1  C3  UNL     1      23.850  -1.401  11.515  1.00  0.00     0.155 C 
HETATM    2  C4  UNL     1      23.848  -1.988  12.918  1.00  0.00     0.114 C 
HETATM    3  C9  UNL     1      23.985  -0.920  13.896  1.00  0.00     0.030 C 
HETATM    4  C10 UNL     1      24.480   0.414  13.505  1.00  0.00     0.035 C 
HETATM    5  C11 UNL     1      24.002   0.977  12.202  1.00  0.00     0.132 C 
HETATM    6  C13 UNL     1      23.229  -0.060  11.396  1.00  0.00     0.014 C 
HETATM    7  C14 UNL     1      21.798  -0.090  11.804  1.00  0.00     0.015 C 
HETATM    8  C15 UNL     1      20.949   0.149  10.580  1.00  0.00     0.001 C 
HETATM    9  C16 UNL     1      21.866   1.089   9.796  1.00  0.00     0.001 C 
HETATM   10  C17 UNL     1      23.166   0.306   9.937  1.00  0.00     0.015 C 
ENDROOT
BRANCH   2  11
HETATM   11  N1  UNL     1      22.822  -2.977  13.088  1.00  0.00    -0.360 N 
ATOM     12  H1  UNL     1      22.288  -3.164  12.239  1.00  0.00     0.162 HD
BRANCH  11  13
HETATM   13  C5  UNL     1      22.419  -3.722  14.173  1.00  0.00     0.168 C 
HETATM   14  S1  UNL     1      23.016  -5.276  14.291  1.00  0.00    -0.041 SA
BRANCH  13  15
HETATM   15  N2  UNL     1      21.559  -3.383  15.237  1.00  0.00    -0.363 N 
ATOM     16  H2  UNL     1      21.788  -3.744  16.163  1.00  0.00     0.162 HD
BRANCH  15  17
HETATM   17  C6  UNL     1      20.372  -2.560  15.111  1.00  0.00     0.075 C 
HETATM   18  C7  UNL     1      20.658  -1.131  15.529  1.00  0.00     0.032 C 
HETATM   19  C8  UNL     1      19.247  -3.071  15.985  1.00  0.00     0.032 C 
ENDBRANCH  15  17
ENDBRANCH  13  15
ENDBRANCH  11  13
ENDBRANCH   2  11
BRANCH   1  20
HETATM   20  O1  UNL     1      23.333  -2.288  10.620  1.00  0.00    -0.383 OA
BRANCH  20  21
HETATM   21  C2  UNL     1      24.354  -3.000  10.008  1.00  0.00     0.163 C 
HETATM   22  C1  UNL     1      23.953  -4.453   9.909  1.00  0.00     0.033 C 
ENDBRANCH  20  21
ENDBRANCH   1  20
BRANCH   5  23
HETATM   23  O2  UNL     1      24.964   1.515  11.413  1.00  0.00    -0.390 OA
HETATM   24  C12 UNL     1      26.224   1.653  11.868  1.00  0.00     0.202 C 
ENDBRANCH   5  23
TORSDOF 7
ENDMDL
MODEL 3
REMARK VINA RESULT: -6.811724031      1.842      2.174
REMARK  7 active torsions:
REMARK  status: ('A' for Active; 'I' for Inactive)
REMARK    1  A    between atoms: C2_2  and  O1_3 
REMARK    2  A    between atoms: O1_3  and  C3_4 
REMARK    3  A    between atoms: C4_5  and  N1_6 
REMARK    4  A    between atoms: N1_6  and  C5_8 
REMARK    5  A    between atoms: C5_8  and  N2_10 
REMARK    6  A    between atoms: N2_10  and  C6_12 
REMARK    7  A    between atoms: C11_17  and  O2_18 
ROOT
HETATM    1  C3  UNL     1      22.708  -2.016  11.875  1.00  0.00     0.155 C 
HETATM    2  C4  UNL     1      21.655  -2.742  12.698  1.00  0.00     0.114 C 
HETATM    3  C9  UNL     1      21.038  -1.815  13.632  1.00  0.00     0.030 C 
HETATM    4  C10 UNL     1      21.681  -0.530  13.970  1.00  0.00     0.035 C 
HETATM    5  C11 UNL     1      22.338   0.231  12.859  1.00  0.00     0.132 C 
HETATM    6  C13 UNL     1      22.403  -0.594  11.579  1.00  0.00     0.014 C 
HETATM    7  C14 UNL     1      21.141  -0.466  10.801  1.00  0.00     0.015 C 
HETATM    8  C15 UNL     1      21.487   0.020   9.414  1.00  0.00     0.001 C 
HETATM    9  C16 UNL     1      22.698   0.899   9.731  1.00  0.00     0.001 C 
HETATM   10  C17 UNL     1      23.451  -0.071  10.634  1.00  0.00     0.015 C 
ENDROOT
BRANCH   2  11
HETATM   11  N1  UNL     1      20.827  -3.588  11.887  1.00  0.00    -0.360 N 
ATOM     12  H1  UNL     1      20.402  -3.108  11.094  1.00  0.00     0.162 HD
BRANCH  11  13
HETATM   13  C5  UNL     1      20.495  -4.922  11.972  1.00  0.00     0.168 C 
HETATM   14  S1  UNL     1      21.484  -5.892  12.903  1.00  0.00    -0.041 SA
BRANCH  13  15
HETATM   15  N2  UNL     1      19.428  -5.630  11.385  1.00  0.00    -0.363 N 
ATOM     16  H2  UNL     1      19.402  -5.689  10.367  1.00  0.00     0.162 HD
BRANCH  15  17
HETATM   17  C6  UNL     1      18.362  -6.281  12.122  1.00  0.00     0.075 C 
HETATM   18  C7  UNL     1      18.332  -7.768  11.829  1.00  0.00     0.032 C 
HETATM   19  C8  UNL     1      17.007  -5.719  11.752  1.00  0.00     0.032 C 
ENDBRANCH  15  17
ENDBRANCH  13  15
ENDBRANCH  11  13
ENDBRANCH   2  11
BRANCH   1  20
HETATM   20  O1  UNL     1      23.013  -2.720  10.750  1.00  0.00    -0.383 OA
BRANCH  20  21
HETATM   21  C2  UNL     1      24.140  -3.500  10.965  1.00  0.00     0.163 C 
HETATM   22  C1  UNL     1      24.019  -4.774  10.163  1.00  0.00     0.033 C 
ENDBRANCH  20  21
ENDBRANCH   1  20
BRANCH   5  23
HETATM   23  O2  UNL     1      23.577   0.708  13.135  1.00  0.00    -0.390 OA
HETATM   24  C12 UNL     1      24.180   0.412  14.301  1.00  0.00     0.202 C 
ENDBRANCH   5  23
TORSDOF 7
ENDMDL
MODEL 4
REMARK VINA RESULT: -6.763833487      1.624      1.762
REMARK  7 active torsions:
REMARK  status: ('A' for Active; 'I' for Inactive)
REMARK    1  A    between atoms: C2_2  and  O1_3 
REMARK    2  A    between atoms: O1_3  and  C3_4 
REMARK    3  A    between atoms: C4_5  and  N1_6 
REMARK    4  A    between atoms: N1_6  and  C5_8 
REMARK    5  A    between atoms: C5_8  and  N2_10 
REMARK    6  A    between atoms: N2_10  and  C6_12 
REMARK    7  A    between atoms: C11_17  and  O2_18 
ROOT
HETATM    1  C3  UNL     1      23.653  -1.504  12.121  1.00  0.00     0.155 C 
HETATM    2  C4  UNL     1      23.495  -1.828  13.599  1.00  0.00     0.114 C 
HETATM    3  C9  UNL     1      23.689  -0.623  14.388  1.00  0.00     0.030 C 
HETATM    4  C10 UNL     1      24.358   0.564  13.818  1.00  0.00     0.035 C 
HETATM    5  C11 UNL     1      24.032   0.931  12.404  1.00  0.00     0.132 C 
HETATM    6  C13 UNL     1      23.199  -0.149  11.724  1.00  0.00     0.014 C 
HETATM    7  C14 UNL     1      21.751   0.039  12.012  1.00  0.00     0.015 C 
HETATM    8  C15 UNL     1      21.015   0.141  10.698  1.00  0.00     0.001 C 
HETATM    9  C16 UNL     1      22.082   0.829   9.845  1.00  0.00     0.001 C 
HETATM   10  C17 UNL     1      23.272  -0.044  10.224  1.00  0.00     0.015 C 
ENDROOT
BRANCH   2  11
HETATM   11  N1  UNL     1      22.353  -2.662  13.848  1.00  0.00    -0.360 N 
ATOM     12  H1  UNL     1      21.476  -2.147  13.917  1.00  0.00     0.162 HD
BRANCH  11  13
HETATM   13  C5  UNL     1      22.214  -4.022  14.011  1.00  0.00     0.168 C 
HETATM   14  S1  UNL     1      22.686  -4.663  15.477  1.00  0.00    -0.041 SA
BRANCH  13  15
HETATM   15  N2  UNL     1      21.724  -4.996  13.119  1.00  0.00    -0.363 N 
ATOM     16  H2  UNL     1      22.248  -5.868  13.037  1.00  0.00     0.162 HD
BRANCH  15  17
HETATM   17  C6  UNL     1      20.529  -4.852  12.309  1.00  0.00     0.075 C 
HETATM   18  C7  UNL     1      19.374  -5.631  12.906  1.00  0.00     0.032 C 
HETATM   19  C8  UNL     1      20.746  -5.369  10.904  1.00  0.00     0.032 C 
ENDBRANCH  15  17
ENDBRANCH  13  15
ENDBRANCH  11  13
ENDBRANCH   2  11
BRANCH   1  20
HETATM   20  O1  UNL     1      23.097  -2.478  11.349  1.00  0.00    -0.383 OA
BRANCH  20  21
HETATM   21  C2  UNL     1      24.081  -3.333  10.876  1.00  0.00     0.163 C 
HETATM   22  C1  UNL     1      23.791  -3.670   9.433  1.00  0.00     0.033 C 
ENDBRANCH  20  21
ENDBRANCH   1  20
BRANCH   5  23
HETATM   23  O2  UNL     1      25.098   1.220  11.618  1.00  0.00    -0.390 OA
HETATM   24  C12 UNL     1      26.306   1.456  12.164  1.00  0.00     0.202 C 
ENDBRANCH   5  23
TORSDOF 7
ENDMDL
MODEL 5
REMARK VINA RESULT: -6.735137792      1.741      2.462
REMARK  7 active torsions:
REMARK  status: ('A' for Active; 'I' for Inactive)
REMARK    1  A    between atoms: C2_2  and  O1_3 
REMARK    2  A    between atoms: O1_3  and  C3_4 
REMARK    3  A    between atoms: C4_5  and  N1_6 
REMARK    4  A    between atoms: N1_6  and  C5_8 
REMARK    5  A    between atoms: C5_8  and  N2_10 
REMARK    6  A    between atoms: N2_10  and  C6_12 
REMARK    7  A    between atoms: C11_17  and  O2_18 
ROOT
HETATM    1  C3  UNL     1      22.779  -2.413  13.133  1.00  0.00     0.155 C 
HETATM    2  C4  UNL     1      21.285  -2.202  13.326  1.00  0.00     0.114 C 
HETATM    3  C9  UNL     1      20.920  -0.861  12.900  1.00  0.00     0.030 C 
HETATM    4  C10 UNL     1      21.940   0.194  12.742  1.00  0.00     0.035 C 
HETATM    5  C11 UNL     1      23.250  -0.194  12.130  1.00  0.00     0.132 C 
HETATM    6  C13 UNL     1      23.367  -1.705  11.969  1.00  0.00     0.014 C 
HETATM    7  C14 UNL     1      22.741  -2.152  10.695  1.00  0.00     0.015 C 
HETATM    8  C15 UNL     1      23.774  -2.912   9.900  1.00  0.00     0.001 C 
HETATM    9  C16 UNL     1      25.040  -2.164  10.320  1.00  0.00     0.001 C 
HETATM   10  C17 UNL     1      24.801  -2.139  11.824  1.00  0.00     0.015 C 
ENDROOT
BRANCH   2  11
HETATM   11  N1  UNL     1      20.519  -3.325  12.866  1.00  0.00    -0.360 N 
ATOM     12  H1  UNL     1      20.777  -3.644  11.932  1.00  0.00     0.162 HD
BRANCH  11  13
HETATM   13  C5  UNL     1      19.503  -4.056  13.441  1.00  0.00     0.168 C 
HETATM   14  S1  UNL     1      19.579  -4.295  15.091  1.00  0.00    -0.041 SA
BRANCH  13  15
HETATM   15  N2  UNL     1      18.373  -4.656  12.852  1.00  0.00    -0.363 N 
ATOM     16  H2  UNL     1      17.454  -4.351  13.174  1.00  0.00     0.162 HD
BRANCH  15  17
HETATM   17  C6  UNL     1      18.419  -5.677  11.822  1.00  0.00     0.075 C 
HETATM   18  C7  UNL     1      17.021  -6.093  11.410  1.00  0.00     0.032 C 
HETATM   19  C8  UNL     1      19.138  -6.918  12.303  1.00  0.00     0.032 C 
ENDBRANCH  15  17
ENDBRANCH  13  15
ENDBRANCH  11  13
ENDBRANCH   2  11
BRANCH   1  20
HETATM   20  O1  UNL     1      23.085  -3.740  13.134  1.00  0.00    -0.383 OA
BRANCH  20  21
HETATM   21  C2  UNL     1      23.307  -4.178  14.431  1.00  0.00     0.163 C 
HETATM   22  C1  UNL     1      24.413  -3.355  15.048  1.00  0.00     0.033 C 
ENDBRANCH  20  21
ENDBRANCH   1  20
BRANCH   5  23
HETATM   23  O2  UNL     1      24.352   0.263  12.776  1.00  0.00    -0.390 OA
HETATM   24  C12 UNL     1      24.262   0.727  14.036  1.00  0.00     0.202 C 
ENDBRANCH   5  23
TORSDOF 7
ENDMDL
