MODEL 1
REMARK VINA RESULT: -7.943712579      0.000      0.000
REMARK  5 active torsions:
REMARK  status: ('A' for Active; 'I' for Inactive)
REMARK    1  A    between atoms: S1_2  and  C2_3 
REMARK    2  A    between atoms: C2_3  and  C3_4 
REMARK    3  A    between atoms: C3_4  and  C4_5 
REMARK    4  A    between atoms: C10_11  and  N1_12 
REMARK       I    between atoms: N1_12  and  C11_14 
REMARK    5  A    between atoms: C11_14  and  C12_16 
ROOT
HETATM    1  C4  UNL     1      23.608  -3.046  10.490  1.00  0.00    -0.005 C 
HETATM    2  C5  UNL     1      22.257  -2.442  10.537  1.00  0.00    -0.008 C 
HETATM    3  C6  UNL     1      21.813  -2.669   9.085  1.00  0.00     0.005 C 
HETATM    4  C7  UNL     1      22.455  -3.984   8.693  1.00  0.00     0.005 C 
HETATM    5  C8  UNL     1      23.316  -4.394   9.890  1.00  0.00    -0.008 C 
HETATM    6  C9  UNL     1      22.475  -5.265  10.761  1.00  0.00     0.030 C 
HETATM    7  C10 UNL     1      21.335  -4.614  11.440  1.00  0.00     0.085 C 
HETATM    8  C18 UNL     1      21.264  -3.136  11.406  1.00  0.00     0.030 C 
ENDROOT
BRANCH   7   9
HETATM    9  N1  UNL     1      20.102  -5.258  10.968  1.00  0.00    -0.356 N 
HETATM   10  C11 UNL     1      19.065  -5.691  11.805  1.00  0.00     0.223 C 
HETATM   11  O1  UNL     1      19.158  -5.535  13.030  1.00  0.00    -0.273 OA
ATOM     12  H1  UNL     1      19.994  -5.400   9.964  1.00  0.00     0.162 HD
BRANCH  10  13
HETATM   13  C12 UNL     1      17.865  -6.327  11.246  1.00  0.00     0.095 C 
HETATM   14  C13 UNL     1      17.793  -7.738  11.786  1.00  0.00     0.015 C 
HETATM   15  C14 UNL     1      17.146  -8.694  10.822  1.00  0.00     0.002 C 
HETATM   16  C15 UNL     1      15.644  -8.438  10.887  1.00  0.00     0.019 C 
HETATM   17  C16 UNL     1      15.440  -7.045  10.281  1.00  0.00     0.113 C 
HETATM   18  N2  UNL     1      15.416  -6.026  11.274  1.00  0.00    -0.420 N 
HETATM   19  C17 UNL     1      16.670  -5.527  11.703  1.00  0.00     0.127 C 
ATOM     20  H2  UNL     1      14.539  -5.672  11.658  1.00  0.00     0.153 HD
ENDBRANCH  10  13
ENDBRANCH   7   9
BRANCH   1  21
HETATM   21  C3  UNL     1      24.370  -3.073  11.756  1.00  0.00     0.015 C 
BRANCH  21  22
HETATM   22  C2  UNL     1      24.644  -1.656  12.191  1.00  0.00     0.073 C 
BRANCH  22  23
HETATM   23  S1  UNL     1      23.953  -1.339  13.845  1.00  0.00    -0.173 SA
HETATM   24  C1  UNL     1      24.130   0.378  14.329  1.00  0.00     0.089 C 
ENDBRANCH  22  23
ENDBRANCH  21  22
ENDBRANCH   1  21
TORSDOF 5
ENDMDL
MODEL 2
REMARK VINA RESULT: -7.889281467      3.548      8.177
REMARK  5 active torsions:
REMARK  status: ('A' for Active; 'I' for Inactive)
REMARK    1  A    between atoms: S1_2  and  C2_3 
REMARK    2  A    between atoms: C2_3  and  C3_4 
REMARK    3  A    between atoms: C3_4  and  C4_5 
REMARK    4  A    between atoms: C10_11  and  N1_12 
REMARK       I    between atoms: N1_12  and  C11_14 
REMARK    5  A    between atoms: C11_14  and  C12_16 
ROOT
HETATM    1  C4  UNL     1      19.219  -6.151  12.764  1.00  0.00    -0.005 C 
HETATM    2  C5  UNL     1      19.444  -5.096  13.779  1.00  0.00    -0.008 C 
HETATM    3  C6  UNL     1      20.802  -5.547  14.335  1.00  0.00     0.005 C 
HETATM    4  C7  UNL     1      21.521  -6.147  13.144  1.00  0.00     0.005 C 
HETATM    5  C8  UNL     1      20.511  -6.110  11.995  1.00  0.00    -0.008 C 
HETATM    6  C9  UNL     1      20.727  -4.832  11.258  1.00  0.00     0.030 C 
HETATM    7  C10 UNL     1      20.381  -3.589  11.981  1.00  0.00     0.085 C 
HETATM    8  C18 UNL     1      19.631  -3.715  13.250  1.00  0.00     0.030 C 
ENDROOT
BRANCH   7   9
HETATM    9  N1  UNL     1      21.607  -2.791  12.115  1.00  0.00    -0.356 N 
HETATM   10  C11 UNL     1      21.697  -1.424  11.821  1.00  0.00     0.223 C 
HETATM   11  O1  UNL     1      20.696  -0.813  11.419  1.00  0.00    -0.273 OA
ATOM     12  H1  UNL     1      22.449  -3.263  12.444  1.00  0.00     0.162 HD
BRANCH  10  13
HETATM   13  C12 UNL     1      22.966  -0.703  11.984  1.00  0.00     0.095 C 
HETATM   14  C13 UNL     1      23.237   0.056  10.704  1.00  0.00     0.015 C 
HETATM   15  C14 UNL     1      24.706   0.203  10.419  1.00  0.00     0.002 C 
HETATM   16  C15 UNL     1      25.230   1.293  11.347  1.00  0.00     0.019 C 
HETATM   17  C16 UNL     1      25.144   0.706  12.759  1.00  0.00     0.113 C 
HETATM   18  N2  UNL     1      23.932   1.060  13.416  1.00  0.00    -0.420 N 
HETATM   19  C17 UNL     1      22.800   0.256  13.139  1.00  0.00     0.127 C 
ATOM     20  H2  UNL     1      23.881   1.854  14.054  1.00  0.00     0.153 HD
ENDBRANCH  10  13
ENDBRANCH   7   9
BRANCH   1  21
HETATM   21  C3  UNL     1      17.996  -6.037  11.945  1.00  0.00     0.015 C 
BRANCH  21  22
HETATM   22  C2  UNL     1      17.517  -7.421  11.587  1.00  0.00     0.073 C 
BRANCH  22  23
HETATM   23  S1  UNL     1      15.955  -7.346  10.653  1.00  0.00    -0.173 SA
HETATM   24  C1  UNL     1      15.253  -8.974  10.390  1.00  0.00     0.089 C 
ENDBRANCH  22  23
ENDBRANCH  21  22
ENDBRANCH   1  21
TORSDOF 5
ENDMDL
MODEL 3
REMARK VINA RESULT: -7.816920878      2.406      3.277
REMARK  5 active torsions:
REMARK  status: ('A' for Active; 'I' for Inactive)
REMARK    1  A    between atoms: S1_2  and  C2_3 
REMARK    2  A    between atoms: C2_3  and  C3_4 
REMARK    3  A    between atoms: C3_4  and  C4_5 
REMARK    4  A    between atoms: C10_11  and  N1_12 
REMARK       I    between atoms: N1_12  and  C11_14 
REMARK    5  A    between atoms: C11_14  and  C12_16 
ROOT
HETATM    1  C4  UNL     1      21.486  -3.589  14.137  1.00  0.00    -0.005 C 
HETATM    2  C5  UNL     1      21.710  -4.161  12.789  1.00  0.00    -0.008 C 
HETATM    3  C6  UNL     1      22.060  -5.607  13.168  1.00  0.00     0.005 C 
HETATM    4  C7  UNL     1      21.221  -5.892  14.397  1.00  0.00     0.005 C 
HETATM    5  C8  UNL     1      20.515  -4.576  14.726  1.00  0.00    -0.008 C 
HETATM    6  C9  UNL     1      19.194  -4.598  14.034  1.00  0.00     0.030 C 
HETATM    7  C10 UNL     1      19.223  -4.544  12.557  1.00  0.00     0.085 C 
HETATM    8  C18 UNL     1      20.512  -4.225  11.903  1.00  0.00     0.030 C 
ENDROOT
BRANCH   7   9
HETATM    9  N1  UNL     1      18.612  -5.779  12.049  1.00  0.00    -0.356 N 
HETATM   10  C11 UNL     1      17.351  -5.847  11.442  1.00  0.00     0.223 C 
HETATM   11  O1  UNL     1      16.677  -4.816  11.307  1.00  0.00    -0.273 OA
ATOM     12  H1  UNL     1      19.141  -6.646  12.144  1.00  0.00     0.162 HD
BRANCH  10  13
HETATM   13  C12 UNL     1      16.816  -7.128  10.963  1.00  0.00     0.095 C 
HETATM   14  C13 UNL     1      17.548  -8.237  11.685  1.00  0.00     0.015 C 
HETATM   15  C14 UNL     1      17.680  -9.482  10.851  1.00  0.00     0.002 C 
HETATM   16  C15 UNL     1      16.320 -10.171  10.869  1.00  0.00     0.019 C 
HETATM   17  C16 UNL     1      15.383  -9.249  10.082  1.00  0.00     0.113 C 
HETATM   18  N2  UNL     1      14.674  -8.353  10.931  1.00  0.00    -0.420 N 
HETATM   19  C17 UNL     1      15.345  -7.162  11.300  1.00  0.00     0.127 C 
ATOM     20  H2  UNL     1      13.729  -8.559  11.257  1.00  0.00     0.153 HD
ENDBRANCH  10  13
ENDBRANCH   7   9
BRANCH   1  21
HETATM   21  C3  UNL     1      21.062  -2.176  14.198  1.00  0.00     0.015 C 
BRANCH  21  22
HETATM   22  C2  UNL     1      22.064  -1.332  13.452  1.00  0.00     0.073 C 
BRANCH  22  23
HETATM   23  S1  UNL     1      21.232  -0.243  12.253  1.00  0.00    -0.173 SA
HETATM   24  C1  UNL     1      22.116   1.299  12.021  1.00  0.00     0.089 C 
ENDBRANCH  22  23
ENDBRANCH  21  22
ENDBRANCH   1  21
TORSDOF 5
ENDMDL
MODEL 4
REMARK VINA RESULT: -7.674400542      3.376      7.787
REMARK  5 active torsions:
REMARK  status: ('A' for Active; 'I' for Inactive)
REMARK    1  A    between atoms: S1_2  and  C2_3 
REMARK    2  A    between atoms: C2_3  and  C3_4 
REMARK    3  A    between atoms: C3_4  and  C4_5 
REMARK    4  A    between atoms: C10_11  and  N1_12 
REMARK       I    between atoms: N1_12  and  C11_14 
REMARK    5  A    between atoms: C11_14  and  C12_16 
ROOT
HETATM    1  C4  UNL     1      19.870  -6.529  12.724  1.00  0.00    -0.005 C 
HETATM    2  C5  UNL     1      20.346  -5.594  13.769  1.00  0.00    -0.008 C 
HETATM    3  C6  UNL     1      21.844  -5.931  13.766  1.00  0.00     0.005 C 
HETATM    4  C7  UNL     1      22.154  -6.274  12.324  1.00  0.00     0.005 C 
HETATM    5  C8  UNL     1      20.812  -6.221  11.592  1.00  0.00    -0.008 C 
HETATM    6  C9  UNL     1      20.659  -4.841  11.047  1.00  0.00     0.030 C 
HETATM    7  C10 UNL     1      20.486  -3.758  12.038  1.00  0.00     0.085 C 
HETATM    8  C18 UNL     1      20.230  -4.143  13.444  1.00  0.00     0.030 C 
ENDROOT
BRANCH   7   9
HETATM    9  N1  UNL     1      21.615  -2.830  11.894  1.00  0.00    -0.356 N 
HETATM   10  C11 UNL     1      21.497  -1.434  11.883  1.00  0.00     0.223 C 
HETATM   11  O1  UNL     1      20.380  -0.911  12.002  1.00  0.00    -0.273 OA
ATOM     12  H1  UNL     1      22.549  -3.229  11.795  1.00  0.00     0.162 HD
BRANCH  10  13
HETATM   13  C12 UNL     1      22.682  -0.581  11.733  1.00  0.00     0.095 C 
HETATM   14  C13 UNL     1      23.619  -0.879  12.882  1.00  0.00     0.015 C 
HETATM   15  C14 UNL     1      24.431   0.318  13.291  1.00  0.00     0.002 C 
HETATM   16  C15 UNL     1      25.531   0.483  12.249  1.00  0.00     0.019 C 
HETATM   17  C16 UNL     1      24.815   0.897  10.960  1.00  0.00     0.113 C 
HETATM   18  N2  UNL     1      24.521  -0.220  10.126  1.00  0.00    -0.420 N 
HETATM   19  C17 UNL     1      23.334  -0.936  10.418  1.00  0.00     0.127 C 
ATOM     20  H2  UNL     1      25.135  -0.491   9.358  1.00  0.00     0.153 HD
ENDBRANCH  10  13
ENDBRANCH   7   9
BRANCH   1  21
HETATM   21  C3  UNL     1      18.435  -6.471  12.382  1.00  0.00     0.015 C 
BRANCH  21  22
HETATM   22  C2  UNL     1      18.059  -7.725  11.635  1.00  0.00     0.073 C 
BRANCH  22  23
HETATM   23  S1  UNL     1      16.408  -7.564  10.884  1.00  0.00    -0.173 SA
HETATM   24  C1  UNL     1      15.830  -5.867  10.891  1.00  0.00     0.089 C 
ENDBRANCH  22  23
ENDBRANCH  21  22
ENDBRANCH   1  21
TORSDOF 5
ENDMDL
MODEL 5
REMARK VINA RESULT: -7.660722757      2.726      3.819
REMARK  5 active torsions:
REMARK  status: ('A' for Active; 'I' for Inactive)
REMARK    1  A    between atoms: S1_2  and  C2_3 
REMARK    2  A    between atoms: C2_3  and  C3_4 
REMARK    3  A    between atoms: C3_4  and  C4_5 
REMARK    4  A    between atoms: C10_11  and  N1_12 
REMARK       I    between atoms: N1_12  and  C11_14 
REMARK    5  A    between atoms: C11_14  and  C12_16 
ROOT
HETATM    1  C4  UNL     1      21.219  -2.783  15.631  1.00  0.00    -0.005 C 
HETATM    2  C5  UNL     1      21.122  -4.261  15.638  1.00  0.00    -0.008 C 
HETATM    3  C6  UNL     1      19.755  -4.435  16.314  1.00  0.00     0.005 C 
HETATM    4  C7  UNL     1      18.942  -3.248  15.841  1.00  0.00     0.005 C 
HETATM    5  C8  UNL     1      19.905  -2.398  15.008  1.00  0.00    -0.008 C 
HETATM    6  C9  UNL     1      19.766  -2.835  13.589  1.00  0.00     0.030 C 
HETATM    7  C10 UNL     1      20.241  -4.198  13.270  1.00  0.00     0.085 C 
HETATM    8  C18 UNL     1      21.029  -4.913  14.300  1.00  0.00     0.030 C 
ENDROOT
BRANCH   7   9
HETATM    9  N1  UNL     1      19.092  -4.974  12.786  1.00  0.00    -0.356 N 
HETATM   10  C11 UNL     1      19.019  -5.577  11.523  1.00  0.00     0.223 C 
HETATM   11  O1  UNL     1      19.970  -5.470  10.735  1.00  0.00    -0.273 OA
ATOM     12  H1  UNL     1      18.293  -5.082  13.411  1.00  0.00     0.162 HD
BRANCH  10  13
HETATM   13  C12 UNL     1      17.828  -6.336  11.121  1.00  0.00     0.095 C 
HETATM   14  C13 UNL     1      17.902  -7.698  11.773  1.00  0.00     0.015 C 
HETATM   15  C14 UNL     1      17.251  -8.771  10.946  1.00  0.00     0.002 C 
HETATM   16  C15 UNL     1      15.745  -8.611  11.119  1.00  0.00     0.019 C 
HETATM   17  C16 UNL     1      15.392  -7.290  10.427  1.00  0.00     0.113 C 
HETATM   18  N2  UNL     1      15.373  -6.195  11.336  1.00  0.00    -0.420 N 
HETATM   19  C17 UNL     1      16.618  -5.580  11.616  1.00  0.00     0.127 C 
ATOM     20  H2  UNL     1      14.507  -5.869  11.765  1.00  0.00     0.153 HD
ENDBRANCH  10  13
ENDBRANCH   7   9
BRANCH   1  21
HETATM   21  C3  UNL     1      22.414  -2.197  14.990  1.00  0.00     0.015 C 
BRANCH  21  22
HETATM   22  C2  UNL     1      22.337  -0.695  15.094  1.00  0.00     0.073 C 
BRANCH  22  23
HETATM   23  S1  UNL     1      22.799   0.090  13.518  1.00  0.00    -0.173 SA
HETATM   24  C1  UNL     1      21.403   0.226  12.401  1.00  0.00     0.089 C 
ENDBRANCH  22  23
ENDBRANCH  21  22
ENDBRANCH   1  21
TORSDOF 5
ENDMDL
