MODEL 1
REMARK VINA RESULT: -7.419712731      0.000      0.000
REMARK  7 active torsions:
REMARK  status: ('A' for Active; 'I' for Inactive)
REMARK    1  A    between atoms: O1_2  and  C2_3 
REMARK    2  A    between atoms: C2_3  and  C3_4 
REMARK    3  A    between atoms: C7_8  and  O2_9 
REMARK    4  A    between atoms: C16_20  and  O4_21 
REMARK    5  A    between atoms: O4_21  and  C17_22 
REMARK    6  A    between atoms: C20_26  and  O6_27 
REMARK    7  A    between atoms: C24_32  and  O8_33 
ROOT
HETATM    1  C3  UNL     1      21.176  11.326  22.410  1.00  0.00     0.002 C 
HETATM    2  C4  UNL     1      21.517  12.077  21.191  1.00  0.00     0.022 C 
HETATM    3  C5  UNL     1      22.385  10.417  22.679  1.00  0.00     0.018 C 
HETATM    4  C6  UNL     1      22.276  10.097  24.095  1.00  0.00     0.034 C 
HETATM    5  C7  UNL     1      22.423  11.300  25.026  1.00  0.00     0.134 C 
HETATM    6  C8  UNL     1      21.576  12.497  24.697  1.00  0.00     0.042 C 
HETATM    7  C9  UNL     1      22.578  13.409  23.950  1.00  0.00     0.026 C 
HETATM    8  C10 UNL     1      20.634  12.026  23.605  1.00  0.00    -0.059 C 
HETATM    9  C11 UNL     1      19.520  12.822  23.124  1.00  0.00    -0.019 C 
HETATM   10  C12 UNL     1      19.270  14.223  23.532  1.00  0.00     0.069 C 
HETATM   11  C13 UNL     1      18.870  14.327  24.946  1.00  0.00     0.108 C 
HETATM   12  O3  UNL     1      17.714  13.517  25.125  1.00  0.00    -0.375 OA
HETATM   13  C14 UNL     1      18.388  12.589  25.969  1.00  0.00     0.180 C 
HETATM   14  C15 UNL     1      19.508  13.517  25.937  1.00  0.00     0.088 C 
HETATM   15  C16 UNL     1      20.949  13.170  25.839  1.00  0.00     0.113 C 
HETATM   16  C19 UNL     1      21.596  14.533  26.200  1.00  0.00     0.048 C 
HETATM   17  C20 UNL     1      21.234  15.823  25.721  1.00  0.00     0.077 C 
HETATM   18  C22 UNL     1      19.879  16.415  25.897  1.00  0.00     0.217 C 
HETATM   19  O7  UNL     1      19.392  16.498  27.202  1.00  0.00    -0.373 OA
HETATM   20  C23 UNL     1      18.168  16.024  26.716  1.00  0.00     0.213 C 
HETATM   21  C24 UNL     1      18.712  15.745  25.363  1.00  0.00     0.143 C 
ENDROOT
BRANCH   1  22
HETATM   22  C2  UNL     1      20.111  10.284  21.992  1.00  0.00     0.180 C 
BRANCH  22  23
HETATM   23  O1  UNL     1      20.184   9.801  20.744  1.00  0.00    -0.395 OA
HETATM   24  C1  UNL     1      18.897   9.756  20.213  1.00  0.00     0.201 C 
ENDBRANCH  22  23
ENDBRANCH   1  22
BRANCH   5  25
HETATM   25  O2  UNL     1      23.821  11.575  24.930  1.00  0.00    -0.394 OA
ATOM     26  H2  UNL     1      24.137  10.809  24.465  1.00  0.00     0.210 HD
ENDBRANCH   5  25
BRANCH  15  27
HETATM   27  O4  UNL     1      20.988  12.414  27.029  1.00  0.00    -0.304 OA
BRANCH  27  28
HETATM   28  C17 UNL     1      21.461  12.560  28.245  1.00  0.00     0.255 C 
HETATM   29  C18 UNL     1      20.559  12.959  29.381  1.00  0.00     0.126 C 
HETATM   30  O5  UNL     1      22.648  12.368  28.453  1.00  0.00    -0.266 OA
ENDBRANCH  27  28
ENDBRANCH  15  27
BRANCH  17  31
HETATM   31  O6  UNL     1      21.811  16.395  24.609  1.00  0.00    -0.358 OA
HETATM   32  C21 UNL     1      22.986  17.060  24.768  1.00  0.00     0.209 C 
ENDBRANCH  17  31
BRANCH  21  33
HETATM   33  O8  UNL     1      17.979  16.440  24.375  1.00  0.00    -0.381 OA
ATOM     34  H8  UNL     1      17.940  17.360  24.607  1.00  0.00     0.211 HD
ENDBRANCH  21  33
TORSDOF 7
ENDMDL
MODEL 2
REMARK VINA RESULT: -7.417286259      1.912      3.342
REMARK  7 active torsions:
REMARK  status: ('A' for Active; 'I' for Inactive)
REMARK    1  A    between atoms: O1_2  and  C2_3 
REMARK    2  A    between atoms: C2_3  and  C3_4 
REMARK    3  A    between atoms: C7_8  and  O2_9 
REMARK    4  A    between atoms: C16_20  and  O4_21 
REMARK    5  A    between atoms: O4_21  and  C17_22 
REMARK    6  A    between atoms: C20_26  and  O6_27 
REMARK    7  A    between atoms: C24_32  and  O8_33 
ROOT
HETATM    1  C3  UNL     1      21.171  11.362  22.287  1.00  0.00     0.002 C 
HETATM    2  C4  UNL     1      22.338  10.785  21.600  1.00  0.00     0.022 C 
HETATM    3  C5  UNL     1      20.490  10.181  22.993  1.00  0.00     0.018 C 
HETATM    4  C6  UNL     1      19.701  10.808  24.045  1.00  0.00     0.034 C 
HETATM    5  C7  UNL     1      20.528  11.529  25.108  1.00  0.00     0.134 C 
HETATM    6  C8  UNL     1      21.568  12.487  24.598  1.00  0.00     0.042 C 
HETATM    7  C9  UNL     1      22.861  11.640  24.684  1.00  0.00     0.026 C 
HETATM    8  C10 UNL     1      21.308  12.596  23.107  1.00  0.00    -0.059 C 
HETATM    9  C11 UNL     1      21.974  13.564  22.256  1.00  0.00    -0.019 C 
HETATM   10  C12 UNL     1      23.078  14.439  22.711  1.00  0.00     0.069 C 
HETATM   11  C13 UNL     1      22.622  15.450  23.680  1.00  0.00     0.108 C 
HETATM   12  O3  UNL     1      21.581  16.199  23.062  1.00  0.00    -0.375 OA
HETATM   13  C14 UNL     1      20.582  15.711  23.951  1.00  0.00     0.180 C 
HETATM   14  C15 UNL     1      21.675  15.101  24.694  1.00  0.00     0.088 C 
HETATM   15  C16 UNL     1      21.680  13.756  25.323  1.00  0.00     0.113 C 
HETATM   16  C19 UNL     1      22.946  13.862  26.214  1.00  0.00     0.048 C 
HETATM   17  C20 UNL     1      24.220  14.387  25.857  1.00  0.00     0.077 C 
HETATM   18  C22 UNL     1      24.432  15.782  25.382  1.00  0.00     0.217 C 
HETATM   19  O7  UNL     1      23.974  16.806  26.211  1.00  0.00    -0.373 OA
HETATM   20  C23 UNL     1      23.452  17.422  25.068  1.00  0.00     0.213 C 
HETATM   21  C24 UNL     1      23.756  16.261  24.194  1.00  0.00     0.143 C 
ENDROOT
BRANCH   1  22
HETATM   22  C2  UNL     1      20.135  11.683  21.183  1.00  0.00     0.180 C 
BRANCH  22  23
HETATM   23  O1  UNL     1      20.434  11.301  19.933  1.00  0.00    -0.395 OA
HETATM   24  C1  UNL     1      19.371  10.553  19.435  1.00  0.00     0.201 C 
ENDBRANCH  22  23
ENDBRANCH   1  22
BRANCH   5  25
HETATM   25  O2  UNL     1      21.097  10.436  25.828  1.00  0.00    -0.394 OA
ATOM     26  H2  UNL     1      21.478  10.875  26.579  1.00  0.00     0.210 HD
ENDBRANCH   5  25
BRANCH  15  27
HETATM   27  O4  UNL     1      20.596  14.007  26.190  1.00  0.00    -0.304 OA
BRANCH  27  28
HETATM   28  C17 UNL     1      20.416  14.191  27.477  1.00  0.00     0.255 C 
HETATM   29  C18 UNL     1      20.276  13.021  28.412  1.00  0.00     0.126 C 
HETATM   30  O5  UNL     1      20.362  15.327  27.918  1.00  0.00    -0.266 OA
ENDBRANCH  27  28
ENDBRANCH  15  27
BRANCH  17  31
HETATM   31  O6  UNL     1      25.234  13.602  25.353  1.00  0.00    -0.358 OA
HETATM   32  C21 UNL     1      26.408  14.206  25.027  1.00  0.00     0.209 C 
ENDBRANCH  17  31
BRANCH  21  33
HETATM   33  O8  UNL     1      24.576  16.649  23.112  1.00  0.00    -0.381 OA
ATOM     34  H8  UNL     1      25.145  17.357  23.392  1.00  0.00     0.211 HD
ENDBRANCH  21  33
TORSDOF 7
ENDMDL
MODEL 3
REMARK VINA RESULT: -7.215550243      1.729      4.206
REMARK  7 active torsions:
REMARK  status: ('A' for Active; 'I' for Inactive)
REMARK    1  A    between atoms: O1_2  and  C2_3 
REMARK    2  A    between atoms: C2_3  and  C3_4 
REMARK    3  A    between atoms: C7_8  and  O2_9 
REMARK    4  A    between atoms: C16_20  and  O4_21 
REMARK    5  A    between atoms: O4_21  and  C17_22 
REMARK    6  A    between atoms: C20_26  and  O6_27 
REMARK    7  A    between atoms: C24_32  and  O8_33 
ROOT
HETATM    1  C3  UNL     1      22.149  11.405  21.686  1.00  0.00     0.002 C 
HETATM    2  C4  UNL     1      23.058  10.379  22.224  1.00  0.00     0.022 C 
HETATM    3  C5  UNL     1      20.939  10.631  21.142  1.00  0.00     0.018 C 
HETATM    4  C6  UNL     1      19.874  11.623  21.107  1.00  0.00     0.034 C 
HETATM    5  C7  UNL     1      19.464  12.157  22.479  1.00  0.00     0.134 C 
HETATM    6  C8  UNL     1      20.583  12.627  23.365  1.00  0.00     0.042 C 
HETATM    7  C9  UNL     1      20.790  11.411  24.300  1.00  0.00     0.026 C 
HETATM    8  C10 UNL     1      21.817  12.617  22.483  1.00  0.00    -0.059 C 
HETATM    9  C11 UNL     1      23.090  13.178  22.896  1.00  0.00    -0.019 C 
HETATM   10  C12 UNL     1      23.365  13.680  24.261  1.00  0.00     0.069 C 
HETATM   11  C13 UNL     1      22.609  14.906  24.566  1.00  0.00     0.108 C 
HETATM   12  O3  UNL     1      22.941  15.873  23.577  1.00  0.00    -0.375 OA
HETATM   13  C14 UNL     1      21.633  15.877  23.015  1.00  0.00     0.180 C 
HETATM   14  C15 UNL     1      21.249  15.038  24.140  1.00  0.00     0.088 C 
HETATM   15  C16 UNL     1      20.335  13.868  24.106  1.00  0.00     0.113 C 
HETATM   16  C19 UNL     1      20.084  13.657  25.622  1.00  0.00     0.048 C 
HETATM   17  C20 UNL     1      21.044  13.665  26.672  1.00  0.00     0.077 C 
HETATM   18  C22 UNL     1      21.922  14.828  26.975  1.00  0.00     0.217 C 
HETATM   19  O7  UNL     1      21.291  16.048  27.218  1.00  0.00    -0.373 OA
HETATM   20  C23 UNL     1      22.253  16.646  26.396  1.00  0.00     0.213 C 
HETATM   21  C24 UNL     1      22.826  15.345  25.969  1.00  0.00     0.143 C 
ENDROOT
BRANCH   1  22
HETATM   22  C2  UNL     1      22.793  11.908  20.372  1.00  0.00     0.180 C 
BRANCH  22  23
HETATM   23  O1  UNL     1      22.805  11.060  19.333  1.00  0.00    -0.395 OA
HETATM   24  C1  UNL     1      23.854  11.414  18.488  1.00  0.00     0.201 C 
ENDBRANCH  22  23
ENDBRANCH   1  22
BRANCH   5  25
HETATM   25  O2  UNL     1      18.762  11.042  23.028  1.00  0.00    -0.394 OA
ATOM     26  H2  UNL     1      19.137  10.987  23.899  1.00  0.00     0.210 HD
ENDBRANCH   5  25
BRANCH  15  27
HETATM   27  O4  UNL     1      19.213  14.586  23.641  1.00  0.00    -0.304 OA
BRANCH  27  28
HETATM   28  C17 UNL     1      18.139  15.132  24.161  1.00  0.00     0.255 C 
HETATM   29  C18 UNL     1      16.907  14.311  24.428  1.00  0.00     0.126 C 
HETATM   30  O5  UNL     1      18.142  16.322  24.430  1.00  0.00    -0.266 OA
ENDBRANCH  27  28
ENDBRANCH  15  27
BRANCH  17  31
HETATM   31  O6  UNL     1      21.675  12.523  27.114  1.00  0.00    -0.358 OA
HETATM   32  C21 UNL     1      21.894  12.388  28.449  1.00  0.00     0.209 C 
ENDBRANCH  17  31
BRANCH  21  33
HETATM   33  O8  UNL     1      24.206  15.283  26.265  1.00  0.00    -0.381 OA
ATOM     34  H8  UNL     1      24.326  14.841  27.098  1.00  0.00     0.211 HD
ENDBRANCH  21  33
TORSDOF 7
ENDMDL
MODEL 4
REMARK VINA RESULT: -7.158198967      1.659      2.238
REMARK  7 active torsions:
REMARK  status: ('A' for Active; 'I' for Inactive)
REMARK    1  A    between atoms: O1_2  and  C2_3 
REMARK    2  A    between atoms: C2_3  and  C3_4 
REMARK    3  A    between atoms: C7_8  and  O2_9 
REMARK    4  A    between atoms: C16_20  and  O4_21 
REMARK    5  A    between atoms: O4_21  and  C17_22 
REMARK    6  A    between atoms: C20_26  and  O6_27 
REMARK    7  A    between atoms: C24_32  and  O8_33 
ROOT
HETATM    1  C3  UNL     1      21.536  11.532  21.689  1.00  0.00     0.002 C 
HETATM    2  C4  UNL     1      22.775  11.900  20.985  1.00  0.00     0.022 C 
HETATM    3  C5  UNL     1      21.577  10.001  21.811  1.00  0.00     0.018 C 
HETATM    4  C6  UNL     1      20.673   9.712  22.915  1.00  0.00     0.034 C 
HETATM    5  C7  UNL     1      21.128  10.266  24.265  1.00  0.00     0.134 C 
HETATM    6  C8  UNL     1      21.524  11.716  24.284  1.00  0.00     0.042 C 
HETATM    7  C9  UNL     1      23.068  11.632  24.204  1.00  0.00     0.026 C 
HETATM    8  C10 UNL     1      21.122  12.253  22.923  1.00  0.00    -0.059 C 
HETATM    9  C11 UNL     1      21.161  13.664  22.587  1.00  0.00    -0.019 C 
HETATM   10  C12 UNL     1      21.731  14.706  23.469  1.00  0.00     0.069 C 
HETATM   11  C13 UNL     1      20.923  14.911  24.683  1.00  0.00     0.108 C 
HETATM   12  O3  UNL     1      19.603  15.243  24.269  1.00  0.00    -0.375 OA
HETATM   13  C14 UNL     1      19.045  14.037  24.780  1.00  0.00     0.180 C 
HETATM   14  C15 UNL     1      20.353  13.791  25.367  1.00  0.00     0.088 C 
HETATM   15  C16 UNL     1      21.064  12.490  25.441  1.00  0.00     0.113 C 
HETATM   16  C19 UNL     1      22.187  12.834  26.454  1.00  0.00     0.048 C 
HETATM   17  C20 UNL     1      23.010  13.995  26.480  1.00  0.00     0.077 C 
HETATM   18  C22 UNL     1      22.476  15.380  26.594  1.00  0.00     0.217 C 
HETATM   19  O7  UNL     1      21.648  15.649  27.684  1.00  0.00    -0.373 OA
HETATM   20  C23 UNL     1      20.799  16.327  26.801  1.00  0.00     0.213 C 
HETATM   21  C24 UNL     1      21.557  15.895  25.600  1.00  0.00     0.143 C 
ENDROOT
BRANCH   1  22
HETATM   22  C2  UNL     1      20.387  11.716  20.669  1.00  0.00     0.180 C 
BRANCH  22  23
HETATM   23  O1  UNL     1      20.432  10.970  19.556  1.00  0.00    -0.395 OA
HETATM   24  C1  UNL     1      19.137  10.563  19.247  1.00  0.00     0.201 C 
ENDBRANCH  22  23
ENDBRANCH   1  22
BRANCH   5  25
HETATM   25  O2  UNL     1      22.214   9.397  24.585  1.00  0.00    -0.394 OA
ATOM     26  H2  UNL     1      22.789   9.976  25.072  1.00  0.00     0.210 HD
ENDBRANCH   5  25
BRANCH  15  27
HETATM   27  O4  UNL     1      20.070  11.834  26.198  1.00  0.00    -0.304 OA
BRANCH  27  28
HETATM   28  C17 UNL     1      19.955  11.337  27.406  1.00  0.00     0.255 C 
HETATM   29  C18 UNL     1      19.298  12.126  28.506  1.00  0.00     0.126 C 
HETATM   30  O5  UNL     1      20.386  10.219  27.638  1.00  0.00    -0.266 OA
ENDBRANCH  27  28
ENDBRANCH  15  27
BRANCH  17  31
HETATM   31  O6  UNL     1      24.233  14.056  25.848  1.00  0.00    -0.358 OA
HETATM   32  C21 UNL     1      25.134  14.975  26.285  1.00  0.00     0.209 C 
ENDBRANCH  17  31
BRANCH  21  33
HETATM   33  O8  UNL     1      21.992  17.011  24.852  1.00  0.00    -0.381 OA
ATOM     34  H8  UNL     1      22.162  17.734  25.444  1.00  0.00     0.211 HD
ENDBRANCH  21  33
TORSDOF 7
ENDMDL
MODEL 5
REMARK VINA RESULT: -6.991522787      1.806      3.244
REMARK  7 active torsions:
REMARK  status: ('A' for Active; 'I' for Inactive)
REMARK    1  A    between atoms: O1_2  and  C2_3 
REMARK    2  A    between atoms: C2_3  and  C3_4 
REMARK    3  A    between atoms: C7_8  and  O2_9 
REMARK    4  A    between atoms: C16_20  and  O4_21 
REMARK    5  A    between atoms: O4_21  and  C17_22 
REMARK    6  A    between atoms: C20_26  and  O6_27 
REMARK    7  A    between atoms: C24_32  and  O8_33 
ROOT
HETATM    1  C3  UNL     1      19.419  11.787  23.226  1.00  0.00     0.002 C 
HETATM    2  C4  UNL     1      20.232  11.196  22.150  1.00  0.00     0.022 C 
HETATM    3  C5  UNL     1      18.864  10.593  24.018  1.00  0.00     0.018 C 
HETATM    4  C6  UNL     1      18.529  11.159  25.317  1.00  0.00     0.034 C 
HETATM    5  C7  UNL     1      19.728  11.682  26.106  1.00  0.00     0.134 C 
HETATM    6  C8  UNL     1      20.657  12.601  25.363  1.00  0.00     0.042 C 
HETATM    7  C9  UNL     1      21.802  11.644  24.952  1.00  0.00     0.026 C 
HETATM    8  C10 UNL     1      19.952  12.902  24.054  1.00  0.00    -0.059 C 
HETATM    9  C11 UNL     1      20.422  13.902  23.113  1.00  0.00    -0.019 C 
HETATM   10  C12 UNL     1      21.707  14.624  23.252  1.00  0.00     0.069 C 
HETATM   11  C13 UNL     1      21.703  15.551  24.395  1.00  0.00     0.108 C 
HETATM   12  O3  UNL     1      20.615  16.450  24.215  1.00  0.00    -0.375 OA
HETATM   13  C14 UNL     1      19.900  15.950  25.340  1.00  0.00     0.180 C 
HETATM   14  C15 UNL     1      21.092  15.169  25.631  1.00  0.00     0.088 C 
HETATM   15  C16 UNL     1      21.140  13.765  26.113  1.00  0.00     0.113 C 
HETATM   16  C19 UNL     1      22.626  13.661  26.545  1.00  0.00     0.048 C 
HETATM   17  C20 UNL     1      23.773  14.114  25.835  1.00  0.00     0.077 C 
HETATM   18  C22 UNL     1      23.985  15.532  25.432  1.00  0.00     0.217 C 
HETATM   19  O7  UNL     1      23.937  16.489  26.446  1.00  0.00    -0.373 OA
HETATM   20  C23 UNL     1      23.154  17.274  25.591  1.00  0.00     0.213 C 
HETATM   21  C24 UNL     1      23.028  16.200  24.574  1.00  0.00     0.143 C 
ENDROOT
BRANCH   1  22
HETATM   22  C2  UNL     1      18.131  12.318  22.552  1.00  0.00     0.180 C 
BRANCH  22  23
HETATM   23  O1  UNL     1      17.714  11.687  21.446  1.00  0.00    -0.395 OA
HETATM   24  C1  UNL     1      16.322  11.666  21.449  1.00  0.00     0.201 C 
ENDBRANCH  22  23
ENDBRANCH   1  22
BRANCH   5  25
HETATM   25  O2  UNL     1      20.364  10.469  26.508  1.00  0.00    -0.394 OA
ATOM     26  H2  UNL     1      19.626   9.875  26.572  1.00  0.00     0.210 HD
ENDBRANCH   5  25
BRANCH  15  27
HETATM   27  O4  UNL     1      20.424  14.005  27.304  1.00  0.00    -0.304 OA
BRANCH  27  28
HETATM   28  C17 UNL     1      20.694  14.109  28.584  1.00  0.00     0.255 C 
HETATM   29  C18 UNL     1      20.498  12.940  29.512  1.00  0.00     0.126 C 
HETATM   30  O5  UNL     1      21.109  15.168  29.025  1.00  0.00    -0.266 OA
ENDBRANCH  27  28
ENDBRANCH  15  27
BRANCH  17  31
HETATM   31  O6  UNL     1      24.477  13.311  24.965  1.00  0.00    -0.358 OA
HETATM   32  C21 UNL     1      25.701  13.734  24.551  1.00  0.00     0.209 C 
ENDBRANCH  17  31
BRANCH  21  33
HETATM   33  O8  UNL     1      23.502  16.639  23.319  1.00  0.00    -0.381 OA
ATOM     34  H8  UNL     1      24.298  16.167  23.104  1.00  0.00     0.211 HD
ENDBRANCH  21  33
TORSDOF 7
ENDMDL
