MODEL 1
REMARK VINA RESULT: -8.684691417      0.000      0.000
REMARK  6 active torsions:
REMARK  status: ('A' for Active; 'I' for Inactive)
REMARK    1  A    between atoms: C5_5  and  O1_6 
REMARK    2  A    between atoms: C7_9  and  C8_10 
REMARK    3  A    between atoms: C8_10  and  C22_30 
REMARK    4  A    between atoms: C9_11  and  C10_12 
REMARK    5  A    between atoms: C13_16  and  C14_17 
REMARK    6  A    between atoms: C22_30  and  O7_31 
ROOT
HETATM    1  C10 UNL     1      20.497  11.342  22.205  1.00  0.00     0.050 C 
HETATM    2  C11 UNL     1      21.236  10.204  21.568  1.00  0.00     0.033 C 
HETATM    3  C12 UNL     1      20.596  10.013  20.187  1.00  0.00     0.113 C 
HETATM    4 CL1  UNL     1      20.465   8.271  19.886  1.00  0.00    -0.123 Cl
HETATM    5  C13 UNL     1      19.259  10.671  20.286  1.00  0.00     0.160 C 
HETATM    6  C15 UNL     1      18.138   9.784  19.849  1.00  0.00     0.153 C 
HETATM    7  O4  UNL     1      18.350   9.101  18.839  1.00  0.00    -0.296 OA
HETATM    8  C16 UNL     1      16.812   9.626  20.476  1.00  0.00     0.120 C 
HETATM    9  C17 UNL     1      16.588  10.389  21.730  1.00  0.00     0.099 C 
HETATM   10  C18 UNL     1      15.138  10.110  22.148  1.00  0.00     0.050 C 
HETATM   11  C19 UNL     1      16.727  11.867  21.608  1.00  0.00     0.044 C 
HETATM   12  C20 UNL     1      18.172  12.225  21.919  1.00  0.00     0.047 C 
HETATM   13  C21 UNL     1      19.038  11.041  21.721  1.00  0.00     0.129 C 
HETATM   14  O5  UNL     1      18.658   9.951  22.453  1.00  0.00    -0.226 OA
HETATM   15  O6  UNL     1      17.388   9.955  22.787  1.00  0.00    -0.229 OA
ENDROOT
BRANCH   1  16
HETATM   16  C9  UNL     1      20.555  11.381  23.641  1.00  0.00    -0.009 C 
HETATM   17  C8  UNL     1      21.418  11.148  24.537  1.00  0.00    -0.031 C 
BRANCH  17  18
HETATM   18  C7  UNL     1      20.928  11.348  25.994  1.00  0.00    -0.041 C 
HETATM   19  C6  UNL     1      20.637  10.406  27.065  1.00  0.00     0.082 C 
HETATM   20  C5  UNL     1      20.605  11.526  27.943  1.00  0.00     0.086 C 
HETATM   21  C4  UNL     1      19.345  12.038  28.613  1.00  0.00     0.043 C 
HETATM   22  C23 UNL     1      20.646  12.363  26.696  1.00  0.00    -0.035 C 
HETATM   23  C3  UNL     1      19.384  13.536  28.371  1.00  0.00     0.012 C 
HETATM   24  C2  UNL     1      20.386  13.743  27.252  1.00  0.00     0.014 C 
HETATM   25  C1  UNL     1      21.646  14.331  27.791  1.00  0.00     0.015 C 
BRANCH  20  26
HETATM   26  O1  UNL     1      21.754  11.701  28.737  1.00  0.00    -0.385 OA
ATOM     27  H1  UNL     1      22.555  11.468  28.282  1.00  0.00     0.211 HD
ENDBRANCH  20  26
ENDBRANCH  17  18
BRANCH  17  28
HETATM   28  C22 UNL     1      22.817  10.792  24.492  1.00  0.00     0.203 C 
BRANCH  28  29
HETATM   29  O7  UNL     1      22.930   9.366  24.653  1.00  0.00    -0.396 OA
ATOM     30  H7  UNL     1      23.848   9.128  24.591  1.00  0.00     0.209 HD
ENDBRANCH  28  29
ENDBRANCH  17  28
ENDBRANCH   1  16
BRANCH   5  31
HETATM   31  C14 UNL     1      19.180  11.863  19.378  1.00  0.00     0.194 C 
HETATM   32  O2  UNL     1      18.269  11.993  18.531  1.00  0.00    -0.647 OA
HETATM   33  O3  UNL     1      20.139  12.839  19.479  1.00  0.00    -0.647 OA
ENDBRANCH   5  31
TORSDOF 6
ENDMDL
MODEL 2
REMARK VINA RESULT: -8.662753359      4.311      6.934
REMARK  6 active torsions:
REMARK  status: ('A' for Active; 'I' for Inactive)
REMARK    1  A    between atoms: C5_5  and  O1_6 
REMARK    2  A    between atoms: C7_9  and  C8_10 
REMARK    3  A    between atoms: C8_10  and  C22_30 
REMARK    4  A    between atoms: C9_11  and  C10_12 
REMARK    5  A    between atoms: C13_16  and  C14_17 
REMARK    6  A    between atoms: C22_30  and  O7_31 
ROOT
HETATM    1  C10 UNL     1      22.286  11.364  19.700  1.00  0.00     0.050 C 
HETATM    2  C11 UNL     1      21.621  10.261  18.933  1.00  0.00     0.033 C 
HETATM    3  C12 UNL     1      20.164  10.240  19.411  1.00  0.00     0.113 C 
HETATM    4 CL1  UNL     1      19.669   8.545  19.570  1.00  0.00    -0.123 Cl
HETATM    5  C13 UNL     1      20.178  10.949  20.725  1.00  0.00     0.160 C 
HETATM    6  C15 UNL     1      19.526  10.165  21.819  1.00  0.00     0.153 C 
HETATM    7  O4  UNL     1      18.480   9.578  21.513  1.00  0.00    -0.296 OA
HETATM    8  C16 UNL     1      19.977  10.011  23.214  1.00  0.00     0.120 C 
HETATM    9  C17 UNL     1      21.270  10.655  23.557  1.00  0.00     0.099 C 
HETATM   10  C18 UNL     1      21.488  10.406  25.056  1.00  0.00     0.050 C 
HETATM   11  C19 UNL     1      21.321  12.129  23.350  1.00  0.00     0.044 C 
HETATM   12  C20 UNL     1      21.831  12.383  21.940  1.00  0.00     0.047 C 
HETATM   13  C21 UNL     1      21.610  11.184  21.101  1.00  0.00     0.129 C 
HETATM   14  O5  UNL     1      22.175  10.046  21.605  1.00  0.00    -0.226 OA
HETATM   15  O6  UNL     1      22.360  10.079  22.905  1.00  0.00    -0.229 OA
ENDROOT
BRANCH   1  16
HETATM   16  C9  UNL     1      23.715  11.256  19.811  1.00  0.00    -0.009 C 
HETATM   17  C8  UNL     1      24.709  11.314  19.029  1.00  0.00    -0.031 C 
BRANCH  17  18
HETATM   18  C7  UNL     1      26.091  11.112  19.702  1.00  0.00    -0.041 C 
HETATM   19  C6  UNL     1      26.531  10.257  20.796  1.00  0.00     0.082 C 
HETATM   20  C5  UNL     1      27.864  10.570  20.408  1.00  0.00     0.086 C 
HETATM   21  C4  UNL     1      28.809  11.414  21.239  1.00  0.00     0.043 C 
HETATM   22  C23 UNL     1      27.242  11.604  19.512  1.00  0.00    -0.035 C 
HETATM   23  C3  UNL     1      29.385  12.406  20.244  1.00  0.00     0.012 C 
HETATM   24  C2  UNL     1      28.459  12.367  19.045  1.00  0.00     0.014 C 
HETATM   25  C1  UNL     1      29.114  11.655  17.911  1.00  0.00     0.015 C 
BRANCH  20  26
HETATM   26  O1  UNL     1      28.529   9.567  19.678  1.00  0.00    -0.385 OA
ATOM     27  H1  UNL     1      29.186   9.111  20.192  1.00  0.00     0.211 HD
ENDBRANCH  20  26
ENDBRANCH  17  18
BRANCH  17  28
HETATM   28  C22 UNL     1      24.842  11.599  17.620  1.00  0.00     0.203 C 
BRANCH  28  29
HETATM   29  O7  UNL     1      24.811  13.027  17.438  1.00  0.00    -0.396 OA
ATOM     30  H7  UNL     1      24.316  13.219  16.650  1.00  0.00     0.209 HD
ENDBRANCH  28  29
ENDBRANCH  17  28
ENDBRANCH   1  16
BRANCH   5  31
HETATM   31  C14 UNL     1      19.398  12.228  20.652  1.00  0.00     0.194 C 
HETATM   32  O2  UNL     1      18.452  12.475  21.433  1.00  0.00    -0.647 OA
HETATM   33  O3  UNL     1      19.729  13.155  19.697  1.00  0.00    -0.647 OA
ENDBRANCH   5  31
TORSDOF 6
ENDMDL
MODEL 3
REMARK VINA RESULT: -8.332479400      2.665      7.503
REMARK  6 active torsions:
REMARK  status: ('A' for Active; 'I' for Inactive)
REMARK    1  A    between atoms: C5_5  and  O1_6 
REMARK    2  A    between atoms: C7_9  and  C8_10 
REMARK    3  A    between atoms: C8_10  and  C22_30 
REMARK    4  A    between atoms: C9_11  and  C10_12 
REMARK    5  A    between atoms: C13_16  and  C14_17 
REMARK    6  A    between atoms: C22_30  and  O7_31 
ROOT
HETATM    1  C10 UNL     1      21.669  12.616  25.659  1.00  0.00     0.050 C 
HETATM    2  C11 UNL     1      22.390  13.905  25.398  1.00  0.00     0.033 C 
HETATM    3  C12 UNL     1      22.436  14.636  26.745  1.00  0.00     0.113 C 
HETATM    4 CL1  UNL     1      22.134  16.356  26.440  1.00  0.00    -0.123 Cl
HETATM    5  C13 UNL     1      21.355  14.010  27.563  1.00  0.00     0.160 C 
HETATM    6  C15 UNL     1      20.418  15.011  28.158  1.00  0.00     0.153 C 
HETATM    7  O4  UNL     1      20.941  16.036  28.615  1.00  0.00    -0.296 OA
HETATM    8  C16 UNL     1      18.950  14.924  28.267  1.00  0.00     0.120 C 
HETATM    9  C17 UNL     1      18.320  13.728  27.651  1.00  0.00     0.099 C 
HETATM   10  C18 UNL     1      16.818  13.836  27.944  1.00  0.00     0.050 C 
HETATM   11  C19 UNL     1      18.775  12.418  28.195  1.00  0.00     0.044 C 
HETATM   12  C20 UNL     1      19.952  11.949  27.353  1.00  0.00     0.047 C 
HETATM   13  C21 UNL     1      20.571  13.103  26.664  1.00  0.00     0.129 C 
HETATM   14  O5  UNL     1      19.698  13.817  25.892  1.00  0.00    -0.226 OA
HETATM   15  O6  UNL     1      18.444  13.697  26.262  1.00  0.00    -0.229 OA
ENDROOT
BRANCH   1  16
HETATM   16  C9  UNL     1      21.063  12.010  24.504  1.00  0.00    -0.009 C 
HETATM   17  C8  UNL     1      21.316  11.040  23.732  1.00  0.00    -0.031 C 
BRANCH  17  18
HETATM   18  C7  UNL     1      20.290  10.821  22.589  1.00  0.00    -0.041 C 
HETATM   19  C6  UNL     1      18.856  10.574  22.597  1.00  0.00     0.082 C 
HETATM   20  C5  UNL     1      18.876  10.841  21.199  1.00  0.00     0.086 C 
HETATM   21  C4  UNL     1      18.632   9.789  20.135  1.00  0.00     0.043 C 
HETATM   22  C23 UNL     1      20.373  10.801  21.326  1.00  0.00    -0.035 C 
HETATM   23  C3  UNL     1      19.762  10.001  19.144  1.00  0.00     0.012 C 
HETATM   24  C2  UNL     1      20.798  10.831  19.877  1.00  0.00     0.014 C 
HETATM   25  C1  UNL     1      20.793  12.231  19.364  1.00  0.00     0.015 C 
BRANCH  20  26
HETATM   26  O1  UNL     1      18.409  12.114  20.823  1.00  0.00    -0.385 OA
ATOM     27  H1  UNL     1      18.875  12.820  21.259  1.00  0.00     0.211 HD
ENDBRANCH  20  26
ENDBRANCH  17  18
BRANCH  17  28
HETATM   28  C22 UNL     1      22.343  10.025  23.723  1.00  0.00     0.203 C 
BRANCH  28  29
HETATM   29  O7  UNL     1      22.223   9.243  24.925  1.00  0.00    -0.396 OA
ATOM     30  H7  UNL     1      22.866   8.544  24.895  1.00  0.00     0.209 HD
ENDBRANCH  28  29
ENDBRANCH  17  28
ENDBRANCH   1  16
BRANCH   5  31
HETATM   31  C14 UNL     1      21.931  13.277  28.739  1.00  0.00     0.194 C 
HETATM   32  O2  UNL     1      22.997  12.627  28.660  1.00  0.00    -0.647 OA
HETATM   33  O3  UNL     1      21.266  13.319  29.939  1.00  0.00    -0.647 OA
ENDBRANCH   5  31
TORSDOF 6
ENDMDL
MODEL 4
REMARK VINA RESULT: -8.317964613      2.733      7.544
REMARK  6 active torsions:
REMARK  status: ('A' for Active; 'I' for Inactive)
REMARK    1  A    between atoms: C5_5  and  O1_6 
REMARK    2  A    between atoms: C7_9  and  C8_10 
REMARK    3  A    between atoms: C8_10  and  C22_30 
REMARK    4  A    between atoms: C9_11  and  C10_12 
REMARK    5  A    between atoms: C13_16  and  C14_17 
REMARK    6  A    between atoms: C22_30  and  O7_31 
ROOT
HETATM    1  C10 UNL     1      22.319  13.269  24.858  1.00  0.00     0.050 C 
HETATM    2  C11 UNL     1      22.231  14.724  24.505  1.00  0.00     0.033 C 
HETATM    3  C12 UNL     1      22.468  15.485  25.815  1.00  0.00     0.113 C 
HETATM    4 CL1  UNL     1      21.344  16.856  25.856  1.00  0.00    -0.123 Cl
HETATM    5  C13 UNL     1      22.187  14.493  26.895  1.00  0.00     0.160 C 
HETATM    6  C15 UNL     1      21.217  14.998  27.915  1.00  0.00     0.153 C 
HETATM    7  O4  UNL     1      21.364  16.176  28.264  1.00  0.00    -0.296 OA
HETATM    8  C16 UNL     1      20.111  14.262  28.553  1.00  0.00     0.120 C 
HETATM    9  C17 UNL     1      19.891  12.872  28.077  1.00  0.00     0.099 C 
HETATM   10  C18 UNL     1      18.742  12.306  28.922  1.00  0.00     0.050 C 
HETATM   11  C19 UNL     1      21.049  11.951  28.248  1.00  0.00     0.044 C 
HETATM   12  C20 UNL     1      21.882  12.011  26.976  1.00  0.00     0.047 C 
HETATM   13  C21 UNL     1      21.606  13.271  26.252  1.00  0.00     0.129 C 
HETATM   14  O5  UNL     1      20.284  13.458  25.955  1.00  0.00    -0.226 OA
HETATM   15  O6  UNL     1      19.467  12.807  26.750  1.00  0.00    -0.229 OA
ENDROOT
BRANCH   1  16
HETATM   16  C9  UNL     1      21.650  12.378  23.949  1.00  0.00    -0.009 C 
HETATM   17  C8  UNL     1      21.849  11.221  23.477  1.00  0.00    -0.031 C 
BRANCH  17  18
HETATM   18  C7  UNL     1      20.768  10.718  22.485  1.00  0.00    -0.041 C 
HETATM   19  C6  UNL     1      19.466  10.100  22.690  1.00  0.00     0.082 C 
HETATM   20  C5  UNL     1      19.218  10.337  21.308  1.00  0.00     0.086 C 
HETATM   21  C4  UNL     1      19.113   9.239  20.268  1.00  0.00     0.043 C 
HETATM   22  C23 UNL     1      20.674  10.697  21.223  1.00  0.00    -0.035 C 
HETATM   23  C3  UNL     1      19.997   9.725  19.133  1.00  0.00     0.012 C 
HETATM   24  C2  UNL     1      20.868  10.813  19.730  1.00  0.00     0.014 C 
HETATM   25  C1  UNL     1      20.420  12.151  19.250  1.00  0.00     0.015 C 
BRANCH  20  26
HETATM   26  O1  UNL     1      18.382  11.434  21.027  1.00  0.00    -0.385 OA
ATOM     27  H1  UNL     1      17.922  11.752  21.795  1.00  0.00     0.211 HD
ENDBRANCH  20  26
ENDBRANCH  17  18
BRANCH  17  28
HETATM   28  C22 UNL     1      22.856  10.215  23.718  1.00  0.00     0.203 C 
BRANCH  28  29
HETATM   29  O7  UNL     1      22.406   9.365  24.788  1.00  0.00    -0.396 OA
ATOM     30  H7  UNL     1      21.929   8.634  24.411  1.00  0.00     0.209 HD
ENDBRANCH  28  29
ENDBRANCH  17  28
ENDBRANCH   1  16
BRANCH   5  31
HETATM   31  C14 UNL     1      23.433  14.182  27.672  1.00  0.00     0.194 C 
HETATM   32  O2  UNL     1      23.392  13.726  28.837  1.00  0.00    -0.647 OA
HETATM   33  O3  UNL     1      24.654  14.405  27.089  1.00  0.00    -0.647 OA
ENDBRANCH   5  31
TORSDOF 6
ENDMDL
MODEL 5
REMARK VINA RESULT: -8.228033813      0.945      1.311
REMARK  6 active torsions:
REMARK  status: ('A' for Active; 'I' for Inactive)
REMARK    1  A    between atoms: C5_5  and  O1_6 
REMARK    2  A    between atoms: C7_9  and  C8_10 
REMARK    3  A    between atoms: C8_10  and  C22_30 
REMARK    4  A    between atoms: C9_11  and  C10_12 
REMARK    5  A    between atoms: C13_16  and  C14_17 
REMARK    6  A    between atoms: C22_30  and  O7_31 
ROOT
HETATM    1  C10 UNL     1      20.746  11.444  21.771  1.00  0.00     0.050 C 
HETATM    2  C11 UNL     1      21.424  10.238  21.195  1.00  0.00     0.033 C 
HETATM    3  C12 UNL     1      20.653   9.899  19.914  1.00  0.00     0.113 C 
HETATM    4 CL1  UNL     1      20.500   8.135  19.822  1.00  0.00    -0.123 Cl
HETATM    5  C13 UNL     1      19.329  10.572  20.069  1.00  0.00     0.160 C 
HETATM    6  C15 UNL     1      18.174   9.649  19.846  1.00  0.00     0.153 C 
HETATM    7  O4  UNL     1      18.290   8.858  18.901  1.00  0.00    -0.296 OA
HETATM    8  C16 UNL     1      16.917   9.571  20.612  1.00  0.00     0.120 C 
HETATM    9  C17 UNL     1      16.813  10.470  21.790  1.00  0.00     0.099 C 
HETATM   10  C18 UNL     1      15.413  10.248  22.376  1.00  0.00     0.050 C 
HETATM   11  C19 UNL     1      16.934  11.924  21.492  1.00  0.00     0.044 C 
HETATM   12  C20 UNL     1      18.401  12.305  21.618  1.00  0.00     0.047 C 
HETATM   13  C21 UNL     1      19.248  11.101  21.469  1.00  0.00     0.129 C 
HETATM   14  O5  UNL     1      18.946  10.101  22.352  1.00  0.00    -0.226 OA
HETATM   15  O6  UNL     1      17.715  10.151  22.805  1.00  0.00    -0.229 OA
ENDROOT
BRANCH   1  16
HETATM   16  C9  UNL     1      20.944  11.642  23.182  1.00  0.00    -0.009 C 
HETATM   17  C8  UNL     1      21.707  11.180  24.080  1.00  0.00    -0.031 C 
BRANCH  17  18
HETATM   18  C7  UNL     1      21.480  11.759  25.501  1.00  0.00    -0.041 C 
HETATM   19  C6  UNL     1      22.341  12.519  26.395  1.00  0.00     0.082 C 
HETATM   20  C5  UNL     1      21.176  12.787  27.169  1.00  0.00     0.086 C 
HETATM   21  C4  UNL     1      20.935  12.223  28.555  1.00  0.00     0.043 C 
HETATM   22  C23 UNL     1      20.500  11.763  26.303  1.00  0.00    -0.035 C 
HETATM   23  C3  UNL     1      19.513  11.694  28.492  1.00  0.00     0.012 C 
HETATM   24  C2  UNL     1      19.181  11.590  27.016  1.00  0.00     0.014 C 
HETATM   25  C1  UNL     1      18.233  12.672  26.625  1.00  0.00     0.015 C 
BRANCH  20  26
HETATM   26  O1  UNL     1      20.625  14.072  27.001  1.00  0.00    -0.385 OA
ATOM     27  H1  UNL     1      21.148  14.753  27.409  1.00  0.00     0.211 HD
ENDBRANCH  20  26
ENDBRANCH  17  18
BRANCH  17  28
HETATM   28  C22 UNL     1      22.815  10.254  24.056  1.00  0.00     0.203 C 
BRANCH  28  29
HETATM   29  O7  UNL     1      22.489   9.129  24.892  1.00  0.00    -0.396 OA
ATOM     30  H7  UNL     1      22.799   8.338  24.466  1.00  0.00     0.209 HD
ENDBRANCH  28  29
ENDBRANCH  17  28
ENDBRANCH   1  16
BRANCH   5  31
HETATM   31  C14 UNL     1      19.157  11.657  19.047  1.00  0.00     0.194 C 
HETATM   32  O2  UNL     1      18.076  11.833  18.441  1.00  0.00    -0.647 OA
HETATM   33  O3  UNL     1      20.217  12.480  18.766  1.00  0.00    -0.647 OA
ENDBRANCH   5  31
TORSDOF 6
ENDMDL
