MODEL 1
REMARK VINA RESULT: -8.095857122      0.000      0.000
REMARK  6 active torsions:
REMARK  status: ('A' for Active; 'I' for Inactive)
REMARK    1  A    between atoms: C3_4  and  N2_5 
REMARK    2  A    between atoms: N2_5  and  O1_6 
REMARK    3  A    between atoms: N2_5  and  C4_8 
REMARK    4  A    between atoms: C4_8  and  C5_9 
REMARK    5  A    between atoms: C13_17  and  O2_19 
REMARK    6  A    between atoms: C23_30  and  O3_31 
ROOT
HETATM    1  C5  UNL     1      19.859  11.811  25.302  1.00  0.00     0.030 C 
HETATM    2  C6  UNL     1      19.650  10.836  26.431  1.00  0.00     0.019 C 
HETATM    3  C7  UNL     1      20.480  11.047  27.646  1.00  0.00     0.014 C 
HETATM    4  C8  UNL     1      20.083  12.362  28.273  1.00  0.00    -0.009 C 
HETATM    5  C9  UNL     1      18.792  12.135  29.066  1.00  0.00     0.018 C 
HETATM    6  C10 UNL     1      19.824  13.416  27.246  1.00  0.00     0.002 C 
HETATM    7  C11 UNL     1      20.406  14.642  27.884  1.00  0.00     0.009 C 
HETATM    8  C12 UNL     1      21.503  14.232  28.819  1.00  0.00     0.038 C 
HETATM    9  C13 UNL     1      21.114  12.839  29.232  1.00  0.00     0.062 C 
HETATM   10  C14 UNL     1      20.599  12.916  30.662  1.00  0.00     0.046 C 
HETATM   11  C15 UNL     1      20.392  13.149  25.897  1.00  0.00     0.007 C 
HETATM   12  C16 UNL     1      21.857  13.330  25.784  1.00  0.00     0.007 C 
HETATM   13  C17 UNL     1      22.331  13.278  24.366  1.00  0.00     0.008 C 
HETATM   14  C18 UNL     1      21.353  12.476  23.489  1.00  0.00     0.026 C 
HETATM   15  C19 UNL     1      22.112  12.120  22.263  1.00  0.00     0.058 C 
HETATM   16  C20 UNL     1      22.581  10.713  22.246  1.00  0.00     0.008 C 
HETATM   17 CL1  UNL     1      24.085  10.320  21.444  1.00  0.00    -0.089 Cl
HETATM   18  C21 UNL     1      21.889   9.768  22.819  1.00  0.00    -0.004 C 
HETATM   19  C22 UNL     1      20.591  10.139  23.503  1.00  0.00     0.068 C 
HETATM   20  C23 UNL     1      20.888  11.318  24.339  1.00  0.00     0.078 C 
ENDROOT
BRANCH   1  21
HETATM   21  C4  UNL     1      18.538  12.208  24.701  1.00  0.00     0.111 C 
BRANCH  21  22
HETATM   22  N2  UNL     1      17.340  11.742  25.260  1.00  0.00    -0.220 N 
BRANCH  22  23
HETATM   23  C3  UNL     1      16.721  10.566  24.746  1.00  0.00     0.165 A 
HETATM   24  C2  UNL     1      16.340  10.294  23.427  1.00  0.00     0.163 A 
HETATM   25  N1  UNL     1      15.792   9.075  23.376  1.00  0.00    -0.290 N 
HETATM   26  C1  UNL     1      15.277   8.431  22.207  1.00  0.00     0.178 C 
HETATM   27  N4  UNL     1      15.821   8.594  24.595  1.00  0.00    -0.240 N 
HETATM   28  N3  UNL     1      16.366   9.458  25.427  1.00  0.00    -0.268 N 
ATOM     29  H4  UNL     1      15.469   7.675  24.863  1.00  0.00     0.208 HD
ATOM     30  H3  UNL     1      16.499   9.310  26.427  1.00  0.00     0.190 HD
ENDBRANCH  22  23
BRANCH  22  31
HETATM   31  O1  UNL     1      16.738  12.323  26.161  1.00  0.00    -0.282 OA
ATOM     32  H1  UNL     1      17.180  13.069  26.548  1.00  0.00     0.245 HD
ENDBRANCH  22  31
ENDBRANCH  21  22
ENDBRANCH   1  21
BRANCH  20  33
HETATM   33  O3  UNL     1      22.005  10.869  25.136  1.00  0.00    -0.388 OA
ATOM     34  H3  UNL     1      22.201  11.574  25.741  1.00  0.00     0.210 HD
ENDBRANCH  20  33
BRANCH   9  35
HETATM   35  O2  UNL     1      22.253  12.025  29.289  1.00  0.00    -0.389 OA
ATOM     36  H2  UNL     1      22.943  12.369  29.843  1.00  0.00     0.210 HD
ENDBRANCH   9  35
TORSDOF 6
ENDMDL
MODEL 2
REMARK VINA RESULT: -7.841676679      3.373      6.672
REMARK  6 active torsions:
REMARK  status: ('A' for Active; 'I' for Inactive)
REMARK    1  A    between atoms: C3_4  and  N2_5 
REMARK    2  A    between atoms: N2_5  and  O1_6 
REMARK    3  A    between atoms: N2_5  and  C4_8 
REMARK    4  A    between atoms: C4_8  and  C5_9 
REMARK    5  A    between atoms: C13_17  and  O2_19 
REMARK    6  A    between atoms: C23_30  and  O3_31 
ROOT
HETATM    1  C5  UNL     1      19.601  11.608  24.097  1.00  0.00     0.030 C 
HETATM    2  C6  UNL     1      20.568  10.486  24.370  1.00  0.00     0.019 C 
HETATM    3  C7  UNL     1      21.037   9.717  23.187  1.00  0.00     0.014 C 
HETATM    4  C8  UNL     1      21.849  10.640  22.310  1.00  0.00    -0.009 C 
HETATM    5  C9  UNL     1      23.249  10.760  22.920  1.00  0.00     0.018 C 
HETATM    6  C10 UNL     1      21.251  12.008  22.233  1.00  0.00     0.002 C 
HETATM    7  C11 UNL     1      21.471  12.379  20.797  1.00  0.00     0.009 C 
HETATM    8  C12 UNL     1      21.522  11.129  19.973  1.00  0.00     0.038 C 
HETATM    9  C13 UNL     1      22.008  10.085  20.940  1.00  0.00     0.062 C 
HETATM   10  C14 UNL     1      23.458   9.782  20.591  1.00  0.00     0.046 C 
HETATM   11  C15 UNL     1      19.823  12.107  22.638  1.00  0.00     0.007 C 
HETATM   12  C16 UNL     1      18.853  11.575  21.654  1.00  0.00     0.007 C 
HETATM   13  C17 UNL     1      17.438  11.913  22.006  1.00  0.00     0.008 C 
HETATM   14  C18 UNL     1      17.294  12.159  23.518  1.00  0.00     0.026 C 
HETATM   15  C19 UNL     1      15.841  12.044  23.806  1.00  0.00     0.058 C 
HETATM   16  C20 UNL     1      15.464  10.754  24.434  1.00  0.00     0.008 C 
HETATM   17 CL1  UNL     1      13.892  10.064  24.097  1.00  0.00    -0.089 Cl
HETATM   18  C21 UNL     1      16.285  10.129  25.231  1.00  0.00    -0.004 C 
HETATM   19  C22 UNL     1      17.637  10.753  25.505  1.00  0.00     0.068 C 
HETATM   20  C23 UNL     1      18.185  11.143  24.191  1.00  0.00     0.078 C 
ENDROOT
BRANCH   1  21
HETATM   21  C4  UNL     1      19.949  12.814  24.925  1.00  0.00     0.111 C 
BRANCH  21  22
HETATM   22  N2  UNL     1      21.188  12.887  25.578  1.00  0.00    -0.220 N 
BRANCH  22  23
HETATM   23  C3  UNL     1      21.273  12.643  26.979  1.00  0.00     0.165 A 
HETATM   24  C2  UNL     1      20.387  13.048  27.984  1.00  0.00     0.163 A 
HETATM   25  N1  UNL     1      20.840  12.610  29.164  1.00  0.00    -0.290 N 
HETATM   26  C1  UNL     1      20.218  12.818  30.435  1.00  0.00     0.178 C 
HETATM   27  N4  UNL     1      21.954  11.961  28.926  1.00  0.00    -0.240 N 
HETATM   28  N3  UNL     1      22.233  11.965  27.640  1.00  0.00    -0.268 N 
ATOM     29  H4  UNL     1      22.527  11.513  29.642  1.00  0.00     0.208 HD
ATOM     30  H3  UNL     1      23.048  11.525  27.211  1.00  0.00     0.190 HD
ENDBRANCH  22  23
BRANCH  22  31
HETATM   31  O1  UNL     1      22.235  13.207  25.018  1.00  0.00    -0.282 OA
ATOM     32  H1  UNL     1      22.996  12.677  25.218  1.00  0.00     0.245 HD
ENDBRANCH  22  31
ENDBRANCH  21  22
ENDBRANCH   1  21
BRANCH  20  33
HETATM   33  O3  UNL     1      18.112   9.913  23.440  1.00  0.00    -0.388 OA
ATOM     34  H3  UNL     1      18.772   9.976  22.760  1.00  0.00     0.210 HD
ENDBRANCH  20  33
BRANCH   9  35
HETATM   35  O2  UNL     1      21.315   8.885  20.732  1.00  0.00    -0.389 OA
ATOM     36  H2  UNL     1      21.519   8.209  21.368  1.00  0.00     0.210 HD
ENDBRANCH   9  35
TORSDOF 6
ENDMDL
MODEL 3
REMARK VINA RESULT: -7.782752051      3.205      5.926
REMARK  6 active torsions:
REMARK  status: ('A' for Active; 'I' for Inactive)
REMARK    1  A    between atoms: C3_4  and  N2_5 
REMARK    2  A    between atoms: N2_5  and  O1_6 
REMARK    3  A    between atoms: N2_5  and  C4_8 
REMARK    4  A    between atoms: C4_8  and  C5_9 
REMARK    5  A    between atoms: C13_17  and  O2_19 
REMARK    6  A    between atoms: C23_30  and  O3_31 
ROOT
HETATM    1  C5  UNL     1      18.008  11.390  24.258  1.00  0.00     0.030 C 
HETATM    2  C6  UNL     1      17.406  10.015  24.123  1.00  0.00     0.019 C 
HETATM    3  C7  UNL     1      16.130   9.780  24.849  1.00  0.00     0.014 C 
HETATM    4  C8  UNL     1      15.066  10.662  24.241  1.00  0.00    -0.009 C 
HETATM    5  C9  UNL     1      14.579   9.994  22.952  1.00  0.00     0.018 C 
HETATM    6  C10 UNL     1      15.593  12.018  23.897  1.00  0.00     0.002 C 
HETATM    7  C11 UNL     1      14.450  12.915  24.270  1.00  0.00     0.009 C 
HETATM    8  C12 UNL     1      13.654  12.264  25.359  1.00  0.00     0.038 C 
HETATM    9  C13 UNL     1      13.892  10.795  25.143  1.00  0.00     0.062 C 
HETATM   10  C14 UNL     1      12.619  10.212  24.544  1.00  0.00     0.046 C 
HETATM   11  C15 UNL     1      16.864  12.401  24.569  1.00  0.00     0.007 C 
HETATM   12  C16 UNL     1      16.735  12.760  26.000  1.00  0.00     0.007 C 
HETATM   13  C17 UNL     1      17.990  13.357  26.553  1.00  0.00     0.008 C 
HETATM   14  C18 UNL     1      19.218  12.902  25.745  1.00  0.00     0.026 C 
HETATM   15  C19 UNL     1      20.392  13.173  26.612  1.00  0.00     0.058 C 
HETATM   16  C20 UNL     1      20.934  11.958  27.270  1.00  0.00     0.008 C 
HETATM   17 CL1  UNL     1      21.661  12.094  28.855  1.00  0.00    -0.089 Cl
HETATM   18  C21 UNL     1      20.876  10.795  26.683  1.00  0.00    -0.004 C 
HETATM   19  C22 UNL     1      20.244  10.711  25.311  1.00  0.00     0.068 C 
HETATM   20  C23 UNL     1      18.972  11.453  25.397  1.00  0.00     0.078 C 
ENDROOT
BRANCH   1  21
HETATM   21  C4  UNL     1      18.531  11.866  22.931  1.00  0.00     0.111 C 
BRANCH  21  22
HETATM   22  N2  UNL     1      18.581  10.990  21.838  1.00  0.00    -0.220 N 
BRANCH  22  23
HETATM   23  C3  UNL     1      19.819  10.401  21.450  1.00  0.00     0.165 A 
HETATM   24  C2  UNL     1      21.098  10.970  21.485  1.00  0.00     0.163 A 
HETATM   25  N1  UNL     1      21.983  10.076  21.031  1.00  0.00    -0.290 N 
HETATM   26  C1  UNL     1      23.395  10.275  20.911  1.00  0.00     0.178 C 
HETATM   27  N4  UNL     1      21.309   8.995  20.724  1.00  0.00    -0.240 N 
HETATM   28  N3  UNL     1      20.024   9.161  20.962  1.00  0.00    -0.268 N 
ATOM     29  H4  UNL     1      21.723   8.141  20.350  1.00  0.00     0.208 HD
ATOM     30  H3  UNL     1      19.299   8.461  20.802  1.00  0.00     0.190 HD
ENDBRANCH  22  23
BRANCH  22  31
HETATM   31  O1  UNL     1      17.610  10.723  21.134  1.00  0.00    -0.282 OA
ATOM     32  H1  UNL     1      16.765  10.725  21.567  1.00  0.00     0.245 HD
ENDBRANCH  22  31
ENDBRANCH  21  22
ENDBRANCH   1  21
BRANCH  20  33
HETATM   33  O3  UNL     1      18.314  10.828  26.519  1.00  0.00    -0.388 OA
ATOM     34  H3  UNL     1      17.455  11.227  26.582  1.00  0.00     0.210 HD
ENDBRANCH  20  33
BRANCH   9  35
HETATM   35  O2  UNL     1      14.052  10.152  26.378  1.00  0.00    -0.389 OA
ATOM     36  H2  UNL     1      13.449   9.431  26.516  1.00  0.00     0.210 HD
ENDBRANCH   9  35
TORSDOF 6
ENDMDL
MODEL 4
REMARK VINA RESULT: -7.720536853      3.225      5.619
REMARK  6 active torsions:
REMARK  status: ('A' for Active; 'I' for Inactive)
REMARK    1  A    between atoms: C3_4  and  N2_5 
REMARK    2  A    between atoms: N2_5  and  O1_6 
REMARK    3  A    between atoms: N2_5  and  C4_8 
REMARK    4  A    between atoms: C4_8  and  C5_9 
REMARK    5  A    between atoms: C13_17  and  O2_19 
REMARK    6  A    between atoms: C23_30  and  O3_31 
ROOT
HETATM    1  C5  UNL     1      18.205  11.471  24.304  1.00  0.00     0.030 C 
HETATM    2  C6  UNL     1      17.610  10.102  24.100  1.00  0.00     0.019 C 
HETATM    3  C7  UNL     1      16.313   9.839  24.777  1.00  0.00     0.014 C 
HETATM    4  C8  UNL     1      15.267  10.742  24.169  1.00  0.00    -0.009 C 
HETATM    5  C9  UNL     1      14.821  10.120  22.842  1.00  0.00     0.018 C 
HETATM    6  C10 UNL     1      15.801  12.110  23.891  1.00  0.00     0.002 C 
HETATM    7  C11 UNL     1      14.645  12.992  24.260  1.00  0.00     0.009 C 
HETATM    8  C12 UNL     1      13.817  12.301  25.300  1.00  0.00     0.038 C 
HETATM    9  C13 UNL     1      14.064  10.841  25.038  1.00  0.00     0.062 C 
HETATM   10  C14 UNL     1      12.812  10.279  24.380  1.00  0.00     0.046 C 
HETATM   11  C15 UNL     1      17.050  12.469  24.616  1.00  0.00     0.007 C 
HETATM   12  C16 UNL     1      16.876  12.777  26.054  1.00  0.00     0.007 C 
HETATM   13  C17 UNL     1      18.112  13.354  26.667  1.00  0.00     0.008 C 
HETATM   14  C18 UNL     1      19.365  12.930  25.881  1.00  0.00     0.026 C 
HETATM   15  C19 UNL     1      20.511  13.170  26.794  1.00  0.00     0.058 C 
HETATM   16  C20 UNL     1      21.035  11.933  27.424  1.00  0.00     0.008 C 
HETATM   17 CL1  UNL     1      21.712  12.012  29.034  1.00  0.00    -0.089 Cl
HETATM   18  C21 UNL     1      20.998  10.792  26.794  1.00  0.00    -0.004 C 
HETATM   19  C22 UNL     1      20.408  10.756  25.401  1.00  0.00     0.068 C 
HETATM   20  C23 UNL     1      19.133  11.494  25.474  1.00  0.00     0.078 C 
ENDROOT
BRANCH   1  21
HETATM   21  C4  UNL     1      18.768  11.996  23.012  1.00  0.00     0.111 C 
BRANCH  21  22
HETATM   22  N2  UNL     1      18.298  11.504  21.786  1.00  0.00    -0.220 N 
BRANCH  22  23
HETATM   23  C3  UNL     1      18.930  10.381  21.177  1.00  0.00     0.165 A 
HETATM   24  C2  UNL     1      18.465   9.596  20.115  1.00  0.00     0.163 A 
HETATM   25  N1  UNL     1      19.365   8.642  19.855  1.00  0.00    -0.290 N 
HETATM   26  C1  UNL     1      19.259   7.638  18.840  1.00  0.00     0.178 C 
HETATM   27  N4  UNL     1      20.350   8.807  20.702  1.00  0.00    -0.240 N 
HETATM   28  N3  UNL     1      20.118   9.831  21.498  1.00  0.00    -0.268 N 
ATOM     29  H4  UNL     1      21.185   8.222  20.741  1.00  0.00     0.208 HD
ATOM     30  H3  UNL     1      20.739  10.155  22.239  1.00  0.00     0.190 HD
ENDBRANCH  22  23
BRANCH  22  31
HETATM   31  O1  UNL     1      17.379  12.019  21.153  1.00  0.00    -0.282 OA
ATOM     32  H1  UNL     1      17.074  12.862  21.467  1.00  0.00     0.245 HD
ENDBRANCH  22  31
ENDBRANCH  21  22
ENDBRANCH   1  21
BRANCH  20  33
HETATM   33  O3  UNL     1      18.442  10.828  26.552  1.00  0.00    -0.388 OA
ATOM     34  H3  UNL     1      18.935  11.016  27.342  1.00  0.00     0.210 HD
ENDBRANCH  20  33
BRANCH   9  35
HETATM   35  O2  UNL     1      14.187  10.154  26.253  1.00  0.00    -0.389 OA
ATOM     36  H2  UNL     1      13.438   9.610  26.464  1.00  0.00     0.210 HD
ENDBRANCH   9  35
TORSDOF 6
ENDMDL
MODEL 5
REMARK VINA RESULT: -7.682502594      3.442      5.199
REMARK  6 active torsions:
REMARK  status: ('A' for Active; 'I' for Inactive)
REMARK    1  A    between atoms: C3_4  and  N2_5 
REMARK    2  A    between atoms: N2_5  and  O1_6 
REMARK    3  A    between atoms: N2_5  and  C4_8 
REMARK    4  A    between atoms: C4_8  and  C5_9 
REMARK    5  A    between atoms: C13_17  and  O2_19 
REMARK    6  A    between atoms: C23_30  and  O3_31 
ROOT
HETATM    1  C5  UNL     1      20.260  11.192  24.561  1.00  0.00     0.030 C 
HETATM    2  C6  UNL     1      21.025  12.490  24.586  1.00  0.00     0.019 C 
HETATM    3  C7  UNL     1      20.671  13.442  25.671  1.00  0.00     0.014 C 
HETATM    4  C8  UNL     1      21.045  12.818  26.994  1.00  0.00    -0.009 C 
HETATM    5  C9  UNL     1      22.555  12.994  27.188  1.00  0.00     0.018 C 
HETATM    6  C10 UNL     1      20.734  11.357  27.032  1.00  0.00     0.002 C 
HETATM    7  C11 UNL     1      20.229  11.168  28.431  1.00  0.00     0.009 C 
HETATM    8  C12 UNL     1      19.632  12.455  28.913  1.00  0.00     0.038 C 
HETATM    9  C13 UNL     1      20.370  13.504  28.128  1.00  0.00     0.062 C 
HETATM   10  C14 UNL     1      21.350  14.178  29.078  1.00  0.00     0.046 C 
HETATM   11  C15 UNL     1      19.767  10.882  26.006  1.00  0.00     0.007 C 
HETATM   12  C16 UNL     1      18.353  11.240  26.261  1.00  0.00     0.007 C 
HETATM   13  C17 UNL     1      17.411  10.541  25.332  1.00  0.00     0.008 C 
HETATM   14  C18 UNL     1      18.121  10.146  24.025  1.00  0.00     0.026 C 
HETATM   15  C19 UNL     1      17.037   9.881  23.044  1.00  0.00     0.058 C 
HETATM   16  C20 UNL     1      16.835  10.986  22.075  1.00  0.00     0.008 C 
HETATM   17 CL1  UNL     1      15.230  11.298  21.454  1.00  0.00    -0.089 Cl
HETATM   18  C21 UNL     1      17.834  11.725  21.681  1.00  0.00    -0.004 C 
HETATM   19  C22 UNL     1      19.211  11.428  22.234  1.00  0.00     0.068 C 
HETATM   20  C23 UNL     1      19.048  11.290  23.694  1.00  0.00     0.078 C 
ENDROOT
BRANCH   1  21
HETATM   21  C4  UNL     1      21.186  10.044  24.263  1.00  0.00     0.111 C 
BRANCH  21  22
HETATM   22  N2  UNL     1      22.548  10.279  24.030  1.00  0.00    -0.220 N 
BRANCH  22  23
HETATM   23  C3  UNL     1      23.056  10.271  22.699  1.00  0.00     0.165 A 
HETATM   24  C2  UNL     1      22.803  11.185  21.669  1.00  0.00     0.163 A 
HETATM   25  N1  UNL     1      23.478  10.807  20.578  1.00  0.00    -0.290 N 
HETATM   26  C1  UNL     1      23.482  11.480  19.315  1.00  0.00     0.178 C 
HETATM   27  N4  UNL     1      24.127   9.712  20.892  1.00  0.00    -0.240 N 
HETATM   28  N3  UNL     1      23.894   9.372  22.143  1.00  0.00    -0.268 N 
ATOM     29  H4  UNL     1      24.730   9.193  20.254  1.00  0.00     0.208 HD
ATOM     30  H3  UNL     1      24.286   8.558  22.616  1.00  0.00     0.190 HD
ENDBRANCH  22  23
BRANCH  22  31
HETATM   31  O1  UNL     1      23.373  10.449  24.925  1.00  0.00    -0.282 OA
ATOM     32  H1  UNL     1      23.023  10.599  25.795  1.00  0.00     0.245 HD
ENDBRANCH  22  31
ENDBRANCH  21  22
ENDBRANCH   1  21
BRANCH  20  33
HETATM   33  O3  UNL     1      18.389  12.522  24.057  1.00  0.00    -0.388 OA
ATOM     34  H3  UNL     1      18.521  12.629  24.992  1.00  0.00     0.210 HD
ENDBRANCH  20  33
BRANCH   9  35
HETATM   35  O2  UNL     1      19.482  14.512  27.731  1.00  0.00    -0.389 OA
ATOM     36  H2  UNL     1      18.595  14.205  27.582  1.00  0.00     0.210 HD
ENDBRANCH   9  35
TORSDOF 6
ENDMDL
