MODEL 1
REMARK VINA RESULT: -6.658228845      0.000      0.000
REMARK  3 active torsions:
REMARK  status: ('A' for Active; 'I' for Inactive)
REMARK    1  A    between atoms: C2_3  and  N1_4 
REMARK    2  A    between atoms: N1_4  and  C3_6 
REMARK    3  A    between atoms: N4_15  and  C8_16 
ROOT
HETATM    1  O1  UNL     1     -27.903 -15.906  12.693  1.00  0.00    -0.262 OA
HETATM    2  C1  UNL     1     -28.199 -15.269  11.646  1.00  0.00     0.308 A 
HETATM    3  C2  UNL     1     -28.135 -15.767  10.364  1.00  0.00     0.188 A 
HETATM    4  N2  UNL     1     -28.534 -14.768   9.562  1.00  0.00    -0.266 N 
ATOM      5  H2  UNL     1     -28.599 -14.817   8.545  1.00  0.00     0.190 HD
HETATM    6  N3  UNL     1     -28.834 -13.698  10.309  1.00  0.00    -0.235 N 
ATOM      7  H3  UNL     1     -29.164 -12.801   9.952  1.00  0.00     0.208 HD
HETATM    8  N4  UNL     1     -28.635 -13.988  11.573  1.00  0.00    -0.235 N 
ENDROOT
BRANCH   8   9
HETATM    9  C8  UNL     1     -28.823 -13.152  12.736  1.00  0.00     0.116 C 
HETATM   10  C9  UNL     1     -30.272 -12.919  13.038  1.00  0.00     0.055 C 
HETATM   11  C10 UNL     1     -30.357 -12.034  14.263  1.00  0.00     0.234 C 
HETATM   12  N5  UNL     1     -29.704 -10.771  14.088  1.00  0.00    -0.075 N 
HETATM   13  C11 UNL     1     -28.348 -10.864  13.630  1.00  0.00     0.234 C 
ATOM     14  H52 UNL     1     -30.248 -10.172  13.468  1.00  0.00     0.277 HD
ATOM     15  H51 UNL     1     -29.753 -10.223  14.947  1.00  0.00     0.277 HD
HETATM   16  C12 UNL     1     -28.184 -11.802  12.459  1.00  0.00     0.055 C 
ENDBRANCH   8   9
BRANCH   3  17
HETATM   17  N1  UNL     1     -27.738 -17.054   9.907  1.00  0.00    -0.366 N 
ATOM     18  H1  UNL     1     -26.765 -17.192   9.637  1.00  0.00     0.161 HD
BRANCH  17  19
HETATM   19  C3  UNL     1     -28.629 -18.161   9.807  1.00  0.00     0.083 C 
HETATM   20  C4  UNL     1     -29.911 -17.695   9.104  1.00  0.00     0.025 C 
HETATM   21  C5  UNL     1     -30.916 -18.695   9.646  1.00  0.00     0.002 C 
HETATM   22  C6  UNL     1     -30.584 -18.647  11.141  1.00  0.00     0.002 C 
HETATM   23  C7  UNL     1     -29.061 -18.611  11.170  1.00  0.00     0.025 C 
ENDBRANCH  17  19
ENDBRANCH   3  17
TORSDOF 3
ENDMDL
MODEL 2
REMARK VINA RESULT: -6.599339216      1.371      5.960
REMARK  3 active torsions:
REMARK  status: ('A' for Active; 'I' for Inactive)
REMARK    1  A    between atoms: C2_3  and  N1_4 
REMARK    2  A    between atoms: N1_4  and  C3_6 
REMARK    3  A    between atoms: N4_15  and  C8_16 
ROOT
HETATM    1  O1  UNL     1     -28.175 -15.491  12.926  1.00  0.00    -0.262 OA
HETATM    2  C1  UNL     1     -28.351 -14.926  11.812  1.00  0.00     0.308 A 
HETATM    3  C2  UNL     1     -28.285 -13.570  11.587  1.00  0.00     0.188 A 
HETATM    4  N2  UNL     1     -28.530 -13.402  10.279  1.00  0.00    -0.266 N 
ATOM      5  H2  UNL     1     -28.554 -12.506   9.792  1.00  0.00     0.190 HD
HETATM    6  N3  UNL     1     -28.738 -14.599   9.714  1.00  0.00    -0.235 N 
ATOM      7  H3  UNL     1     -28.946 -14.760   8.729  1.00  0.00     0.208 HD
HETATM    8  N4  UNL     1     -28.633 -15.530  10.633  1.00  0.00    -0.235 N 
ENDROOT
BRANCH   8   9
HETATM    9  C8  UNL     1     -28.775 -16.961  10.495  1.00  0.00     0.116 C 
HETATM   10  C9  UNL     1     -29.294 -17.351   9.145  1.00  0.00     0.055 C 
HETATM   11  C10 UNL     1     -29.411 -18.860   9.107  1.00  0.00     0.234 C 
HETATM   12  N5  UNL     1     -30.285 -19.380  10.116  1.00  0.00    -0.075 N 
HETATM   13  C11 UNL     1     -29.987 -18.933  11.446  1.00  0.00     0.234 C 
ATOM     14  H52 UNL     1     -31.257 -19.178   9.882  1.00  0.00     0.277 HD
ATOM     15  H51 UNL     1     -30.305 -20.399  10.079  1.00  0.00     0.277 HD
HETATM   16  C12 UNL     1     -29.776 -17.441  11.533  1.00  0.00     0.055 C 
ENDBRANCH   8   9
BRANCH   3  17
HETATM   17  N1  UNL     1     -28.020 -12.508  12.496  1.00  0.00    -0.366 N 
ATOM     18  H1  UNL     1     -27.079 -12.118  12.523  1.00  0.00     0.161 HD
BRANCH  17  19
HETATM   19  C3  UNL     1     -29.001 -11.960  13.372  1.00  0.00     0.083 C 
HETATM   20  C4  UNL     1     -28.717 -12.455  14.796  1.00  0.00     0.025 C 
HETATM   21  C5  UNL     1     -30.101 -12.365  15.413  1.00  0.00     0.002 C 
HETATM   22  C6  UNL     1     -30.941 -13.040  14.325  1.00  0.00     0.002 C 
HETATM   23  C7  UNL     1     -30.362 -12.485  13.029  1.00  0.00     0.025 C 
ENDBRANCH  17  19
ENDBRANCH   3  17
TORSDOF 3
ENDMDL
MODEL 3
REMARK VINA RESULT: -6.473478375      2.325      6.552
REMARK  3 active torsions:
REMARK  status: ('A' for Active; 'I' for Inactive)
REMARK    1  A    between atoms: C2_3  and  N1_4 
REMARK    2  A    between atoms: N1_4  and  C3_6 
REMARK    3  A    between atoms: N4_15  and  C8_16 
ROOT
HETATM    1  O1  UNL     1     -27.190 -14.875   9.641  1.00  0.00    -0.262 OA
HETATM    2  C1  UNL     1     -28.045 -14.648  10.539  1.00  0.00     0.308 A 
HETATM    3  C2  UNL     1     -28.277 -13.427  11.130  1.00  0.00     0.188 A 
HETATM    4  N2  UNL     1     -29.259 -13.631  12.021  1.00  0.00    -0.266 N 
ATOM      5  H2  UNL     1     -29.664 -12.917  12.628  1.00  0.00     0.190 HD
HETATM    6  N3  UNL     1     -29.623 -14.919  11.987  1.00  0.00    -0.235 N 
ATOM      7  H3  UNL     1     -30.348 -15.345  12.563  1.00  0.00     0.208 HD
HETATM    8  N4  UNL     1     -28.894 -15.547  11.094  1.00  0.00    -0.235 N 
ENDROOT
BRANCH   8   9
HETATM    9  C8  UNL     1     -28.929 -16.939  10.710  1.00  0.00     0.116 C 
HETATM   10  C9  UNL     1     -29.513 -17.136   9.345  1.00  0.00     0.055 C 
HETATM   11  C10 UNL     1     -29.508 -18.620   9.045  1.00  0.00     0.234 C 
HETATM   12  N5  UNL     1     -30.260 -19.386   9.993  1.00  0.00    -0.075 N 
HETATM   13  C11 UNL     1     -29.902 -19.150  11.362  1.00  0.00     0.234 C 
ATOM     14  H52 UNL     1     -31.260 -19.239   9.857  1.00  0.00     0.277 HD
ATOM     15  H51 UNL     1     -30.199 -20.381   9.776  1.00  0.00     0.277 HD
HETATM   16  C12 UNL     1     -29.807 -17.683  11.702  1.00  0.00     0.055 C 
ENDBRANCH   8   9
BRANCH   3  17
HETATM   17  N1  UNL     1     -27.651 -12.171  10.899  1.00  0.00    -0.366 N 
ATOM     18  H1  UNL     1     -28.041 -11.561  10.182  1.00  0.00     0.161 HD
BRANCH  17  19
HETATM   19  C3  UNL     1     -26.507 -11.719  11.618  1.00  0.00     0.083 C 
HETATM   20  C4  UNL     1     -26.331 -10.216  11.364  1.00  0.00     0.025 C 
HETATM   21  C5  UNL     1     -24.841 -10.056  11.600  1.00  0.00     0.002 C 
HETATM   22  C6  UNL     1     -24.296 -11.226  10.775  1.00  0.00     0.002 C 
HETATM   23  C7  UNL     1     -25.264 -12.363  11.083  1.00  0.00     0.025 C 
ENDBRANCH  17  19
ENDBRANCH   3  17
TORSDOF 3
ENDMDL
MODEL 4
REMARK VINA RESULT: -6.428089049      3.564      6.513
REMARK  3 active torsions:
REMARK  status: ('A' for Active; 'I' for Inactive)
REMARK    1  A    between atoms: C2_3  and  N1_4 
REMARK    2  A    between atoms: N1_4  and  C3_6 
REMARK    3  A    between atoms: N4_15  and  C8_16 
ROOT
HETATM    1  O1  UNL     1     -26.115 -16.898   9.215  1.00  0.00    -0.262 OA
HETATM    2  C1  UNL     1     -26.537 -16.458  10.319  1.00  0.00     0.308 A 
HETATM    3  C2  UNL     1     -25.900 -15.522  11.101  1.00  0.00     0.188 A 
HETATM    4  N2  UNL     1     -26.685 -15.343  12.174  1.00  0.00    -0.266 N 
ATOM      5  H2  UNL     1     -26.492 -14.708  12.949  1.00  0.00     0.190 HD
HETATM    6  N3  UNL     1     -27.763 -16.132  12.066  1.00  0.00    -0.235 N 
ATOM      7  H3  UNL     1     -28.522 -16.193  12.744  1.00  0.00     0.208 HD
HETATM    8  N4  UNL     1     -27.685 -16.813  10.946  1.00  0.00    -0.235 N 
ENDROOT
BRANCH   8   9
HETATM    9  C8  UNL     1     -28.611 -17.781  10.408  1.00  0.00     0.116 C 
HETATM   10  C9  UNL     1     -29.531 -17.181   9.389  1.00  0.00     0.055 C 
HETATM   11  C10 UNL     1     -30.457 -18.271   8.896  1.00  0.00     0.234 C 
HETATM   12  N5  UNL     1     -31.236 -18.862   9.943  1.00  0.00    -0.075 N 
HETATM   13  C11 UNL     1     -30.468 -19.325  11.063  1.00  0.00     0.234 C 
ATOM     14  H52 UNL     1     -31.963 -18.218  10.252  1.00  0.00     0.277 HD
ATOM     15  H51 UNL     1     -31.816 -19.615   9.573  1.00  0.00     0.277 HD
HETATM   16  C12 UNL     1     -29.463 -18.309  11.549  1.00  0.00     0.055 C 
ENDBRANCH   8   9
BRANCH   3  17
HETATM   17  N1  UNL     1     -24.668 -14.843  10.886  1.00  0.00    -0.366 N 
ATOM     18  H1  UNL     1     -23.933 -14.943  11.585  1.00  0.00     0.161 HD
BRANCH  17  19
HETATM   19  C3  UNL     1     -24.407 -14.031   9.745  1.00  0.00     0.083 C 
HETATM   20  C4  UNL     1     -23.334 -14.718   8.890  1.00  0.00     0.025 C 
HETATM   21  C5  UNL     1     -22.732 -13.526   8.170  1.00  0.00     0.002 C 
HETATM   22  C6  UNL     1     -22.535 -12.558   9.341  1.00  0.00     0.002 C 
HETATM   23  C7  UNL     1     -23.809 -12.721  10.160  1.00  0.00     0.025 C 
ENDBRANCH  17  19
ENDBRANCH   3  17
TORSDOF 3
ENDMDL
MODEL 5
REMARK VINA RESULT: -6.412102272      1.942      6.685
REMARK  3 active torsions:
REMARK  status: ('A' for Active; 'I' for Inactive)
REMARK    1  A    between atoms: C2_3  and  N1_4 
REMARK    2  A    between atoms: N1_4  and  C3_6 
REMARK    3  A    between atoms: N4_15  and  C8_16 
ROOT
HETATM    1  O1  UNL     1     -27.270 -14.797   9.696  1.00  0.00    -0.262 OA
HETATM    2  C1  UNL     1     -28.127 -14.611  10.602  1.00  0.00     0.308 A 
HETATM    3  C2  UNL     1     -28.393 -13.408  11.216  1.00  0.00     0.188 A 
HETATM    4  N2  UNL     1     -29.364 -13.656  12.107  1.00  0.00    -0.266 N 
ATOM      5  H2  UNL     1     -29.787 -12.966  12.728  1.00  0.00     0.190 HD
HETATM    6  N3  UNL     1     -29.689 -14.954  12.052  1.00  0.00    -0.235 N 
ATOM      7  H3  UNL     1     -30.400 -15.411  12.624  1.00  0.00     0.208 HD
HETATM    8  N4  UNL     1     -28.947 -15.544  11.145  1.00  0.00    -0.235 N 
ENDROOT
BRANCH   8   9
HETATM    9  C8  UNL     1     -28.942 -16.930  10.737  1.00  0.00     0.116 C 
HETATM   10  C9  UNL     1     -29.509 -17.118   9.363  1.00  0.00     0.055 C 
HETATM   11  C10 UNL     1     -29.463 -18.595   9.037  1.00  0.00     0.234 C 
HETATM   12  N5  UNL     1     -30.204 -19.397   9.965  1.00  0.00    -0.075 N 
HETATM   13  C11 UNL     1     -29.864 -19.176  11.341  1.00  0.00     0.234 C 
ATOM     14  H52 UNL     1     -31.206 -19.273   9.822  1.00  0.00     0.277 HD
ATOM     15  H51 UNL     1     -30.115 -20.386   9.731  1.00  0.00     0.277 HD
HETATM   16  C12 UNL     1     -29.810 -17.713  11.707  1.00  0.00     0.055 C 
ENDBRANCH   8   9
BRANCH   3  17
HETATM   17  N1  UNL     1     -27.804 -12.130  11.004  1.00  0.00    -0.366 N 
ATOM     18  H1  UNL     1     -28.050 -11.619  10.157  1.00  0.00     0.161 HD
BRANCH  17  19
HETATM   19  C3  UNL     1     -26.891 -11.525  11.915  1.00  0.00     0.083 C 
HETATM   20  C4  UNL     1     -27.693 -10.741  12.963  1.00  0.00     0.025 C 
HETATM   21  C5  UNL     1     -26.672  -9.701  13.387  1.00  0.00     0.002 C 
HETATM   22  C6  UNL     1     -26.173  -9.220  12.021  1.00  0.00     0.002 C 
HETATM   23  C7  UNL     1     -26.047 -10.506  11.212  1.00  0.00     0.025 C 
ENDBRANCH  17  19
ENDBRANCH   3  17
TORSDOF 3
ENDMDL
