MODEL 1
REMARK VINA RESULT: -3.986164601      0.000      0.000
REMARK  8 active torsions:
REMARK  status: ('A' for Active; 'I' for Inactive)
REMARK    1  A    between atoms: C2_7  and  N3_8 
REMARK    2  A    between atoms: N3_8  and  C3_10 
REMARK    3  A    between atoms: C3_10  and  C4_11 
REMARK    4  A    between atoms: C8_20  and  C9_21 
REMARK    5  A    between atoms: C9_21  and  C10_22 
REMARK    6  A    between atoms: C10_22  and  C11_23 
REMARK    7  A    between atoms: C11_23  and  C12_24 
REMARK    8  A    between atoms: C12_24  and  O2_25 
ROOT
HETATM    1  N1  UNL     1     -24.518   3.598 -21.386  1.00  0.00    -0.385 N 
ATOM      2  H11 UNL     1     -25.525   3.718 -21.493  1.00  0.00     0.157 HD
ATOM      3  H12 UNL     1     -24.106   3.278 -20.509  1.00  0.00     0.157 HD
HETATM    4  C1  UNL     1     -23.845   3.950 -22.424  1.00  0.00     0.122 A 
HETATM    5  N2  UNL     1     -22.487   3.788 -22.279  1.00  0.00    -0.177 N 
ATOM      6  H2  UNL     1     -22.100   3.470 -21.390  1.00  0.00     0.186 HD
HETATM    7  C2  UNL     1     -21.675   4.049 -23.309  1.00  0.00     0.679 A 
HETATM    8  N5  UNL     1     -22.172   4.467 -24.487  1.00  0.00    -0.201 N 
ATOM      9  H5  UNL     1     -21.542   4.660 -25.266  1.00  0.00     0.183 HD
HETATM   10  C7  UNL     1     -23.487   4.630 -24.637  1.00  0.00     0.117 A 
HETATM   11  C8  UNL     1     -24.390   4.372 -23.583  1.00  0.00     0.002 A 
ENDROOT
BRANCH   7  12
HETATM   12  N3  UNL     1     -20.398   3.895 -23.169  1.00  0.00    -0.218 N 
ATOM     13  H3  UNL     1     -20.011   2.969 -22.985  1.00  0.00     0.178 HD
BRANCH  12  14
HETATM   14  C3  UNL     1     -19.535   5.026 -23.272  1.00  0.00     0.222 C 
BRANCH  14  15
HETATM   15  C4  UNL     1     -20.164   6.271 -22.740  1.00  0.00     0.141 A 
HETATM   16  N4  UNL     1     -20.623   7.338 -23.425  1.00  0.00    -0.347 N 
HETATM   17  C5  UNL     1     -21.107   8.219 -22.535  1.00  0.00     0.114 A 
ATOM     18  H4  UNL     1     -20.606   7.455 -24.438  1.00  0.00     0.167 HD
HETATM   19  C6  UNL     1     -20.915   7.626 -21.287  1.00  0.00     0.161 A 
HETATM   20  O1  UNL     1     -20.345   6.452 -21.447  1.00  0.00    -0.307 OA
ENDBRANCH  14  15
ENDBRANCH  12  14
ENDBRANCH   7  12
BRANCH  11  21
HETATM   21  C9  UNL     1     -25.810   4.688 -23.821  1.00  0.00     0.044 C 
BRANCH  21  22
HETATM   22  C10 UNL     1     -26.703   3.536 -24.083  1.00  0.00     0.007 C 
BRANCH  22  23
HETATM   23  C11 UNL     1     -26.181   2.190 -24.289  1.00  0.00     0.026 C 
BRANCH  23  24
HETATM   24  C12 UNL     1     -27.126   1.097 -24.637  1.00  0.00     0.164 C 
BRANCH  24  25
HETATM   25  O2  UNL     1     -28.445   1.450 -24.262  1.00  0.00    -0.401 OA
ATOM     26  H2  UNL     1     -28.905   0.692 -23.922  1.00  0.00     0.209 HD
ENDBRANCH  24  25
ENDBRANCH  23  24
ENDBRANCH  22  23
ENDBRANCH  21  22
ENDBRANCH  11  21
TORSDOF 8
ENDMDL
MODEL 2
REMARK VINA RESULT: -3.590600575      2.129      6.753
REMARK  8 active torsions:
REMARK  status: ('A' for Active; 'I' for Inactive)
REMARK    1  A    between atoms: C2_7  and  N3_8 
REMARK    2  A    between atoms: N3_8  and  C3_10 
REMARK    3  A    between atoms: C3_10  and  C4_11 
REMARK    4  A    between atoms: C8_20  and  C9_21 
REMARK    5  A    between atoms: C9_21  and  C10_22 
REMARK    6  A    between atoms: C10_22  and  C11_23 
REMARK    7  A    between atoms: C11_23  and  C12_24 
REMARK    8  A    between atoms: C12_24  and  O2_25 
ROOT
HETATM    1  N1  UNL     1     -23.403   6.201 -20.069  1.00  0.00    -0.385 N 
ATOM      2  H11 UNL     1     -22.720   6.818 -19.631  1.00  0.00     0.157 HD
ATOM      3  H12 UNL     1     -23.941   5.524 -19.527  1.00  0.00     0.157 HD
HETATM    4  C1  UNL     1     -23.457   6.320 -21.349  1.00  0.00     0.122 A 
HETATM    5  N2  UNL     1     -24.379   5.487 -21.940  1.00  0.00    -0.177 N 
ATOM      6  H2  UNL     1     -24.901   4.817 -21.376  1.00  0.00     0.186 HD
HETATM    7  C2  UNL     1     -24.587   5.560 -23.259  1.00  0.00     0.679 A 
HETATM    8  N5  UNL     1     -23.907   6.441 -24.015  1.00  0.00    -0.201 N 
ATOM      9  H5  UNL     1     -24.077   6.489 -25.019  1.00  0.00     0.183 HD
HETATM   10  C7  UNL     1     -23.009   7.251 -23.452  1.00  0.00     0.117 A 
HETATM   11  C8  UNL     1     -22.747   7.215 -22.065  1.00  0.00     0.002 A 
ENDROOT
BRANCH   7  12
HETATM   12  N3  UNL     1     -25.455   4.775 -23.811  1.00  0.00    -0.218 N 
ATOM     13  H3  UNL     1     -26.331   5.153 -24.172  1.00  0.00     0.178 HD
BRANCH  12  14
HETATM   14  C3  UNL     1     -25.180   3.379 -23.913  1.00  0.00     0.222 C 
BRANCH  14  15
HETATM   15  C4  UNL     1     -26.408   2.578 -24.191  1.00  0.00     0.141 A 
HETATM   16  N4  UNL     1     -27.658   3.019 -24.445  1.00  0.00    -0.347 N 
HETATM   17  C5  UNL     1     -28.441   1.945 -24.636  1.00  0.00     0.114 A 
ATOM     18  H4  UNL     1     -27.955   3.994 -24.484  1.00  0.00     0.167 HD
HETATM   19  C6  UNL     1     -27.598   0.844 -24.485  1.00  0.00     0.161 A 
HETATM   20  O1  UNL     1     -26.380   1.261 -24.218  1.00  0.00    -0.307 OA
ENDBRANCH  14  15
ENDBRANCH  12  14
ENDBRANCH   7  12
BRANCH  11  21
HETATM   21  C9  UNL     1     -21.660   8.075 -21.564  1.00  0.00     0.044 C 
BRANCH  21  22
HETATM   22  C10 UNL     1     -20.484   8.230 -22.452  1.00  0.00     0.007 C 
BRANCH  22  23
HETATM   23  C11 UNL     1     -19.512   7.159 -22.635  1.00  0.00     0.026 C 
BRANCH  23  24
HETATM   24  C12 UNL     1     -19.419   6.090 -21.607  1.00  0.00     0.164 C 
BRANCH  24  25
HETATM   25  O2  UNL     1     -20.169   4.957 -22.006  1.00  0.00    -0.401 OA
ATOM     26  H2  UNL     1     -20.910   4.831 -21.425  1.00  0.00     0.209 HD
ENDBRANCH  24  25
ENDBRANCH  23  24
ENDBRANCH  22  23
ENDBRANCH  21  22
ENDBRANCH  11  21
TORSDOF 8
ENDMDL
MODEL 3
REMARK VINA RESULT: -2.797988733      2.369      5.762
REMARK  8 active torsions:
REMARK  status: ('A' for Active; 'I' for Inactive)
REMARK    1  A    between atoms: C2_7  and  N3_8 
REMARK    2  A    between atoms: N3_8  and  C3_10 
REMARK    3  A    between atoms: C3_10  and  C4_11 
REMARK    4  A    between atoms: C8_20  and  C9_21 
REMARK    5  A    between atoms: C9_21  and  C10_22 
REMARK    6  A    between atoms: C10_22  and  C11_23 
REMARK    7  A    between atoms: C11_23  and  C12_24 
REMARK    8  A    between atoms: C12_24  and  O2_25 
ROOT
HETATM    1  N1  UNL     1     -23.001   5.830 -20.747  1.00  0.00    -0.385 N 
ATOM      2  H11 UNL     1     -22.152   5.796 -20.183  1.00  0.00     0.157 HD
ATOM      3  H12 UNL     1     -23.819   5.264 -20.521  1.00  0.00     0.157 HD
HETATM    4  C1  UNL     1     -22.901   6.589 -21.781  1.00  0.00     0.122 A 
HETATM    5  N2  UNL     1     -24.046   6.635 -22.542  1.00  0.00    -0.177 N 
ATOM      6  H2  UNL     1     -24.849   6.056 -22.296  1.00  0.00     0.186 HD
HETATM    7  C2  UNL     1     -24.102   7.443 -23.606  1.00  0.00     0.679 A 
HETATM    8  N5  UNL     1     -23.051   8.213 -23.941  1.00  0.00    -0.201 N 
ATOM      9  H5  UNL     1     -23.107   8.827 -24.753  1.00  0.00     0.183 HD
HETATM   10  C7  UNL     1     -21.935   8.174 -23.211  1.00  0.00     0.117 A 
HETATM   11  C8  UNL     1     -21.820   7.338 -22.079  1.00  0.00     0.002 A 
ENDROOT
BRANCH   7  12
HETATM   12  N3  UNL     1     -25.181   7.483 -24.319  1.00  0.00    -0.218 N 
ATOM     13  H3  UNL     1     -25.542   8.377 -24.652  1.00  0.00     0.178 HD
BRANCH  12  14
HETATM   14  C3  UNL     1     -25.863   6.271 -24.637  1.00  0.00     0.222 C 
BRANCH  14  15
HETATM   15  C4  UNL     1     -25.110   5.062 -24.190  1.00  0.00     0.141 A 
HETATM   16  N4  UNL     1     -23.924   4.598 -24.637  1.00  0.00    -0.347 N 
HETATM   17  C5  UNL     1     -23.632   3.486 -23.945  1.00  0.00     0.114 A 
ATOM     18  H4  UNL     1     -23.352   5.019 -25.370  1.00  0.00     0.167 HD
HETATM   19  C6  UNL     1     -24.699   3.308 -23.065  1.00  0.00     0.161 A 
HETATM   20  O1  UNL     1     -25.572   4.277 -23.238  1.00  0.00    -0.307 OA
ENDBRANCH  14  15
ENDBRANCH  12  14
ENDBRANCH   7  12
BRANCH  11  21
HETATM   21  C9  UNL     1     -20.508   7.290 -21.409  1.00  0.00     0.044 C 
BRANCH  21  22
HETATM   22  C10 UNL     1     -19.614   6.174 -21.799  1.00  0.00     0.007 C 
BRANCH  22  23
HETATM   23  C11 UNL     1     -19.317   5.879 -23.195  1.00  0.00     0.026 C 
BRANCH  23  24
HETATM   24  C12 UNL     1     -19.436   4.478 -23.676  1.00  0.00     0.164 C 
BRANCH  24  25
HETATM   25  O2  UNL     1     -20.604   4.326 -24.462  1.00  0.00    -0.401 OA
ATOM     26  H2  UNL     1     -21.329   4.797 -24.070  1.00  0.00     0.209 HD
ENDBRANCH  24  25
ENDBRANCH  23  24
ENDBRANCH  22  23
ENDBRANCH  21  22
ENDBRANCH  11  21
TORSDOF 8
ENDMDL
MODEL 4
REMARK VINA RESULT: -2.519231167      9.384     11.081
REMARK  8 active torsions:
REMARK  status: ('A' for Active; 'I' for Inactive)
REMARK    1  A    between atoms: C2_7  and  N3_8 
REMARK    2  A    between atoms: N3_8  and  C3_10 
REMARK    3  A    between atoms: C3_10  and  C4_11 
REMARK    4  A    between atoms: C8_20  and  C9_21 
REMARK    5  A    between atoms: C9_21  and  C10_22 
REMARK    6  A    between atoms: C10_22  and  C11_23 
REMARK    7  A    between atoms: C11_23  and  C12_24 
REMARK    8  A    between atoms: C12_24  and  O2_25 
ROOT
HETATM    1  N1  UNL     1     -30.328  -3.395 -16.093  1.00  0.00    -0.385 N 
ATOM      2  H11 UNL     1     -31.193  -3.191 -15.592  1.00  0.00     0.157 HD
ATOM      3  H12 UNL     1     -30.307  -4.030 -16.891  1.00  0.00     0.157 HD
HETATM    4  C1  UNL     1     -29.292  -2.836 -15.577  1.00  0.00     0.122 A 
HETATM    5  N2  UNL     1     -28.125  -3.112 -16.252  1.00  0.00    -0.177 N 
ATOM      6  H2  UNL     1     -28.131  -3.752 -17.045  1.00  0.00     0.186 HD
HETATM    7  C2  UNL     1     -26.982  -2.534 -15.863  1.00  0.00     0.679 A 
HETATM    8  N5  UNL     1     -26.961  -1.686 -14.820  1.00  0.00    -0.201 N 
ATOM      9  H5  UNL     1     -26.084  -1.250 -14.535  1.00  0.00     0.183 HD
HETATM   10  C7  UNL     1     -28.087  -1.414 -14.157  1.00  0.00     0.117 A 
HETATM   11  C8  UNL     1     -29.320  -1.996 -14.522  1.00  0.00     0.002 A 
ENDROOT
BRANCH   7  12
HETATM   12  N3  UNL     1     -25.888  -2.796 -16.501  1.00  0.00    -0.218 N 
ATOM     13  H3  UNL     1     -25.367  -3.649 -16.296  1.00  0.00     0.178 HD
BRANCH  12  14
HETATM   14  C3  UNL     1     -25.413  -1.887 -17.492  1.00  0.00     0.222 C 
BRANCH  14  15
HETATM   15  C4  UNL     1     -25.781  -0.472 -17.187  1.00  0.00     0.141 A 
HETATM   16  N4  UNL     1     -26.929   0.176 -17.471  1.00  0.00    -0.347 N 
HETATM   17  C5  UNL     1     -26.816   1.431 -17.008  1.00  0.00     0.114 A 
ATOM     18  H4  UNL     1     -27.739  -0.217 -17.951  1.00  0.00     0.167 HD
HETATM   19  C6  UNL     1     -25.546   1.500 -16.436  1.00  0.00     0.161 A 
HETATM   20  O1  UNL     1     -24.949   0.335 -16.560  1.00  0.00    -0.307 OA
ENDBRANCH  14  15
ENDBRANCH  12  14
ENDBRANCH   7  12
BRANCH  11  21
HETATM   21  C9  UNL     1     -30.479  -1.714 -13.657  1.00  0.00     0.044 C 
BRANCH  21  22
HETATM   22  C10 UNL     1     -31.069  -0.360 -13.774  1.00  0.00     0.007 C 
BRANCH  22  23
HETATM   23  C11 UNL     1     -30.732   0.533 -14.876  1.00  0.00     0.026 C 
BRANCH  23  24
HETATM   24  C12 UNL     1     -29.643   1.526 -14.690  1.00  0.00     0.164 C 
BRANCH  24  25
HETATM   25  O2  UNL     1     -29.286   1.614 -13.323  1.00  0.00    -0.401 OA
ATOM     26  H2  UNL     1     -28.342   1.668 -13.231  1.00  0.00     0.209 HD
ENDBRANCH  24  25
ENDBRANCH  23  24
ENDBRANCH  22  23
ENDBRANCH  21  22
ENDBRANCH  11  21
TORSDOF 8
ENDMDL
MODEL 5
REMARK VINA RESULT: -2.360232426      9.085     10.936
REMARK  8 active torsions:
REMARK  status: ('A' for Active; 'I' for Inactive)
REMARK    1  A    between atoms: C2_7  and  N3_8 
REMARK    2  A    between atoms: N3_8  and  C3_10 
REMARK    3  A    between atoms: C3_10  and  C4_11 
REMARK    4  A    between atoms: C8_20  and  C9_21 
REMARK    5  A    between atoms: C9_21  and  C10_22 
REMARK    6  A    between atoms: C10_22  and  C11_23 
REMARK    7  A    between atoms: C11_23  and  C12_24 
REMARK    8  A    between atoms: C12_24  and  O2_25 
ROOT
HETATM    1  N1  UNL     1     -27.950  -0.084 -13.565  1.00  0.00    -0.385 N 
ATOM      2  H11 UNL     1     -28.762   0.322 -13.100  1.00  0.00     0.157 HD
ATOM      3  H12 UNL     1     -27.010   0.284 -13.423  1.00  0.00     0.157 HD
HETATM    4  C1  UNL     1     -28.247  -1.036 -14.378  1.00  0.00     0.122 A 
HETATM    5  N2  UNL     1     -27.152  -1.584 -15.006  1.00  0.00    -0.177 N 
ATOM      6  H2  UNL     1     -26.223  -1.195 -14.848  1.00  0.00     0.186 HD
HETATM    7  C2  UNL     1     -27.312  -2.630 -15.823  1.00  0.00     0.679 A 
HETATM    8  N5  UNL     1     -28.532  -3.154 -16.038  1.00  0.00    -0.201 N 
ATOM      9  H5  UNL     1     -28.641  -3.954 -16.662  1.00  0.00     0.183 HD
HETATM   10  C7  UNL     1     -29.601  -2.629 -15.437  1.00  0.00     0.117 A 
HETATM   11  C8  UNL     1     -29.491  -1.523 -14.566  1.00  0.00     0.002 A 
ENDROOT
BRANCH   7  12
HETATM   12  N3  UNL     1     -26.280  -3.142 -16.411  1.00  0.00    -0.218 N 
ATOM     13  H3  UNL     1     -25.981  -4.092 -16.187  1.00  0.00     0.178 HD
BRANCH  12  14
HETATM   14  C3  UNL     1     -25.562  -2.373 -17.375  1.00  0.00     0.222 C 
BRANCH  14  15
HETATM   15  C4  UNL     1     -25.809  -0.908 -17.229  1.00  0.00     0.141 A 
HETATM   16  N4  UNL     1     -25.011   0.027 -16.674  1.00  0.00    -0.347 N 
HETATM   17  C5  UNL     1     -25.639   1.210 -16.766  1.00  0.00     0.114 A 
ATOM     18  H4  UNL     1     -24.093  -0.136 -16.259  1.00  0.00     0.167 HD
HETATM   19  C6  UNL     1     -26.850   0.935 -17.402  1.00  0.00     0.161 A 
HETATM   20  O1  UNL     1     -26.920  -0.351 -17.668  1.00  0.00    -0.307 OA
ENDBRANCH  14  15
ENDBRANCH  12  14
ENDBRANCH   7  12
BRANCH  11  21
HETATM   21  C9  UNL     1     -30.744  -0.953 -14.041  1.00  0.00     0.044 C 
BRANCH  21  22
HETATM   22  C10 UNL     1     -30.763   0.515 -13.841  1.00  0.00     0.007 C 
BRANCH  22  23
HETATM   23  C11 UNL     1     -31.040   1.435 -14.937  1.00  0.00     0.026 C 
BRANCH  23  24
HETATM   24  C12 UNL     1     -29.929   1.835 -15.840  1.00  0.00     0.164 C 
BRANCH  24  25
HETATM   25  O2  UNL     1     -28.774   2.154 -15.085  1.00  0.00    -0.401 OA
ATOM     26  H2  UNL     1     -29.020   2.533 -14.250  1.00  0.00     0.209 HD
ENDBRANCH  24  25
ENDBRANCH  23  24
ENDBRANCH  22  23
ENDBRANCH  21  22
ENDBRANCH  11  21
TORSDOF 8
ENDMDL
