MODEL 1
REMARK VINA RESULT: -4.837158226      0.000      0.000
REMARK  3 active torsions:
REMARK  status: ('A' for Active; 'I' for Inactive)
REMARK    1  A    between atoms: C2_2  and  C3_3 
REMARK    2  A    between atoms: C3_3  and  O1_4 
REMARK    3  A    between atoms: O1_4  and  C4_5 
ROOT
HETATM    1  C4  UNL     1      -9.859 -32.378  16.091  1.00  0.00     0.159 A 
HETATM    2  C5  UNL     1      -8.727 -33.197  15.972  1.00  0.00     0.145 A 
HETATM    3  N1  UNL     1      -7.864 -32.622  15.141  1.00  0.00    -0.358 N 
ATOM      4  H1  UNL     1      -6.956 -32.999  14.871  1.00  0.00     0.166 HD
HETATM    5  C6  UNL     1      -8.385 -31.470  14.717  1.00  0.00     0.182 A 
HETATM    6  N2  UNL     1      -9.588 -31.330  15.295  1.00  0.00    -0.332 N 
ATOM      7  H2  UNL     1     -10.211 -30.536  15.149  1.00  0.00     0.168 HD
ENDROOT
BRANCH   1   8
HETATM    8  O1  UNL     1     -10.978 -32.631  16.865  1.00  0.00    -0.331 OA
BRANCH   8   9
HETATM    9  C3  UNL     1     -11.310 -31.747  17.905  1.00  0.00     0.204 C 
BRANCH   9  10
HETATM   10  C2  UNL     1     -10.259 -31.605  18.938  1.00  0.00    -0.011 C 
HETATM   11  C1  UNL     1     -10.055 -32.603  19.760  1.00  0.00     0.009 C 
ENDBRANCH   9  10
ENDBRANCH   8   9
ENDBRANCH   1   8
TORSDOF 3
ENDMDL
MODEL 2
REMARK VINA RESULT: -4.831708227      1.604      1.956
REMARK  3 active torsions:
REMARK  status: ('A' for Active; 'I' for Inactive)
REMARK    1  A    between atoms: C2_2  and  C3_3 
REMARK    2  A    between atoms: C3_3  and  O1_4 
REMARK    3  A    between atoms: O1_4  and  C4_5 
ROOT
HETATM    1  C4  UNL     1      -8.937 -31.947  15.730  1.00  0.00     0.159 A 
HETATM    2  C5  UNL     1      -9.280 -30.863  14.908  1.00  0.00     0.145 A 
HETATM    3  N1  UNL     1      -8.515 -30.886  13.822  1.00  0.00    -0.358 N 
ATOM      4  H1  UNL     1      -8.549 -30.215  13.055  1.00  0.00     0.166 HD
HETATM    5  C6  UNL     1      -7.694 -31.934  13.902  1.00  0.00     0.182 A 
HETATM    6  N2  UNL     1      -7.954 -32.568  15.055  1.00  0.00    -0.332 N 
ATOM      7  H2  UNL     1      -7.472 -33.408  15.376  1.00  0.00     0.168 HD
ENDROOT
BRANCH   1   8
HETATM    8  O1  UNL     1      -9.508 -32.266  16.949  1.00  0.00    -0.331 OA
BRANCH   8   9
HETATM    9  C3  UNL     1      -8.955 -33.303  17.718  1.00  0.00     0.204 C 
BRANCH   9  10
HETATM   10  C2  UNL     1      -8.642 -32.922  19.114  1.00  0.00    -0.011 C 
HETATM   11  C1  UNL     1      -9.468 -33.290  20.060  1.00  0.00     0.009 C 
ENDBRANCH   9  10
ENDBRANCH   8   9
ENDBRANCH   1   8
TORSDOF 3
ENDMDL
MODEL 3
REMARK VINA RESULT: -4.812022365      0.888      1.019
REMARK  3 active torsions:
REMARK  status: ('A' for Active; 'I' for Inactive)
REMARK    1  A    between atoms: C2_2  and  C3_3 
REMARK    2  A    between atoms: C3_3  and  O1_4 
REMARK    3  A    between atoms: O1_4  and  C4_5 
ROOT
HETATM    1  C4  UNL     1      -9.491 -32.112  15.645  1.00  0.00     0.159 A 
HETATM    2  C5  UNL     1      -8.179 -32.531  15.375  1.00  0.00     0.145 A 
HETATM    3  N1  UNL     1      -7.574 -31.606  14.638  1.00  0.00    -0.358 N 
ATOM      4  H1  UNL     1      -6.614 -31.651  14.297  1.00  0.00     0.166 HD
HETATM    5  C6  UNL     1      -8.431 -30.608  14.418  1.00  0.00     0.182 A 
HETATM    6  N2  UNL     1      -9.585 -30.921  15.028  1.00  0.00    -0.332 N 
ATOM      7  H2  UNL     1     -10.419 -30.334  15.025  1.00  0.00     0.168 HD
ENDROOT
BRANCH   1   8
HETATM    8  O1  UNL     1     -10.437 -32.801  16.382  1.00  0.00    -0.331 OA
BRANCH   8   9
HETATM    9  C3  UNL     1     -11.190 -32.113  17.349  1.00  0.00     0.204 C 
BRANCH   9  10
HETATM   10  C2  UNL     1     -10.491 -31.929  18.642  1.00  0.00    -0.011 C 
HETATM   11  C1  UNL     1     -10.168 -30.715  19.007  1.00  0.00     0.009 C 
ENDBRANCH   9  10
ENDBRANCH   8   9
ENDBRANCH   1   8
TORSDOF 3
ENDMDL
MODEL 4
REMARK VINA RESULT: -4.745835348      1.160      1.934
REMARK  3 active torsions:
REMARK  status: ('A' for Active; 'I' for Inactive)
REMARK    1  A    between atoms: C2_2  and  C3_3 
REMARK    2  A    between atoms: C3_3  and  O1_4 
REMARK    3  A    between atoms: O1_4  and  C4_5 
ROOT
HETATM    1  C4  UNL     1      -8.806 -32.911  16.465  1.00  0.00     0.159 A 
HETATM    2  C5  UNL     1      -9.698 -31.921  16.026  1.00  0.00     0.145 A 
HETATM    3  N1  UNL     1      -9.202 -31.346  14.936  1.00  0.00    -0.358 N 
ATOM      4  H1  UNL     1      -9.642 -30.593  14.407  1.00  0.00     0.166 HD
HETATM    5  C6  UNL     1      -8.032 -31.917  14.648  1.00  0.00     0.182 A 
HETATM    6  N2  UNL     1      -7.800 -32.859  15.574  1.00  0.00    -0.332 N 
ATOM      7  H2  UNL     1      -6.973 -33.456  15.599  1.00  0.00     0.168 HD
ENDROOT
BRANCH   1   8
HETATM    8  O1  UNL     1      -8.967 -33.731  17.568  1.00  0.00    -0.331 OA
BRANCH   8   9
HETATM    9  C3  UNL     1      -8.566 -33.269  18.832  1.00  0.00     0.204 C 
BRANCH   9  10
HETATM   10  C2  UNL     1      -9.680 -33.073  19.787  1.00  0.00    -0.011 C 
HETATM   11  C1  UNL     1     -10.439 -32.016  19.649  1.00  0.00     0.009 C 
ENDBRANCH   9  10
ENDBRANCH   8   9
ENDBRANCH   1   8
TORSDOF 3
ENDMDL
MODEL 5
REMARK VINA RESULT: -4.719091132      2.392      4.049
REMARK  3 active torsions:
REMARK  status: ('A' for Active; 'I' for Inactive)
REMARK    1  A    between atoms: C2_2  and  C3_3 
REMARK    2  A    between atoms: C3_3  and  O1_4 
REMARK    3  A    between atoms: O1_4  and  C4_5 
ROOT
HETATM    1  C4  UNL     1      -9.627 -32.290  18.233  1.00  0.00     0.159 A 
HETATM    2  C5  UNL     1      -8.791 -33.416  18.285  1.00  0.00     0.145 A 
HETATM    3  N1  UNL     1      -8.895 -33.976  19.485  1.00  0.00    -0.358 N 
ATOM      4  H1  UNL     1      -8.397 -34.809  19.799  1.00  0.00     0.166 HD
HETATM    5  C6  UNL     1      -9.759 -33.266  20.212  1.00  0.00     0.182 A 
HETATM    6  N2  UNL     1     -10.196 -32.252  19.451  1.00  0.00    -0.332 N 
ATOM      7  H2  UNL     1     -10.868 -31.548  19.754  1.00  0.00     0.168 HD
ENDROOT
BRANCH   1   8
HETATM    8  O1  UNL     1      -9.797 -31.442  17.153  1.00  0.00    -0.331 OA
BRANCH   8   9
HETATM    9  C3  UNL     1      -9.762 -31.970  15.852  1.00  0.00     0.204 C 
BRANCH   9  10
HETATM   10  C2  UNL     1      -8.600 -31.526  15.049  1.00  0.00    -0.011 C 
HETATM   11  C1  UNL     1      -8.618 -30.319  14.543  1.00  0.00     0.009 C 
ENDBRANCH   9  10
ENDBRANCH   8   9
ENDBRANCH   1   8
TORSDOF 3
ENDMDL
