MODEL 1
REMARK VINA RESULT: -7.453226201      0.000      0.000
REMARK  3 active torsions:
REMARK  status: ('A' for Active; 'I' for Inactive)
REMARK    1  A    between atoms: C3_4  and  C4_5 
REMARK    2  A    between atoms: C4_5  and  N1_6 
REMARK    3  A    between atoms: N1_6  and  C5_9 
ROOT
HETATM    1  N1  UNL     1     -10.438 -31.810  17.033  1.00  0.00    -0.070 N 
ATOM      2  H11 UNL     1     -11.119 -32.554  17.185  1.00  0.00     0.277 HD
ATOM      3  H12 UNL     1     -11.010 -31.021  17.332  1.00  0.00     0.277 HD
ENDROOT
BRANCH   1   4
HETATM    4  C4  UNL     1     -10.049 -31.702  15.633  1.00  0.00     0.240 C 
BRANCH   4   5
HETATM    5  C3  UNL     1      -8.663 -31.114  15.504  1.00  0.00     0.048 A 
HETATM    6  C1  UNL     1      -8.345 -30.273  14.327  1.00  0.00     0.176 A 
HETATM    7  F1  UNL     1      -7.444 -29.230  14.475  1.00  0.00    -0.249 F 
HETATM    8  C2  UNL     1      -7.774 -31.678  14.429  1.00  0.00     0.046 A 
ENDBRANCH   4   5
ENDBRANCH   1   4
BRANCH   1   9
HETATM    9  C5  UNL     1      -9.286 -31.969  17.844  1.00  0.00     0.190 C 
HETATM   10  C6  UNL     1      -8.955 -33.340  18.351  1.00  0.00     0.038 C 
HETATM   11  C7  UNL     1      -8.487 -33.163  19.788  1.00  0.00    -0.012 C 
HETATM   12  C8  UNL     1      -9.731 -33.089  20.636  1.00  0.00     0.005 C 
HETATM   13  C11 UNL     1      -8.109 -31.670  19.784  1.00  0.00     0.011 C 
HETATM   14  C9  UNL     1     -10.428 -31.868  20.044  1.00  0.00     0.007 C 
HETATM   15  C10 UNL     1      -9.410 -31.191  19.163  1.00  0.00     0.016 C 
ENDBRANCH   1   9
TORSDOF 3
ENDMDL
MODEL 2
REMARK VINA RESULT: -7.161806252      1.065      1.139
REMARK  3 active torsions:
REMARK  status: ('A' for Active; 'I' for Inactive)
REMARK    1  A    between atoms: C3_4  and  C4_5 
REMARK    2  A    between atoms: C4_5  and  N1_6 
REMARK    3  A    between atoms: N1_6  and  C5_9 
ROOT
HETATM    1  N1  UNL     1      -9.350 -33.093  16.815  1.00  0.00    -0.070 N 
ATOM      2  H11 UNL     1      -9.940 -33.919  16.921  1.00  0.00     0.277 HD
ATOM      3  H12 UNL     1     -10.084 -32.410  16.626  1.00  0.00     0.277 HD
ENDROOT
BRANCH   1   4
HETATM    4  C4  UNL     1      -8.424 -33.222  15.699  1.00  0.00     0.240 C 
BRANCH   4   5
HETATM    5  C3  UNL     1      -7.937 -31.865  15.245  1.00  0.00     0.048 A 
HETATM    6  C1  UNL     1      -8.927 -30.854  14.810  1.00  0.00     0.176 A 
HETATM    7  F1  UNL     1      -8.659 -29.514  15.042  1.00  0.00    -0.249 F 
HETATM    8  C2  UNL     1      -8.053 -31.548  13.779  1.00  0.00     0.046 A 
ENDBRANCH   4   5
ENDBRANCH   1   4
BRANCH   1   9
HETATM    9  C5  UNL     1      -8.638 -32.793  18.004  1.00  0.00     0.190 C 
HETATM   10  C6  UNL     1      -8.766 -33.729  19.167  1.00  0.00     0.038 C 
HETATM   11  C7  UNL     1      -8.854 -32.856  20.411  1.00  0.00    -0.012 C 
HETATM   12  C8  UNL     1     -10.294 -32.427  20.528  1.00  0.00     0.005 C 
HETATM   13  C11 UNL     1      -8.253 -31.541  19.881  1.00  0.00     0.011 C 
HETATM   14  C9  UNL     1     -10.493 -31.676  19.215  1.00  0.00     0.007 C 
HETATM   15  C10 UNL     1      -9.117 -31.476  18.634  1.00  0.00     0.016 C 
ENDBRANCH   1   9
TORSDOF 3
ENDMDL
MODEL 3
REMARK VINA RESULT: -7.027401091      0.849      1.733
REMARK  3 active torsions:
REMARK  status: ('A' for Active; 'I' for Inactive)
REMARK    1  A    between atoms: C3_4  and  C4_5 
REMARK    2  A    between atoms: C4_5  and  N1_6 
REMARK    3  A    between atoms: N1_6  and  C5_9 
ROOT
HETATM    1  N1  UNL     1      -9.402 -33.147  16.460  1.00  0.00    -0.070 N 
ATOM      2  H11 UNL     1      -8.427 -33.429  16.362  1.00  0.00     0.277 HD
ATOM      3  H12 UNL     1      -9.832 -33.915  15.944  1.00  0.00     0.277 HD
ENDROOT
BRANCH   1   4
HETATM    4  C4  UNL     1      -9.664 -31.857  15.838  1.00  0.00     0.240 C 
BRANCH   4   5
HETATM    5  C3  UNL     1      -8.377 -31.207  15.386  1.00  0.00     0.048 A 
HETATM    6  C1  UNL     1      -8.424 -30.181  14.319  1.00  0.00     0.176 A 
HETATM    7  F1  UNL     1      -7.504 -29.144  14.349  1.00  0.00    -0.249 F 
HETATM    8  C2  UNL     1      -7.870 -31.564  14.015  1.00  0.00     0.046 A 
ENDBRANCH   4   5
ENDBRANCH   1   4
BRANCH   1   9
HETATM    9  C5  UNL     1      -9.814 -33.123  17.817  1.00  0.00     0.190 C 
HETATM   10  C6  UNL     1     -10.217 -31.810  18.416  1.00  0.00     0.038 C 
HETATM   11  C7  UNL     1      -9.644 -31.790  19.826  1.00  0.00    -0.012 C 
HETATM   12  C8  UNL     1      -8.208 -31.352  19.696  1.00  0.00     0.005 C 
HETATM   13  C11 UNL     1      -9.417 -33.294  20.064  1.00  0.00     0.011 C 
HETATM   14  C9  UNL     1      -7.639 -32.447  18.800  1.00  0.00     0.007 C 
HETATM   15  C10 UNL     1      -8.677 -33.539  18.762  1.00  0.00     0.016 C 
ENDBRANCH   1   9
TORSDOF 3
ENDMDL
MODEL 4
REMARK VINA RESULT: -6.889778392      1.366      1.625
REMARK  3 active torsions:
REMARK  status: ('A' for Active; 'I' for Inactive)
REMARK    1  A    between atoms: C3_4  and  C4_5 
REMARK    2  A    between atoms: C4_5  and  N1_6 
REMARK    3  A    between atoms: N1_6  and  C5_9 
ROOT
HETATM    1  N1  UNL     1      -9.050 -33.485  16.943  1.00  0.00    -0.070 N 
ATOM      2  H11 UNL     1      -9.386 -34.449  16.938  1.00  0.00     0.277 HD
ATOM      3  H12 UNL     1      -9.935 -33.018  16.746  1.00  0.00     0.277 HD
ENDROOT
BRANCH   1   4
HETATM    4  C4  UNL     1      -8.062 -33.245  15.901  1.00  0.00     0.240 C 
BRANCH   4   5
HETATM    5  C3  UNL     1      -8.504 -32.124  14.989  1.00  0.00     0.048 A 
HETATM    6  C1  UNL     1      -7.727 -31.847  13.759  1.00  0.00     0.176 A 
HETATM    7  F1  UNL     1      -8.394 -31.377  12.639  1.00  0.00    -0.249 F 
HETATM    8  C2  UNL     1      -7.639 -30.894  14.940  1.00  0.00     0.046 A 
ENDBRANCH   4   5
ENDBRANCH   1   4
BRANCH   1   9
HETATM    9  C5  UNL     1      -8.522 -33.113  18.206  1.00  0.00     0.190 C 
HETATM   10  C6  UNL     1      -9.041 -33.808  19.428  1.00  0.00     0.038 C 
HETATM   11  C7  UNL     1      -9.183 -32.737  20.500  1.00  0.00    -0.012 C 
HETATM   12  C8  UNL     1     -10.507 -32.062  20.255  1.00  0.00     0.005 C 
HETATM   13  C11 UNL     1      -8.249 -31.647  19.942  1.00  0.00     0.011 C 
HETATM   14  C9  UNL     1     -10.312 -31.518  18.843  1.00  0.00     0.007 C 
HETATM   15  C10 UNL     1      -8.841 -31.649  18.544  1.00  0.00     0.016 C 
ENDBRANCH   1   9
TORSDOF 3
ENDMDL
MODEL 5
REMARK VINA RESULT: -6.885276708      1.298      2.060
REMARK  3 active torsions:
REMARK  status: ('A' for Active; 'I' for Inactive)
REMARK    1  A    between atoms: C3_4  and  C4_5 
REMARK    2  A    between atoms: C4_5  and  N1_6 
REMARK    3  A    between atoms: N1_6  and  C5_9 
ROOT
HETATM    1  N1  UNL     1      -9.672 -32.960  16.404  1.00  0.00    -0.070 N 
ATOM      2  H11 UNL     1      -8.709 -33.237  16.215  1.00  0.00     0.277 HD
ATOM      3  H12 UNL     1     -10.144 -33.718  15.912  1.00  0.00     0.277 HD
ENDROOT
BRANCH   1   4
HETATM    4  C4  UNL     1      -9.989 -31.658  15.833  1.00  0.00     0.240 C 
BRANCH   4   5
HETATM    5  C3  UNL     1      -9.037 -31.318  14.709  1.00  0.00     0.048 A 
HETATM    6  C1  UNL     1      -7.783 -32.092  14.569  1.00  0.00     0.176 A 
HETATM    7  F1  UNL     1      -7.268 -32.306  13.300  1.00  0.00    -0.249 F 
HETATM    8  C2  UNL     1      -7.735 -30.663  15.084  1.00  0.00     0.046 A 
ENDBRANCH   4   5
ENDBRANCH   1   4
BRANCH   1   9
HETATM    9  C5  UNL     1      -9.964 -32.964  17.792  1.00  0.00     0.190 C 
HETATM   10  C6  UNL     1     -10.234 -31.654  18.466  1.00  0.00     0.038 C 
HETATM   11  C7  UNL     1      -9.542 -31.720  19.821  1.00  0.00    -0.012 C 
HETATM   12  C8  UNL     1      -8.098 -31.361  19.579  1.00  0.00     0.005 C 
HETATM   13  C11 UNL     1      -9.387 -33.243  19.988  1.00  0.00     0.011 C 
HETATM   14  C9  UNL     1      -7.675 -32.451  18.601  1.00  0.00     0.007 C 
HETATM   15  C10 UNL     1      -8.777 -33.480  18.618  1.00  0.00     0.016 C 
ENDBRANCH   1   9
TORSDOF 3
ENDMDL
