MODEL 1
REMARK VINA RESULT: -5.810372596      0.000      0.000
REMARK  4 active torsions:
REMARK  status: ('A' for Active; 'I' for Inactive)
REMARK    1  A    between atoms: C2_2  and  N1_4 
REMARK    2  A    between atoms: N1_4  and  C4_6 
REMARK    3  A    between atoms: C4_6  and  S1_9 
REMARK    4  A    between atoms: S1_9  and  C6_11 
ROOT
HETATM    1  C4  UNL     1      -8.975 -32.463  16.315  1.00  0.00     0.250 C 
HETATM    2  C5  UNL     1      -7.575 -32.081  16.772  1.00  0.00     0.092 C 
HETATM    3  F1  UNL     1      -8.868 -33.706  15.719  1.00  0.00    -0.204 F 
ENDROOT
BRANCH   1   4
HETATM    4  N1  UNL     1      -9.401 -31.524  15.320  1.00  0.00    -0.349 N 
ATOM      5  H1  UNL     1     -10.386 -31.262  15.288  1.00  0.00     0.163 HD
BRANCH   4   6
HETATM    6  C2  UNL     1      -8.512 -30.941  14.375  1.00  0.00    -0.005 C 
HETATM    7  C1  UNL     1      -8.009 -31.703  13.430  1.00  0.00     0.037 C 
HETATM    8  C3  UNL     1      -8.139 -29.504  14.425  1.00  0.00     0.067 C 
ENDBRANCH   4   6
ENDBRANCH   1   4
BRANCH   1   9
HETATM    9  S1  UNL     1     -10.077 -32.603  17.674  1.00  0.00     0.080 S 
HETATM   10  O1  UNL     1     -11.418 -31.635  17.549  1.00  0.00    -0.252 OA
BRANCH   9  11
HETATM   11  C6  UNL     1      -9.160 -32.287  19.162  1.00  0.00     0.085 A 
HETATM   12  C7  UNL     1      -9.718 -32.695  20.473  1.00  0.00     0.019 A 
HETATM   13  C8  UNL     1      -8.639 -33.529  19.846  1.00  0.00     0.019 A 
ENDBRANCH   9  11
ENDBRANCH   1   9
TORSDOF 4
ENDMDL
MODEL 2
REMARK VINA RESULT: -5.807420437      1.772      4.757
REMARK  4 active torsions:
REMARK  status: ('A' for Active; 'I' for Inactive)
REMARK    1  A    between atoms: C2_2  and  N1_4 
REMARK    2  A    between atoms: N1_4  and  C4_6 
REMARK    3  A    between atoms: C4_6  and  S1_9 
REMARK    4  A    between atoms: S1_9  and  C6_11 
ROOT
HETATM    1  C4  UNL     1      -8.601 -32.512  17.145  1.00  0.00     0.250 C 
HETATM    2  C5  UNL     1      -8.150 -33.702  16.312  1.00  0.00     0.092 C 
HETATM    3  F1  UNL     1      -7.483 -32.058  17.819  1.00  0.00    -0.204 F 
ENDROOT
BRANCH   1   4
HETATM    4  N1  UNL     1      -9.553 -32.969  18.113  1.00  0.00    -0.349 N 
ATOM      5  H1  UNL     1     -10.138 -33.770  17.880  1.00  0.00     0.163 HD
BRANCH   4   6
HETATM    6  C2  UNL     1      -9.718 -32.356  19.387  1.00  0.00    -0.005 C 
HETATM    7  C1  UNL     1      -9.345 -33.020  20.458  1.00  0.00     0.037 C 
HETATM    8  C3  UNL     1     -10.296 -30.996  19.540  1.00  0.00     0.067 C 
ENDBRANCH   4   6
ENDBRANCH   1   4
BRANCH   1   9
HETATM    9  S1  UNL     1      -9.194 -31.208  16.131  1.00  0.00     0.080 S 
HETATM   10  O1  UNL     1     -10.640 -31.542  15.390  1.00  0.00    -0.252 OA
BRANCH   9  11
HETATM   11  C6  UNL     1      -7.923 -30.800  14.959  1.00  0.00     0.085 A 
HETATM   12  C7  UNL     1      -8.225 -30.809  13.509  1.00  0.00     0.019 A 
HETATM   13  C8  UNL     1      -8.147 -29.496  14.230  1.00  0.00     0.019 A 
ENDBRANCH   9  11
ENDBRANCH   1   9
TORSDOF 4
ENDMDL
MODEL 3
REMARK VINA RESULT: -5.758791006      1.885      2.144
REMARK  4 active torsions:
REMARK  status: ('A' for Active; 'I' for Inactive)
REMARK    1  A    between atoms: C2_2  and  N1_4 
REMARK    2  A    between atoms: N1_4  and  C4_6 
REMARK    3  A    between atoms: C4_6  and  S1_9 
REMARK    4  A    between atoms: S1_9  and  C6_11 
ROOT
HETATM    1  C4  UNL     1      -9.749 -31.644  16.368  1.00  0.00     0.250 C 
HETATM    2  C5  UNL     1     -11.166 -32.120  16.654  1.00  0.00     0.092 C 
HETATM    3  F1  UNL     1      -9.623 -30.405  16.967  1.00  0.00    -0.204 F 
ENDROOT
BRANCH   1   4
HETATM    4  N1  UNL     1      -9.605 -31.473  14.953  1.00  0.00    -0.349 N 
ATOM      5  H1  UNL     1     -10.380 -31.745  14.348  1.00  0.00     0.163 HD
BRANCH   4   6
HETATM    6  C2  UNL     1      -8.430 -30.942  14.352  1.00  0.00    -0.005 C 
HETATM    7  C1  UNL     1      -7.622 -31.761  13.718  1.00  0.00     0.037 C 
HETATM    8  C3  UNL     1      -8.092 -29.497  14.421  1.00  0.00     0.067 C 
ENDBRANCH   4   6
ENDBRANCH   1   4
BRANCH   1   9
HETATM    9  S1  UNL     1      -8.557 -32.719  17.076  1.00  0.00     0.080 S 
HETATM   10  O1  UNL     1      -8.130 -33.984  16.093  1.00  0.00    -0.252 OA
BRANCH   9  11
HETATM   11  C6  UNL     1      -9.178 -33.272  18.646  1.00  0.00     0.085 A 
HETATM   12  C7  UNL     1      -8.241 -33.500  19.771  1.00  0.00     0.019 A 
HETATM   13  C8  UNL     1      -9.069 -32.249  19.752  1.00  0.00     0.019 A 
ENDBRANCH   9  11
ENDBRANCH   1   9
TORSDOF 4
ENDMDL
MODEL 4
REMARK VINA RESULT: -5.753408728      0.167      1.001
REMARK  4 active torsions:
REMARK  status: ('A' for Active; 'I' for Inactive)
REMARK    1  A    between atoms: C2_2  and  N1_4 
REMARK    2  A    between atoms: N1_4  and  C4_6 
REMARK    3  A    between atoms: C4_6  and  S1_9 
REMARK    4  A    between atoms: S1_9  and  C6_11 
ROOT
HETATM    1  C4  UNL     1      -9.038 -32.384  16.432  1.00  0.00     0.250 C 
HETATM    2  C5  UNL     1      -7.601 -32.173  16.883  1.00  0.00     0.092 C 
HETATM    3  F1  UNL     1      -9.063 -33.585  15.749  1.00  0.00    -0.204 F 
ENDROOT
BRANCH   1   4
HETATM    4  N1  UNL     1      -9.384 -31.340  15.514  1.00  0.00    -0.349 N 
ATOM      5  H1  UNL     1     -10.306 -30.911  15.589  1.00  0.00     0.163 HD
BRANCH   4   6
HETATM    6  C2  UNL     1      -8.500 -30.874  14.501  1.00  0.00    -0.005 C 
HETATM    7  C1  UNL     1      -8.168 -29.602  14.493  1.00  0.00     0.037 C 
HETATM    8  C3  UNL     1      -7.945 -31.777  13.460  1.00  0.00     0.067 C 
ENDBRANCH   4   6
ENDBRANCH   1   4
BRANCH   1   9
HETATM    9  S1  UNL     1     -10.128 -32.511  17.802  1.00  0.00     0.080 S 
HETATM   10  O1  UNL     1     -11.423 -31.478  17.724  1.00  0.00    -0.252 OA
BRANCH   9  11
HETATM   11  C6  UNL     1      -9.177 -32.281  19.285  1.00  0.00     0.085 A 
HETATM   12  C7  UNL     1      -9.719 -32.738  20.586  1.00  0.00     0.019 A 
HETATM   13  C8  UNL     1      -8.669 -33.563  19.901  1.00  0.00     0.019 A 
ENDBRANCH   9  11
ENDBRANCH   1   9
TORSDOF 4
ENDMDL
MODEL 5
REMARK VINA RESULT: -5.693449759      1.762      2.170
REMARK  4 active torsions:
REMARK  status: ('A' for Active; 'I' for Inactive)
REMARK    1  A    between atoms: C2_2  and  N1_4 
REMARK    2  A    between atoms: N1_4  and  C4_6 
REMARK    3  A    between atoms: C4_6  and  S1_9 
REMARK    4  A    between atoms: S1_9  and  C6_11 
ROOT
HETATM    1  C4  UNL     1      -8.720 -32.373  16.345  1.00  0.00     0.250 C 
HETATM    2  C5  UNL     1      -8.279 -33.722  15.796  1.00  0.00     0.092 C 
HETATM    3  F1  UNL     1     -10.002 -32.160  15.877  1.00  0.00    -0.204 F 
ENDROOT
BRANCH   1   4
HETATM    4  N1  UNL     1      -7.868 -31.360  15.797  1.00  0.00    -0.349 N 
ATOM      5  H1  UNL     1      -7.045 -31.076  16.328  1.00  0.00     0.163 HD
BRANCH   4   6
HETATM    6  C2  UNL     1      -8.119 -30.730  14.546  1.00  0.00    -0.005 C 
HETATM    7  C1  UNL     1      -8.309 -29.429  14.524  1.00  0.00     0.037 C 
HETATM    8  C3  UNL     1      -8.172 -31.494  13.273  1.00  0.00     0.067 C 
ENDBRANCH   4   6
ENDBRANCH   1   4
BRANCH   1   9
HETATM    9  S1  UNL     1      -8.772 -32.381  18.099  1.00  0.00     0.080 S 
HETATM   10  O1  UNL     1      -8.567 -33.885  18.767  1.00  0.00    -0.252 OA
BRANCH   9  11
HETATM   11  C6  UNL     1     -10.298 -31.627  18.608  1.00  0.00     0.085 A 
HETATM   12  C7  UNL     1     -10.615 -31.503  20.050  1.00  0.00     0.019 A 
HETATM   13  C8  UNL     1     -10.131 -30.295  19.302  1.00  0.00     0.019 A 
ENDBRANCH   9  11
ENDBRANCH   1   9
TORSDOF 4
ENDMDL
