MODEL 1
REMARK VINA RESULT: -5.625099275      0.000      0.000
REMARK  3 active torsions:
REMARK  status: ('A' for Active; 'I' for Inactive)
REMARK    1  A    between atoms: C2_2  and  C3_3 
REMARK    2  A    between atoms: C10_11  and  C11_12 
REMARK    3  A    between atoms: C11_12  and  N1_13 
ROOT
HETATM    1  C1  UNL     1      -9.589 -30.291  17.422  1.00  0.00     0.018 C 
HETATM    2  C2  UNL     1     -10.011 -31.540  18.127  1.00  0.00    -0.009 C 
HETATM    3  C4  UNL     1      -9.564 -31.477  19.585  1.00  0.00    -0.004 C 
HETATM    4  C5  UNL     1      -9.900 -32.774  20.280  1.00  0.00     0.006 C 
HETATM    5  C6  UNL     1      -8.958 -33.846  19.748  1.00  0.00     0.005 C 
HETATM    6  C7  UNL     1      -8.408 -33.396  18.414  1.00  0.00    -0.008 C 
HETATM    7  C8  UNL     1      -7.406 -32.306  18.683  1.00  0.00     0.005 C 
HETATM    8  C9  UNL     1      -8.042 -31.330  19.663  1.00  0.00     0.006 C 
HETATM    9  C10 UNL     1      -9.514 -32.804  17.548  1.00  0.00     0.026 C 
ENDROOT
BRANCH   9  10
HETATM   10  C11 UNL     1      -8.983 -32.728  16.158  1.00  0.00     0.235 C 
BRANCH  10  11
HETATM   11  N1  UNL     1      -8.315 -33.944  15.729  1.00  0.00    -0.079 N 
ATOM     12  H13 UNL     1      -8.168 -34.574  16.517  1.00  0.00     0.274 HD
ATOM     13  H12 UNL     1      -8.941 -34.522  15.166  1.00  0.00     0.274 HD
ATOM     14  H11 UNL     1      -7.440 -33.773  15.235  1.00  0.00     0.274 HD
ENDBRANCH  10  11
ENDBRANCH   9  10
BRANCH   2  15
HETATM   15  C3  UNL     1     -11.533 -31.527  18.159  1.00  0.00     0.232 C 
HETATM   16  F1  UNL     1     -12.011 -32.367  17.178  1.00  0.00    -0.255 F 
ENDBRANCH   2  15
TORSDOF 3
ENDMDL
MODEL 2
REMARK VINA RESULT: -5.429036267      2.206      3.512
REMARK  3 active torsions:
REMARK  status: ('A' for Active; 'I' for Inactive)
REMARK    1  A    between atoms: C2_2  and  C3_3 
REMARK    2  A    between atoms: C10_11  and  C11_12 
REMARK    3  A    between atoms: C11_12  and  N1_13 
ROOT
HETATM    1  C1  UNL     1      -7.142 -32.039  17.594  1.00  0.00     0.018 C 
HETATM    2  C2  UNL     1      -8.485 -32.525  17.154  1.00  0.00    -0.009 C 
HETATM    3  C4  UNL     1      -9.238 -31.389  16.467  1.00  0.00    -0.004 C 
HETATM    4  C5  UNL     1     -10.631 -31.842  16.106  1.00  0.00     0.006 C 
HETATM    5  C6  UNL     1     -11.432 -31.963  17.395  1.00  0.00     0.005 C 
HETATM    6  C7  UNL     1     -10.472 -32.096  18.556  1.00  0.00    -0.008 C 
HETATM    7  C8  UNL     1      -9.849 -30.746  18.784  1.00  0.00     0.005 C 
HETATM    8  C9  UNL     1      -9.406 -30.210  17.430  1.00  0.00     0.006 C 
HETATM    9  C10 UNL     1      -9.351 -33.072  18.218  1.00  0.00     0.026 C 
ENDROOT
BRANCH   9  10
HETATM   10  C11 UNL     1      -8.678 -33.421  19.501  1.00  0.00     0.235 C 
BRANCH  10  11
HETATM   11  N1  UNL     1      -9.558 -33.345  20.653  1.00  0.00    -0.079 N 
ATOM     12  H13 UNL     1      -9.393 -34.125  21.288  1.00  0.00     0.274 HD
ATOM     13  H12 UNL     1      -9.290 -32.572  21.263  1.00  0.00     0.274 HD
ATOM     14  H11 UNL     1     -10.546 -33.283  20.405  1.00  0.00     0.274 HD
ENDBRANCH  10  11
ENDBRANCH   9  10
BRANCH   2  15
HETATM   15  C3  UNL     1      -8.237 -33.570  16.076  1.00  0.00     0.232 C 
HETATM   16  F1  UNL     1      -7.829 -32.938  14.922  1.00  0.00    -0.255 F 
ENDBRANCH   2  15
TORSDOF 3
ENDMDL
MODEL 3
REMARK VINA RESULT: -4.935308116      2.090      3.413
REMARK  3 active torsions:
REMARK  status: ('A' for Active; 'I' for Inactive)
REMARK    1  A    between atoms: C2_2  and  C3_3 
REMARK    2  A    between atoms: C10_11  and  C11_12 
REMARK    3  A    between atoms: C11_12  and  N1_13 
ROOT
HETATM    1  C1  UNL     1     -11.166 -31.803  18.598  1.00  0.00     0.018 C 
HETATM    2  C2  UNL     1      -9.823 -31.339  18.132  1.00  0.00    -0.009 C 
HETATM    3  C4  UNL     1      -9.883 -31.025  16.639  1.00  0.00    -0.004 C 
HETATM    4  C5  UNL     1      -8.509 -30.648  16.140  1.00  0.00     0.006 C 
HETATM    5  C6  UNL     1      -7.658 -31.910  16.122  1.00  0.00     0.005 C 
HETATM    6  C7  UNL     1      -8.274 -32.929  17.051  1.00  0.00    -0.008 C 
HETATM    7  C8  UNL     1      -9.510 -33.464  16.380  1.00  0.00     0.005 C 
HETATM    8  C9  UNL     1     -10.298 -32.272  15.854  1.00  0.00     0.006 C 
HETATM    9  C10 UNL     1      -8.704 -32.275  18.359  1.00  0.00     0.026 C 
ENDROOT
BRANCH   9  10
HETATM   10  C11 UNL     1      -8.953 -33.375  19.333  1.00  0.00     0.235 C 
BRANCH  10  11
HETATM   11  N1  UNL     1      -8.737 -32.981  20.714  1.00  0.00    -0.079 N 
ATOM     12  H13 UNL     1      -8.073 -32.209  20.771  1.00  0.00     0.274 HD
ATOM     13  H12 UNL     1      -9.565 -32.520  21.093  1.00  0.00     0.274 HD
ATOM     14  H11 UNL     1      -8.447 -33.753  21.315  1.00  0.00     0.274 HD
ENDBRANCH  10  11
ENDBRANCH   9  10
BRANCH   2  15
HETATM   15  C3  UNL     1      -9.558 -30.010  18.825  1.00  0.00     0.232 C 
HETATM   16  F1  UNL     1     -10.500 -29.821  19.812  1.00  0.00    -0.255 F 
ENDBRANCH   2  15
TORSDOF 3
ENDMDL
MODEL 4
REMARK VINA RESULT: -4.933296889      2.364      3.731
REMARK  3 active torsions:
REMARK  status: ('A' for Active; 'I' for Inactive)
REMARK    1  A    between atoms: C2_2  and  C3_3 
REMARK    2  A    between atoms: C10_11  and  C11_12 
REMARK    3  A    between atoms: C11_12  and  N1_13 
ROOT
HETATM    1  C1  UNL     1      -7.049 -32.036  18.667  1.00  0.00     0.018 C 
HETATM    2  C2  UNL     1      -8.360 -32.625  18.255  1.00  0.00    -0.009 C 
HETATM    3  C4  UNL     1      -8.281 -33.071  16.797  1.00  0.00    -0.004 C 
HETATM    4  C5  UNL     1      -9.629 -33.578  16.343  1.00  0.00     0.006 C 
HETATM    5  C6  UNL     1     -10.559 -32.379  16.214  1.00  0.00     0.005 C 
HETATM    6  C7  UNL     1     -10.007 -31.241  17.042  1.00  0.00    -0.008 C 
HETATM    7  C8  UNL     1      -8.808 -30.695  16.316  1.00  0.00     0.005 C 
HETATM    8  C9  UNL     1      -7.946 -31.879  15.898  1.00  0.00     0.006 C 
HETATM    9  C10 UNL     1      -9.536 -31.743  18.402  1.00  0.00     0.026 C 
ENDROOT
BRANCH   9  10
HETATM   10  C11 UNL     1      -9.356 -30.545  19.269  1.00  0.00     0.235 C 
BRANCH  10  11
HETATM   11  N1  UNL     1     -10.600 -29.862  19.574  1.00  0.00    -0.079 N 
ATOM     12  H13 UNL     1     -11.076 -29.577  18.718  1.00  0.00     0.274 HD
ATOM     13  H12 UNL     1     -11.292 -30.516  19.941  1.00  0.00     0.274 HD
ATOM     14  H11 UNL     1     -10.483 -29.068  20.204  1.00  0.00     0.274 HD
ENDBRANCH  10  11
ENDBRANCH   9  10
BRANCH   2  15
HETATM   15  C3  UNL     1      -8.540 -33.898  19.069  1.00  0.00     0.232 C 
HETATM   16  F1  UNL     1      -9.247 -33.603  20.214  1.00  0.00    -0.255 F 
ENDBRANCH   2  15
TORSDOF 3
ENDMDL
MODEL 5
REMARK VINA RESULT: -4.810714262      2.154      3.473
REMARK  3 active torsions:
REMARK  status: ('A' for Active; 'I' for Inactive)
REMARK    1  A    between atoms: C2_2  and  C3_3 
REMARK    2  A    between atoms: C10_11  and  C11_12 
REMARK    3  A    between atoms: C11_12  and  N1_13 
ROOT
HETATM    1  C1  UNL     1      -8.240 -31.309  19.415  1.00  0.00     0.018 C 
HETATM    2  C2  UNL     1      -8.665 -32.444  18.540  1.00  0.00    -0.009 C 
HETATM    3  C4  UNL     1      -7.670 -32.602  17.393  1.00  0.00    -0.004 C 
HETATM    4  C5  UNL     1      -8.143 -33.682  16.450  1.00  0.00     0.006 C 
HETATM    5  C6  UNL     1      -9.351 -33.145  15.695  1.00  0.00     0.005 C 
HETATM    6  C7  UNL     1      -9.946 -31.997  16.477  1.00  0.00    -0.008 C 
HETATM    7  C8  UNL     1      -9.023 -30.819  16.323  1.00  0.00     0.005 C 
HETATM    8  C9  UNL     1      -7.604 -31.313  16.570  1.00  0.00     0.006 C 
HETATM    9  C10 UNL     1     -10.020 -32.337  17.961  1.00  0.00     0.026 C 
ENDROOT
BRANCH   9  10
HETATM   10  C11 UNL     1     -10.928 -31.338  18.591  1.00  0.00     0.235 C 
BRANCH  10  11
HETATM   11  N1  UNL     1     -12.250 -31.302  17.992  1.00  0.00    -0.079 N 
ATOM     12  H13 UNL     1     -12.199 -31.491  16.991  1.00  0.00     0.274 HD
ATOM     13  H12 UNL     1     -12.804 -32.106  18.288  1.00  0.00     0.274 HD
ATOM     14  H11 UNL     1     -12.752 -30.432  18.169  1.00  0.00     0.274 HD
ENDBRANCH  10  11
ENDBRANCH   9  10
BRANCH   2  15
HETATM   15  C3  UNL     1      -8.539 -33.709  19.376  1.00  0.00     0.232 C 
HETATM   16  F1  UNL     1      -9.457 -33.664  20.402  1.00  0.00    -0.255 F 
ENDBRANCH   2  15
TORSDOF 3
ENDMDL
