MODEL 1
REMARK VINA RESULT: -6.386328209      0.000      0.000
REMARK  3 active torsions:
REMARK  status: ('A' for Active; 'I' for Inactive)
REMARK    1  A    between atoms: S1_2  and  C2_4 
REMARK    2  A    between atoms: C2_4  and  C3_5 
REMARK    3  A    between atoms: C3_5  and  C4_6 
ROOT
HETATM    1  C4  UNL     1      -8.986 -32.335  17.572  1.00  0.00     0.186 C 
HETATM    2  C5  UNL     1      -8.528 -33.301  18.641  1.00  0.00     0.033 C 
HETATM    3  C6  UNL     1      -9.197 -33.193  19.941  1.00  0.00     0.004 C 
HETATM    4  C7  UNL     1     -10.048 -32.015  20.201  1.00  0.00     0.027 C 
HETATM    5  C8  UNL     1     -10.338 -31.136  19.036  1.00  0.00     0.232 C 
HETATM    6  N1  UNL     1     -10.293 -31.816  17.777  1.00  0.00    -0.071 N 
ATOM      7  H11 UNL     1     -11.011 -32.536  17.700  1.00  0.00     0.277 HD
ATOM      8  H12 UNL     1     -10.599 -31.223  17.005  1.00  0.00     0.277 HD
ENDROOT
BRANCH   1   9
HETATM    9  C3  UNL     1      -8.766 -33.026  16.255  1.00  0.00     0.045 C 
BRANCH   9  10
HETATM   10  C2  UNL     1      -7.871 -32.364  15.287  1.00  0.00     0.110 C 
BRANCH  10  11
HETATM   11  S1  UNL     1      -8.725 -31.220  14.246  1.00  0.00     0.010 S 
HETATM   12  C1  UNL     1      -7.959 -29.602  14.500  1.00  0.00     0.127 C 
HETATM   13  O1  UNL     1      -8.418 -31.617  12.627  1.00  0.00    -0.258 OA
ENDBRANCH  10  11
ENDBRANCH   9  10
ENDBRANCH   1   9
TORSDOF 3
ENDMDL
MODEL 2
REMARK VINA RESULT: -6.264269337      0.936      1.537
REMARK  3 active torsions:
REMARK  status: ('A' for Active; 'I' for Inactive)
REMARK    1  A    between atoms: S1_2  and  C2_4 
REMARK    2  A    between atoms: C2_4  and  C3_5 
REMARK    3  A    between atoms: C3_5  and  C4_6 
ROOT
HETATM    1  C4  UNL     1      -9.179 -33.131  17.385  1.00  0.00     0.186 C 
HETATM    2  C5  UNL     1     -10.315 -32.132  17.413  1.00  0.00     0.033 C 
HETATM    3  C6  UNL     1     -10.544 -31.449  18.690  1.00  0.00     0.004 C 
HETATM    4  C7  UNL     1      -9.860 -31.957  19.896  1.00  0.00     0.027 C 
HETATM    5  C8  UNL     1      -8.813 -32.992  19.679  1.00  0.00     0.232 C 
HETATM    6  N1  UNL     1      -8.195 -32.922  18.388  1.00  0.00    -0.071 N 
ATOM      7  H11 UNL     1      -7.682 -32.051  18.252  1.00  0.00     0.277 HD
ATOM      8  H12 UNL     1      -7.410 -33.568  18.300  1.00  0.00     0.277 HD
ENDROOT
BRANCH   1   9
HETATM    9  C3  UNL     1      -8.667 -33.148  15.973  1.00  0.00     0.045 C 
BRANCH   9  10
HETATM   10  C2  UNL     1      -7.890 -31.977  15.522  1.00  0.00     0.110 C 
BRANCH  10  11
HETATM   11  S1  UNL     1      -8.743 -31.028  14.300  1.00  0.00     0.010 S 
HETATM   12  C1  UNL     1      -8.061 -29.354  14.361  1.00  0.00     0.127 C 
HETATM   13  O1  UNL     1      -8.342 -31.624  12.764  1.00  0.00    -0.258 OA
ENDBRANCH  10  11
ENDBRANCH   9  10
ENDBRANCH   1   9
TORSDOF 3
ENDMDL
MODEL 3
REMARK VINA RESULT: -6.007016862      1.406      1.534
REMARK  3 active torsions:
REMARK  status: ('A' for Active; 'I' for Inactive)
REMARK    1  A    between atoms: S1_2  and  C2_4 
REMARK    2  A    between atoms: C2_4  and  C3_5 
REMARK    3  A    between atoms: C3_5  and  C4_6 
ROOT
HETATM    1  C4  UNL     1      -9.577 -32.036  17.585  1.00  0.00     0.186 C 
HETATM    2  C5  UNL     1      -8.659 -33.174  17.969  1.00  0.00     0.033 C 
HETATM    3  C6  UNL     1      -8.679 -33.575  19.380  1.00  0.00     0.004 C 
HETATM    4  C7  UNL     1      -9.361 -32.698  20.352  1.00  0.00     0.027 C 
HETATM    5  C8  UNL     1     -10.169 -31.583  19.789  1.00  0.00     0.232 C 
HETATM    6  N1  UNL     1     -10.669 -31.844  18.472  1.00  0.00    -0.071 N 
ATOM      7  H11 UNL     1     -11.324 -32.626  18.455  1.00  0.00     0.277 HD
ATOM      8  H12 UNL     1     -11.307 -31.116  18.149  1.00  0.00     0.277 HD
ENDROOT
BRANCH   1   9
HETATM    9  C3  UNL     1      -9.946 -32.259  16.145  1.00  0.00     0.045 C 
BRANCH   9  10
HETATM   10  C2  UNL     1      -9.849 -31.101  15.236  1.00  0.00     0.110 C 
BRANCH  10  11
HETATM   11  S1  UNL     1      -8.178 -30.693  14.834  1.00  0.00     0.010 S 
HETATM   12  C1  UNL     1      -7.545 -32.030  13.794  1.00  0.00     0.127 C 
HETATM   13  O1  UNL     1      -8.171 -29.313  13.849  1.00  0.00    -0.258 OA
ENDBRANCH  10  11
ENDBRANCH   9  10
ENDBRANCH   1   9
TORSDOF 3
ENDMDL
MODEL 4
REMARK VINA RESULT: -5.990522890      1.539      2.007
REMARK  3 active torsions:
REMARK  status: ('A' for Active; 'I' for Inactive)
REMARK    1  A    between atoms: S1_2  and  C2_4 
REMARK    2  A    between atoms: C2_4  and  C3_5 
REMARK    3  A    between atoms: C3_5  and  C4_6 
ROOT
HETATM    1  C4  UNL     1     -10.039 -32.806  17.621  1.00  0.00     0.186 C 
HETATM    2  C5  UNL     1     -10.498 -31.599  18.407  1.00  0.00     0.033 C 
HETATM    3  C6  UNL     1      -9.774 -31.325  19.653  1.00  0.00     0.004 C 
HETATM    4  C7  UNL     1      -8.863 -32.359  20.182  1.00  0.00     0.027 C 
HETATM    5  C8  UNL     1      -8.580 -33.515  19.288  1.00  0.00     0.232 C 
HETATM    6  N1  UNL     1      -8.705 -33.207  17.894  1.00  0.00    -0.071 N 
ATOM      7  H11 UNL     1      -8.022 -32.514  17.589  1.00  0.00     0.277 HD
ATOM      8  H12 UNL     1      -8.403 -33.979  17.300  1.00  0.00     0.277 HD
ENDROOT
BRANCH   1   9
HETATM    9  C3  UNL     1     -10.341 -32.509  16.178  1.00  0.00     0.045 C 
BRANCH   9  10
HETATM   10  C2  UNL     1      -9.755 -31.282  15.605  1.00  0.00     0.110 C 
BRANCH  10  11
HETATM   11  S1  UNL     1      -8.410 -31.621  14.509  1.00  0.00     0.010 S 
HETATM   12  C1  UNL     1      -7.251 -30.242  14.655  1.00  0.00     0.127 C 
HETATM   13  O1  UNL     1      -7.570 -32.980  15.077  1.00  0.00    -0.258 OA
ENDBRANCH  10  11
ENDBRANCH   9  10
ENDBRANCH   1   9
TORSDOF 3
ENDMDL
MODEL 5
REMARK VINA RESULT: -5.966349091      1.285      1.285
REMARK  3 active torsions:
REMARK  status: ('A' for Active; 'I' for Inactive)
REMARK    1  A    between atoms: S1_2  and  C2_4 
REMARK    2  A    between atoms: C2_4  and  C3_5 
REMARK    3  A    between atoms: C3_5  and  C4_6 
ROOT
HETATM    1  C4  UNL     1      -9.021 -32.526  18.125  1.00  0.00     0.186 C 
HETATM    2  C5  UNL     1      -8.674 -33.412  19.300  1.00  0.00     0.033 C 
HETATM    3  C6  UNL     1      -9.437 -33.183  20.532  1.00  0.00     0.004 C 
HETATM    4  C7  UNL     1     -10.271 -31.969  20.630  1.00  0.00     0.027 C 
HETATM    5  C8  UNL     1     -10.445 -31.180  19.379  1.00  0.00     0.232 C 
HETATM    6  N1  UNL     1     -10.324 -31.963  18.185  1.00  0.00    -0.071 N 
ATOM      7  H11 UNL     1     -11.055 -32.669  18.110  1.00  0.00     0.277 HD
ATOM      8  H12 UNL     1     -10.553 -31.427  17.348  1.00  0.00     0.277 HD
ENDROOT
BRANCH   1   9
HETATM    9  C3  UNL     1      -8.722 -33.327  16.889  1.00  0.00     0.045 C 
BRANCH   9  10
HETATM   10  C2  UNL     1      -7.804 -32.727  15.902  1.00  0.00     0.110 C 
BRANCH  10  11
HETATM   11  S1  UNL     1      -8.497 -31.310  15.107  1.00  0.00     0.010 S 
HETATM   12  C1  UNL     1      -8.105 -31.449  13.347  1.00  0.00     0.127 C 
HETATM   13  O1  UNL     1     -10.188 -31.400  15.201  1.00  0.00    -0.258 OA
ENDBRANCH  10  11
ENDBRANCH   9  10
ENDBRANCH   1   9
TORSDOF 3
ENDMDL
