MODEL 1
REMARK VINA RESULT: -7.289603458      0.000      0.000
REMARK  4 active torsions:
REMARK  status: ('A' for Active; 'I' for Inactive)
REMARK    1  A    between atoms: C2_2  and  C3_3 
REMARK    2  A    between atoms: C3_3  and  O1_4 
REMARK    3  A    between atoms: C13_16  and  C14_17 
REMARK    4  A    between atoms: C14_17  and  O3_18 
ROOT
HETATM    1  C1  UNL     1      21.083  10.236  20.776  1.00  0.00     0.018 C 
HETATM    2  C2  UNL     1      22.560  10.455  21.162  1.00  0.00    -0.014 C 
HETATM    3  C4  UNL     1      22.751  10.633  22.636  1.00  0.00     0.044 C 
HETATM    4  C5  UNL     1      22.839  12.056  23.086  1.00  0.00     0.187 C 
HETATM    5  C6  UNL     1      21.821  12.894  22.369  1.00  0.00     0.033 C 
HETATM    6  C7  UNL     1      21.944  12.753  20.884  1.00  0.00     0.010 C 
HETATM    7  C8  UNL     1      23.019  11.726  20.479  1.00  0.00     0.035 C 
HETATM    8  C9  UNL     1      24.361  12.095  20.813  1.00  0.00     0.128 A 
HETATM    9  O2  UNL     1      25.288  11.127  21.259  1.00  0.00    -0.335 OA
HETATM   10  C10 UNL     1      26.455  11.494  20.591  1.00  0.00     0.184 C 
HETATM   11  C11 UNL     1      27.634  10.738  21.049  1.00  0.00     0.037 C 
HETATM   12  C12 UNL     1      28.529  10.218  20.236  1.00  0.00    -0.019 C 
HETATM   13  C13 UNL     1      28.455  10.331  18.760  1.00  0.00     0.032 C 
HETATM   14  C15 UNL     1      26.999  10.430  18.375  1.00  0.00     0.016 C 
HETATM   15  C16 UNL     1      26.279  11.515  19.108  1.00  0.00     0.074 C 
HETATM   16  O4  UNL     1      26.516  12.846  21.010  1.00  0.00    -0.341 OA
HETATM   17  C17 UNL     1      25.209  13.235  20.697  1.00  0.00     0.196 A 
HETATM   18  C18 UNL     1      24.272  13.328  21.778  1.00  0.00     0.255 A 
HETATM   19  N1  UNL     1      24.181  12.636  23.023  1.00  0.00    -0.061 N 
ATOM     20  H11 UNL     1      24.923  11.949  23.157  1.00  0.00     0.278 HD
ATOM     21  H12 UNL     1      24.405  13.223  23.827  1.00  0.00     0.278 HD
ENDROOT
BRANCH  13  22
HETATM   22  C14 UNL     1      29.186  11.556  18.252  1.00  0.00     0.172 C 
BRANCH  22  23
HETATM   23  O3  UNL     1      30.087  11.242  17.249  1.00  0.00    -0.400 OA
ATOM     24  H3  UNL     1      30.335  12.006  16.742  1.00  0.00     0.209 HD
ENDBRANCH  22  23
ENDBRANCH  13  22
BRANCH   2  25
HETATM   25  C3  UNL     1      23.243   9.197  20.672  1.00  0.00     0.173 C 
BRANCH  25  26
HETATM   26  O1  UNL     1      24.125   8.705  21.681  1.00  0.00    -0.400 OA
ATOM     27  H1  UNL     1      23.894   7.810  21.900  1.00  0.00     0.209 HD
ENDBRANCH  25  26
ENDBRANCH   2  25
TORSDOF 4
ENDMDL
MODEL 2
REMARK VINA RESULT: -7.113999062      2.500      3.329
REMARK  4 active torsions:
REMARK  status: ('A' for Active; 'I' for Inactive)
REMARK    1  A    between atoms: C2_2  and  C3_3 
REMARK    2  A    between atoms: C3_3  and  O1_4 
REMARK    3  A    between atoms: C13_16  and  C14_17 
REMARK    4  A    between atoms: C14_17  and  O3_18 
ROOT
HETATM    1  C1  UNL     1      19.435  10.284  22.879  1.00  0.00     0.018 C 
HETATM    2  C2  UNL     1      20.881  10.609  22.452  1.00  0.00    -0.014 C 
HETATM    3  C4  UNL     1      21.902  10.007  23.367  1.00  0.00     0.044 C 
HETATM    4  C5  UNL     1      22.427  10.938  24.414  1.00  0.00     0.187 C 
HETATM    5  C6  UNL     1      21.309  11.756  24.992  1.00  0.00     0.033 C 
HETATM    6  C7  UNL     1      20.542  12.469  23.923  1.00  0.00     0.010 C 
HETATM    7  C8  UNL     1      21.040  12.114  22.508  1.00  0.00     0.035 C 
HETATM    8  C9  UNL     1      22.367  12.555  22.207  1.00  0.00     0.128 A 
HETATM    9  O2  UNL     1      23.238  11.755  21.435  1.00  0.00    -0.335 OA
HETATM   10  C10 UNL     1      23.852  12.690  20.604  1.00  0.00     0.184 C 
HETATM   11  C11 UNL     1      24.963  12.117  19.825  1.00  0.00     0.037 C 
HETATM   12  C12 UNL     1      25.152  12.347  18.543  1.00  0.00    -0.019 C 
HETATM   13  C13 UNL     1      24.265  13.213  17.730  1.00  0.00     0.032 C 
HETATM   14  C15 UNL     1      22.881  13.150  18.327  1.00  0.00     0.016 C 
HETATM   15  C16 UNL     1      22.866  13.461  19.789  1.00  0.00     0.074 C 
HETATM   16  O4  UNL     1      24.327  13.574  21.604  1.00  0.00    -0.341 OA
HETATM   17  C17 UNL     1      23.145  13.743  22.333  1.00  0.00     0.196 A 
HETATM   18  C18 UNL     1      23.016  13.013  23.560  1.00  0.00     0.255 A 
HETATM   19  N1  UNL     1      23.558  11.763  23.987  1.00  0.00    -0.061 N 
ATOM     20  H11 UNL     1      24.139  11.314  23.279  1.00  0.00     0.278 HD
ATOM     21  H12 UNL     1      24.279  11.860  24.702  1.00  0.00     0.278 HD
ENDROOT
BRANCH  13  22
HETATM   22  C14 UNL     1      24.737  14.651  17.722  1.00  0.00     0.172 C 
BRANCH  22  23
HETATM   23  O3  UNL     1      25.517  14.935  16.615  1.00  0.00    -0.400 OA
ATOM     24  H3  UNL     1      26.229  15.529  16.824  1.00  0.00     0.209 HD
ENDBRANCH  22  23
ENDBRANCH  13  22
BRANCH   2  25
HETATM   25  C3  UNL     1      20.981  10.018  21.063  1.00  0.00     0.173 C 
BRANCH  25  26
HETATM   26  O1  UNL     1      22.135   9.183  20.977  1.00  0.00    -0.400 OA
ATOM     27  H1  UNL     1      21.878   8.271  21.052  1.00  0.00     0.209 HD
ENDBRANCH  25  26
ENDBRANCH   2  25
TORSDOF 4
ENDMDL
MODEL 3
REMARK VINA RESULT: -7.053405604      2.312      5.695
REMARK  4 active torsions:
REMARK  status: ('A' for Active; 'I' for Inactive)
REMARK    1  A    between atoms: C2_2  and  C3_3 
REMARK    2  A    between atoms: C3_3  and  O1_4 
REMARK    3  A    between atoms: C13_16  and  C14_17 
REMARK    4  A    between atoms: C14_17  and  O3_18 
ROOT
HETATM    1  C1  UNL     1      29.961  11.343  21.339  1.00  0.00     0.018 C 
HETATM    2  C2  UNL     1      28.730  11.353  20.411  1.00  0.00    -0.014 C 
HETATM    3  C4  UNL     1      29.018  11.967  19.076  1.00  0.00     0.044 C 
HETATM    4  C5  UNL     1      28.622  13.404  18.952  1.00  0.00     0.187 C 
HETATM    5  C6  UNL     1      28.983  14.153  20.202  1.00  0.00     0.033 C 
HETATM    6  C7  UNL     1      28.404  13.501  21.418  1.00  0.00     0.010 C 
HETATM    7  C8  UNL     1      27.664  12.191  21.085  1.00  0.00     0.035 C 
HETATM    8  C9  UNL     1      26.483  12.350  20.294  1.00  0.00     0.128 A 
HETATM    9  O2  UNL     1      26.151  11.410  19.293  1.00  0.00    -0.335 OA
HETATM   10  C10 UNL     1      24.773  11.270  19.453  1.00  0.00     0.184 C 
HETATM   11  C11 UNL     1      24.153  10.476  18.379  1.00  0.00     0.037 C 
HETATM   12  C12 UNL     1      23.260   9.532  18.590  1.00  0.00    -0.019 C 
HETATM   13  C13 UNL     1      22.771   9.159  19.940  1.00  0.00     0.032 C 
HETATM   14  C15 UNL     1      23.878   9.437  20.927  1.00  0.00     0.016 C 
HETATM   15  C16 UNL     1      24.402  10.833  20.831  1.00  0.00     0.074 C 
HETATM   16  O4  UNL     1      24.415  12.638  19.353  1.00  0.00    -0.341 OA
HETATM   17  C17 UNL     1      25.319  13.174  20.276  1.00  0.00     0.196 A 
HETATM   18  C18 UNL     1      26.486  13.823  19.754  1.00  0.00     0.255 A 
HETATM   19  N1  UNL     1      27.232  13.624  18.554  1.00  0.00    -0.061 N 
ATOM     20  H11 UNL     1      26.858  12.877  17.967  1.00  0.00     0.278 HD
ATOM     21  H12 UNL     1      27.121  14.383  17.880  1.00  0.00     0.278 HD
ENDROOT
BRANCH  13  22
HETATM   22  C14 UNL     1      21.544   9.954  20.333  1.00  0.00     0.172 C 
BRANCH  22  23
HETATM   23  O3  UNL     1      20.567   9.153  20.897  1.00  0.00    -0.400 OA
ATOM     24  H3  UNL     1      20.778   8.908  21.790  1.00  0.00     0.209 HD
ENDBRANCH  22  23
ENDBRANCH  13  22
BRANCH   2  25
HETATM   25  C3  UNL     1      28.381   9.887  20.272  1.00  0.00     0.173 C 
BRANCH  25  26
HETATM   26  O1  UNL     1      28.426   9.510  18.895  1.00  0.00    -0.400 OA
ATOM     27  H1  UNL     1      28.484   8.565  18.824  1.00  0.00     0.209 HD
ENDBRANCH  25  26
ENDBRANCH   2  25
TORSDOF 4
ENDMDL
MODEL 4
REMARK VINA RESULT: -6.969362312      2.864      6.475
REMARK  4 active torsions:
REMARK  status: ('A' for Active; 'I' for Inactive)
REMARK    1  A    between atoms: C2_2  and  C3_3 
REMARK    2  A    between atoms: C3_3  and  O1_4 
REMARK    3  A    between atoms: C13_16  and  C14_17 
REMARK    4  A    between atoms: C14_17  and  O3_18 
ROOT
HETATM    1  C1  UNL     1      23.994  11.810  18.388  1.00  0.00     0.018 C 
HETATM    2  C2  UNL     1      23.752  11.833  19.911  1.00  0.00    -0.014 C 
HETATM    3  C4  UNL     1      24.485  10.743  20.629  1.00  0.00     0.044 C 
HETATM    4  C5  UNL     1      23.665   9.527  20.921  1.00  0.00     0.187 C 
HETATM    5  C6  UNL     1      22.805   9.183  19.740  1.00  0.00     0.033 C 
HETATM    6  C7  UNL     1      21.970  10.349  19.312  1.00  0.00     0.010 C 
HETATM    7  C8  UNL     1      22.269  11.617  20.134  1.00  0.00     0.035 C 
HETATM    8  C9  UNL     1      21.910  11.540  21.516  1.00  0.00     0.128 A 
HETATM    9  O2  UNL     1      22.721  12.132  22.509  1.00  0.00    -0.335 OA
HETATM   10  C10 UNL     1      21.783  12.704  23.367  1.00  0.00     0.184 C 
HETATM   11  C11 UNL     1      22.386  13.223  24.606  1.00  0.00     0.037 C 
HETATM   12  C12 UNL     1      22.089  14.394  25.129  1.00  0.00    -0.019 C 
HETATM   13  C13 UNL     1      21.109  15.331  24.528  1.00  0.00     0.032 C 
HETATM   14  C15 UNL     1      21.107  15.106  23.036  1.00  0.00     0.016 C 
HETATM   15  C16 UNL     1      20.890  13.675  22.666  1.00  0.00     0.074 C 
HETATM   16  O4  UNL     1      21.003  11.548  23.619  1.00  0.00    -0.341 OA
HETATM   17  C17 UNL     1      20.793  11.128  22.302  1.00  0.00     0.196 A 
HETATM   18  C18 UNL     1      21.589  10.035  21.824  1.00  0.00     0.255 A 
HETATM   19  N1  UNL     1      22.900   9.589  22.167  1.00  0.00    -0.061 N 
ATOM     20  H11 UNL     1      23.346  10.162  22.884  1.00  0.00     0.278 HD
ATOM     21  H12 UNL     1      22.903   8.710  22.686  1.00  0.00     0.278 HD
ENDROOT
BRANCH  13  22
HETATM   22  C14 UNL     1      19.712  15.104  25.066  1.00  0.00     0.172 C 
BRANCH  22  23
HETATM   23  O3  UNL     1      18.758  15.788  24.334  1.00  0.00    -0.400 OA
ATOM     24  H3  UNL     1      18.667  16.689  24.622  1.00  0.00     0.209 HD
ENDBRANCH  22  23
ENDBRANCH  13  22
BRANCH   2  25
HETATM   25  C3  UNL     1      24.258  13.196  20.329  1.00  0.00     0.173 C 
BRANCH  25  26
HETATM   26  O1  UNL     1      25.188  13.055  21.403  1.00  0.00    -0.400 OA
ATOM     27  H1  UNL     1      25.989  12.657  21.082  1.00  0.00     0.209 HD
ENDBRANCH  25  26
ENDBRANCH   2  25
TORSDOF 4
ENDMDL
MODEL 5
REMARK VINA RESULT: -6.944730743      2.602      3.525
REMARK  4 active torsions:
REMARK  status: ('A' for Active; 'I' for Inactive)
REMARK    1  A    between atoms: C2_2  and  C3_3 
REMARK    2  A    between atoms: C3_3  and  O1_4 
REMARK    3  A    between atoms: C13_16  and  C14_17 
REMARK    4  A    between atoms: C14_17  and  O3_18 
ROOT
HETATM    1  C1  UNL     1      21.704   9.461  19.457  1.00  0.00     0.018 C 
HETATM    2  C2  UNL     1      22.870  10.392  19.844  1.00  0.00    -0.014 C 
HETATM    3  C4  UNL     1      23.656   9.881  21.011  1.00  0.00     0.044 C 
HETATM    4  C5  UNL     1      23.272  10.475  22.329  1.00  0.00     0.187 C 
HETATM    5  C6  UNL     1      21.779  10.586  22.436  1.00  0.00     0.033 C 
HETATM    6  C7  UNL     1      21.201  11.337  21.278  1.00  0.00     0.010 C 
HETATM    7  C8  UNL     1      22.270  11.726  20.238  1.00  0.00     0.035 C 
HETATM    8  C9  UNL     1      23.241  12.670  20.696  1.00  0.00     0.128 A 
HETATM    9  O2  UNL     1      24.595  12.564  20.307  1.00  0.00    -0.335 OA
HETATM   10  C10 UNL     1      24.945  13.890  20.057  1.00  0.00     0.184 C 
HETATM   11  C11 UNL     1      26.388  14.063  19.819  1.00  0.00     0.037 C 
HETATM   12  C12 UNL     1      26.885  14.802  18.850  1.00  0.00    -0.019 C 
HETATM   13  C13 UNL     1      26.047  15.549  17.882  1.00  0.00     0.032 C 
HETATM   14  C15 UNL     1      24.747  14.802  17.719  1.00  0.00     0.016 C 
HETATM   15  C16 UNL     1      24.073  14.522  19.023  1.00  0.00     0.074 C 
HETATM   16  O4  UNL     1      24.559  14.443  21.303  1.00  0.00    -0.341 OA
HETATM   17  C17 UNL     1      23.266  13.916  21.392  1.00  0.00     0.196 A 
HETATM   18  C18 UNL     1      23.073  12.785  22.252  1.00  0.00     0.255 A 
HETATM   19  N1  UNL     1      23.948  11.732  22.654  1.00  0.00    -0.061 N 
ATOM     20  H11 UNL     1      24.880  11.805  22.245  1.00  0.00     0.278 HD
ATOM     21  H12 UNL     1      24.233  11.796  23.632  1.00  0.00     0.278 HD
ENDROOT
BRANCH  13  22
HETATM   22  C14 UNL     1      25.754  16.956  18.360  1.00  0.00     0.172 C 
BRANCH  22  23
HETATM   23  O3  UNL     1      24.893  17.624  17.508  1.00  0.00    -0.400 OA
ATOM     24  H3  UNL     1      24.544  18.415  17.902  1.00  0.00     0.209 HD
ENDBRANCH  22  23
ENDBRANCH  13  22
BRANCH   2  25
HETATM   25  C3  UNL     1      23.720  10.433  18.592  1.00  0.00     0.173 C 
BRANCH  25  26
HETATM   26  O1  UNL     1      25.095  10.270  18.939  1.00  0.00    -0.400 OA
ATOM     27  H1  UNL     1      25.583  11.044  18.685  1.00  0.00     0.209 HD
ENDBRANCH  25  26
ENDBRANCH   2  25
TORSDOF 4
ENDMDL
