MODEL 1
REMARK VINA RESULT: -8.202885481      0.000      0.000
REMARK  8 active torsions:
REMARK  status: ('A' for Active; 'I' for Inactive)
REMARK    1  A    between atoms: C5_5  and  C6_6 
REMARK       I    between atoms: C6_6  and  N1_8 
REMARK    2  A    between atoms: N1_8  and  C7_10 
REMARK    3  A    between atoms: C7_10  and  C8_11 
REMARK    4  A    between atoms: C8_11  and  C9_12 
REMARK    5  A    between atoms: C9_12  and  C10_13 
REMARK    6  A    between atoms: C10_13  and  N2_14 
REMARK    7  A    between atoms: C23_27  and  O2_28 
REMARK    8  A    between atoms: C23_27  and  C24_30 
ROOT
HETATM    1  N2  UNL     1      17.731  14.828  14.588  1.00  0.00     0.093 N 
HETATM    2  C11 UNL     1      17.851  15.793  15.610  1.00  0.00     0.273 C 
HETATM    3  C12 UNL     1      19.044  15.648  16.490  1.00  0.00     0.031 C 
HETATM    4  C13 UNL     1      19.813  14.400  16.306  1.00  0.00     0.009 C 
HETATM    5  C14 UNL     1      19.040  13.185  15.852  1.00  0.00     0.024 C 
HETATM    6  C15 UNL     1      17.834  13.453  15.030  1.00  0.00     0.227 C 
HETATM    7  C16 UNL     1      16.530  12.971  15.602  1.00  0.00     0.037 C 
HETATM    8  C17 UNL     1      16.452  12.871  17.078  1.00  0.00     0.015 C 
HETATM    9  C18 UNL     1      17.615  12.275  17.755  1.00  0.00    -0.004 C 
HETATM   10  C19 UNL     1      17.936  13.134  18.993  1.00  0.00     0.019 C 
HETATM   11  C20 UNL     1      18.859  12.184  16.959  1.00  0.00     0.003 C 
HETATM   12  C21 UNL     1      18.876  10.796  16.337  1.00  0.00     0.009 C 
HETATM   13  C22 UNL     1      17.908   9.969  17.125  1.00  0.00     0.045 C 
HETATM   14  C23 UNL     1      17.461  10.871  18.257  1.00  0.00     0.124 C 
ENDROOT
BRANCH   1  15
HETATM   15  C10 UNL     1      18.544  15.049  13.416  1.00  0.00     0.273 C 
BRANCH  15  16
HETATM   16  C9  UNL     1      18.778  16.489  13.120  1.00  0.00     0.032 C 
BRANCH  16  17
HETATM   17  C8  UNL     1      20.237  16.781  12.890  1.00  0.00     0.021 C 
BRANCH  17  18
HETATM   18  C7  UNL     1      20.891  15.655  12.125  1.00  0.00     0.122 C 
BRANCH  18  19
HETATM   19  N1  UNL     1      21.748  14.936  13.080  1.00  0.00    -0.361 N 
HETATM   20  C6  UNL     1      21.954  13.539  12.955  1.00  0.00     0.221 C 
HETATM   21  O1  UNL     1      21.391  12.932  12.012  1.00  0.00    -0.273 OA
ATOM     22  H1  UNL     1      22.198  15.447  13.840  1.00  0.00     0.162 HD
BRANCH  20  23
HETATM   23  C5  UNL     1      22.813  12.802  13.906  1.00  0.00     0.078 C 
HETATM   24  C4  UNL     1      23.287  13.707  14.996  1.00  0.00     0.014 C 
HETATM   25  C3  UNL     1      23.814  12.990  16.204  1.00  0.00     0.005 C 
HETATM   26  C2  UNL     1      22.800  11.978  16.674  1.00  0.00    -0.019 C 
HETATM   27  C1  UNL     1      23.179  11.338  17.971  1.00  0.00     0.010 C 
HETATM   28  C26 UNL     1      22.696  10.923  15.568  1.00  0.00     0.005 C 
HETATM   29  C25 UNL     1      22.028  11.614  14.402  1.00  0.00     0.014 C 
ENDBRANCH  20  23
ENDBRANCH  18  19
ENDBRANCH  17  18
ENDBRANCH  16  17
ENDBRANCH  15  16
ENDBRANCH   1  15
BRANCH  14  30
HETATM   30  O2  UNL     1      18.328  10.612  19.320  1.00  0.00    -0.383 OA
ATOM     31  H2  UNL     1      18.535   9.687  19.381  1.00  0.00     0.210 HD
ENDBRANCH  14  30
BRANCH  14  32
HETATM   32  C24 UNL     1      16.106  10.440  18.672  1.00  0.00     0.388 C 
HETATM   33  F1  UNL     1      16.126   9.033  18.597  1.00  0.00    -0.211 F 
HETATM   34  F2  UNL     1      15.768  10.734  19.965  1.00  0.00    -0.211 F 
ENDBRANCH  14  32
TORSDOF 8
ENDMDL
MODEL 2
REMARK VINA RESULT: -8.073103597      2.027      4.836
REMARK  8 active torsions:
REMARK  status: ('A' for Active; 'I' for Inactive)
REMARK    1  A    between atoms: C5_5  and  C6_6 
REMARK       I    between atoms: C6_6  and  N1_8 
REMARK    2  A    between atoms: N1_8  and  C7_10 
REMARK    3  A    between atoms: C7_10  and  C8_11 
REMARK    4  A    between atoms: C8_11  and  C9_12 
REMARK    5  A    between atoms: C9_12  and  C10_13 
REMARK    6  A    between atoms: C10_13  and  N2_14 
REMARK    7  A    between atoms: C23_27  and  O2_28 
REMARK    8  A    between atoms: C23_27  and  C24_30 
ROOT
HETATM    1  N2  UNL     1      21.479  12.556  14.853  1.00  0.00     0.093 N 
HETATM    2  C11 UNL     1      22.049  11.310  15.189  1.00  0.00     0.273 C 
HETATM    3  C12 UNL     1      21.233  10.116  14.832  1.00  0.00     0.031 C 
HETATM    4  C13 UNL     1      19.859  10.408  14.376  1.00  0.00     0.009 C 
HETATM    5  C14 UNL     1      19.204  11.648  14.938  1.00  0.00     0.024 C 
HETATM    6  C15 UNL     1      20.121  12.751  15.315  1.00  0.00     0.227 C 
HETATM    7  C16 UNL     1      20.097  13.158  16.762  1.00  0.00     0.037 C 
HETATM    8  C17 UNL     1      19.702  12.115  17.737  1.00  0.00     0.015 C 
HETATM    9  C18 UNL     1      18.545  11.282  17.370  1.00  0.00    -0.004 C 
HETATM   10  C19 UNL     1      18.890   9.818  17.702  1.00  0.00     0.019 C 
HETATM   11  C20 UNL     1      18.140  11.318  15.946  1.00  0.00     0.003 C 
HETATM   12  C21 UNL     1      17.049  12.371  15.833  1.00  0.00     0.009 C 
HETATM   13  C22 UNL     1      16.532  12.596  17.220  1.00  0.00     0.045 C 
HETATM   14  C23 UNL     1      17.252  11.570  18.071  1.00  0.00     0.124 C 
ENDROOT
BRANCH   1  15
HETATM   15  C10 UNL     1      21.612  12.956  13.474  1.00  0.00     0.273 C 
BRANCH  15  16
HETATM   16  C9  UNL     1      21.743  14.427  13.292  1.00  0.00     0.032 C 
BRANCH  16  17
HETATM   17  C8  UNL     1      20.948  14.917  12.112  1.00  0.00     0.021 C 
BRANCH  17  18
HETATM   18  C7  UNL     1      20.123  16.125  12.491  1.00  0.00     0.122 C 
BRANCH  18  19
HETATM   19  N1  UNL     1      19.180  15.684  13.531  1.00  0.00    -0.361 N 
HETATM   20  C6  UNL     1      19.051  16.410  14.741  1.00  0.00     0.221 C 
HETATM   21  O1  UNL     1      19.756  17.433  14.905  1.00  0.00    -0.273 OA
ATOM     22  H1  UNL     1      18.614  14.849  13.378  1.00  0.00     0.162 HD
BRANCH  20  23
HETATM   23  C5  UNL     1      18.107  15.980  15.795  1.00  0.00     0.078 C 
HETATM   24  C4  UNL     1      18.198  16.882  16.983  1.00  0.00     0.014 C 
HETATM   25  C3  UNL     1      17.029  16.787  17.919  1.00  0.00     0.005 C 
HETATM   26  C2  UNL     1      15.747  16.956  17.144  1.00  0.00    -0.019 C 
HETATM   27  C1  UNL     1      14.544  17.039  18.028  1.00  0.00     0.010 C 
HETATM   28  C26 UNL     1      15.641  15.746  16.211  1.00  0.00     0.005 C 
HETATM   29  C25 UNL     1      16.732  15.925  15.180  1.00  0.00     0.014 C 
ENDBRANCH  20  23
ENDBRANCH  18  19
ENDBRANCH  17  18
ENDBRANCH  16  17
ENDBRANCH  15  16
ENDBRANCH   1  15
BRANCH  14  30
HETATM   30  O2  UNL     1      16.426  10.445  18.098  1.00  0.00    -0.383 OA
ATOM     31  H2  UNL     1      16.204  10.201  18.989  1.00  0.00     0.210 HD
ENDBRANCH  14  30
BRANCH  14  32
HETATM   32  C24 UNL     1      17.330  12.101  19.452  1.00  0.00     0.388 C 
HETATM   33  F1  UNL     1      17.157  13.494  19.323  1.00  0.00    -0.211 F 
HETATM   34  F2  UNL     1      16.337  11.685  20.296  1.00  0.00    -0.211 F 
ENDBRANCH  14  32
TORSDOF 8
ENDMDL
MODEL 3
REMARK VINA RESULT: -8.028198587      2.888      5.920
REMARK  8 active torsions:
REMARK  status: ('A' for Active; 'I' for Inactive)
REMARK    1  A    between atoms: C5_5  and  C6_6 
REMARK       I    between atoms: C6_6  and  N1_8 
REMARK    2  A    between atoms: N1_8  and  C7_10 
REMARK    3  A    between atoms: C7_10  and  C8_11 
REMARK    4  A    between atoms: C8_11  and  C9_12 
REMARK    5  A    between atoms: C9_12  and  C10_13 
REMARK    6  A    between atoms: C10_13  and  N2_14 
REMARK    7  A    between atoms: C23_27  and  O2_28 
REMARK    8  A    between atoms: C23_27  and  C24_30 
ROOT
HETATM    1  N2  UNL     1      18.888  11.798  13.080  1.00  0.00     0.093 N 
HETATM    2  C11 UNL     1      18.686  12.661  11.982  1.00  0.00     0.273 C 
HETATM    3  C12 UNL     1      19.680  13.760  11.841  1.00  0.00     0.031 C 
HETATM    4  C13 UNL     1      20.606  13.921  12.981  1.00  0.00     0.009 C 
HETATM    5  C14 UNL     1      20.085  13.526  14.342  1.00  0.00     0.024 C 
HETATM    6  C15 UNL     1      19.052  12.461  14.356  1.00  0.00     0.227 C 
HETATM    7  C16 UNL     1      17.721  12.847  14.938  1.00  0.00     0.037 C 
HETATM    8  C17 UNL     1      17.352  14.280  14.855  1.00  0.00     0.015 C 
HETATM    9  C18 UNL     1      18.410  15.247  15.187  1.00  0.00    -0.004 C 
HETATM   10  C19 UNL     1      18.371  16.373  14.137  1.00  0.00     0.019 C 
HETATM   11  C20 UNL     1      19.794  14.722  15.205  1.00  0.00     0.003 C 
HETATM   12  C21 UNL     1      20.094  14.339  16.646  1.00  0.00     0.009 C 
HETATM   13  C22 UNL     1      19.085  15.051  17.491  1.00  0.00     0.045 C 
HETATM   14  C23 UNL     1      18.316  15.924  16.521  1.00  0.00     0.124 C 
ENDROOT
BRANCH   1  15
HETATM   15  C10 UNL     1      19.894  10.779  12.901  1.00  0.00     0.273 C 
BRANCH  15  16
HETATM   16  C9  UNL     1      19.399   9.403  13.174  1.00  0.00     0.032 C 
BRANCH  16  17
HETATM   17  C8  UNL     1      20.365   8.621  14.024  1.00  0.00     0.021 C 
BRANCH  17  18
HETATM   18  C7  UNL     1      19.635   7.900  15.132  1.00  0.00     0.122 C 
BRANCH  18  19
HETATM   19  N1  UNL     1      18.626   8.835  15.654  1.00  0.00    -0.361 N 
HETATM   20  C6  UNL     1      18.711   9.318  16.984  1.00  0.00     0.221 C 
HETATM   21  O1  UNL     1      19.664   8.933  17.703  1.00  0.00    -0.273 OA
ATOM     22  H1  UNL     1      17.860   9.138  15.054  1.00  0.00     0.162 HD
BRANCH  20  23
HETATM   23  C5  UNL     1      17.706  10.259  17.523  1.00  0.00     0.078 C 
HETATM   24  C4  UNL     1      16.780   9.557  18.464  1.00  0.00     0.014 C 
HETATM   25  C3  UNL     1      15.999  10.475  19.357  1.00  0.00     0.005 C 
HETATM   26  C2  UNL     1      16.942  11.426  20.052  1.00  0.00    -0.019 C 
HETATM   27  C1  UNL     1      16.259  12.264  21.085  1.00  0.00     0.010 C 
HETATM   28  C26 UNL     1      17.547  12.312  18.959  1.00  0.00     0.005 C 
HETATM   29  C25 UNL     1      18.449  11.410  18.150  1.00  0.00     0.014 C 
ENDBRANCH  20  23
ENDBRANCH  18  19
ENDBRANCH  17  18
ENDBRANCH  16  17
ENDBRANCH  15  16
ENDBRANCH   1  15
BRANCH  14  30
HETATM   30  O2  UNL     1      18.969  17.158  16.513  1.00  0.00    -0.383 OA
ATOM     31  H2  UNL     1      18.361  17.873  16.661  1.00  0.00     0.210 HD
ENDBRANCH  14  30
BRANCH  14  32
HETATM   32  C24 UNL     1      16.961  16.140  17.081  1.00  0.00     0.388 C 
HETATM   33  F1  UNL     1      16.820  15.169  18.092  1.00  0.00    -0.211 F 
HETATM   34  F2  UNL     1      16.769  17.345  17.699  1.00  0.00    -0.211 F 
ENDBRANCH  14  32
TORSDOF 8
ENDMDL
MODEL 4
REMARK VINA RESULT: -7.909713847      2.722      5.098
REMARK  8 active torsions:
REMARK  status: ('A' for Active; 'I' for Inactive)
REMARK    1  A    between atoms: C5_5  and  C6_6 
REMARK       I    between atoms: C6_6  and  N1_8 
REMARK    2  A    between atoms: N1_8  and  C7_10 
REMARK    3  A    between atoms: C7_10  and  C8_11 
REMARK    4  A    between atoms: C8_11  and  C9_12 
REMARK    5  A    between atoms: C9_12  and  C10_13 
REMARK    6  A    between atoms: C10_13  and  N2_14 
REMARK    7  A    between atoms: C23_27  and  O2_28 
REMARK    8  A    between atoms: C23_27  and  C24_30 
ROOT
HETATM    1  N2  UNL     1      19.744  11.484  17.428  1.00  0.00     0.093 N 
HETATM    2  C11 UNL     1      18.707  10.687  16.901  1.00  0.00     0.273 C 
HETATM    3  C12 UNL     1      18.304  11.004  15.503  1.00  0.00     0.031 C 
HETATM    4  C13 UNL     1      18.895  12.238  14.943  1.00  0.00     0.009 C 
HETATM    5  C14 UNL     1      19.215  13.343  15.921  1.00  0.00     0.024 C 
HETATM    6  C15 UNL     1      19.543  12.912  17.301  1.00  0.00     0.227 C 
HETATM    7  C16 UNL     1      18.634  13.427  18.382  1.00  0.00     0.037 C 
HETATM    8  C17 UNL     1      17.243  13.744  17.982  1.00  0.00     0.015 C 
HETATM    9  C18 UNL     1      17.078  14.476  16.716  1.00  0.00    -0.004 C 
HETATM   10  C19 UNL     1      15.921  13.823  15.937  1.00  0.00     0.019 C 
HETATM   11  C20 UNL     1      18.251  14.491  15.812  1.00  0.00     0.003 C 
HETATM   12  C21 UNL     1      19.016  15.770  16.116  1.00  0.00     0.009 C 
HETATM   13  C22 UNL     1      18.062  16.671  16.838  1.00  0.00     0.045 C 
HETATM   14  C23 UNL     1      16.740  15.933  16.813  1.00  0.00     0.124 C 
ENDROOT
BRANCH   1  15
HETATM   15  C10 UNL     1      21.082  11.119  17.028  1.00  0.00     0.273 C 
BRANCH  15  16
HETATM   16  C9  UNL     1      22.058  12.237  17.134  1.00  0.00     0.032 C 
BRANCH  16  17
HETATM   17  C8  UNL     1      23.480  11.743  17.082  1.00  0.00     0.021 C 
BRANCH  17  18
HETATM   18  C7  UNL     1      23.915  11.526  15.652  1.00  0.00     0.122 C 
BRANCH  18  19
HETATM   19  N1  UNL     1      23.465  12.701  14.889  1.00  0.00    -0.361 N 
HETATM   20  C6  UNL     1      22.652  12.546  13.739  1.00  0.00     0.221 C 
HETATM   21  O1  UNL     1      22.325  11.387  13.388  1.00  0.00    -0.273 OA
ATOM     22  H1  UNL     1      23.741  13.636  15.192  1.00  0.00     0.162 HD
BRANCH  20  23
HETATM   23  C5  UNL     1      22.191  13.716  12.962  1.00  0.00     0.078 C 
HETATM   24  C4  UNL     1      21.064  13.336  12.057  1.00  0.00     0.014 C 
HETATM   25  C3  UNL     1      20.272  14.501  11.539  1.00  0.00     0.005 C 
HETATM   26  C2  UNL     1      19.839  15.370  12.693  1.00  0.00    -0.019 C 
HETATM   27  C1  UNL     1      18.906  16.462  12.275  1.00  0.00     0.010 C 
HETATM   28  C26 UNL     1      21.117  15.962  13.294  1.00  0.00     0.005 C 
HETATM   29  C25 UNL     1      21.840  14.805  13.943  1.00  0.00     0.014 C 
ENDBRANCH  20  23
ENDBRANCH  18  19
ENDBRANCH  17  18
ENDBRANCH  16  17
ENDBRANCH  15  16
ENDBRANCH   1  15
BRANCH  14  30
HETATM   30  O2  UNL     1      16.072  16.378  15.671  1.00  0.00    -0.383 OA
ATOM     31  H2  UNL     1      16.352  15.901  14.899  1.00  0.00     0.210 HD
ENDBRANCH  14  30
BRANCH  14  32
HETATM   32  C24 UNL     1      15.953  16.371  17.990  1.00  0.00     0.388 C 
HETATM   33  F1  UNL     1      16.477  17.634  18.335  1.00  0.00    -0.211 F 
HETATM   34  F2  UNL     1      14.621  16.578  17.759  1.00  0.00    -0.211 F 
ENDBRANCH  14  32
TORSDOF 8
ENDMDL
MODEL 5
REMARK VINA RESULT: -7.861472651      3.302      7.089
REMARK  8 active torsions:
REMARK  status: ('A' for Active; 'I' for Inactive)
REMARK    1  A    between atoms: C5_5  and  C6_6 
REMARK       I    between atoms: C6_6  and  N1_8 
REMARK    2  A    between atoms: N1_8  and  C7_10 
REMARK    3  A    between atoms: C7_10  and  C8_11 
REMARK    4  A    between atoms: C8_11  and  C9_12 
REMARK    5  A    between atoms: C9_12  and  C10_13 
REMARK    6  A    between atoms: C10_13  and  N2_14 
REMARK    7  A    between atoms: C23_27  and  O2_28 
REMARK    8  A    between atoms: C23_27  and  C24_30 
ROOT
HETATM    1  N2  UNL     1      18.922  10.053  14.726  1.00  0.00     0.093 N 
HETATM    2  C11 UNL     1      19.345   9.589  13.463  1.00  0.00     0.273 C 
HETATM    3  C12 UNL     1      20.769   9.864  13.125  1.00  0.00     0.031 C 
HETATM    4  C13 UNL     1      21.475  10.765  14.059  1.00  0.00     0.009 C 
HETATM    5  C14 UNL     1      20.637  11.805  14.765  1.00  0.00     0.024 C 
HETATM    6  C15 UNL     1      19.216  11.445  14.995  1.00  0.00     0.227 C 
HETATM    7  C16 UNL     1      18.199  12.345  14.352  1.00  0.00     0.037 C 
HETATM    8  C17 UNL     1      18.627  13.055  13.124  1.00  0.00     0.015 C 
HETATM    9  C18 UNL     1      19.970  13.657  13.150  1.00  0.00    -0.004 C 
HETATM   10  C19 UNL     1      20.659  13.339  11.810  1.00  0.00     0.019 C 
HETATM   11  C20 UNL     1      20.875  13.186  14.223  1.00  0.00     0.003 C 
HETATM   12  C21 UNL     1      20.729  14.169  15.375  1.00  0.00     0.009 C 
HETATM   13  C22 UNL     1      20.114  15.406  14.799  1.00  0.00     0.045 C 
HETATM   14  C23 UNL     1      20.044  15.145  13.309  1.00  0.00     0.124 C 
ENDROOT
BRANCH   1  15
HETATM   15  C10 UNL     1      19.283   9.228  15.853  1.00  0.00     0.273 C 
BRANCH  15  16
HETATM   16  C9  UNL     1      19.127   9.913  17.165  1.00  0.00     0.032 C 
BRANCH  16  17
HETATM   17  C8  UNL     1      17.722   9.793  17.693  1.00  0.00     0.021 C 
BRANCH  17  18
HETATM   18  C7  UNL     1      17.449  10.863  18.723  1.00  0.00     0.122 C 
BRANCH  18  19
HETATM   19  N1  UNL     1      17.026  12.064  17.986  1.00  0.00    -0.361 N 
HETATM   20  C6  UNL     1      17.870  13.201  17.915  1.00  0.00     0.221 C 
HETATM   21  O1  UNL     1      18.982  13.159  18.492  1.00  0.00    -0.273 OA
ATOM     22  H1  UNL     1      16.118  12.078  17.521  1.00  0.00     0.162 HD
BRANCH  20  23
HETATM   23  C5  UNL     1      17.459  14.415  17.178  1.00  0.00     0.078 C 
HETATM   24  C4  UNL     1      16.041  14.299  16.721  1.00  0.00     0.014 C 
HETATM   25  C3  UNL     1      15.412  15.604  16.331  1.00  0.00     0.005 C 
HETATM   26  C2  UNL     1      15.597  16.606  17.443  1.00  0.00    -0.019 C 
HETATM   27  C1  UNL     1      14.855  17.881  17.200  1.00  0.00     0.010 C 
HETATM   28  C26 UNL     1      17.102  16.874  17.540  1.00  0.00     0.005 C 
HETATM   29  C25 UNL     1      17.713  15.599  18.074  1.00  0.00     0.014 C 
ENDBRANCH  20  23
ENDBRANCH  18  19
ENDBRANCH  17  18
ENDBRANCH  16  17
ENDBRANCH  15  16
ENDBRANCH   1  15
BRANCH  14  30
HETATM   30  O2  UNL     1      21.227  15.656  12.773  1.00  0.00    -0.383 OA
ATOM     31  H2  UNL     1      21.935  15.026  12.833  1.00  0.00     0.210 HD
ENDBRANCH  14  30
BRANCH  14  32
HETATM   32  C24 UNL     1      18.923  15.945  12.761  1.00  0.00     0.388 C 
HETATM   33  F1  UNL     1      18.250  16.459  13.887  1.00  0.00    -0.211 F 
HETATM   34  F2  UNL     1      19.290  17.037  12.023  1.00  0.00    -0.211 F 
ENDBRANCH  14  32
TORSDOF 8
ENDMDL
