MODEL 1
REMARK VINA RESULT: -8.794562390      0.000      0.000
REMARK  13 active torsions:
REMARK  status: ('A' for Active; 'I' for Inactive)
REMARK    1  A    between atoms: C2_2  and  N1_3 
REMARK    2  A    between atoms: N1_3  and  C3_4 
REMARK       I    between atoms: N1_3  and  C27_39 
REMARK    3  A    between atoms: C3_4  and  C4_5 
REMARK    4  A    between atoms: C7_8  and  C8_9 
REMARK       I    between atoms: C8_9  and  N2_11 
REMARK    5  A    between atoms: N3_14  and  C11_15 
REMARK    6  A    between atoms: C13_19  and  N5_20 
REMARK       I    between atoms: N5_20  and  C14_22 
REMARK    7  A    between atoms: C14_22  and  C15_24 
REMARK    8  A    between atoms: C15_24  and  C16_25 
REMARK    9  A    between atoms: C16_25  and  N6_26 
REMARK   10  A    between atoms: N6_26  and  C18_28 
REMARK   11  A    between atoms: C18_28  and  C19_29 
REMARK   12  A    between atoms: C19_29  and  O3_30 
REMARK   13  A    between atoms: C27_39  and  C28_41 
ROOT
HETATM    1  C8  UNL     1       8.774 -15.742 -16.143  1.00  0.00     0.224 C 
HETATM    2  O1  UNL     1       9.070 -14.684 -15.486  1.00  0.00    -0.273 OA
HETATM    3  N2  UNL     1       9.548 -16.883 -15.950  1.00  0.00    -0.349 N 
HETATM    4  C9  UNL     1       9.309 -18.091 -16.693  1.00  0.00     0.145 C 
HETATM    5  C10 UNL     1      10.537 -18.227 -17.616  1.00  0.00     0.144 C 
HETATM    6  N3  UNL     1      11.697 -18.256 -16.774  1.00  0.00    -0.364 N 
HETATM    7  C23 UNL     1      11.870 -17.457 -15.574  1.00  0.00     0.144 C 
HETATM    8  C24 UNL     1      10.618 -16.905 -14.988  1.00  0.00     0.145 C 
ENDROOT
BRANCH   1   9
HETATM    9  C7  UNL     1       7.609 -15.605 -17.046  1.00  0.00     0.078 C 
HETATM   10  C6  UNL     1       7.940 -15.920 -18.470  1.00  0.00     0.014 C 
HETATM   11  C5  UNL     1       6.750 -15.706 -19.343  1.00  0.00     0.007 C 
HETATM   12  C4  UNL     1       5.482 -16.322 -18.888  1.00  0.00     0.004 C 
HETATM   13  C26 UNL     1       5.228 -16.051 -17.402  1.00  0.00     0.007 C 
HETATM   14  C25 UNL     1       6.453 -16.424 -16.591  1.00  0.00     0.014 C 
BRANCH  12  15
HETATM   15  C3  UNL     1       5.283 -17.767 -19.105  1.00  0.00     0.130 C 
BRANCH  15  16
HETATM   16  N1  UNL     1       6.154 -18.431 -20.043  1.00  0.00    -0.347 N 
HETATM   17  C27 UNL     1       7.241 -19.235 -19.634  1.00  0.00     0.273 C 
HETATM   18  O4  UNL     1       7.343 -19.386 -18.365  1.00  0.00    -0.266 OA
BRANCH  16  19
HETATM   19  C2  UNL     1       5.915 -18.210 -21.448  1.00  0.00     0.121 C 
HETATM   20  C1  UNL     1       4.781 -19.113 -21.933  1.00  0.00     0.026 C 
ENDBRANCH  16  19
BRANCH  17  21
HETATM   21  C28 UNL     1       8.224 -19.885 -20.465  1.00  0.00     0.132 A 
HETATM   22  N7  UNL     1       8.451 -21.167 -20.792  1.00  0.00    -0.334 N 
HETATM   23  C29 UNL     1       9.496 -21.283 -21.622  1.00  0.00     0.120 A 
ATOM     24  H7  UNL     1       7.898 -21.954 -20.451  1.00  0.00     0.168 HD
HETATM   25  C30 UNL     1      10.075 -22.505 -22.218  1.00  0.00     0.098 C 
HETATM   26  O5  UNL     1       9.941 -20.072 -21.829  1.00  0.00    -0.300 OA
HETATM   27  C31 UNL     1       9.228 -19.203 -21.170  1.00  0.00     0.083 A 
HETATM   28  C32 UNL     1       9.473 -17.746 -21.190  1.00  0.00     0.079 C 
ENDBRANCH  17  21
ENDBRANCH  15  16
ENDBRANCH  12  15
ENDBRANCH   1   9
BRANCH   6  29
HETATM   29  C11 UNL     1      12.812 -19.101 -17.092  1.00  0.00     0.109 A 
HETATM   30  N4  UNL     1      13.786 -18.770 -17.950  1.00  0.00    -0.350 N 
HETATM   31  C12 UNL     1      14.817 -19.616 -18.215  1.00  0.00     0.119 A 
ATOM     32  H4  UNL     1      13.753 -17.863 -18.416  1.00  0.00     0.166 HD
HETATM   33  C13 UNL     1      14.930 -20.844 -17.633  1.00  0.00     0.050 A 
HETATM   34  C20 UNL     1      13.911 -21.215 -16.720  1.00  0.00     0.041 A 
HETATM   35  C21 UNL     1      12.890 -20.329 -16.482  1.00  0.00    -0.016 A 
HETATM   36  C22 UNL     1      11.805 -20.717 -15.534  1.00  0.00     0.052 C 
BRANCH  33  37
HETATM   37  N5  UNL     1      15.940 -21.801 -17.863  1.00  0.00    -0.326 N 
HETATM   38  C14 UNL     1      15.846 -22.806 -18.837  1.00  0.00     0.226 C 
HETATM   39  O2  UNL     1      14.886 -22.967 -19.589  1.00  0.00    -0.273 OA
ATOM     40  H5  UNL     1      16.783 -21.761 -17.290  1.00  0.00     0.169 HD
BRANCH  38  41
HETATM   41  C15 UNL     1      17.003 -23.794 -19.008  1.00  0.00     0.148 C 
BRANCH  41  42
HETATM   42  C16 UNL     1      18.130 -23.319 -18.161  1.00  0.00     0.072 C 
BRANCH  42  43
HETATM   43  N6  UNL     1      18.549 -24.050 -17.070  1.00  0.00    -0.376 N 
HETATM   44  C17 UNL     1      18.621 -25.460 -17.346  1.00  0.00     0.154 C 
BRANCH  43  45
HETATM   45  C18 UNL     1      19.445 -23.639 -16.100  1.00  0.00     0.088 C 
BRANCH  45  46
HETATM   46  C19 UNL     1      19.474 -22.210 -15.673  1.00  0.00     0.208 C 
BRANCH  46  47
HETATM   47  O3  UNL     1      20.520 -21.504 -16.290  1.00  0.00    -0.396 OA
ATOM     48  H3  UNL     1      20.356 -21.369 -17.216  1.00  0.00     0.209 HD
ENDBRANCH  46  47
ENDBRANCH  45  46
ENDBRANCH  43  45
ENDBRANCH  42  43
ENDBRANCH  41  42
ENDBRANCH  38  41
ENDBRANCH  33  37
ENDBRANCH   6  29
TORSDOF 13
ENDMDL
MODEL 2
REMARK VINA RESULT: -8.780993317      1.398      1.592
REMARK  13 active torsions:
REMARK  status: ('A' for Active; 'I' for Inactive)
REMARK    1  A    between atoms: C2_2  and  N1_3 
REMARK    2  A    between atoms: N1_3  and  C3_4 
REMARK       I    between atoms: N1_3  and  C27_39 
REMARK    3  A    between atoms: C3_4  and  C4_5 
REMARK    4  A    between atoms: C7_8  and  C8_9 
REMARK       I    between atoms: C8_9  and  N2_11 
REMARK    5  A    between atoms: N3_14  and  C11_15 
REMARK    6  A    between atoms: C13_19  and  N5_20 
REMARK       I    between atoms: N5_20  and  C14_22 
REMARK    7  A    between atoms: C14_22  and  C15_24 
REMARK    8  A    between atoms: C15_24  and  C16_25 
REMARK    9  A    between atoms: C16_25  and  N6_26 
REMARK   10  A    between atoms: N6_26  and  C18_28 
REMARK   11  A    between atoms: C18_28  and  C19_29 
REMARK   12  A    between atoms: C19_29  and  O3_30 
REMARK   13  A    between atoms: C27_39  and  C28_41 
ROOT
HETATM    1  C8  UNL     1       8.715 -15.793 -16.153  1.00  0.00     0.224 C 
HETATM    2  O1  UNL     1       8.997 -14.730 -15.497  1.00  0.00    -0.273 OA
HETATM    3  N2  UNL     1       9.510 -16.920 -15.965  1.00  0.00    -0.349 N 
HETATM    4  C9  UNL     1       9.286 -18.131 -16.707  1.00  0.00     0.145 C 
HETATM    5  C10 UNL     1      10.510 -18.246 -17.638  1.00  0.00     0.144 C 
HETATM    6  N3  UNL     1      11.677 -18.255 -16.803  1.00  0.00    -0.364 N 
HETATM    7  C23 UNL     1      11.843 -17.454 -15.604  1.00  0.00     0.144 C 
HETATM    8  C24 UNL     1      10.586 -16.924 -15.010  1.00  0.00     0.145 C 
ENDROOT
BRANCH   1   9
HETATM    9  C7  UNL     1       7.542 -15.675 -17.048  1.00  0.00     0.078 C 
HETATM   10  C6  UNL     1       7.872 -15.970 -18.476  1.00  0.00     0.014 C 
HETATM   11  C5  UNL     1       6.672 -15.778 -19.340  1.00  0.00     0.007 C 
HETATM   12  C4  UNL     1       5.421 -16.427 -18.884  1.00  0.00     0.004 C 
HETATM   13  C26 UNL     1       5.169 -16.174 -17.394  1.00  0.00     0.007 C 
HETATM   14  C25 UNL     1       6.408 -16.525 -16.593  1.00  0.00     0.014 C 
BRANCH  12  15
HETATM   15  C3  UNL     1       5.254 -17.874 -19.112  1.00  0.00     0.130 C 
BRANCH  15  16
HETATM   16  N1  UNL     1       6.138 -18.511 -20.058  1.00  0.00    -0.347 N 
HETATM   17  C27 UNL     1       7.235 -19.305 -19.659  1.00  0.00     0.273 C 
HETATM   18  O4  UNL     1       7.337 -19.473 -18.392  1.00  0.00    -0.266 OA
BRANCH  16  19
HETATM   19  C2  UNL     1       5.898 -18.271 -21.460  1.00  0.00     0.121 C 
HETATM   20  C1  UNL     1       4.751 -19.153 -21.952  1.00  0.00     0.026 C 
ENDBRANCH  16  19
BRANCH  17  21
HETATM   21  C28 UNL     1       8.229 -19.927 -20.498  1.00  0.00     0.132 A 
HETATM   22  N7  UNL     1       8.487 -21.202 -20.831  1.00  0.00    -0.334 N 
HETATM   23  C29 UNL     1       9.529 -21.289 -21.667  1.00  0.00     0.120 A 
ATOM     24  H7  UNL     1       7.956 -22.004 -20.489  1.00  0.00     0.168 HD
HETATM   25  C30 UNL     1      10.135 -22.494 -22.271  1.00  0.00     0.098 C 
HETATM   26  O5  UNL     1       9.943 -20.066 -21.873  1.00  0.00    -0.300 OA
HETATM   27  C31 UNL     1       9.212 -19.218 -21.206  1.00  0.00     0.083 A 
HETATM   28  C32 UNL     1       9.420 -17.755 -21.222  1.00  0.00     0.079 C 
ENDBRANCH  17  21
ENDBRANCH  15  16
ENDBRANCH  12  15
ENDBRANCH   1   9
BRANCH   6  29
HETATM   29  C11 UNL     1      12.803 -19.081 -17.129  1.00  0.00     0.109 A 
HETATM   30  N4  UNL     1      13.737 -18.757 -18.033  1.00  0.00    -0.350 N 
HETATM   31  C12 UNL     1      14.783 -19.584 -18.302  1.00  0.00     0.119 A 
ATOM     32  H4  UNL     1      13.663 -17.870 -18.531  1.00  0.00     0.166 HD
HETATM   33  C13 UNL     1      14.952 -20.785 -17.679  1.00  0.00     0.050 A 
HETATM   34  C20 UNL     1      13.976 -21.148 -16.717  1.00  0.00     0.041 A 
HETATM   35  C21 UNL     1      12.938 -20.282 -16.477  1.00  0.00    -0.016 A 
HETATM   36  C22 UNL     1      11.898 -20.663 -15.477  1.00  0.00     0.052 C 
BRANCH  33  37
HETATM   37  N5  UNL     1      15.980 -21.721 -17.909  1.00  0.00    -0.326 N 
HETATM   38  C14 UNL     1      15.890 -22.752 -18.857  1.00  0.00     0.226 C 
HETATM   39  O2  UNL     1      14.919 -22.954 -19.584  1.00  0.00    -0.273 OA
ATOM     40  H5  UNL     1      16.834 -21.647 -17.356  1.00  0.00     0.169 HD
BRANCH  38  41
HETATM   41  C15 UNL     1      17.068 -23.714 -19.031  1.00  0.00     0.148 C 
BRANCH  41  42
HETATM   42  C16 UNL     1      16.558 -25.094 -18.815  1.00  0.00     0.072 C 
BRANCH  42  43
HETATM   43  N6  UNL     1      17.273 -26.188 -19.255  1.00  0.00    -0.376 N 
HETATM   44  C17 UNL     1      17.531 -26.144 -20.670  1.00  0.00     0.154 C 
BRANCH  43  45
HETATM   45  C18 UNL     1      18.239 -26.878 -18.548  1.00  0.00     0.088 C 
BRANCH  45  46
HETATM   46  C19 UNL     1      18.496 -26.540 -17.117  1.00  0.00     0.208 C 
BRANCH  46  47
HETATM   47  O3  UNL     1      17.738 -27.344 -16.249  1.00  0.00    -0.396 OA
ATOM     48  H3  UNL     1      17.385 -26.843 -15.523  1.00  0.00     0.209 HD
ENDBRANCH  46  47
ENDBRANCH  45  46
ENDBRANCH  43  45
ENDBRANCH  42  43
ENDBRANCH  41  42
ENDBRANCH  38  41
ENDBRANCH  33  37
ENDBRANCH   6  29
TORSDOF 13
ENDMDL
MODEL 3
REMARK VINA RESULT: -8.616635680      2.324      3.297
REMARK  13 active torsions:
REMARK  status: ('A' for Active; 'I' for Inactive)
REMARK    1  A    between atoms: C2_2  and  N1_3 
REMARK    2  A    between atoms: N1_3  and  C3_4 
REMARK       I    between atoms: N1_3  and  C27_39 
REMARK    3  A    between atoms: C3_4  and  C4_5 
REMARK    4  A    between atoms: C7_8  and  C8_9 
REMARK       I    between atoms: C8_9  and  N2_11 
REMARK    5  A    between atoms: N3_14  and  C11_15 
REMARK    6  A    between atoms: C13_19  and  N5_20 
REMARK       I    between atoms: N5_20  and  C14_22 
REMARK    7  A    between atoms: C14_22  and  C15_24 
REMARK    8  A    between atoms: C15_24  and  C16_25 
REMARK    9  A    between atoms: C16_25  and  N6_26 
REMARK   10  A    between atoms: N6_26  and  C18_28 
REMARK   11  A    between atoms: C18_28  and  C19_29 
REMARK   12  A    between atoms: C19_29  and  O3_30 
REMARK   13  A    between atoms: C27_39  and  C28_41 
ROOT
HETATM    1  C8  UNL     1       8.755 -16.078 -16.549  1.00  0.00     0.224 C 
HETATM    2  O1  UNL     1       9.010 -15.061 -15.813  1.00  0.00    -0.273 OA
HETATM    3  N2  UNL     1       9.506 -17.235 -16.366  1.00  0.00    -0.349 N 
HETATM    4  C9  UNL     1       9.313 -18.397 -17.192  1.00  0.00     0.145 C 
HETATM    5  C10 UNL     1      10.602 -18.493 -18.032  1.00  0.00     0.144 C 
HETATM    6  N3  UNL     1      11.700 -18.581 -17.113  1.00  0.00    -0.364 N 
HETATM    7  C23 UNL     1      11.792 -17.854 -15.860  1.00  0.00     0.144 C 
HETATM    8  C24 UNL     1      10.505 -17.323 -15.334  1.00  0.00     0.145 C 
ENDROOT
BRANCH   1   9
HETATM    9  C7  UNL     1       7.658 -15.878 -17.522  1.00  0.00     0.078 C 
HETATM   10  C6  UNL     1       8.114 -15.999 -18.941  1.00  0.00     0.014 C 
HETATM   11  C5  UNL     1       6.986 -15.728 -19.878  1.00  0.00     0.007 C 
HETATM   12  C4  UNL     1       5.720 -16.449 -19.608  1.00  0.00     0.004 C 
HETATM   13  C26 UNL     1       5.337 -16.376 -18.126  1.00  0.00     0.007 C 
HETATM   14  C25 UNL     1       6.514 -16.795 -17.267  1.00  0.00     0.014 C 
BRANCH  12  15
HETATM   15  C3  UNL     1       5.613 -17.862 -20.014  1.00  0.00     0.130 C 
BRANCH  15  16
HETATM   16  N1  UNL     1       5.823 -18.179 -21.406  1.00  0.00    -0.347 N 
HETATM   17  C27 UNL     1       5.035 -17.625 -22.438  1.00  0.00     0.273 C 
HETATM   18  O4  UNL     1       4.171 -16.764 -22.045  1.00  0.00    -0.266 OA
BRANCH  16  19
HETATM   19  C2  UNL     1       6.851 -19.138 -21.724  1.00  0.00     0.121 C 
HETATM   20  C1  UNL     1       7.614 -19.526 -20.458  1.00  0.00     0.026 C 
ENDBRANCH  16  19
BRANCH  17  21
HETATM   21  C28 UNL     1       5.093 -17.916 -23.850  1.00  0.00     0.132 A 
HETATM   22  N7  UNL     1       4.405 -18.748 -24.648  1.00  0.00    -0.334 N 
HETATM   23  C29 UNL     1       4.818 -18.659 -25.919  1.00  0.00     0.120 A 
ATOM     24  H7  UNL     1       3.662 -19.368 -24.326  1.00  0.00     0.168 HD
HETATM   25  C30 UNL     1       4.329 -19.394 -27.104  1.00  0.00     0.098 C 
HETATM   26  O5  UNL     1       5.775 -17.769 -25.938  1.00  0.00    -0.300 OA
HETATM   27  C31 UNL     1       5.982 -17.295 -24.742  1.00  0.00     0.083 A 
HETATM   28  C32 UNL     1       6.998 -16.272 -24.422  1.00  0.00     0.079 C 
ENDBRANCH  17  21
ENDBRANCH  15  16
ENDBRANCH  12  15
ENDBRANCH   1   9
BRANCH   6  29
HETATM   29  C11 UNL     1      12.829 -19.418 -17.399  1.00  0.00     0.109 A 
HETATM   30  N4  UNL     1      13.922 -19.009 -18.055  1.00  0.00    -0.350 N 
HETATM   31  C12 UNL     1      14.961 -19.851 -18.301  1.00  0.00     0.119 A 
ATOM     32  H4  UNL     1      13.977 -18.043 -18.379  1.00  0.00     0.166 HD
HETATM   33  C13 UNL     1      14.963 -21.154 -17.901  1.00  0.00     0.050 A 
HETATM   34  C20 UNL     1      13.816 -21.610 -17.203  1.00  0.00     0.041 A 
HETATM   35  C21 UNL     1      12.792 -20.725 -16.977  1.00  0.00    -0.016 A 
HETATM   36  C22 UNL     1      11.575 -21.200 -16.256  1.00  0.00     0.052 C 
BRANCH  33  37
HETATM   37  N5  UNL     1      15.973 -22.110 -18.132  1.00  0.00    -0.326 N 
HETATM   38  C14 UNL     1      16.839 -22.578 -17.131  1.00  0.00     0.226 C 
HETATM   39  O2  UNL     1      16.818 -22.212 -15.958  1.00  0.00    -0.273 OA
ATOM     40  H5  UNL     1      16.081 -22.481 -19.075  1.00  0.00     0.169 HD
BRANCH  38  41
HETATM   41  C15 UNL     1      17.900 -23.623 -17.488  1.00  0.00     0.148 C 
BRANCH  41  42
HETATM   42  C16 UNL     1      17.203 -24.918 -17.706  1.00  0.00     0.072 C 
BRANCH  42  43
HETATM   43  N6  UNL     1      17.330 -25.596 -18.900  1.00  0.00    -0.376 N 
HETATM   44  C17 UNL     1      18.040 -26.839 -18.754  1.00  0.00     0.154 C 
BRANCH  43  45
HETATM   45  C18 UNL     1      16.418 -25.611 -19.939  1.00  0.00     0.088 C 
BRANCH  45  46
HETATM   46  C19 UNL     1      16.610 -24.702 -21.108  1.00  0.00     0.208 C 
BRANCH  46  47
HETATM   47  O3  UNL     1      17.907 -24.163 -21.139  1.00  0.00    -0.396 OA
ATOM     48  H3  UNL     1      18.070 -23.596 -20.395  1.00  0.00     0.209 HD
ENDBRANCH  46  47
ENDBRANCH  45  46
ENDBRANCH  43  45
ENDBRANCH  42  43
ENDBRANCH  41  42
ENDBRANCH  38  41
ENDBRANCH  33  37
ENDBRANCH   6  29
TORSDOF 13
ENDMDL
MODEL 4
REMARK VINA RESULT: -8.605751122      2.058      2.739
REMARK  13 active torsions:
REMARK  status: ('A' for Active; 'I' for Inactive)
REMARK    1  A    between atoms: C2_2  and  N1_3 
REMARK    2  A    between atoms: N1_3  and  C3_4 
REMARK       I    between atoms: N1_3  and  C27_39 
REMARK    3  A    between atoms: C3_4  and  C4_5 
REMARK    4  A    between atoms: C7_8  and  C8_9 
REMARK       I    between atoms: C8_9  and  N2_11 
REMARK    5  A    between atoms: N3_14  and  C11_15 
REMARK    6  A    between atoms: C13_19  and  N5_20 
REMARK       I    between atoms: N5_20  and  C14_22 
REMARK    7  A    between atoms: C14_22  and  C15_24 
REMARK    8  A    between atoms: C15_24  and  C16_25 
REMARK    9  A    between atoms: C16_25  and  N6_26 
REMARK   10  A    between atoms: N6_26  and  C18_28 
REMARK   11  A    between atoms: C18_28  and  C19_29 
REMARK   12  A    between atoms: C19_29  and  O3_30 
REMARK   13  A    between atoms: C27_39  and  C28_41 
ROOT
HETATM    1  C8  UNL     1       8.867 -16.019 -16.559  1.00  0.00     0.224 C 
HETATM    2  O1  UNL     1       9.124 -15.012 -15.811  1.00  0.00    -0.273 OA
HETATM    3  N2  UNL     1       9.620 -17.177 -16.395  1.00  0.00    -0.349 N 
HETATM    4  C9  UNL     1       9.424 -18.328 -17.235  1.00  0.00     0.145 C 
HETATM    5  C10 UNL     1      10.710 -18.412 -18.082  1.00  0.00     0.144 C 
HETATM    6  N3  UNL     1      11.812 -18.512 -17.170  1.00  0.00    -0.364 N 
HETATM    7  C23 UNL     1      11.908 -17.800 -15.908  1.00  0.00     0.144 C 
HETATM    8  C24 UNL     1      10.623 -17.278 -15.369  1.00  0.00     0.145 C 
ENDROOT
BRANCH   1   9
HETATM    9  C7  UNL     1       7.765 -15.807 -17.525  1.00  0.00     0.078 C 
HETATM   10  C6  UNL     1       8.214 -15.916 -18.947  1.00  0.00     0.014 C 
HETATM   11  C5  UNL     1       7.082 -15.634 -19.876  1.00  0.00     0.007 C 
HETATM   12  C4  UNL     1       5.815 -16.354 -19.606  1.00  0.00     0.004 C 
HETATM   13  C26 UNL     1       5.441 -16.294 -18.122  1.00  0.00     0.007 C 
HETATM   14  C25 UNL     1       6.621 -16.724 -17.273  1.00  0.00     0.014 C 
BRANCH  12  15
HETATM   15  C3  UNL     1       5.703 -17.763 -20.024  1.00  0.00     0.130 C 
BRANCH  15  16
HETATM   16  N1  UNL     1       5.923 -18.070 -21.417  1.00  0.00    -0.347 N 
HETATM   17  C27 UNL     1       5.070 -17.607 -22.442  1.00  0.00     0.273 C 
HETATM   18  O4  UNL     1       4.129 -16.833 -22.042  1.00  0.00    -0.266 OA
BRANCH  16  19
HETATM   19  C2  UNL     1       7.038 -18.924 -21.744  1.00  0.00     0.121 C 
HETATM   20  C1  UNL     1       7.455 -19.732 -20.515  1.00  0.00     0.026 C 
ENDBRANCH  16  19
BRANCH  17  21
HETATM   21  C28 UNL     1       5.136 -17.903 -23.851  1.00  0.00     0.132 A 
HETATM   22  N7  UNL     1       4.456 -18.741 -24.650  1.00  0.00    -0.334 N 
HETATM   23  C29 UNL     1       4.875 -18.657 -25.919  1.00  0.00     0.120 A 
ATOM     24  H7  UNL     1       3.713 -19.364 -24.330  1.00  0.00     0.168 HD
HETATM   25  C30 UNL     1       4.396 -19.398 -27.104  1.00  0.00     0.098 C 
HETATM   26  O5  UNL     1       5.828 -17.762 -25.936  1.00  0.00    -0.300 OA
HETATM   27  C31 UNL     1       6.027 -17.282 -24.741  1.00  0.00     0.083 A 
HETATM   28  C32 UNL     1       7.037 -16.254 -24.421  1.00  0.00     0.079 C 
ENDBRANCH  17  21
ENDBRANCH  15  16
ENDBRANCH  12  15
ENDBRANCH   1   9
BRANCH   6  29
HETATM   29  C11 UNL     1      12.940 -19.344 -17.471  1.00  0.00     0.109 A 
HETATM   30  N4  UNL     1      13.930 -18.996 -18.305  1.00  0.00    -0.350 N 
HETATM   31  C12 UNL     1      14.974 -19.831 -18.555  1.00  0.00     0.119 A 
ATOM     32  H4  UNL     1      13.900 -18.085 -18.762  1.00  0.00     0.166 HD
HETATM   33  C13 UNL     1      15.086 -21.063 -17.983  1.00  0.00     0.050 A 
HETATM   34  C20 UNL     1      14.050 -21.452 -17.097  1.00  0.00     0.041 A 
HETATM   35  C21 UNL     1      13.016 -20.577 -16.873  1.00  0.00    -0.016 A 
HETATM   36  C22 UNL     1      11.914 -20.984 -15.952  1.00  0.00     0.052 C 
BRANCH  33  37
HETATM   37  N5  UNL     1      16.108 -22.009 -18.200  1.00  0.00    -0.326 N 
HETATM   38  C14 UNL     1      15.994 -23.078 -19.102  1.00  0.00     0.226 C 
HETATM   39  O2  UNL     1      15.004 -23.312 -19.793  1.00  0.00    -0.273 OA
ATOM     40  H5  UNL     1      16.976 -21.911 -17.675  1.00  0.00     0.169 HD
BRANCH  38  41
HETATM   41  C15 UNL     1      17.168 -24.048 -19.266  1.00  0.00     0.148 C 
BRANCH  41  42
HETATM   42  C16 UNL     1      18.146 -23.758 -18.184  1.00  0.00     0.072 C 
BRANCH  42  43
HETATM   43  N6  UNL     1      18.474 -24.720 -17.252  1.00  0.00    -0.376 N 
HETATM   44  C17 UNL     1      18.798 -25.985 -17.856  1.00  0.00     0.154 C 
BRANCH  43  45
HETATM   45  C18 UNL     1      19.118 -24.513 -16.047  1.00  0.00     0.088 C 
BRANCH  45  46
HETATM   46  C19 UNL     1      19.191 -23.138 -15.470  1.00  0.00     0.208 C 
BRANCH  46  47
HETATM   47  O3  UNL     1      20.336 -22.451 -15.908  1.00  0.00    -0.396 OA
ATOM     48  H3  UNL     1      21.087 -22.630 -15.354  1.00  0.00     0.209 HD
ENDBRANCH  46  47
ENDBRANCH  45  46
ENDBRANCH  43  45
ENDBRANCH  42  43
ENDBRANCH  41  42
ENDBRANCH  38  41
ENDBRANCH  33  37
ENDBRANCH   6  29
TORSDOF 13
ENDMDL
MODEL 5
REMARK VINA RESULT: -8.567637522      1.115      1.918
REMARK  13 active torsions:
REMARK  status: ('A' for Active; 'I' for Inactive)
REMARK    1  A    between atoms: C2_2  and  N1_3 
REMARK    2  A    between atoms: N1_3  and  C3_4 
REMARK       I    between atoms: N1_3  and  C27_39 
REMARK    3  A    between atoms: C3_4  and  C4_5 
REMARK    4  A    between atoms: C7_8  and  C8_9 
REMARK       I    between atoms: C8_9  and  N2_11 
REMARK    5  A    between atoms: N3_14  and  C11_15 
REMARK    6  A    between atoms: C13_19  and  N5_20 
REMARK       I    between atoms: N5_20  and  C14_22 
REMARK    7  A    between atoms: C14_22  and  C15_24 
REMARK    8  A    between atoms: C15_24  and  C16_25 
REMARK    9  A    between atoms: C16_25  and  N6_26 
REMARK   10  A    between atoms: N6_26  and  C18_28 
REMARK   11  A    between atoms: C18_28  and  C19_29 
REMARK   12  A    between atoms: C19_29  and  O3_30 
REMARK   13  A    between atoms: C27_39  and  C28_41 
ROOT
HETATM    1  C8  UNL     1       8.677 -15.740 -16.215  1.00  0.00     0.224 C 
HETATM    2  O1  UNL     1       8.979 -14.675 -15.571  1.00  0.00    -0.273 OA
HETATM    3  N2  UNL     1       9.427 -16.889 -15.988  1.00  0.00    -0.349 N 
HETATM    4  C9  UNL     1       9.181 -18.106 -16.713  1.00  0.00     0.145 C 
HETATM    5  C10 UNL     1      10.423 -18.279 -17.611  1.00  0.00     0.144 C 
HETATM    6  N3  UNL     1      11.567 -18.312 -16.748  1.00  0.00    -0.364 N 
HETATM    7  C23 UNL     1      11.732 -17.495 -15.559  1.00  0.00     0.144 C 
HETATM    8  C24 UNL     1      10.479 -16.912 -15.006  1.00  0.00     0.145 C 
ENDROOT
BRANCH   1   9
HETATM    9  C7  UNL     1       7.530 -15.599 -17.142  1.00  0.00     0.078 C 
HETATM   10  C6  UNL     1       7.893 -15.902 -18.560  1.00  0.00     0.014 C 
HETATM   11  C5  UNL     1       6.721 -15.686 -19.457  1.00  0.00     0.007 C 
HETATM   12  C4  UNL     1       5.445 -16.309 -19.034  1.00  0.00     0.004 C 
HETATM   13  C26 UNL     1       5.159 -16.050 -17.551  1.00  0.00     0.007 C 
HETATM   14  C25 UNL     1       6.368 -16.425 -16.717  1.00  0.00     0.014 C 
BRANCH  12  15
HETATM   15  C3  UNL     1       5.255 -17.753 -19.265  1.00  0.00     0.130 C 
BRANCH  15  16
HETATM   16  N1  UNL     1       6.162 -18.412 -20.174  1.00  0.00    -0.347 N 
HETATM   17  C27 UNL     1       7.206 -19.252 -19.730  1.00  0.00     0.273 C 
HETATM   18  O4  UNL     1       7.236 -19.440 -18.462  1.00  0.00    -0.266 OA
BRANCH  16  19
HETATM   19  C2  UNL     1       6.005 -18.147 -21.583  1.00  0.00     0.121 C 
HETATM   20  C1  UNL     1       5.090 -19.196 -22.213  1.00  0.00     0.026 C 
ENDBRANCH  16  19
BRANCH  17  21
HETATM   21  C28 UNL     1       8.218 -19.903 -20.525  1.00  0.00     0.132 A 
HETATM   22  N7  UNL     1       8.452 -21.184 -20.851  1.00  0.00    -0.334 N 
HETATM   23  C29 UNL     1       9.528 -21.300 -21.640  1.00  0.00     0.120 A 
ATOM     24  H7  UNL     1       7.881 -21.970 -20.538  1.00  0.00     0.168 HD
HETATM   25  C30 UNL     1      10.124 -22.522 -22.220  1.00  0.00     0.098 C 
HETATM   26  O5  UNL     1       9.988 -20.090 -21.820  1.00  0.00    -0.300 OA
HETATM   27  C31 UNL     1       9.254 -19.221 -21.185  1.00  0.00     0.083 A 
HETATM   28  C32 UNL     1       9.507 -17.766 -21.184  1.00  0.00     0.079 C 
ENDBRANCH  17  21
ENDBRANCH  15  16
ENDBRANCH  12  15
ENDBRANCH   1   9
BRANCH   6  29
HETATM   29  C11 UNL     1      12.673 -19.181 -17.030  1.00  0.00     0.109 A 
HETATM   30  N4  UNL     1      13.787 -18.799 -17.669  1.00  0.00    -0.350 N 
HETATM   31  C12 UNL     1      14.801 -19.671 -17.912  1.00  0.00     0.119 A 
ATOM     32  H4  UNL     1      13.876 -17.832 -17.980  1.00  0.00     0.166 HD
HETATM   33  C13 UNL     1      14.758 -20.978 -17.527  1.00  0.00     0.050 A 
HETATM   34  C20 UNL     1      13.589 -21.405 -16.848  1.00  0.00     0.041 A 
HETATM   35  C21 UNL     1      12.590 -20.490 -16.624  1.00  0.00    -0.016 A 
HETATM   36  C22 UNL     1      11.350 -20.935 -15.923  1.00  0.00     0.052 C 
BRANCH  33  37
HETATM   37  N5  UNL     1      15.740 -21.963 -17.757  1.00  0.00    -0.326 N 
HETATM   38  C14 UNL     1      16.564 -22.484 -16.748  1.00  0.00     0.226 C 
HETATM   39  O2  UNL     1      16.528 -22.144 -15.567  1.00  0.00    -0.273 OA
ATOM     40  H5  UNL     1      15.858 -22.315 -18.707  1.00  0.00     0.169 HD
BRANCH  38  41
HETATM   41  C15 UNL     1      17.598 -23.556 -17.105  1.00  0.00     0.148 C 
BRANCH  41  42
HETATM   42  C16 UNL     1      17.680 -23.627 -18.588  1.00  0.00     0.072 C 
BRANCH  42  43
HETATM   43  N6  UNL     1      17.205 -24.727 -19.270  1.00  0.00    -0.376 N 
HETATM   44  C17 UNL     1      18.075 -25.127 -20.344  1.00  0.00     0.154 C 
BRANCH  43  45
HETATM   45  C18 UNL     1      16.483 -25.778 -18.735  1.00  0.00     0.088 C 
BRANCH  45  46
HETATM   46  C19 UNL     1      14.996 -25.798 -18.862  1.00  0.00     0.208 C 
BRANCH  46  47
HETATM   47  O3  UNL     1      14.404 -24.704 -18.210  1.00  0.00    -0.396 OA
ATOM     48  H3  UNL     1      13.834 -24.982 -17.503  1.00  0.00     0.209 HD
ENDBRANCH  46  47
ENDBRANCH  45  46
ENDBRANCH  43  45
ENDBRANCH  42  43
ENDBRANCH  41  42
ENDBRANCH  38  41
ENDBRANCH  33  37
ENDBRANCH   6  29
TORSDOF 13
ENDMDL
