MODEL 1
REMARK VINA RESULT: -9.823561743      0.000      0.000
REMARK  14 active torsions:
REMARK  status: ('A' for Active; 'I' for Inactive)
REMARK    1  A    between atoms: C3_3  and  N1_4 
REMARK    2  A    between atoms: N1_4  and  C4_6 
REMARK    3  A    between atoms: C4_6  and  C5_7 
REMARK    4  A    between atoms: C10_15  and  N3_16 
REMARK    5  A    between atoms: N3_16  and  C11_18 
REMARK    6  A    between atoms: C13_20  and  C14_21 
REMARK    7  A    between atoms: C14_21  and  C15_22 
REMARK    8  A    between atoms: C15_22  and  C16_23 
REMARK    9  A    between atoms: C18_27  and  O2_28 
REMARK   10  A    between atoms: O2_28  and  C19_29 
REMARK   11  A    between atoms: C19_29  and  C20_30 
REMARK   12  A    between atoms: C20_30  and  C21_31 
REMARK   13  A    between atoms: C21_31  and  N5_32 
REMARK   14  A    between atoms: N7_43  and  C29_44 
ROOT
HETATM    1  C11 UNL     1      12.742 -18.814 -17.594  1.00  0.00     0.337 C 
HETATM    2  C12 UNL     1      12.562 -18.463 -16.107  1.00  0.00     0.062 C 
HETATM    3  C13 UNL     1      11.206 -17.874 -15.911  1.00  0.00    -0.009 C 
HETATM    4  C27 UNL     1      10.195 -18.894 -16.347  1.00  0.00     0.035 C 
HETATM    5  C28 UNL     1      10.480 -19.371 -17.753  1.00  0.00     0.276 C 
HETATM    6  N7  UNL     1      11.839 -19.916 -17.863  1.00  0.00     0.116 N 
ENDROOT
BRANCH   3   7
HETATM    7  C14 UNL     1      10.957 -17.430 -14.508  1.00  0.00     0.009 C 
BRANCH   7   8
HETATM    8  C15 UNL     1      10.512 -16.009 -14.393  1.00  0.00     0.042 C 
BRANCH   8   9
HETATM    9  C16 UNL     1       9.070 -15.849 -14.694  1.00  0.00    -0.027 A 
HETATM   10  C17 UNL     1       8.657 -14.740 -15.416  1.00  0.00     0.100 A 
HETATM   11  N4  UNL     1       7.340 -14.586 -15.707  1.00  0.00    -0.332 N 
HETATM   12  C18 UNL     1       6.412 -15.488 -15.311  1.00  0.00     0.223 A 
ATOM     13  H4  UNL     1       7.042 -13.768 -16.238  1.00  0.00     0.168 HD
HETATM   14  N6  UNL     1       6.826 -16.555 -14.613  1.00  0.00    -0.332 N 
HETATM   15  C26 UNL     1       8.115 -16.753 -14.301  1.00  0.00     0.100 A 
ATOM     16  H6  UNL     1       6.136 -17.241 -14.308  1.00  0.00     0.168 HD
BRANCH  12  17
HETATM   17  O2  UNL     1       5.066 -15.324 -15.613  1.00  0.00    -0.322 OA
BRANCH  17  18
HETATM   18  C19 UNL     1       4.218 -16.426 -15.887  1.00  0.00     0.180 C 
BRANCH  18  19
HETATM   19  C20 UNL     1       4.092 -16.628 -17.386  1.00  0.00     0.046 C 
BRANCH  19  20
HETATM   20  C21 UNL     1       4.806 -17.873 -17.865  1.00  0.00     0.119 C 
BRANCH  20  21
HETATM   21  N5  UNL     1       6.140 -17.533 -18.231  1.00  0.00    -0.408 N 
HETATM   22  C22 UNL     1       6.942 -18.603 -18.726  1.00  0.00     0.143 C 
HETATM   23  C23 UNL     1       7.651 -18.131 -19.977  1.00  0.00     0.187 C 
HETATM   24  O3  UNL     1       8.459 -17.050 -19.632  1.00  0.00    -0.388 OA
HETATM   25  C24 UNL     1       7.710 -15.945 -19.242  1.00  0.00     0.187 C 
HETATM   26  C25 UNL     1       6.275 -16.309 -18.944  1.00  0.00     0.143 C 
ENDBRANCH  20  21
ENDBRANCH  19  20
ENDBRANCH  18  19
ENDBRANCH  17  18
ENDBRANCH  12  17
ENDBRANCH   8   9
ENDBRANCH   7   8
ENDBRANCH   3   7
BRANCH   1  27
HETATM   27  N3  UNL     1      14.106 -19.162 -17.723  1.00  0.00    -0.194 N 
ATOM     28  H3  UNL     1      14.599 -18.722 -18.500  1.00  0.00     0.180 HD
BRANCH  27  29
HETATM   29  C10 UNL     1      14.796 -19.939 -17.013  1.00  0.00     0.681 A 
HETATM   30  N2  UNL     1      14.945 -21.226 -17.440  1.00  0.00    -0.177 N 
HETATM   31  C3  UNL     1      15.678 -22.136 -16.750  1.00  0.00     0.118 A 
ATOM     32  H2  UNL     1      14.489 -21.514 -18.305  1.00  0.00     0.185 HD
HETATM   33  C2  UNL     1      16.272 -21.695 -15.586  1.00  0.00     0.066 A 
HETATM   34  C1  UNL     1      16.122 -20.377 -15.146  1.00  0.00     0.110 A 
HETATM   35  N8  UNL     1      15.380 -19.531 -15.882  1.00  0.00    -0.202 N 
ATOM     36  H8  UNL     1      15.262 -18.566 -15.573  1.00  0.00     0.183 HD
BRANCH  31  37
HETATM   37  N1  UNL     1      15.789 -23.337 -17.199  1.00  0.00    -0.376 N 
ATOM     38  H1  UNL     1      15.185 -24.038 -16.771  1.00  0.00     0.161 HD
BRANCH  37  39
HETATM   39  C4  UNL     1      16.654 -23.794 -18.219  1.00  0.00     0.126 C 
BRANCH  39  40
HETATM   40  C5  UNL     1      16.313 -25.149 -18.798  1.00  0.00     0.007 C 
HETATM   41  C6  UNL     1      15.954 -24.952 -20.256  1.00  0.00     0.032 C 
HETATM   42  C7  UNL     1      17.117 -24.483 -21.063  1.00  0.00     0.168 C 
HETATM   43  O1  UNL     1      18.348 -24.806 -20.548  1.00  0.00    -0.391 OA
HETATM   44  C8  UNL     1      18.386 -26.028 -19.913  1.00  0.00     0.168 C 
HETATM   45  C9  UNL     1      17.424 -26.141 -18.746  1.00  0.00     0.032 C 
ENDBRANCH  39  40
ENDBRANCH  37  39
ENDBRANCH  31  37
ENDBRANCH  27  29
ENDBRANCH   1  27
BRANCH   6  46
HETATM   46  C29 UNL     1      11.932 -20.410 -19.222  1.00  0.00     0.225 C 
HETATM   47  C30 UNL     1      11.222 -19.471 -20.138  1.00  0.00     0.036 C 
HETATM   48  C31 UNL     1      10.957 -20.324 -21.380  1.00  0.00     0.002 C 
HETATM   49  C32 UNL     1      10.601 -21.666 -20.790  1.00  0.00     0.002 C 
HETATM   50  C33 UNL     1      11.279 -21.721 -19.438  1.00  0.00     0.036 C 
ENDBRANCH   6  46
TORSDOF 14
ENDMDL
MODEL 2
REMARK VINA RESULT: -9.741440175      2.676      5.649
REMARK  14 active torsions:
REMARK  status: ('A' for Active; 'I' for Inactive)
REMARK    1  A    between atoms: C3_3  and  N1_4 
REMARK    2  A    between atoms: N1_4  and  C4_6 
REMARK    3  A    between atoms: C4_6  and  C5_7 
REMARK    4  A    between atoms: C10_15  and  N3_16 
REMARK    5  A    between atoms: N3_16  and  C11_18 
REMARK    6  A    between atoms: C13_20  and  C14_21 
REMARK    7  A    between atoms: C14_21  and  C15_22 
REMARK    8  A    between atoms: C15_22  and  C16_23 
REMARK    9  A    between atoms: C18_27  and  O2_28 
REMARK   10  A    between atoms: O2_28  and  C19_29 
REMARK   11  A    between atoms: C19_29  and  C20_30 
REMARK   12  A    between atoms: C20_30  and  C21_31 
REMARK   13  A    between atoms: C21_31  and  N5_32 
REMARK   14  A    between atoms: N7_43  and  C29_44 
ROOT
HETATM    1  C11 UNL     1      15.946 -22.189 -16.364  1.00  0.00     0.337 C 
HETATM    2  C12 UNL     1      14.714 -21.269 -16.417  1.00  0.00     0.062 C 
HETATM    3  C13 UNL     1      13.912 -21.466 -15.175  1.00  0.00    -0.009 C 
HETATM    4  C27 UNL     1      14.787 -21.123 -14.004  1.00  0.00     0.035 C 
HETATM    5  C28 UNL     1      16.082 -21.902 -14.051  1.00  0.00     0.276 C 
HETATM    6  N7  UNL     1      16.797 -21.667 -15.312  1.00  0.00     0.116 N 
ENDROOT
BRANCH   3   7
HETATM    7  C14 UNL     1      12.651 -20.669 -15.159  1.00  0.00     0.009 C 
BRANCH   7   8
HETATM    8  C15 UNL     1      12.789 -19.305 -15.752  1.00  0.00     0.042 C 
BRANCH   8   9
HETATM    9  C16 UNL     1      11.530 -18.837 -16.378  1.00  0.00    -0.027 A 
HETATM   10  C17 UNL     1      11.568 -17.729 -17.210  1.00  0.00     0.100 A 
HETATM   11  N4  UNL     1      10.424 -17.296 -17.797  1.00  0.00    -0.332 N 
HETATM   12  C18 UNL     1       9.239 -17.917 -17.594  1.00  0.00     0.223 A 
ATOM     13  H4  UNL     1      10.457 -16.480 -18.408  1.00  0.00     0.168 HD
HETATM   14  N6  UNL     1       9.217 -18.987 -16.787  1.00  0.00    -0.332 N 
HETATM   15  C26 UNL     1      10.319 -19.454 -16.184  1.00  0.00     0.100 A 
ATOM     16  H6  UNL     1       8.329 -19.463 -16.625  1.00  0.00     0.168 HD
BRANCH  12  17
HETATM   17  O2  UNL     1       8.071 -17.469 -18.199  1.00  0.00    -0.322 OA
BRANCH  17  18
HETATM   18  C19 UNL     1       8.075 -16.852 -19.475  1.00  0.00     0.180 C 
BRANCH  18  19
HETATM   19  C20 UNL     1       7.622 -17.841 -20.534  1.00  0.00     0.046 C 
BRANCH  19  20
HETATM   20  C21 UNL     1       8.783 -18.480 -21.264  1.00  0.00     0.119 C 
BRANCH  20  21
HETATM   21  N5  UNL     1       9.326 -19.521 -20.458  1.00  0.00    -0.408 N 
HETATM   22  C22 UNL     1       8.566 -20.726 -20.402  1.00  0.00     0.143 C 
HETATM   23  C23 UNL     1       9.507 -21.895 -20.604  1.00  0.00     0.187 C 
HETATM   24  O3  UNL     1      10.445 -21.875 -19.575  1.00  0.00    -0.388 OA
HETATM   25  C24 UNL     1      11.279 -20.764 -19.654  1.00  0.00     0.187 C 
HETATM   26  C25 UNL     1      10.730 -19.708 -20.584  1.00  0.00     0.143 C 
ENDBRANCH  20  21
ENDBRANCH  19  20
ENDBRANCH  18  19
ENDBRANCH  17  18
ENDBRANCH  12  17
ENDBRANCH   8   9
ENDBRANCH   7   8
ENDBRANCH   3   7
BRANCH   1  27
HETATM   27  N3  UNL     1      16.525 -22.096 -17.650  1.00  0.00    -0.194 N 
ATOM     28  H3  UNL     1      16.985 -21.210 -17.861  1.00  0.00     0.180 HD
BRANCH  27  29
HETATM   29  C10 UNL     1      16.551 -22.952 -18.572  1.00  0.00     0.681 A 
HETATM   30  N2  UNL     1      17.628 -23.786 -18.634  1.00  0.00    -0.177 N 
HETATM   31  C3  UNL     1      17.744 -24.748 -19.583  1.00  0.00     0.118 A 
ATOM     32  H2  UNL     1      18.372 -23.683 -17.944  1.00  0.00     0.185 HD
HETATM   33  C2  UNL     1      16.711 -24.844 -20.493  1.00  0.00     0.066 A 
HETATM   34  C1  UNL     1      15.606 -23.992 -20.433  1.00  0.00     0.110 A 
HETATM   35  N8  UNL     1      15.560 -23.061 -19.463  1.00  0.00    -0.202 N 
ATOM     36  H8  UNL     1      14.760 -22.432 -19.406  1.00  0.00     0.183 HD
BRANCH  31  37
HETATM   37  N1  UNL     1      18.780 -25.512 -19.594  1.00  0.00    -0.376 N 
ATOM     38  H1  UNL     1      19.669 -25.065 -19.815  1.00  0.00     0.161 HD
BRANCH  37  39
HETATM   39  C4  UNL     1      18.824 -26.900 -19.336  1.00  0.00     0.126 C 
BRANCH  39  40
HETATM   40  C5  UNL     1      19.931 -27.351 -18.410  1.00  0.00     0.007 C 
HETATM   41  C6  UNL     1      19.721 -26.675 -17.071  1.00  0.00     0.032 C 
HETATM   42  C7  UNL     1      18.467 -27.129 -16.403  1.00  0.00     0.168 C 
HETATM   43  O1  UNL     1      18.024 -28.372 -16.783  1.00  0.00    -0.391 OA
HETATM   44  C8  UNL     1      19.036 -29.267 -17.052  1.00  0.00     0.168 C 
HETATM   45  C9  UNL     1      19.969 -28.821 -18.161  1.00  0.00     0.032 C 
ENDBRANCH  39  40
ENDBRANCH  37  39
ENDBRANCH  31  37
ENDBRANCH  27  29
ENDBRANCH   1  27
BRANCH   6  46
HETATM   46  C29 UNL     1      18.042 -22.395 -15.172  1.00  0.00     0.225 C 
HETATM   47  C30 UNL     1      17.761 -23.753 -14.623  1.00  0.00     0.036 C 
HETATM   48  C31 UNL     1      19.116 -24.193 -14.065  1.00  0.00     0.002 C 
HETATM   49  C32 UNL     1      19.654 -22.920 -13.461  1.00  0.00     0.002 C 
HETATM   50  C33 UNL     1      18.998 -21.787 -14.220  1.00  0.00     0.036 C 
ENDBRANCH   6  46
TORSDOF 14
ENDMDL
MODEL 3
REMARK VINA RESULT: -9.726500722      0.916      1.241
REMARK  14 active torsions:
REMARK  status: ('A' for Active; 'I' for Inactive)
REMARK    1  A    between atoms: C3_3  and  N1_4 
REMARK    2  A    between atoms: N1_4  and  C4_6 
REMARK    3  A    between atoms: C4_6  and  C5_7 
REMARK    4  A    between atoms: C10_15  and  N3_16 
REMARK    5  A    between atoms: N3_16  and  C11_18 
REMARK    6  A    between atoms: C13_20  and  C14_21 
REMARK    7  A    between atoms: C14_21  and  C15_22 
REMARK    8  A    between atoms: C15_22  and  C16_23 
REMARK    9  A    between atoms: C18_27  and  O2_28 
REMARK   10  A    between atoms: O2_28  and  C19_29 
REMARK   11  A    between atoms: C19_29  and  C20_30 
REMARK   12  A    between atoms: C20_30  and  C21_31 
REMARK   13  A    between atoms: C21_31  and  N5_32 
REMARK   14  A    between atoms: N7_43  and  C29_44 
ROOT
HETATM    1  C11 UNL     1      12.683 -18.753 -17.751  1.00  0.00     0.337 C 
HETATM    2  C12 UNL     1      12.563 -18.435 -16.250  1.00  0.00     0.062 C 
HETATM    3  C13 UNL     1      11.244 -17.785 -16.000  1.00  0.00    -0.009 C 
HETATM    4  C27 UNL     1      10.170 -18.741 -16.435  1.00  0.00     0.035 C 
HETATM    5  C28 UNL     1      10.393 -19.192 -17.860  1.00  0.00     0.276 C 
HETATM    6  N7  UNL     1      11.719 -19.801 -18.024  1.00  0.00     0.116 N 
ENDROOT
BRANCH   3   7
HETATM    7  C14 UNL     1      11.055 -17.369 -14.580  1.00  0.00     0.009 C 
BRANCH   7   8
HETATM    8  C15 UNL     1      10.525 -15.982 -14.420  1.00  0.00     0.042 C 
BRANCH   8   9
HETATM    9  C16 UNL     1       9.077 -15.900 -14.723  1.00  0.00    -0.027 A 
HETATM   10  C17 UNL     1       8.611 -14.832 -15.474  1.00  0.00     0.100 A 
HETATM   11  N4  UNL     1       7.288 -14.749 -15.766  1.00  0.00    -0.332 N 
HETATM   12  C18 UNL     1       6.405 -15.683 -15.345  1.00  0.00     0.223 A 
ATOM     13  H4  UNL     1       6.951 -13.961 -16.319  1.00  0.00     0.168 HD
HETATM   14  N6  UNL     1       6.869 -16.710 -14.620  1.00  0.00    -0.332 N 
HETATM   15  C26 UNL     1       8.166 -16.837 -14.305  1.00  0.00     0.100 A 
ATOM     16  H6  UNL     1       6.213 -17.420 -14.296  1.00  0.00     0.168 HD
BRANCH  12  17
HETATM   17  O2  UNL     1       5.052 -15.592 -15.649  1.00  0.00    -0.322 OA
BRANCH  17  18
HETATM   18  C19 UNL     1       4.593 -15.081 -16.888  1.00  0.00     0.180 C 
BRANCH  18  19
HETATM   19  C20 UNL     1       4.330 -16.219 -17.858  1.00  0.00     0.046 C 
BRANCH  19  20
HETATM   20  C21 UNL     1       5.532 -16.535 -18.721  1.00  0.00     0.119 C 
BRANCH  20  21
HETATM   21  N5  UNL     1       5.790 -17.935 -18.668  1.00  0.00    -0.408 N 
HETATM   22  C22 UNL     1       4.669 -18.764 -18.373  1.00  0.00     0.143 C 
HETATM   23  C23 UNL     1       4.661 -19.921 -19.350  1.00  0.00     0.187 C 
HETATM   24  O3  UNL     1       5.842 -20.638 -19.178  1.00  0.00    -0.388 OA
HETATM   25  C24 UNL     1       6.958 -19.898 -19.556  1.00  0.00     0.187 C 
HETATM   26  C25 UNL     1       6.643 -18.427 -19.694  1.00  0.00     0.143 C 
ENDBRANCH  20  21
ENDBRANCH  19  20
ENDBRANCH  18  19
ENDBRANCH  17  18
ENDBRANCH  12  17
ENDBRANCH   8   9
ENDBRANCH   7   8
ENDBRANCH   3   7
BRANCH   1  27
HETATM   27  N3  UNL     1      14.024 -19.165 -17.928  1.00  0.00    -0.194 N 
ATOM     28  H3  UNL     1      14.503 -18.765 -18.735  1.00  0.00     0.180 HD
BRANCH  27  29
HETATM   29  C10 UNL     1      14.709 -19.957 -17.229  1.00  0.00     0.681 A 
HETATM   30  N2  UNL     1      14.802 -21.253 -17.643  1.00  0.00    -0.177 N 
HETATM   31  C3  UNL     1      15.525 -22.178 -16.965  1.00  0.00     0.118 A 
ATOM     32  H2  UNL     1      14.312 -21.536 -18.492  1.00  0.00     0.185 HD
HETATM   33  C2  UNL     1      16.168 -21.744 -15.824  1.00  0.00     0.066 A 
HETATM   34  C1  UNL     1      16.074 -20.417 -15.396  1.00  0.00     0.110 A 
HETATM   35  N8  UNL     1      15.340 -19.555 -16.121  1.00  0.00    -0.202 N 
ATOM     36  H8  UNL     1      15.262 -18.583 -15.821  1.00  0.00     0.183 HD
BRANCH  31  37
HETATM   37  N1  UNL     1      15.583 -23.387 -17.401  1.00  0.00    -0.376 N 
ATOM     38  H1  UNL     1      14.797 -23.992 -17.166  1.00  0.00     0.161 HD
BRANCH  37  39
HETATM   39  C4  UNL     1      16.613 -23.972 -18.171  1.00  0.00     0.126 C 
BRANCH  39  40
HETATM   40  C5  UNL     1      16.257 -25.279 -18.845  1.00  0.00     0.007 C 
HETATM   41  C6  UNL     1      15.893 -24.974 -20.283  1.00  0.00     0.032 C 
HETATM   42  C7  UNL     1      17.056 -24.458 -21.060  1.00  0.00     0.168 C 
HETATM   43  O1  UNL     1      18.287 -24.828 -20.577  1.00  0.00    -0.391 OA
HETATM   44  C8  UNL     1      18.317 -26.093 -20.032  1.00  0.00     0.168 C 
HETATM   45  C9  UNL     1      17.360 -26.282 -18.871  1.00  0.00     0.032 C 
ENDBRANCH  39  40
ENDBRANCH  37  39
ENDBRANCH  31  37
ENDBRANCH  27  29
ENDBRANCH   1  27
BRANCH   6  46
HETATM   46  C29 UNL     1      11.750 -20.260 -19.398  1.00  0.00     0.225 C 
HETATM   47  C30 UNL     1      10.760 -19.485 -20.199  1.00  0.00     0.036 C 
HETATM   48  C31 UNL     1      10.531 -20.370 -21.426  1.00  0.00     0.002 C 
HETATM   49  C32 UNL     1      10.529 -21.758 -20.836  1.00  0.00     0.002 C 
HETATM   50  C33 UNL     1      11.359 -21.677 -19.573  1.00  0.00     0.036 C 
ENDBRANCH   6  46
TORSDOF 14
ENDMDL
MODEL 4
REMARK VINA RESULT: -9.712630875      2.333     10.551
REMARK  14 active torsions:
REMARK  status: ('A' for Active; 'I' for Inactive)
REMARK    1  A    between atoms: C3_3  and  N1_4 
REMARK    2  A    between atoms: N1_4  and  C4_6 
REMARK    3  A    between atoms: C4_6  and  C5_7 
REMARK    4  A    between atoms: C10_15  and  N3_16 
REMARK    5  A    between atoms: N3_16  and  C11_18 
REMARK    6  A    between atoms: C13_20  and  C14_21 
REMARK    7  A    between atoms: C14_21  and  C15_22 
REMARK    8  A    between atoms: C15_22  and  C16_23 
REMARK    9  A    between atoms: C18_27  and  O2_28 
REMARK   10  A    between atoms: O2_28  and  C19_29 
REMARK   11  A    between atoms: C19_29  and  C20_30 
REMARK   12  A    between atoms: C20_30  and  C21_31 
REMARK   13  A    between atoms: C21_31  and  N5_32 
REMARK   14  A    between atoms: N7_43  and  C29_44 
ROOT
HETATM    1  C11 UNL     1       9.257 -18.977 -18.692  1.00  0.00     0.337 C 
HETATM    2  C12 UNL     1      10.571 -19.655 -19.116  1.00  0.00     0.062 C 
HETATM    3  C13 UNL     1      10.323 -21.114 -19.301  1.00  0.00    -0.009 C 
HETATM    4  C27 UNL     1       9.272 -21.270 -20.363  1.00  0.00     0.035 C 
HETATM    5  C28 UNL     1       8.042 -20.457 -20.028  1.00  0.00     0.276 C 
HETATM    6  N7  UNL     1       8.377 -19.039 -19.844  1.00  0.00     0.116 N 
ENDROOT
BRANCH   3   7
HETATM    7  C14 UNL     1      11.557 -21.879 -19.645  1.00  0.00     0.009 C 
BRANCH   7   8
HETATM    8  C15 UNL     1      12.804 -21.057 -19.626  1.00  0.00     0.042 C 
BRANCH   8   9
HETATM    9  C16 UNL     1      13.902 -21.724 -18.887  1.00  0.00    -0.027 A 
HETATM   10  C17 UNL     1      13.652 -22.945 -18.278  1.00  0.00     0.100 A 
HETATM   11  N4  UNL     1      14.651 -23.571 -17.606  1.00  0.00    -0.332 N 
HETATM   12  C18 UNL     1      15.891 -23.037 -17.512  1.00  0.00     0.223 A 
ATOM     13  H4  UNL     1      14.462 -24.468 -17.159  1.00  0.00     0.168 HD
HETATM   14  N6  UNL     1      16.117 -21.857 -18.105  1.00  0.00    -0.332 N 
HETATM   15  C26 UNL     1      15.165 -21.199 -18.781  1.00  0.00     0.100 A 
ATOM     16  H6  UNL     1      17.048 -21.445 -18.040  1.00  0.00     0.168 HD
BRANCH  12  17
HETATM   17  O2  UNL     1      16.909 -23.685 -16.823  1.00  0.00    -0.322 OA
BRANCH  17  18
HETATM   18  C19 UNL     1      18.002 -22.980 -16.259  1.00  0.00     0.180 C 
BRANCH  18  19
HETATM   19  C20 UNL     1      17.683 -22.576 -14.832  1.00  0.00     0.046 C 
BRANCH  19  20
HETATM   20  C21 UNL     1      17.386 -21.098 -14.700  1.00  0.00     0.119 C 
BRANCH  20  21
HETATM   21  N5  UNL     1      16.056 -20.931 -14.217  1.00  0.00    -0.408 N 
HETATM   22  C22 UNL     1      15.162 -20.237 -15.083  1.00  0.00     0.143 C 
HETATM   23  C23 UNL     1      13.862 -21.012 -15.149  1.00  0.00     0.187 C 
HETATM   24  O3  UNL     1      13.331 -21.071 -13.864  1.00  0.00    -0.388 OA
HETATM   25  C24 UNL     1      14.123 -21.831 -13.008  1.00  0.00     0.187 C 
HETATM   26  C25 UNL     1      15.501 -22.074 -13.578  1.00  0.00     0.143 C 
ENDBRANCH  20  21
ENDBRANCH  19  20
ENDBRANCH  18  19
ENDBRANCH  17  18
ENDBRANCH  12  17
ENDBRANCH   8   9
ENDBRANCH   7   8
ENDBRANCH   3   7
BRANCH   1  27
HETATM   27  N3  UNL     1       9.625 -17.659 -18.339  1.00  0.00    -0.194 N 
ATOM     28  H3  UNL     1       9.919 -17.063 -19.114  1.00  0.00     0.180 HD
BRANCH  27  29
HETATM   29  C10 UNL     1       9.642 -17.117 -17.203  1.00  0.00     0.681 A 
HETATM   30  N2  UNL     1       8.654 -16.224 -16.911  1.00  0.00    -0.177 N 
HETATM   31  C3  UNL     1       8.579 -15.596 -15.711  1.00  0.00     0.118 A 
ATOM     32  H2  UNL     1       7.947 -16.021 -17.618  1.00  0.00     0.185 HD
HETATM   33  C2  UNL     1       9.559 -15.905 -14.791  1.00  0.00     0.066 A 
HETATM   34  C1  UNL     1      10.573 -16.819 -15.087  1.00  0.00     0.110 A 
HETATM   35  N8  UNL     1      10.582 -17.404 -16.298  1.00  0.00    -0.202 N 
ATOM     36  H8  UNL     1      11.317 -18.074 -16.528  1.00  0.00     0.183 HD
BRANCH  31  37
HETATM   37  N1  UNL     1       7.623 -14.764 -15.485  1.00  0.00    -0.376 N 
ATOM     38  H1  UNL     1       7.845 -13.776 -15.606  1.00  0.00     0.161 HD
BRANCH  37  39
HETATM   39  C4  UNL     1       6.301 -15.064 -15.088  1.00  0.00     0.126 C 
BRANCH  39  40
HETATM   40  C5  UNL     1       5.218 -14.589 -16.030  1.00  0.00     0.007 C 
HETATM   41  C6  UNL     1       5.189 -15.529 -17.216  1.00  0.00     0.032 C 
HETATM   42  C7  UNL     1       4.769 -16.907 -16.831  1.00  0.00     0.168 C 
HETATM   43  O1  UNL     1       4.005 -16.984 -15.692  1.00  0.00    -0.391 OA
HETATM   44  C8  UNL     1       3.148 -15.919 -15.522  1.00  0.00     0.168 C 
HETATM   45  C9  UNL     1       3.848 -14.576 -15.442  1.00  0.00     0.032 C 
ENDBRANCH  39  40
ENDBRANCH  37  39
ENDBRANCH  31  37
ENDBRANCH  27  29
ENDBRANCH   1  27
BRANCH   6  46
HETATM   46  C29 UNL     1       7.104 -18.383 -19.625  1.00  0.00     0.225 C 
HETATM   47  C30 UNL     1       6.005 -19.381 -19.760  1.00  0.00     0.036 C 
HETATM   48  C31 UNL     1       4.771 -18.512 -20.014  1.00  0.00     0.002 C 
HETATM   49  C32 UNL     1       5.309 -17.431 -20.918  1.00  0.00     0.002 C 
HETATM   50  C33 UNL     1       6.787 -17.327 -20.613  1.00  0.00     0.036 C 
ENDBRANCH   6  46
TORSDOF 14
ENDMDL
MODEL 5
REMARK VINA RESULT: -9.684499963      2.347     10.604
REMARK  14 active torsions:
REMARK  status: ('A' for Active; 'I' for Inactive)
REMARK    1  A    between atoms: C3_3  and  N1_4 
REMARK    2  A    between atoms: N1_4  and  C4_6 
REMARK    3  A    between atoms: C4_6  and  C5_7 
REMARK    4  A    between atoms: C10_15  and  N3_16 
REMARK    5  A    between atoms: N3_16  and  C11_18 
REMARK    6  A    between atoms: C13_20  and  C14_21 
REMARK    7  A    between atoms: C14_21  and  C15_22 
REMARK    8  A    between atoms: C15_22  and  C16_23 
REMARK    9  A    between atoms: C18_27  and  O2_28 
REMARK   10  A    between atoms: O2_28  and  C19_29 
REMARK   11  A    between atoms: C19_29  and  C20_30 
REMARK   12  A    between atoms: C20_30  and  C21_31 
REMARK   13  A    between atoms: C21_31  and  N5_32 
REMARK   14  A    between atoms: N7_43  and  C29_44 
ROOT
HETATM    1  C11 UNL     1       9.671 -18.557 -18.529  1.00  0.00     0.337 C 
HETATM    2  C12 UNL     1      10.888 -19.492 -18.432  1.00  0.00     0.062 C 
HETATM    3  C13 UNL     1      10.463 -20.875 -18.795  1.00  0.00    -0.009 C 
HETATM    4  C27 UNL     1       9.925 -20.837 -20.197  1.00  0.00     0.035 C 
HETATM    5  C28 UNL     1       8.846 -19.788 -20.332  1.00  0.00     0.276 C 
HETATM    6  N7  UNL     1       9.341 -18.462 -19.938  1.00  0.00     0.116 N 
ENDROOT
BRANCH   3   7
HETATM    7  C14 UNL     1      11.559 -21.879 -18.664  1.00  0.00     0.009 C 
BRANCH   7   8
HETATM    8  C15 UNL     1      12.799 -21.524 -19.418  1.00  0.00     0.042 C 
BRANCH   8   9
HETATM    9  C16 UNL     1      14.013 -22.113 -18.806  1.00  0.00    -0.027 A 
HETATM   10  C17 UNL     1      13.897 -23.300 -18.099  1.00  0.00     0.100 A 
HETATM   11  N4  UNL     1      15.003 -23.855 -17.542  1.00  0.00    -0.332 N 
HETATM   12  C18 UNL     1      16.223 -23.282 -17.656  1.00  0.00     0.223 A 
ATOM     13  H4  UNL     1      14.911 -24.728 -17.022  1.00  0.00     0.168 HD
HETATM   14  N6  UNL     1      16.321 -22.135 -18.343  1.00  0.00    -0.332 N 
HETATM   15  C26 UNL     1      15.259 -21.547 -18.912  1.00  0.00     0.100 A 
ATOM     16  H6  UNL     1      17.235 -21.694 -18.435  1.00  0.00     0.168 HD
BRANCH  12  17
HETATM   17  O2  UNL     1      17.351 -23.857 -17.084  1.00  0.00    -0.322 OA
BRANCH  17  18
HETATM   18  C19 UNL     1      17.645 -23.724 -15.704  1.00  0.00     0.180 C 
BRANCH  18  19
HETATM   19  C20 UNL     1      18.098 -22.308 -15.400  1.00  0.00     0.046 C 
BRANCH  19  20
HETATM   20  C21 UNL     1      17.398 -21.722 -14.193  1.00  0.00     0.119 C 
BRANCH  20  21
HETATM   21  N5  UNL     1      15.989 -21.824 -14.375  1.00  0.00    -0.408 N 
HETATM   22  C22 UNL     1      15.256 -22.358 -13.275  1.00  0.00     0.143 C 
HETATM   23  C23 UNL     1      14.050 -21.476 -13.031  1.00  0.00     0.187 C 
HETATM   24  O3  UNL     1      13.264 -21.494 -14.180  1.00  0.00    -0.388 OA
HETATM   25  C24 UNL     1      13.904 -20.885 -15.256  1.00  0.00     0.187 C 
HETATM   26  C25 UNL     1      15.383 -20.704 -15.008  1.00  0.00     0.143 C 
ENDBRANCH  20  21
ENDBRANCH  19  20
ENDBRANCH  18  19
ENDBRANCH  17  18
ENDBRANCH  12  17
ENDBRANCH   8   9
ENDBRANCH   7   8
ENDBRANCH   3   7
BRANCH   1  27
HETATM   27  N3  UNL     1      10.109 -17.333 -17.973  1.00  0.00    -0.194 N 
ATOM     28  H3  UNL     1      10.720 -16.774 -18.569  1.00  0.00     0.180 HD
BRANCH  27  29
HETATM   29  C10 UNL     1       9.850 -16.835 -16.846  1.00  0.00     0.681 A 
HETATM   30  N2  UNL     1       8.763 -16.017 -16.747  1.00  0.00    -0.177 N 
HETATM   31  C3  UNL     1       8.396 -15.442 -15.575  1.00  0.00     0.118 A 
ATOM     32  H2  UNL     1       8.209 -15.831 -17.582  1.00  0.00     0.185 HD
HETATM   33  C2  UNL     1       9.181 -15.725 -14.477  1.00  0.00     0.066 A 
HETATM   34  C1  UNL     1      10.294 -16.563 -14.574  1.00  0.00     0.110 A 
HETATM   35  N8  UNL     1      10.597 -17.098 -15.770  1.00  0.00    -0.202 N 
ATOM     36  H8  UNL     1      11.408 -17.712 -15.856  1.00  0.00     0.183 HD
BRANCH  31  37
HETATM   37  N1  UNL     1       7.360 -14.680 -15.536  1.00  0.00    -0.376 N 
ATOM     38  H1  UNL     1       7.489 -13.723 -15.862  1.00  0.00     0.161 HD
BRANCH  37  39
HETATM   39  C4  UNL     1       6.062 -15.020 -15.092  1.00  0.00     0.126 C 
BRANCH  39  40
HETATM   40  C5  UNL     1       4.934 -14.606 -16.009  1.00  0.00     0.007 C 
HETATM   41  C6  UNL     1       4.994 -15.482 -17.243  1.00  0.00     0.032 C 
HETATM   42  C7  UNL     1       4.715 -16.913 -16.931  1.00  0.00     0.168 C 
HETATM   43  O1  UNL     1       3.967 -17.125 -15.799  1.00  0.00    -0.391 OA
HETATM   44  C8  UNL     1       3.008 -16.161 -15.574  1.00  0.00     0.168 C 
HETATM   45  C9  UNL     1       3.572 -14.761 -15.423  1.00  0.00     0.032 C 
ENDBRANCH  39  40
ENDBRANCH  37  39
ENDBRANCH  31  37
ENDBRANCH  27  29
ENDBRANCH   1  27
BRANCH   6  46
HETATM   46  C29 UNL     1       8.240 -17.560 -20.206  1.00  0.00     0.225 C 
HETATM   47  C30 UNL     1       6.973 -18.163 -19.702  1.00  0.00     0.036 C 
HETATM   48  C31 UNL     1       5.891 -17.402 -20.471  1.00  0.00     0.002 C 
HETATM   49  C32 UNL     1       6.498 -17.261 -21.844  1.00  0.00     0.002 C 
HETATM   50  C33 UNL     1       7.998 -17.308 -21.645  1.00  0.00     0.036 C 
ENDBRANCH   6  46
TORSDOF 14
ENDMDL
