MODEL 1
REMARK VINA RESULT: -8.661149207      0.000      0.000
REMARK  13 active torsions:
REMARK  status: ('A' for Active; 'I' for Inactive)
REMARK    1  A    between atoms: C2_2  and  C3_3 
REMARK    2  A    between atoms: C3_3  and  C4_4 
REMARK    3  A    between atoms: C4_4  and  C5_5 
REMARK    4  A    between atoms: C5_5  and  N1_6 
REMARK    5  A    between atoms: C5_5  and  C19_29 
REMARK       I    between atoms: N1_6  and  C6_8 
REMARK    6  A    between atoms: C6_8  and  C7_10 
REMARK    7  A    between atoms: C9_12  and  C10_13 
REMARK    8  A    between atoms: C12_15  and  O2_16 
REMARK    9  A    between atoms: C14_18  and  O3_19 
REMARK   10  A    between atoms: C16_21  and  O4_22 
REMARK       I    between atoms: C19_29  and  N4_31 
REMARK   11  A    between atoms: C22_34  and  C23_35 
REMARK   12  A    between atoms: C22_34  and  C25_39 
REMARK   13  A    between atoms: C23_35  and  O7_37 
REMARK       I    between atoms: C25_39  and  N5_41 
ROOT
HETATM    1  C5  UNL     1     -11.647  18.948 -19.210  1.00  0.00     0.177 C 
ENDROOT
BRANCH   1   2
HETATM    2  C4  UNL     1     -11.253  18.906 -20.660  1.00  0.00     0.035 C 
BRANCH   2   3
HETATM    3  C3  UNL     1      -9.855  19.072 -21.034  1.00  0.00     0.002 C 
BRANCH   3   4
HETATM    4  C2  UNL     1      -8.973  17.888 -21.138  1.00  0.00    -0.004 C 
HETATM    5  C1  UNL     1      -7.509  18.181 -20.954  1.00  0.00     0.005 C 
ENDBRANCH   3   4
ENDBRANCH   2   3
ENDBRANCH   1   2
BRANCH   1   6
HETATM    6  N1  UNL     1     -10.438  18.382 -18.540  1.00  0.00    -0.342 N 
HETATM    7  C6  UNL     1     -10.465  17.683 -17.342  1.00  0.00     0.270 C 
HETATM    8  O1  UNL     1     -11.526  17.473 -16.723  1.00  0.00    -0.266 OA
ATOM      9  H1  UNL     1      -9.534  18.518 -18.992  1.00  0.00     0.163 HD
BRANCH   7  10
HETATM   10  C7  UNL     1      -9.200  17.177 -16.794  1.00  0.00     0.118 A 
HETATM   11  C8  UNL     1      -8.099  16.802 -17.524  1.00  0.00     0.068 A 
HETATM   12  C9  UNL     1      -7.153  16.390 -16.639  1.00  0.00     0.060 A 
HETATM   13  N2  UNL     1      -7.696  16.523 -15.422  1.00  0.00    -0.299 N 
HETATM   14  N3  UNL     1      -8.913  16.990 -15.504  1.00  0.00    -0.295 N 
ATOM     15  H2  UNL     1      -7.223  16.291 -14.549  1.00  0.00     0.187 HD
ATOM     16  H3  UNL     1      -9.536  17.180 -14.718  1.00  0.00     0.187 HD
BRANCH  12  17
HETATM   17  C10 UNL     1      -5.798  15.890 -16.922  1.00  0.00    -0.003 A 
HETATM   18  C11 UNL     1      -5.005  15.290 -15.970  1.00  0.00     0.053 A 
HETATM   19  C12 UNL     1      -3.726  14.833 -16.256  1.00  0.00     0.105 A 
HETATM   20  C14 UNL     1      -3.196  14.971 -17.546  1.00  0.00     0.135 A 
HETATM   21  C16 UNL     1      -3.998  15.569 -18.484  1.00  0.00     0.105 A 
HETATM   22  C18 UNL     1      -5.269  16.021 -18.189  1.00  0.00     0.053 A 
BRANCH  19  23
HETATM   23  O2  UNL     1      -2.912  14.230 -15.326  1.00  0.00    -0.353 OA
HETATM   24  C13 UNL     1      -2.086  14.866 -14.414  1.00  0.00     0.210 C 
ENDBRANCH  19  23
BRANCH  20  25
HETATM   25  O3  UNL     1      -1.915  14.510 -17.822  1.00  0.00    -0.351 OA
HETATM   26  C15 UNL     1      -0.823  15.408 -17.846  1.00  0.00     0.210 C 
ENDBRANCH  20  25
BRANCH  21  27
HETATM   27  O4  UNL     1      -3.475  15.708 -19.768  1.00  0.00    -0.353 OA
HETATM   28  C17 UNL     1      -3.531  16.980 -20.390  1.00  0.00     0.210 C 
ENDBRANCH  21  27
ENDBRANCH  12  17
ENDBRANCH   7  10
ENDBRANCH   1   6
BRANCH   1  29
HETATM   29  C19 UNL     1     -11.753  20.372 -18.733  1.00  0.00     0.242 C 
HETATM   30  O5  UNL     1     -10.743  20.840 -18.073  1.00  0.00    -0.271 OA
HETATM   31  N4  UNL     1     -12.822  21.255 -18.917  1.00  0.00    -0.350 N 
HETATM   32  C20 UNL     1     -14.059  20.955 -19.573  1.00  0.00     0.127 C 
HETATM   33  C31 UNL     1     -12.701  22.638 -18.421  1.00  0.00     0.127 C 
HETATM   34  C21 UNL     1     -15.266  21.435 -18.808  1.00  0.00     0.050 C 
HETATM   35  C22 UNL     1     -15.178  22.832 -18.301  1.00  0.00     0.131 C 
HETATM   36  C30 UNL     1     -13.845  23.026 -17.570  1.00  0.00     0.050 C 
BRANCH  35  37
HETATM   37  C23 UNL     1     -15.230  23.873 -19.345  1.00  0.00     0.276 C 
HETATM   38  O6  UNL     1     -14.705  25.016 -19.101  1.00  0.00    -0.264 OA
BRANCH  37  39
HETATM   39  O7  UNL     1     -15.825  23.664 -20.584  1.00  0.00    -0.325 OA
HETATM   40  C24 UNL     1     -16.718  24.651 -21.059  1.00  0.00     0.213 C 
ENDBRANCH  37  39
ENDBRANCH  35  37
BRANCH  35  41
HETATM   41  C25 UNL     1     -16.286  23.140 -17.343  1.00  0.00     0.238 C 
HETATM   42  O8  UNL     1     -17.119  24.052 -17.693  1.00  0.00    -0.272 OA
HETATM   43  N5  UNL     1     -16.453  22.497 -16.111  1.00  0.00    -0.351 N 
HETATM   44  C26 UNL     1     -15.670  21.467 -15.494  1.00  0.00     0.126 C 
HETATM   45  C29 UNL     1     -17.523  22.757 -15.129  1.00  0.00     0.126 C 
HETATM   46  C27 UNL     1     -16.619  20.659 -14.614  1.00  0.00     0.021 C 
HETATM   47  C28 UNL     1     -17.948  21.356 -14.698  1.00  0.00     0.021 C 
ENDBRANCH  35  41
ENDBRANCH   1  29
TORSDOF 13
ENDMDL
MODEL 2
REMARK VINA RESULT: -8.637205664      1.011      1.047
REMARK  13 active torsions:
REMARK  status: ('A' for Active; 'I' for Inactive)
REMARK    1  A    between atoms: C2_2  and  C3_3 
REMARK    2  A    between atoms: C3_3  and  C4_4 
REMARK    3  A    between atoms: C4_4  and  C5_5 
REMARK    4  A    between atoms: C5_5  and  N1_6 
REMARK    5  A    between atoms: C5_5  and  C19_29 
REMARK       I    between atoms: N1_6  and  C6_8 
REMARK    6  A    between atoms: C6_8  and  C7_10 
REMARK    7  A    between atoms: C9_12  and  C10_13 
REMARK    8  A    between atoms: C12_15  and  O2_16 
REMARK    9  A    between atoms: C14_18  and  O3_19 
REMARK   10  A    between atoms: C16_21  and  O4_22 
REMARK       I    between atoms: C19_29  and  N4_31 
REMARK   11  A    between atoms: C22_34  and  C23_35 
REMARK   12  A    between atoms: C22_34  and  C25_39 
REMARK   13  A    between atoms: C23_35  and  O7_37 
REMARK       I    between atoms: C25_39  and  N5_41 
ROOT
HETATM    1  C5  UNL     1     -11.669  18.976 -19.237  1.00  0.00     0.177 C 
ENDROOT
BRANCH   1   2
HETATM    2  C4  UNL     1     -11.184  19.008 -20.659  1.00  0.00     0.035 C 
BRANCH   2   3
HETATM    3  C3  UNL     1      -9.755  18.962 -20.936  1.00  0.00     0.002 C 
BRANCH   3   4
HETATM    4  C2  UNL     1      -8.949  20.201 -20.870  1.00  0.00    -0.004 C 
HETATM    5  C1  UNL     1      -7.628  20.051 -20.165  1.00  0.00     0.005 C 
ENDBRANCH   3   4
ENDBRANCH   2   3
ENDBRANCH   1   2
BRANCH   1   6
HETATM    6  N1  UNL     1     -10.520  18.338 -18.528  1.00  0.00    -0.342 N 
HETATM    7  C6  UNL     1     -10.643  17.556 -17.388  1.00  0.00     0.270 C 
HETATM    8  O1  UNL     1     -11.748  17.326 -16.861  1.00  0.00    -0.266 OA
ATOM      9  H1  UNL     1      -9.584  18.486 -18.905  1.00  0.00     0.163 HD
BRANCH   7  10
HETATM   10  C7  UNL     1      -9.428  16.986 -16.792  1.00  0.00     0.118 A 
HETATM   11  C8  UNL     1      -8.149  17.138 -17.269  1.00  0.00     0.068 A 
HETATM   12  C9  UNL     1      -7.325  16.449 -16.435  1.00  0.00     0.060 A 
HETATM   13  N2  UNL     1      -8.112  15.908 -15.496  1.00  0.00    -0.299 N 
HETATM   14  N3  UNL     1      -9.364  16.222 -15.699  1.00  0.00    -0.295 N 
ATOM     15  H2  UNL     1      -7.779  15.330 -14.725  1.00  0.00     0.187 HD
ATOM     16  H3  UNL     1     -10.155  15.934 -15.123  1.00  0.00     0.187 HD
BRANCH  12  17
HETATM   17  C10 UNL     1      -5.864  16.302 -16.517  1.00  0.00    -0.003 A 
HETATM   18  C11 UNL     1      -5.152  15.424 -15.731  1.00  0.00     0.053 A 
HETATM   19  C12 UNL     1      -3.772  15.305 -15.818  1.00  0.00     0.105 A 
HETATM   20  C14 UNL     1      -3.050  16.091 -16.726  1.00  0.00     0.135 A 
HETATM   21  C16 UNL     1      -3.771  16.961 -17.503  1.00  0.00     0.105 A 
HETATM   22  C18 UNL     1      -5.145  17.071 -17.408  1.00  0.00     0.053 A 
BRANCH  19  23
HETATM   23  O2  UNL     1      -3.036  14.437 -15.046  1.00  0.00    -0.353 OA
HETATM   24  C13 UNL     1      -2.653  13.151 -15.389  1.00  0.00     0.210 C 
ENDBRANCH  19  23
BRANCH  20  25
HETATM   25  O3  UNL     1      -1.669  15.967 -16.806  1.00  0.00    -0.351 OA
HETATM   26  C15 UNL     1      -0.831  16.787 -16.015  1.00  0.00     0.210 C 
ENDBRANCH  20  25
BRANCH  21  27
HETATM   27  O4  UNL     1      -3.057  17.745 -18.407  1.00  0.00    -0.353 OA
HETATM   28  C17 UNL     1      -2.940  19.134 -18.156  1.00  0.00     0.210 C 
ENDBRANCH  21  27
ENDBRANCH  12  17
ENDBRANCH   7  10
ENDBRANCH   1   6
BRANCH   1  29
HETATM   29  C19 UNL     1     -11.771  20.371 -18.682  1.00  0.00     0.242 C 
HETATM   30  O5  UNL     1     -10.789  20.776 -17.944  1.00  0.00    -0.271 OA
HETATM   31  N4  UNL     1     -12.810  21.289 -18.870  1.00  0.00    -0.350 N 
HETATM   32  C20 UNL     1     -14.016  21.057 -19.607  1.00  0.00     0.127 C 
HETATM   33  C31 UNL     1     -12.688  22.638 -18.287  1.00  0.00     0.127 C 
HETATM   34  C21 UNL     1     -15.253  21.520 -18.879  1.00  0.00     0.050 C 
HETATM   35  C22 UNL     1     -15.163  22.883 -18.287  1.00  0.00     0.131 C 
HETATM   36  C30 UNL     1     -13.868  23.002 -17.476  1.00  0.00     0.050 C 
BRANCH  35  37
HETATM   37  C23 UNL     1     -15.138  23.984 -19.268  1.00  0.00     0.276 C 
HETATM   38  O6  UNL     1     -14.674  25.122 -18.905  1.00  0.00    -0.264 OA
BRANCH  37  39
HETATM   39  O7  UNL     1     -15.594  23.836 -20.572  1.00  0.00    -0.325 OA
HETATM   40  C24 UNL     1     -16.587  24.734 -21.026  1.00  0.00     0.213 C 
ENDBRANCH  37  39
ENDBRANCH  35  37
BRANCH  35  41
HETATM   41  C25 UNL     1     -16.315  23.162 -17.371  1.00  0.00     0.238 C 
HETATM   42  O8  UNL     1     -17.182  24.018 -17.774  1.00  0.00    -0.272 OA
HETATM   43  N5  UNL     1     -16.487  22.547 -16.125  1.00  0.00    -0.351 N 
HETATM   44  C26 UNL     1     -15.672  21.577 -15.454  1.00  0.00     0.126 C 
HETATM   45  C29 UNL     1     -17.599  22.779 -15.184  1.00  0.00     0.126 C 
HETATM   46  C27 UNL     1     -16.605  20.747 -14.578  1.00  0.00     0.021 C 
HETATM   47  C28 UNL     1     -17.965  21.372 -14.723  1.00  0.00     0.021 C 
ENDBRANCH  35  41
ENDBRANCH   1  29
TORSDOF 13
ENDMDL
MODEL 3
REMARK VINA RESULT: -8.598047919      0.396      1.869
REMARK  13 active torsions:
REMARK  status: ('A' for Active; 'I' for Inactive)
REMARK    1  A    between atoms: C2_2  and  C3_3 
REMARK    2  A    between atoms: C3_3  and  C4_4 
REMARK    3  A    between atoms: C4_4  and  C5_5 
REMARK    4  A    between atoms: C5_5  and  N1_6 
REMARK    5  A    between atoms: C5_5  and  C19_29 
REMARK       I    between atoms: N1_6  and  C6_8 
REMARK    6  A    between atoms: C6_8  and  C7_10 
REMARK    7  A    between atoms: C9_12  and  C10_13 
REMARK    8  A    between atoms: C12_15  and  O2_16 
REMARK    9  A    between atoms: C14_18  and  O3_19 
REMARK   10  A    between atoms: C16_21  and  O4_22 
REMARK       I    between atoms: C19_29  and  N4_31 
REMARK   11  A    between atoms: C22_34  and  C23_35 
REMARK   12  A    between atoms: C22_34  and  C25_39 
REMARK   13  A    between atoms: C23_35  and  O7_37 
REMARK       I    between atoms: C25_39  and  N5_41 
ROOT
HETATM    1  C5  UNL     1     -11.628  18.981 -19.247  1.00  0.00     0.177 C 
ENDROOT
BRANCH   1   2
HETATM    2  C4  UNL     1     -11.240  18.945 -20.698  1.00  0.00     0.035 C 
BRANCH   2   3
HETATM    3  C3  UNL     1      -9.841  19.087 -21.077  1.00  0.00     0.002 C 
BRANCH   3   4
HETATM    4  C2  UNL     1      -8.972  17.892 -21.159  1.00  0.00    -0.004 C 
HETATM    5  C1  UNL     1      -7.502  18.177 -21.015  1.00  0.00     0.005 C 
ENDBRANCH   3   4
ENDBRANCH   2   3
ENDBRANCH   1   2
BRANCH   1   6
HETATM    6  N1  UNL     1     -10.413  18.418 -18.584  1.00  0.00    -0.342 N 
HETATM    7  C6  UNL     1     -10.433  17.711 -17.391  1.00  0.00     0.270 C 
HETATM    8  O1  UNL     1     -11.491  17.491 -16.770  1.00  0.00    -0.266 OA
ATOM      9  H1  UNL     1      -9.511  18.563 -19.038  1.00  0.00     0.163 HD
BRANCH   7  10
HETATM   10  C7  UNL     1      -9.163  17.209 -16.850  1.00  0.00     0.118 A 
HETATM   11  C8  UNL     1      -8.071  16.822 -17.587  1.00  0.00     0.068 A 
HETATM   12  C9  UNL     1      -7.116  16.419 -16.706  1.00  0.00     0.060 A 
HETATM   13  N2  UNL     1      -7.646  16.569 -15.485  1.00  0.00    -0.299 N 
HETATM   14  N3  UNL     1      -8.863  17.039 -15.560  1.00  0.00    -0.295 N 
ATOM     15  H2  UNL     1      -7.164  16.347 -14.614  1.00  0.00     0.187 HD
ATOM     16  H3  UNL     1      -9.477  17.240 -14.771  1.00  0.00     0.187 HD
BRANCH  12  17
HETATM   17  C10 UNL     1      -5.766  15.912 -16.998  1.00  0.00    -0.003 A 
HETATM   18  C11 UNL     1      -5.168  16.037 -18.231  1.00  0.00     0.053 A 
HETATM   19  C12 UNL     1      -3.896  15.545 -18.489  1.00  0.00     0.105 A 
HETATM   20  C14 UNL     1      -3.171  14.895 -17.481  1.00  0.00     0.135 A 
HETATM   21  C16 UNL     1      -3.779  14.777 -16.258  1.00  0.00     0.105 A 
HETATM   22  C18 UNL     1      -5.045  15.271 -16.013  1.00  0.00     0.053 A 
BRANCH  19  23
HETATM   23  O2  UNL     1      -3.273  15.657 -19.710  1.00  0.00    -0.353 OA
HETATM   24  C13 UNL     1      -2.860  16.828 -20.322  1.00  0.00     0.210 C 
ENDBRANCH  19  23
BRANCH  20  25
HETATM   25  O3  UNL     1      -1.899  14.405 -17.749  1.00  0.00    -0.351 OA
HETATM   26  C15 UNL     1      -1.722  13.066 -18.169  1.00  0.00     0.210 C 
ENDBRANCH  20  25
BRANCH  21  27
HETATM   27  O4  UNL     1      -3.062  14.131 -15.253  1.00  0.00    -0.353 OA
HETATM   28  C17 UNL     1      -2.139  14.885 -14.485  1.00  0.00     0.210 C 
ENDBRANCH  21  27
ENDBRANCH  12  17
ENDBRANCH   7  10
ENDBRANCH   1   6
BRANCH   1  29
HETATM   29  C19 UNL     1     -11.737  20.403 -18.765  1.00  0.00     0.242 C 
HETATM   30  O5  UNL     1     -10.728  20.872 -18.105  1.00  0.00    -0.271 OA
HETATM   31  N4  UNL     1     -12.809  21.285 -18.946  1.00  0.00    -0.350 N 
HETATM   32  C20 UNL     1     -14.046  20.983 -19.602  1.00  0.00     0.127 C 
HETATM   33  C31 UNL     1     -12.691  22.666 -18.446  1.00  0.00     0.127 C 
HETATM   34  C21 UNL     1     -15.253  21.457 -18.833  1.00  0.00     0.050 C 
HETATM   35  C22 UNL     1     -15.168  22.853 -18.322  1.00  0.00     0.131 C 
HETATM   36  C30 UNL     1     -13.835  23.049 -17.592  1.00  0.00     0.050 C 
BRANCH  35  37
HETATM   37  C23 UNL     1     -15.224  23.898 -19.364  1.00  0.00     0.276 C 
HETATM   38  O6  UNL     1     -14.696  25.039 -19.120  1.00  0.00    -0.264 OA
BRANCH  37  39
HETATM   39  O7  UNL     1     -15.826  23.692 -20.599  1.00  0.00    -0.325 OA
HETATM   40  C24 UNL     1     -16.713  24.687 -21.070  1.00  0.00     0.213 C 
ENDBRANCH  37  39
ENDBRANCH  35  37
BRANCH  35  41
HETATM   41  C25 UNL     1     -16.276  23.156 -17.362  1.00  0.00     0.238 C 
HETATM   42  O8  UNL     1     -17.121  24.055 -17.716  1.00  0.00    -0.272 OA
HETATM   43  N5  UNL     1     -16.429  22.521 -16.124  1.00  0.00    -0.351 N 
HETATM   44  C26 UNL     1     -15.632  21.505 -15.502  1.00  0.00     0.126 C 
HETATM   45  C29 UNL     1     -17.499  22.775 -15.140  1.00  0.00     0.126 C 
HETATM   46  C27 UNL     1     -16.568  20.693 -14.612  1.00  0.00     0.021 C 
HETATM   47  C28 UNL     1     -17.905  21.373 -14.696  1.00  0.00     0.021 C 
ENDBRANCH  35  41
ENDBRANCH   1  29
TORSDOF 13
ENDMDL
MODEL 4
REMARK VINA RESULT: -8.492847124      3.436     11.758
REMARK  13 active torsions:
REMARK  status: ('A' for Active; 'I' for Inactive)
REMARK    1  A    between atoms: C2_2  and  C3_3 
REMARK    2  A    between atoms: C3_3  and  C4_4 
REMARK    3  A    between atoms: C4_4  and  C5_5 
REMARK    4  A    between atoms: C5_5  and  N1_6 
REMARK    5  A    between atoms: C5_5  and  C19_29 
REMARK       I    between atoms: N1_6  and  C6_8 
REMARK    6  A    between atoms: C6_8  and  C7_10 
REMARK    7  A    between atoms: C9_12  and  C10_13 
REMARK    8  A    between atoms: C12_15  and  O2_16 
REMARK    9  A    between atoms: C14_18  and  O3_19 
REMARK   10  A    between atoms: C16_21  and  O4_22 
REMARK       I    between atoms: C19_29  and  N4_31 
REMARK   11  A    between atoms: C22_34  and  C23_35 
REMARK   12  A    between atoms: C22_34  and  C25_39 
REMARK   13  A    between atoms: C23_35  and  O7_37 
REMARK       I    between atoms: C25_39  and  N5_41 
ROOT
HETATM    1  C5  UNL     1      -8.061  17.737 -20.733  1.00  0.00     0.177 C 
ENDROOT
BRANCH   1   2
HETATM    2  C4  UNL     1      -8.072  16.241 -20.865  1.00  0.00     0.035 C 
BRANCH   2   3
HETATM    3  C3  UNL     1      -8.046  15.630 -22.187  1.00  0.00     0.002 C 
BRANCH   3   4
HETATM    4  C2  UNL     1      -7.182  16.197 -23.246  1.00  0.00    -0.004 C 
HETATM    5  C1  UNL     1      -7.533  15.758 -24.641  1.00  0.00     0.005 C 
ENDBRANCH   3   4
ENDBRANCH   2   3
ENDBRANCH   1   2
BRANCH   1   6
HETATM    6  N1  UNL     1      -9.419  18.013 -20.176  1.00  0.00    -0.342 N 
HETATM    7  C6  UNL     1     -10.102  19.210 -20.341  1.00  0.00     0.270 C 
HETATM    8  O1  UNL     1      -9.618  20.164 -20.980  1.00  0.00    -0.266 OA
ATOM      9  H1  UNL     1      -9.875  17.274 -19.640  1.00  0.00     0.163 HD
BRANCH   7  10
HETATM   10  C7  UNL     1     -11.436  19.347 -19.742  1.00  0.00     0.118 A 
HETATM   11  C8  UNL     1     -12.068  20.529 -19.447  1.00  0.00     0.068 A 
HETATM   12  C9  UNL     1     -13.273  20.214 -18.900  1.00  0.00     0.060 A 
HETATM   13  N2  UNL     1     -13.335  18.876 -18.880  1.00  0.00    -0.299 N 
HETATM   14  N3  UNL     1     -12.248  18.351 -19.378  1.00  0.00    -0.295 N 
ATOM     15  H2  UNL     1     -14.125  18.339 -18.523  1.00  0.00     0.187 HD
ATOM     16  H3  UNL     1     -12.052  17.355 -19.473  1.00  0.00     0.187 HD
BRANCH  12  17
HETATM   17  C10 UNL     1     -14.319  21.127 -18.417  1.00  0.00    -0.003 A 
HETATM   18  C11 UNL     1     -14.739  21.162 -17.106  1.00  0.00     0.053 A 
HETATM   19  C12 UNL     1     -15.734  22.026 -16.670  1.00  0.00     0.105 A 
HETATM   20  C14 UNL     1     -16.351  22.906 -17.570  1.00  0.00     0.135 A 
HETATM   21  C16 UNL     1     -15.923  22.861 -18.872  1.00  0.00     0.105 A 
HETATM   22  C18 UNL     1     -14.932  21.997 -19.294  1.00  0.00     0.053 A 
BRANCH  19  23
HETATM   23  O2  UNL     1     -16.172  22.082 -15.368  1.00  0.00    -0.353 OA
HETATM   24  C13 UNL     1     -16.761  21.055 -14.649  1.00  0.00     0.210 C 
ENDBRANCH  19  23
BRANCH  20  25
HETATM   25  O3  UNL     1     -17.346  23.767 -17.126  1.00  0.00    -0.351 OA
HETATM   26  C15 UNL     1     -18.704  23.375 -17.175  1.00  0.00     0.210 C 
ENDBRANCH  20  25
BRANCH  21  27
HETATM   27  O4  UNL     1     -16.534  23.734 -19.770  1.00  0.00    -0.353 OA
HETATM   28  C17 UNL     1     -15.803  24.159 -20.907  1.00  0.00     0.210 C 
ENDBRANCH  21  27
ENDBRANCH  12  17
ENDBRANCH   7  10
ENDBRANCH   1   6
BRANCH   1  29
HETATM   29  C19 UNL     1      -7.086  18.167 -19.670  1.00  0.00     0.242 C 
HETATM   30  O5  UNL     1      -7.571  18.383 -18.490  1.00  0.00    -0.271 OA
HETATM   31  N4  UNL     1      -5.707  18.364 -19.807  1.00  0.00    -0.350 N 
HETATM   32  C20 UNL     1      -4.954  18.230 -21.018  1.00  0.00     0.127 C 
HETATM   33  C31 UNL     1      -4.915  18.728 -18.618  1.00  0.00     0.127 C 
HETATM   34  C21 UNL     1      -3.999  19.374 -21.249  1.00  0.00     0.050 C 
HETATM   35  C22 UNL     1      -3.177  19.759 -20.069  1.00  0.00     0.131 C 
HETATM   36  C30 UNL     1      -4.087  19.931 -18.848  1.00  0.00     0.050 C 
BRANCH  35  37
HETATM   37  C23 UNL     1      -2.150  18.773 -19.682  1.00  0.00     0.276 C 
HETATM   38  O6  UNL     1      -1.501  18.956 -18.592  1.00  0.00    -0.264 OA
BRANCH  37  39
HETATM   39  O7  UNL     1      -1.859  17.653 -20.450  1.00  0.00    -0.325 OA
HETATM   40  C24 UNL     1      -1.953  16.387 -19.828  1.00  0.00     0.213 C 
ENDBRANCH  37  39
ENDBRANCH  35  37
BRANCH  35  41
HETATM   41  C25 UNL     1      -2.456  21.051 -20.298  1.00  0.00     0.238 C 
HETATM   42  O8  UNL     1      -1.743  21.136 -21.362  1.00  0.00    -0.272 OA
HETATM   43  N5  UNL     1      -2.520  22.145 -19.428  1.00  0.00    -0.351 N 
HETATM   44  C26 UNL     1      -3.228  22.300 -18.191  1.00  0.00     0.126 C 
HETATM   45  C29 UNL     1      -1.835  23.440 -19.602  1.00  0.00     0.126 C 
HETATM   46  C27 UNL     1      -3.559  23.783 -18.056  1.00  0.00     0.021 C 
HETATM   47  C28 UNL     1      -2.912  24.456 -19.233  1.00  0.00     0.021 C 
ENDBRANCH  35  41
ENDBRANCH   1  29
TORSDOF 13
ENDMDL
MODEL 5
REMARK VINA RESULT: -8.431756306      3.429     11.895
REMARK  13 active torsions:
REMARK  status: ('A' for Active; 'I' for Inactive)
REMARK    1  A    between atoms: C2_2  and  C3_3 
REMARK    2  A    between atoms: C3_3  and  C4_4 
REMARK    3  A    between atoms: C4_4  and  C5_5 
REMARK    4  A    between atoms: C5_5  and  N1_6 
REMARK    5  A    between atoms: C5_5  and  C19_29 
REMARK       I    between atoms: N1_6  and  C6_8 
REMARK    6  A    between atoms: C6_8  and  C7_10 
REMARK    7  A    between atoms: C9_12  and  C10_13 
REMARK    8  A    between atoms: C12_15  and  O2_16 
REMARK    9  A    between atoms: C14_18  and  O3_19 
REMARK   10  A    between atoms: C16_21  and  O4_22 
REMARK       I    between atoms: C19_29  and  N4_31 
REMARK   11  A    between atoms: C22_34  and  C23_35 
REMARK   12  A    between atoms: C22_34  and  C25_39 
REMARK   13  A    between atoms: C23_35  and  O7_37 
REMARK       I    between atoms: C25_39  and  N5_41 
ROOT
HETATM    1  C5  UNL     1      -8.098  17.693 -20.735  1.00  0.00     0.177 C 
ENDROOT
BRANCH   1   2
HETATM    2  C4  UNL     1      -8.101  16.195 -20.851  1.00  0.00     0.035 C 
BRANCH   2   3
HETATM    3  C3  UNL     1      -7.954  15.570 -22.158  1.00  0.00     0.002 C 
BRANCH   3   4
HETATM    4  C2  UNL     1      -7.380  16.339 -23.284  1.00  0.00    -0.004 C 
HETATM    5  C1  UNL     1      -7.471  15.654 -24.621  1.00  0.00     0.005 C 
ENDBRANCH   3   4
ENDBRANCH   2   3
ENDBRANCH   1   2
BRANCH   1   6
HETATM    6  N1  UNL     1      -9.459  17.967 -20.184  1.00  0.00    -0.342 N 
HETATM    7  C6  UNL     1     -10.125  19.177 -20.317  1.00  0.00     0.270 C 
HETATM    8  O1  UNL     1      -9.623  20.145 -20.920  1.00  0.00    -0.266 OA
ATOM      9  H1  UNL     1      -9.928  17.218 -19.676  1.00  0.00     0.163 HD
BRANCH   7  10
HETATM   10  C7  UNL     1     -11.463  19.311 -19.727  1.00  0.00     0.118 A 
HETATM   11  C8  UNL     1     -12.102  20.493 -19.440  1.00  0.00     0.068 A 
HETATM   12  C9  UNL     1     -13.309  20.175 -18.901  1.00  0.00     0.060 A 
HETATM   13  N2  UNL     1     -13.367  18.837 -18.876  1.00  0.00    -0.299 N 
HETATM   14  N3  UNL     1     -12.274  18.314 -19.365  1.00  0.00    -0.295 N 
ATOM     15  H2  UNL     1     -14.158  18.299 -18.523  1.00  0.00     0.187 HD
ATOM     16  H3  UNL     1     -12.075  17.318 -19.455  1.00  0.00     0.187 HD
BRANCH  12  17
HETATM   17  C10 UNL     1     -14.362  21.087 -18.428  1.00  0.00    -0.003 A 
HETATM   18  C11 UNL     1     -15.038  21.949 -19.261  1.00  0.00     0.053 A 
HETATM   19  C12 UNL     1     -16.023  22.808 -18.793  1.00  0.00     0.105 A 
HETATM   20  C14 UNL     1     -16.364  22.822 -17.434  1.00  0.00     0.135 A 
HETATM   21  C16 UNL     1     -15.683  21.957 -16.616  1.00  0.00     0.105 A 
HETATM   22  C18 UNL     1     -14.704  21.107 -17.092  1.00  0.00     0.053 A 
BRANCH  19  23
HETATM   23  O2  UNL     1     -16.715  23.679 -19.602  1.00  0.00    -0.353 OA
HETATM   24  C13 UNL     1     -16.235  24.311 -20.737  1.00  0.00     0.210 C 
ENDBRANCH  19  23
BRANCH  20  25
HETATM   25  O3  UNL     1     -17.350  23.685 -16.975  1.00  0.00    -0.351 OA
HETATM   26  C15 UNL     1     -18.709  23.291 -16.991  1.00  0.00     0.210 C 
ENDBRANCH  20  25
BRANCH  21  27
HETATM   27  O4  UNL     1     -16.018  21.967 -15.263  1.00  0.00    -0.353 OA
HETATM   28  C17 UNL     1     -16.803  20.905 -14.751  1.00  0.00     0.210 C 
ENDBRANCH  21  27
ENDBRANCH  12  17
ENDBRANCH   7  10
ENDBRANCH   1   6
BRANCH   1  29
HETATM   29  C19 UNL     1      -7.127  18.139 -19.675  1.00  0.00     0.242 C 
HETATM   30  O5  UNL     1      -7.615  18.365 -18.498  1.00  0.00    -0.271 OA
HETATM   31  N4  UNL     1      -5.749  18.341 -19.812  1.00  0.00    -0.350 N 
HETATM   32  C20 UNL     1      -4.993  18.197 -21.019  1.00  0.00     0.127 C 
HETATM   33  C31 UNL     1      -4.960  18.721 -18.626  1.00  0.00     0.127 C 
HETATM   34  C21 UNL     1      -4.042  19.343 -21.261  1.00  0.00     0.050 C 
HETATM   35  C22 UNL     1      -3.225  19.744 -20.084  1.00  0.00     0.131 C 
HETATM   36  C30 UNL     1      -4.138  19.925 -18.867  1.00  0.00     0.050 C 
BRANCH  35  37
HETATM   37  C23 UNL     1      -2.194  18.767 -19.684  1.00  0.00     0.276 C 
HETATM   38  O6  UNL     1      -1.587  18.935 -18.568  1.00  0.00    -0.264 OA
BRANCH  37  39
HETATM   39  O7  UNL     1      -1.855  17.672 -20.469  1.00  0.00    -0.325 OA
HETATM   40  C24 UNL     1      -1.930  16.391 -19.875  1.00  0.00     0.213 C 
ENDBRANCH  37  39
ENDBRANCH  35  37
BRANCH  35  41
HETATM   41  C25 UNL     1      -2.509  21.037 -20.326  1.00  0.00     0.238 C 
HETATM   42  O8  UNL     1      -1.808  21.120 -21.399  1.00  0.00    -0.272 OA
HETATM   43  N5  UNL     1      -2.566  22.134 -19.459  1.00  0.00    -0.351 N 
HETATM   44  C26 UNL     1      -3.259  22.292 -18.214  1.00  0.00     0.126 C 
HETATM   45  C29 UNL     1      -1.886  23.430 -19.645  1.00  0.00     0.126 C 
HETATM   46  C27 UNL     1      -3.593  23.774 -18.080  1.00  0.00     0.021 C 
HETATM   47  C28 UNL     1      -2.960  24.444 -19.267  1.00  0.00     0.021 C 
ENDBRANCH  35  41
ENDBRANCH   1  29
TORSDOF 13
ENDMDL
