MODEL 1
REMARK VINA RESULT: -9.273943124      0.000      0.000
REMARK  14 active torsions:
REMARK  status: ('A' for Active; 'I' for Inactive)
REMARK    1  A    between atoms: C2_2  and  C3_3 
REMARK    2  A    between atoms: C3_3  and  C4_4 
REMARK    3  A    between atoms: N1_7  and  C7_8 
REMARK    4  A    between atoms: C7_8  and  C8_9 
REMARK    5  A    between atoms: C8_9  and  C9_10 
REMARK    6  A    between atoms: C9_10  and  C10_11 
REMARK    7  A    between atoms: C10_11  and  C11_12 
REMARK    8  A    between atoms: N2_15  and  C14_16 
REMARK    9  A    between atoms: C15_19  and  N4_20 
REMARK   10  A    between atoms: N4_20  and  C16_22 
REMARK   11  A    between atoms: C16_22  and  C18_24 
REMARK   12  A    between atoms: C18_24  and  O1_25 
REMARK   13  A    between atoms: N8_37  and  C23_38 
REMARK   14  A    between atoms: C23_38  and  C24_39 
ROOT
HETATM    1  C14 UNL     1     -14.230 -21.770  17.849  1.00  0.00     0.703 A 
HETATM    2  N3  UNL     1     -14.128 -21.814  16.519  1.00  0.00    -0.022 N 
ATOM      3  H3  UNL     1     -13.324 -21.371  16.074  1.00  0.00     0.203 HD
HETATM    4  C15 UNL     1     -15.043 -22.417  15.745  1.00  0.00     0.695 A 
HETATM    5  N5  UNL     1     -16.097 -22.998  16.330  1.00  0.00    -0.166 N 
ATOM      6  H5  UNL     1     -16.799 -23.460  15.752  1.00  0.00     0.186 HD
HETATM    7  C19 UNL     1     -16.248 -22.982  17.667  1.00  0.00     0.217 A 
HETATM    8  C20 UNL     1     -17.388 -23.615  18.234  1.00  0.00     0.138 C 
HETATM    9  N6  UNL     1     -18.291 -24.137  18.686  1.00  0.00    -0.188 NA
HETATM   10  N7  UNL     1     -15.307 -22.365  18.416  1.00  0.00    -0.165 N 
ATOM     11  H7  UNL     1     -15.410 -22.348  19.431  1.00  0.00     0.186 HD
ENDROOT
BRANCH   4  12
HETATM   12  N4  UNL     1     -14.935 -22.454  14.475  1.00  0.00    -0.219 N 
ATOM     13  H4  UNL     1     -14.698 -23.360  14.068  1.00  0.00     0.178 HD
BRANCH  12  14
HETATM   14  C16 UNL     1     -15.108 -21.375  13.556  1.00  0.00     0.118 C 
HETATM   15  C17 UNL     1     -13.764 -20.879  13.078  1.00  0.00     0.035 C 
BRANCH  14  16
HETATM   16  C18 UNL     1     -15.837 -20.258  14.291  1.00  0.00     0.189 C 
BRANCH  16  17
HETATM   17  O1  UNL     1     -14.981 -19.388  14.925  1.00  0.00    -0.399 OA
ATOM     18  H1  UNL     1     -15.324 -18.504  14.977  1.00  0.00     0.209 HD
ENDBRANCH  16  17
ENDBRANCH  14  16
ENDBRANCH  12  14
ENDBRANCH   4  12
BRANCH   1  19
HETATM   19  N2  UNL     1     -13.249 -21.116  18.626  1.00  0.00    -0.149 N 
HETATM   20  C13 UNL     1     -12.439 -21.959  19.487  1.00  0.00     0.153 C 
HETATM   21  C12 UNL     1     -10.964 -21.753  19.195  1.00  0.00     0.056 C 
HETATM   22  C11 UNL     1     -10.479 -20.408  19.618  1.00  0.00     0.225 C 
HETATM   23  N8  UNL     1     -10.756 -19.324  18.745  1.00  0.00     0.102 N 
HETATM   24  C22 UNL     1     -12.095 -18.804  18.908  1.00  0.00     0.376 C 
HETATM   25  C21 UNL     1     -13.158 -19.727  18.479  1.00  0.00     0.266 C 
HETATM   26  O2  UNL     1     -14.141 -19.208  17.892  1.00  0.00    -0.271 OA
BRANCH  22  27
HETATM   27  C10 UNL     1      -9.003 -20.521  19.978  1.00  0.00     0.036 C 
BRANCH  27  28
HETATM   28  C9  UNL     1      -8.748 -20.233  21.413  1.00  0.00     0.004 C 
BRANCH  28  29
HETATM   29  C8  UNL     1      -9.030 -18.784  21.774  1.00  0.00     0.030 C 
BRANCH  29  30
HETATM   30  C7  UNL     1      -7.819 -17.912  21.586  1.00  0.00     0.272 C 
BRANCH  30  31
HETATM   31  N1  UNL     1      -7.525 -17.601  20.216  1.00  0.00     0.088 N 
HETATM   32  C6  UNL     1      -6.224 -18.036  19.809  1.00  0.00     0.272 C 
HETATM   33  C5  UNL     1      -5.523 -17.033  18.919  1.00  0.00     0.036 C 
HETATM   34  C4  UNL     1      -6.477 -16.580  17.826  1.00  0.00    -0.003 C 
HETATM   35  C28 UNL     1      -7.788 -16.127  18.339  1.00  0.00     0.036 C 
HETATM   36  C27 UNL     1      -7.912 -16.299  19.857  1.00  0.00     0.272 C 
BRANCH  34  37
HETATM   37  C3  UNL     1      -5.797 -15.738  16.810  1.00  0.00    -0.034 C 
HETATM   38  C29 UNL     1      -5.014 -16.651  15.854  1.00  0.00     0.040 C 
HETATM   39  C30 UNL     1      -3.676 -17.035  16.447  1.00  0.00     0.272 C 
HETATM   40  N9  UNL     1      -2.806 -15.880  16.339  1.00  0.00     0.084 N 
HETATM   41  C31 UNL     1      -2.349 -15.741  14.974  1.00  0.00     0.309 C 
HETATM   42  C32 UNL     1      -3.538 -14.651  16.666  1.00  0.00     0.272 C 
HETATM   43  C33 UNL     1      -4.691 -14.984  17.574  1.00  0.00     0.040 C 
BRANCH  37  44
HETATM   44  C2  UNL     1      -6.614 -14.745  16.077  1.00  0.00     0.005 C 
HETATM   45  C1  UNL     1      -7.235 -15.180  14.797  1.00  0.00     0.006 C 
ENDBRANCH  37  44
ENDBRANCH  34  37
ENDBRANCH  30  31
ENDBRANCH  29  30
ENDBRANCH  28  29
ENDBRANCH  27  28
ENDBRANCH  22  27
BRANCH  23  46
HETATM   46  C23 UNL     1     -10.394 -19.538  17.373  1.00  0.00     0.278 C 
BRANCH  46  47
HETATM   47  C24 UNL     1      -9.878 -18.307  16.690  1.00  0.00     0.014 A 
HETATM   48  C25 UNL     1      -8.880 -18.656  15.570  1.00  0.00     0.007 A 
HETATM   49  C26 UNL     1     -10.141 -17.955  15.297  1.00  0.00     0.007 A 
ENDBRANCH  46  47
ENDBRANCH  23  46
ENDBRANCH   1  19
TORSDOF 14
ENDMDL
MODEL 2
REMARK VINA RESULT: -9.216450572      1.454      3.034
REMARK  14 active torsions:
REMARK  status: ('A' for Active; 'I' for Inactive)
REMARK    1  A    between atoms: C2_2  and  C3_3 
REMARK    2  A    between atoms: C3_3  and  C4_4 
REMARK    3  A    between atoms: N1_7  and  C7_8 
REMARK    4  A    between atoms: C7_8  and  C8_9 
REMARK    5  A    between atoms: C8_9  and  C9_10 
REMARK    6  A    between atoms: C9_10  and  C10_11 
REMARK    7  A    between atoms: C10_11  and  C11_12 
REMARK    8  A    between atoms: N2_15  and  C14_16 
REMARK    9  A    between atoms: C15_19  and  N4_20 
REMARK   10  A    between atoms: N4_20  and  C16_22 
REMARK   11  A    between atoms: C16_22  and  C18_24 
REMARK   12  A    between atoms: C18_24  and  O1_25 
REMARK   13  A    between atoms: N8_37  and  C23_38 
REMARK   14  A    between atoms: C23_38  and  C24_39 
ROOT
HETATM    1  C14 UNL     1     -14.610 -21.833  17.788  1.00  0.00     0.703 A 
HETATM    2  N3  UNL     1     -15.514 -22.605  18.395  1.00  0.00    -0.022 N 
ATOM      3  H3  UNL     1     -15.556 -22.602  19.414  1.00  0.00     0.203 HD
HETATM    4  C15 UNL     1     -16.369 -23.385  17.717  1.00  0.00     0.695 A 
HETATM    5  N5  UNL     1     -16.313 -23.388  16.380  1.00  0.00    -0.166 N 
ATOM      6  H5  UNL     1     -16.958 -23.976  15.852  1.00  0.00     0.186 HD
HETATM    7  C19 UNL     1     -15.421 -22.629  15.719  1.00  0.00     0.217 A 
HETATM    8  C20 UNL     1     -15.407 -22.671  14.297  1.00  0.00     0.138 C 
HETATM    9  N6  UNL     1     -15.408 -22.694  13.160  1.00  0.00    -0.188 NA
HETATM   10  N7  UNL     1     -14.575 -21.855  16.434  1.00  0.00    -0.165 N 
ATOM     11  H7  UNL     1     -13.894 -21.274  15.944  1.00  0.00     0.186 HD
ENDROOT
BRANCH   4  12
HETATM   12  N4  UNL     1     -17.230 -24.118  18.306  1.00  0.00    -0.219 N 
ATOM     13  H4  UNL     1     -18.189 -23.769  18.316  1.00  0.00     0.178 HD
BRANCH  12  14
HETATM   14  C16 UNL     1     -17.006 -25.371  18.955  1.00  0.00     0.118 C 
HETATM   15  C17 UNL     1     -17.420 -26.506  18.048  1.00  0.00     0.035 C 
BRANCH  14  16
HETATM   16  C18 UNL     1     -17.852 -25.390  20.221  1.00  0.00     0.189 C 
BRANCH  16  17
HETATM   17  O1  UNL     1     -17.684 -24.265  20.994  1.00  0.00    -0.399 OA
ATOM     18  H1  UNL     1     -18.139 -23.507  20.647  1.00  0.00     0.209 HD
ENDBRANCH  16  17
ENDBRANCH  14  16
ENDBRANCH  12  14
ENDBRANCH   4  12
BRANCH   1  19
HETATM   19  N2  UNL     1     -13.723 -21.034  18.541  1.00  0.00    -0.149 N 
HETATM   20  C13 UNL     1     -12.838 -21.733  19.454  1.00  0.00     0.153 C 
HETATM   21  C12 UNL     1     -11.391 -21.376  19.169  1.00  0.00     0.056 C 
HETATM   22  C11 UNL     1     -11.069 -19.964  19.527  1.00  0.00     0.225 C 
HETATM   23  N8  UNL     1     -11.452 -18.965  18.595  1.00  0.00     0.102 N 
HETATM   24  C22 UNL     1     -12.845 -18.593  18.716  1.00  0.00     0.376 C 
HETATM   25  C21 UNL     1     -13.789 -19.652  18.324  1.00  0.00     0.266 C 
HETATM   26  O2  UNL     1     -14.813 -19.279  17.699  1.00  0.00    -0.271 OA
BRANCH  22  27
HETATM   27  C10 UNL     1      -9.596 -19.889  19.909  1.00  0.00     0.036 C 
BRANCH  27  28
HETATM   28  C9  UNL     1      -9.401 -19.515  21.333  1.00  0.00     0.004 C 
BRANCH  28  29
HETATM   29  C8  UNL     1      -8.122 -18.726  21.557  1.00  0.00     0.030 C 
BRANCH  29  30
HETATM   30  C7  UNL     1      -8.285 -17.275  21.195  1.00  0.00     0.272 C 
BRANCH  30  31
HETATM   31  N1  UNL     1      -7.313 -16.790  20.258  1.00  0.00     0.088 N 
HETATM   32  C6  UNL     1      -7.814 -15.743  19.420  1.00  0.00     0.272 C 
HETATM   33  C5  UNL     1      -7.349 -15.866  17.986  1.00  0.00     0.036 C 
HETATM   34  C4  UNL     1      -5.849 -16.114  17.965  1.00  0.00    -0.003 C 
HETATM   35  C28 UNL     1      -5.423 -17.227  18.841  1.00  0.00     0.036 C 
HETATM   36  C27 UNL     1      -6.590 -17.823  19.637  1.00  0.00     0.272 C 
BRANCH  34  37
HETATM   37  C3  UNL     1      -5.296 -16.060  16.588  1.00  0.00    -0.034 C 
HETATM   38  C29 UNL     1      -3.942 -16.785  16.569  1.00  0.00     0.040 C 
HETATM   39  C30 UNL     1      -2.835 -15.879  17.060  1.00  0.00     0.272 C 
HETATM   40  N9  UNL     1      -2.545 -14.935  15.999  1.00  0.00     0.084 N 
HETATM   41  C31 UNL     1      -1.776 -15.589  14.963  1.00  0.00     0.309 C 
HETATM   42  C32 UNL     1      -3.786 -14.467  15.370  1.00  0.00     0.272 C 
HETATM   43  C33 UNL     1      -4.918 -14.585  16.355  1.00  0.00     0.040 C 
BRANCH  37  44
HETATM   44  C2  UNL     1      -6.170 -16.497  15.476  1.00  0.00     0.005 C 
HETATM   45  C1  UNL     1      -6.945 -15.447  14.762  1.00  0.00     0.006 C 
ENDBRANCH  37  44
ENDBRANCH  34  37
ENDBRANCH  30  31
ENDBRANCH  29  30
ENDBRANCH  28  29
ENDBRANCH  27  28
ENDBRANCH  22  27
BRANCH  23  46
HETATM   46  C23 UNL     1     -11.045 -19.204  17.241  1.00  0.00     0.278 C 
BRANCH  46  47
HETATM   47  C24 UNL     1     -10.075 -18.188  16.717  1.00  0.00     0.014 A 
HETATM   48  C25 UNL     1      -9.085 -18.813  15.715  1.00  0.00     0.007 A 
HETATM   49  C26 UNL     1     -10.007 -17.738  15.329  1.00  0.00     0.007 A 
ENDBRANCH  46  47
ENDBRANCH  23  46
ENDBRANCH   1  19
TORSDOF 14
ENDMDL
MODEL 3
REMARK VINA RESULT: -9.072345482      1.303      2.801
REMARK  14 active torsions:
REMARK  status: ('A' for Active; 'I' for Inactive)
REMARK    1  A    between atoms: C2_2  and  C3_3 
REMARK    2  A    between atoms: C3_3  and  C4_4 
REMARK    3  A    between atoms: N1_7  and  C7_8 
REMARK    4  A    between atoms: C7_8  and  C8_9 
REMARK    5  A    between atoms: C8_9  and  C9_10 
REMARK    6  A    between atoms: C9_10  and  C10_11 
REMARK    7  A    between atoms: C10_11  and  C11_12 
REMARK    8  A    between atoms: N2_15  and  C14_16 
REMARK    9  A    between atoms: C15_19  and  N4_20 
REMARK   10  A    between atoms: N4_20  and  C16_22 
REMARK   11  A    between atoms: C16_22  and  C18_24 
REMARK   12  A    between atoms: C18_24  and  O1_25 
REMARK   13  A    between atoms: N8_37  and  C23_38 
REMARK   14  A    between atoms: C23_38  and  C24_39 
ROOT
HETATM    1  C14 UNL     1     -13.712 -21.380  17.027  1.00  0.00     0.703 A 
HETATM    2  N3  UNL     1     -14.738 -22.207  17.237  1.00  0.00    -0.022 N 
ATOM      3  H3  UNL     1     -14.976 -22.459  18.196  1.00  0.00     0.203 HD
HETATM    4  C15 UNL     1     -15.468 -22.720  16.235  1.00  0.00     0.695 A 
HETATM    5  N5  UNL     1     -15.154 -22.388  14.977  1.00  0.00    -0.166 N 
ATOM      6  H5  UNL     1     -15.701 -22.771  14.207  1.00  0.00     0.186 HD
HETATM    7  C19 UNL     1     -14.129 -21.559  14.711  1.00  0.00     0.217 A 
HETATM    8  C20 UNL     1     -13.841 -21.241  13.355  1.00  0.00     0.138 C 
HETATM    9  N6  UNL     1     -13.623 -20.975  12.271  1.00  0.00    -0.188 NA
HETATM   10  N7  UNL     1     -13.415 -21.061  15.744  1.00  0.00    -0.165 N 
ATOM     11  H7  UNL     1     -12.636 -20.430  15.555  1.00  0.00     0.186 HD
ENDROOT
BRANCH   4  12
HETATM   12  N4  UNL     1     -16.447 -23.508  16.447  1.00  0.00    -0.219 N 
ATOM     13  H4  UNL     1     -16.661 -24.172  15.702  1.00  0.00     0.178 HD
BRANCH  12  14
HETATM   14  C16 UNL     1     -17.280 -23.569  17.606  1.00  0.00     0.118 C 
HETATM   15  C17 UNL     1     -17.052 -24.868  18.342  1.00  0.00     0.035 C 
BRANCH  14  16
HETATM   16  C18 UNL     1     -18.727 -23.490  17.137  1.00  0.00     0.189 C 
BRANCH  16  17
HETATM   17  O1  UNL     1     -19.358 -22.338  17.541  1.00  0.00    -0.399 OA
ATOM     18  H1  UNL     1     -20.098 -22.110  16.991  1.00  0.00     0.209 HD
ENDBRANCH  16  17
ENDBRANCH  14  16
ENDBRANCH  12  14
ENDBRANCH   4  12
BRANCH   1  19
HETATM   19  N2  UNL     1     -12.964 -20.870  18.111  1.00  0.00    -0.149 N 
HETATM   20  C13 UNL     1     -12.437 -21.844  19.049  1.00  0.00     0.153 C 
HETATM   21  C12 UNL     1     -10.934 -21.687  19.189  1.00  0.00     0.056 C 
HETATM   22  C11 UNL     1     -10.553 -20.424  19.885  1.00  0.00     0.225 C 
HETATM   23  N8  UNL     1     -10.558 -19.238  19.106  1.00  0.00     0.102 N 
HETATM   24  C22 UNL     1     -11.880 -18.667  18.967  1.00  0.00     0.376 C 
HETATM   25  C21 UNL     1     -12.807 -19.479  18.162  1.00  0.00     0.266 C 
HETATM   26  O2  UNL     1     -13.581 -18.847  17.401  1.00  0.00    -0.271 OA
BRANCH  22  27
HETATM   27  C10 UNL     1      -9.233 -20.655  20.609  1.00  0.00     0.036 C 
BRANCH  27  28
HETATM   28  C9  UNL     1      -9.042 -19.718  21.746  1.00  0.00     0.004 C 
BRANCH  28  29
HETATM   29  C8  UNL     1      -7.784 -18.877  21.601  1.00  0.00     0.030 C 
BRANCH  29  30
HETATM   30  C7  UNL     1      -8.091 -17.486  21.117  1.00  0.00     0.272 C 
BRANCH  30  31
HETATM   31  N1  UNL     1      -7.113 -16.949  20.213  1.00  0.00     0.088 N 
HETATM   32  C6  UNL     1      -7.588 -15.814  19.483  1.00  0.00     0.272 C 
HETATM   33  C5  UNL     1      -7.144 -15.821  18.036  1.00  0.00     0.036 C 
HETATM   34  C4  UNL     1      -5.654 -16.115  17.971  1.00  0.00    -0.003 C 
HETATM   35  C28 UNL     1      -5.257 -17.317  18.735  1.00  0.00     0.036 C 
HETATM   36  C27 UNL     1      -6.434 -17.944  19.491  1.00  0.00     0.272 C 
BRANCH  34  37
HETATM   37  C3  UNL     1      -5.116 -15.954  16.597  1.00  0.00    -0.034 C 
HETATM   38  C29 UNL     1      -3.740 -16.633  16.520  1.00  0.00     0.040 C 
HETATM   39  C30 UNL     1      -2.657 -15.727  17.062  1.00  0.00     0.272 C 
HETATM   40  N9  UNL     1      -2.406 -14.707  16.063  1.00  0.00     0.084 N 
HETATM   41  C31 UNL     1      -1.627 -15.267  14.981  1.00  0.00     0.309 C 
HETATM   42  C32 UNL     1      -3.666 -14.237  15.476  1.00  0.00     0.272 C 
HETATM   43  C33 UNL     1      -4.785 -14.455  16.458  1.00  0.00     0.040 C 
BRANCH  37  44
HETATM   44  C2  UNL     1      -5.986 -16.343  15.464  1.00  0.00     0.005 C 
HETATM   45  C1  UNL     1      -6.808 -15.275  14.834  1.00  0.00     0.006 C 
ENDBRANCH  37  44
ENDBRANCH  34  37
ENDBRANCH  30  31
ENDBRANCH  29  30
ENDBRANCH  28  29
ENDBRANCH  27  28
ENDBRANCH  22  27
BRANCH  23  46
HETATM   46  C23 UNL     1      -9.843 -19.318  17.866  1.00  0.00     0.278 C 
BRANCH  46  47
HETATM   47  C24 UNL     1      -9.742 -18.007  17.145  1.00  0.00     0.014 A 
HETATM   48  C25 UNL     1      -9.009 -18.154  15.798  1.00  0.00     0.007 A 
HETATM   49  C26 UNL     1     -10.402 -17.699  15.879  1.00  0.00     0.007 A 
ENDBRANCH  46  47
ENDBRANCH  23  46
ENDBRANCH   1  19
TORSDOF 14
ENDMDL
MODEL 4
REMARK VINA RESULT: -8.888348198      0.934      1.829
REMARK  14 active torsions:
REMARK  status: ('A' for Active; 'I' for Inactive)
REMARK    1  A    between atoms: C2_2  and  C3_3 
REMARK    2  A    between atoms: C3_3  and  C4_4 
REMARK    3  A    between atoms: N1_7  and  C7_8 
REMARK    4  A    between atoms: C7_8  and  C8_9 
REMARK    5  A    between atoms: C8_9  and  C9_10 
REMARK    6  A    between atoms: C9_10  and  C10_11 
REMARK    7  A    between atoms: C10_11  and  C11_12 
REMARK    8  A    between atoms: N2_15  and  C14_16 
REMARK    9  A    between atoms: C15_19  and  N4_20 
REMARK   10  A    between atoms: N4_20  and  C16_22 
REMARK   11  A    between atoms: C16_22  and  C18_24 
REMARK   12  A    between atoms: C18_24  and  O1_25 
REMARK   13  A    between atoms: N8_37  and  C23_38 
REMARK   14  A    between atoms: C23_38  and  C24_39 
ROOT
HETATM    1  C14 UNL     1     -14.564 -21.831  17.830  1.00  0.00     0.703 A 
HETATM    2  N3  UNL     1     -14.461 -21.921  16.502  1.00  0.00    -0.022 N 
ATOM      3  H3  UNL     1     -13.683 -21.452  16.038  1.00  0.00     0.203 HD
HETATM    4  C15 UNL     1     -15.341 -22.604  15.754  1.00  0.00     0.695 A 
HETATM    5  N5  UNL     1     -16.361 -23.219  16.365  1.00  0.00    -0.166 N 
ATOM      6  H5  UNL     1     -17.036 -23.741  15.807  1.00  0.00     0.186 HD
HETATM    7  C19 UNL     1     -16.511 -23.160  17.700  1.00  0.00     0.217 A 
HETATM    8  C20 UNL     1     -17.614 -23.833  18.295  1.00  0.00     0.138 C 
HETATM    9  N6  UNL     1     -18.486 -24.386  18.770  1.00  0.00    -0.188 NA
HETATM   10  N7  UNL     1     -15.606 -22.463  18.422  1.00  0.00    -0.165 N 
ATOM     11  H7  UNL     1     -15.709 -22.412  19.436  1.00  0.00     0.186 HD
ENDROOT
BRANCH   4  12
HETATM   12  N4  UNL     1     -15.232 -22.684  14.487  1.00  0.00    -0.219 N 
ATOM     13  H4  UNL     1     -15.057 -23.615  14.107  1.00  0.00     0.178 HD
BRANCH  12  14
HETATM   14  C16 UNL     1     -15.328 -21.622  13.537  1.00  0.00     0.118 C 
HETATM   15  C17 UNL     1     -13.948 -21.213  13.075  1.00  0.00     0.035 C 
BRANCH  14  16
HETATM   16  C18 UNL     1     -16.007 -20.447  14.228  1.00  0.00     0.189 C 
BRANCH  16  17
HETATM   17  O1  UNL     1     -15.113 -19.568  14.791  1.00  0.00    -0.399 OA
ATOM     18  H1  UNL     1     -15.537 -18.878  15.288  1.00  0.00     0.209 HD
ENDBRANCH  16  17
ENDBRANCH  14  16
ENDBRANCH  12  14
ENDBRANCH   4  12
BRANCH   1  19
HETATM   19  N2  UNL     1     -13.620 -21.095  18.578  1.00  0.00    -0.149 N 
HETATM   20  C13 UNL     1     -12.737 -21.860  19.438  1.00  0.00     0.153 C 
HETATM   21  C12 UNL     1     -11.286 -21.554  19.117  1.00  0.00     0.056 C 
HETATM   22  C11 UNL     1     -10.893 -20.170  19.508  1.00  0.00     0.225 C 
HETATM   23  N8  UNL     1     -11.262 -19.125  18.622  1.00  0.00     0.102 N 
HETATM   24  C22 UNL     1     -12.633 -18.700  18.800  1.00  0.00     0.376 C 
HETATM   25  C21 UNL     1     -13.633 -19.705  18.406  1.00  0.00     0.266 C 
HETATM   26  O2  UNL     1     -14.660 -19.269  17.827  1.00  0.00    -0.271 OA
BRANCH  22  27
HETATM   27  C10 UNL     1      -9.406 -20.170  19.844  1.00  0.00     0.036 C 
BRANCH  27  28
HETATM   28  C9  UNL     1      -9.158 -20.049  21.303  1.00  0.00     0.004 C 
BRANCH  28  29
HETATM   29  C8  UNL     1      -8.297 -18.844  21.649  1.00  0.00     0.030 C 
BRANCH  29  30
HETATM   30  C7  UNL     1      -8.427 -17.749  20.626  1.00  0.00     0.272 C 
BRANCH  30  31
HETATM   31  N1  UNL     1      -7.174 -17.270  20.116  1.00  0.00     0.088 N 
HETATM   32  C6  UNL     1      -7.315 -16.482  18.930  1.00  0.00     0.272 C 
HETATM   33  C5  UNL     1      -6.237 -16.764  17.907  1.00  0.00     0.036 C 
HETATM   34  C4  UNL     1      -4.880 -16.751  18.592  1.00  0.00    -0.003 C 
HETATM   35  C28 UNL     1      -4.818 -17.610  19.794  1.00  0.00     0.036 C 
HETATM   36  C27 UNL     1      -6.170 -18.254  20.122  1.00  0.00     0.272 C 
BRANCH  34  37
HETATM   37  C3  UNL     1      -3.765 -16.837  17.616  1.00  0.00    -0.034 C 
HETATM   38  C29 UNL     1      -2.803 -15.664  17.858  1.00  0.00     0.040 C 
HETATM   39  C30 UNL     1      -3.306 -14.403  17.189  1.00  0.00     0.272 C 
HETATM   40  N9  UNL     1      -3.061 -14.541  15.767  1.00  0.00     0.084 N 
HETATM   41  C31 UNL     1      -1.657 -14.326  15.491  1.00  0.00     0.309 C 
HETATM   42  C32 UNL     1      -3.375 -15.902  15.318  1.00  0.00     0.272 C 
HETATM   43  C33 UNL     1      -4.391 -16.511  16.246  1.00  0.00     0.040 C 
BRANCH  37  44
HETATM   44  C2  UNL     1      -3.044 -18.125  17.502  1.00  0.00     0.005 C 
HETATM   45  C1  UNL     1      -1.587 -18.123  17.799  1.00  0.00     0.006 C 
ENDBRANCH  37  44
ENDBRANCH  34  37
ENDBRANCH  30  31
ENDBRANCH  29  30
ENDBRANCH  28  29
ENDBRANCH  27  28
ENDBRANCH  22  27
BRANCH  23  46
HETATM   46  C23 UNL     1     -10.909 -19.337  17.248  1.00  0.00     0.278 C 
BRANCH  46  47
HETATM   47  C24 UNL     1     -10.010 -18.274  16.688  1.00  0.00     0.014 A 
HETATM   48  C25 UNL     1      -9.068 -18.838  15.608  1.00  0.00     0.007 A 
HETATM   49  C26 UNL     1     -10.051 -17.789  15.311  1.00  0.00     0.007 A 
ENDBRANCH  46  47
ENDBRANCH  23  46
ENDBRANCH   1  19
TORSDOF 14
ENDMDL
MODEL 5
REMARK VINA RESULT: -8.838609659      1.552      3.398
REMARK  14 active torsions:
REMARK  status: ('A' for Active; 'I' for Inactive)
REMARK    1  A    between atoms: C2_2  and  C3_3 
REMARK    2  A    between atoms: C3_3  and  C4_4 
REMARK    3  A    between atoms: N1_7  and  C7_8 
REMARK    4  A    between atoms: C7_8  and  C8_9 
REMARK    5  A    between atoms: C8_9  and  C9_10 
REMARK    6  A    between atoms: C9_10  and  C10_11 
REMARK    7  A    between atoms: C10_11  and  C11_12 
REMARK    8  A    between atoms: N2_15  and  C14_16 
REMARK    9  A    between atoms: C15_19  and  N4_20 
REMARK   10  A    between atoms: N4_20  and  C16_22 
REMARK   11  A    between atoms: C16_22  and  C18_24 
REMARK   12  A    between atoms: C18_24  and  O1_25 
REMARK   13  A    between atoms: N8_37  and  C23_38 
REMARK   14  A    between atoms: C23_38  and  C24_39 
ROOT
HETATM    1  C14 UNL     1     -14.577 -21.855  17.801  1.00  0.00     0.703 A 
HETATM    2  N3  UNL     1     -15.489 -22.617  18.408  1.00  0.00    -0.022 N 
ATOM      3  H3  UNL     1     -15.523 -22.622  19.427  1.00  0.00     0.203 HD
HETATM    4  C15 UNL     1     -16.362 -23.377  17.729  1.00  0.00     0.695 A 
HETATM    5  N5  UNL     1     -16.316 -23.369  16.392  1.00  0.00    -0.166 N 
ATOM      6  H5  UNL     1     -16.974 -23.942  15.865  1.00  0.00     0.186 HD
HETATM    7  C19 UNL     1     -15.416 -22.619  15.731  1.00  0.00     0.217 A 
HETATM    8  C20 UNL     1     -15.413 -22.649  14.309  1.00  0.00     0.138 C 
HETATM    9  N6  UNL     1     -15.424 -22.662  13.172  1.00  0.00    -0.188 NA
HETATM   10  N7  UNL     1     -14.552 -21.865  16.446  1.00  0.00    -0.165 N 
ATOM     11  H7  UNL     1     -13.866 -21.292  15.955  1.00  0.00     0.186 HD
ENDROOT
BRANCH   4  12
HETATM   12  N4  UNL     1     -17.230 -24.100  18.319  1.00  0.00    -0.219 N 
ATOM     13  H4  UNL     1     -18.183 -23.738  18.337  1.00  0.00     0.178 HD
BRANCH  12  14
HETATM   14  C16 UNL     1     -17.021 -25.361  18.958  1.00  0.00     0.118 C 
HETATM   15  C17 UNL     1     -17.427 -26.485  18.034  1.00  0.00     0.035 C 
BRANCH  14  16
HETATM   16  C18 UNL     1     -17.886 -25.389  20.212  1.00  0.00     0.189 C 
BRANCH  16  17
HETATM   17  O1  UNL     1     -17.724 -24.272  20.998  1.00  0.00    -0.399 OA
ATOM     18  H1  UNL     1     -17.845 -24.452  21.923  1.00  0.00     0.209 HD
ENDBRANCH  16  17
ENDBRANCH  14  16
ENDBRANCH  12  14
ENDBRANCH   4  12
BRANCH   1  19
HETATM   19  N2  UNL     1     -13.671 -21.076  18.554  1.00  0.00    -0.149 N 
HETATM   20  C13 UNL     1     -12.770 -21.801  19.430  1.00  0.00     0.153 C 
HETATM   21  C12 UNL     1     -11.328 -21.441  19.123  1.00  0.00     0.056 C 
HETATM   22  C11 UNL     1     -10.993 -20.039  19.508  1.00  0.00     0.225 C 
HETATM   23  N8  UNL     1     -11.392 -19.016  18.609  1.00  0.00     0.102 N 
HETATM   24  C22 UNL     1     -12.781 -18.643  18.768  1.00  0.00     0.376 C 
HETATM   25  C21 UNL     1     -13.736 -19.689  18.371  1.00  0.00     0.266 C 
HETATM   26  O2  UNL     1     -14.773 -19.298  17.777  1.00  0.00    -0.271 OA
BRANCH  22  27
HETATM   27  C10 UNL     1      -9.512 -19.978  19.860  1.00  0.00     0.036 C 
BRANCH  27  28
HETATM   28  C9  UNL     1      -9.286 -19.788  21.316  1.00  0.00     0.004 C 
BRANCH  28  29
HETATM   29  C8  UNL     1      -8.370 -18.612  21.613  1.00  0.00     0.030 C 
BRANCH  29  30
HETATM   30  C7  UNL     1      -8.435 -17.563  20.538  1.00  0.00     0.272 C 
BRANCH  30  31
HETATM   31  N1  UNL     1      -7.153 -17.137  20.053  1.00  0.00     0.088 N 
HETATM   32  C6  UNL     1      -7.240 -16.313  18.886  1.00  0.00     0.272 C 
HETATM   33  C5  UNL     1      -6.167 -16.626  17.866  1.00  0.00     0.036 C 
HETATM   34  C4  UNL     1      -4.819 -16.702  18.564  1.00  0.00    -0.003 C 
HETATM   35  C28 UNL     1      -4.816 -17.593  19.745  1.00  0.00     0.036 C 
HETATM   36  C27 UNL     1      -6.203 -18.172  20.043  1.00  0.00     0.272 C 
BRANCH  34  37
HETATM   37  C3  UNL     1      -3.699 -16.822  17.597  1.00  0.00    -0.034 C 
HETATM   38  C29 UNL     1      -2.702 -15.681  17.850  1.00  0.00     0.040 C 
HETATM   39  C30 UNL     1      -3.158 -14.403  17.180  1.00  0.00     0.272 C 
HETATM   40  N9  UNL     1      -2.907 -14.546  15.759  1.00  0.00     0.084 N 
HETATM   41  C31 UNL     1      -1.494 -14.376  15.496  1.00  0.00     0.309 C 
HETATM   42  C32 UNL     1      -3.260 -15.895  15.305  1.00  0.00     0.272 C 
HETATM   43  C33 UNL     1      -4.303 -16.473  16.223  1.00  0.00     0.040 C 
BRANCH  37  44
HETATM   44  C2  UNL     1      -3.019 -18.132  17.486  1.00  0.00     0.005 C 
HETATM   45  C1  UNL     1      -1.577 -18.188  17.846  1.00  0.00     0.006 C 
ENDBRANCH  37  44
ENDBRANCH  34  37
ENDBRANCH  30  31
ENDBRANCH  29  30
ENDBRANCH  28  29
ENDBRANCH  27  28
ENDBRANCH  22  27
BRANCH  23  46
HETATM   46  C23 UNL     1     -11.015 -19.224  17.241  1.00  0.00     0.278 C 
BRANCH  46  47
HETATM   47  C24 UNL     1     -10.071 -18.185  16.713  1.00  0.00     0.014 A 
HETATM   48  C25 UNL     1      -9.086 -18.780  15.690  1.00  0.00     0.007 A 
HETATM   49  C26 UNL     1     -10.034 -17.718  15.330  1.00  0.00     0.007 A 
ENDBRANCH  46  47
ENDBRANCH  23  46
ENDBRANCH   1  19
TORSDOF 14
ENDMDL
