MODEL 1
REMARK VINA RESULT: -8.419647403      0.000      0.000
REMARK  9 active torsions:
REMARK  status: ('A' for Active; 'I' for Inactive)
REMARK    1  A    between atoms: C2_2  and  O1_3 
REMARK    2  A    between atoms: O1_3  and  C3_4 
REMARK    3  A    between atoms: C3_4  and  C4_6 
REMARK    4  A    between atoms: C5_7  and  O3_8 
REMARK    5  A    between atoms: C11_15  and  O4_16 
REMARK    6  A    between atoms: C12_18  and  N1_19 
REMARK    7  A    between atoms: N1_19  and  C13_21 
REMARK    8  A    between atoms: C18_26  and  O5_27 
REMARK    9  A    between atoms: O5_27  and  C19_28 
ROOT
HETATM    1  C4  UNL     1       9.770  91.421  36.746  1.00  0.00     0.148 A 
HETATM    2  C5  UNL     1      10.075  90.184  36.256  1.00  0.00     0.101 A 
HETATM    3  C6  UNL     1      10.975  89.351  36.920  1.00  0.00     0.041 A 
HETATM    4  C7  UNL     1      11.269  88.098  36.404  1.00  0.00    -0.037 A 
HETATM    5  C8  UNL     1      10.681  87.576  35.166  1.00  0.00     0.050 C 
HETATM    6  C9  UNL     1      12.192  87.358  37.171  1.00  0.00    -0.019 A 
HETATM    7  C10 UNL     1      12.500  86.007  36.605  1.00  0.00     0.052 C 
HETATM    8  C11 UNL     1      12.760  87.803  38.319  1.00  0.00     0.101 A 
HETATM    9  C12 UNL     1      12.429  89.058  38.785  1.00  0.00     0.102 A 
HETATM   10  C22 UNL     1      11.538  89.822  38.078  1.00  0.00     0.122 A 
HETATM   11  O6  UNL     1      11.231  91.037  38.550  1.00  0.00    -0.271 OA
HETATM   12  C23 UNL     1      10.397  91.814  37.936  1.00  0.00     0.307 A 
HETATM   13  O7  UNL     1      10.137  92.952  38.417  1.00  0.00    -0.259 OA
ENDROOT
BRANCH   9  14
HETATM   14  N1  UNL     1      13.034  89.510  39.989  1.00  0.00    -0.350 N 
ATOM     15  H1  UNL     1      13.941  89.975  39.947  1.00  0.00     0.166 HD
BRANCH  14  16
HETATM   16  C13 UNL     1      12.407  89.328  41.248  1.00  0.00     0.057 A 
HETATM   17  C14 UNL     1      11.200  89.902  41.521  1.00  0.00     0.032 A 
HETATM   18  C15 UNL     1      10.602  89.713  42.759  1.00  0.00     0.012 A 
HETATM   19  C16 UNL     1      11.198  88.950  43.739  1.00  0.00    -0.027 A 
HETATM   20  C17 UNL     1      10.505  88.792  45.029  1.00  0.00     0.051 C 
HETATM   21  C18 UNL     1      12.429  88.363  43.462  1.00  0.00     0.098 A 
HETATM   22  C21 UNL     1      13.014  88.565  42.211  1.00  0.00     0.094 A 
HETATM   23 CL1  UNL     1      14.556  87.806  41.923  1.00  0.00    -0.079 Cl
BRANCH  21  24
HETATM   24  O5  UNL     1      13.001  87.609  44.452  1.00  0.00    -0.349 OA
BRANCH  24  25
HETATM   25  C19 UNL     1      13.777  88.226  45.489  1.00  0.00     0.171 C 
HETATM   26  C20 UNL     1      15.206  87.750  45.429  1.00  0.00     0.034 C 
ENDBRANCH  24  25
ENDBRANCH  21  24
ENDBRANCH  14  16
ENDBRANCH   9  14
BRANCH   8  27
HETATM   27  O4  UNL     1      13.679  87.028  39.053  1.00  0.00    -0.358 OA
ATOM     28  H4  UNL     1      14.257  87.407  39.705  1.00  0.00     0.217 HD
ENDBRANCH   8  27
BRANCH   2  29
HETATM   29  O3  UNL     1       9.531  89.712  35.123  1.00  0.00    -0.358 OA
ATOM     30  H3  UNL     1       8.787  89.121  35.129  1.00  0.00     0.217 HD
ENDBRANCH   2  29
BRANCH   1  31
HETATM   31  C3  UNL     1       8.857  92.350  36.132  1.00  0.00     0.302 C 
HETATM   32  O2  UNL     1       8.615  92.270  34.862  1.00  0.00    -0.259 OA
BRANCH  31  33
HETATM   33  O1  UNL     1       8.165  93.373  36.740  1.00  0.00    -0.318 OA
BRANCH  33  34
HETATM   34  C2  UNL     1       6.805  93.340  37.066  1.00  0.00     0.174 C 
HETATM   35  C1  UNL     1       6.455  92.211  38.012  1.00  0.00     0.034 C 
ENDBRANCH  33  34
ENDBRANCH  31  33
ENDBRANCH   1  31
TORSDOF 9
ENDMDL
MODEL 2
REMARK VINA RESULT: -8.381831932      2.898      7.760
REMARK  9 active torsions:
REMARK  status: ('A' for Active; 'I' for Inactive)
REMARK    1  A    between atoms: C2_2  and  O1_3 
REMARK    2  A    between atoms: O1_3  and  C3_4 
REMARK    3  A    between atoms: C3_4  and  C4_6 
REMARK    4  A    between atoms: C5_7  and  O3_8 
REMARK    5  A    between atoms: C11_15  and  O4_16 
REMARK    6  A    between atoms: C12_18  and  N1_19 
REMARK    7  A    between atoms: N1_19  and  C13_21 
REMARK    8  A    between atoms: C18_26  and  O5_27 
REMARK    9  A    between atoms: O5_27  and  C19_28 
ROOT
HETATM    1  C4  UNL     1      12.958  87.678  38.104  1.00  0.00     0.148 A 
HETATM    2  C5  UNL     1      12.959  88.013  39.427  1.00  0.00     0.101 A 
HETATM    3  C6  UNL     1      12.020  88.906  39.943  1.00  0.00     0.041 A 
HETATM    4  C7  UNL     1      12.039  89.232  41.290  1.00  0.00    -0.037 A 
HETATM    5  C8  UNL     1      13.015  88.685  42.238  1.00  0.00     0.050 C 
HETATM    6  C9  UNL     1      11.037  90.144  41.679  1.00  0.00    -0.019 A 
HETATM    7  C10 UNL     1      11.067  90.487  43.137  1.00  0.00     0.052 C 
HETATM    8  C11 UNL     1      10.117  90.674  40.836  1.00  0.00     0.101 A 
HETATM    9  C12 UNL     1      10.146  90.313  39.505  1.00  0.00     0.102 A 
HETATM   10  C22 UNL     1      11.100  89.430  39.070  1.00  0.00     0.122 A 
HETATM   11  O6  UNL     1      11.108  89.094  37.775  1.00  0.00    -0.271 OA
HETATM   12  C23 UNL     1      11.979  88.266  37.292  1.00  0.00     0.307 A 
HETATM   13  O7  UNL     1      11.950  87.977  36.064  1.00  0.00    -0.259 OA
ENDROOT
BRANCH   9  14
HETATM   14  N1  UNL     1       9.176  90.878  38.634  1.00  0.00    -0.350 N 
ATOM     15  H1  UNL     1       8.532  90.261  38.138  1.00  0.00     0.166 HD
BRANCH  14  16
HETATM   16  C13 UNL     1       9.083  92.280  38.437  1.00  0.00     0.057 A 
HETATM   17  C14 UNL     1      10.197  93.067  38.446  1.00  0.00     0.032 A 
HETATM   18  C15 UNL     1      10.085  94.436  38.251  1.00  0.00     0.012 A 
HETATM   19  C16 UNL     1       8.863  95.038  38.046  1.00  0.00    -0.027 A 
HETATM   20  C17 UNL     1       8.820  96.497  37.846  1.00  0.00     0.051 C 
HETATM   21  C18 UNL     1       7.725  94.237  38.036  1.00  0.00     0.098 A 
HETATM   22  C21 UNL     1       7.858  92.862  38.234  1.00  0.00     0.094 A 
HETATM   23 CL1  UNL     1       6.399  91.910  38.212  1.00  0.00    -0.079 Cl
BRANCH  21  24
HETATM   24  O5  UNL     1       6.523  94.859  37.830  1.00  0.00    -0.349 OA
BRANCH  24  25
HETATM   25  C19 UNL     1       5.517  94.872  38.853  1.00  0.00     0.171 C 
HETATM   26  C20 UNL     1       5.929  95.784  39.981  1.00  0.00     0.034 C 
ENDBRANCH  24  25
ENDBRANCH  21  24
ENDBRANCH  14  16
ENDBRANCH   9  14
BRANCH   8  27
HETATM   27  O4  UNL     1       9.133  91.583  41.271  1.00  0.00    -0.358 OA
ATOM     28  H4  UNL     1       8.978  92.412  40.833  1.00  0.00     0.217 HD
ENDBRANCH   8  27
BRANCH   2  29
HETATM   29  O3  UNL     1      13.854  87.508  40.291  1.00  0.00    -0.358 OA
ATOM     30  H3  UNL     1      14.759  87.354  40.047  1.00  0.00     0.217 HD
ENDBRANCH   2  29
BRANCH   1  31
HETATM   31  C3  UNL     1      13.886  86.769  37.483  1.00  0.00     0.302 C 
HETATM   32  O2  UNL     1      15.150  87.050  37.468  1.00  0.00    -0.259 OA
BRANCH  31  33
HETATM   33  O1  UNL     1      13.602  85.573  36.864  1.00  0.00    -0.318 OA
BRANCH  33  34
HETATM   34  C2  UNL     1      14.080  85.185  35.607  1.00  0.00     0.174 C 
HETATM   35  C1  UNL     1      14.988  83.975  35.674  1.00  0.00     0.034 C 
ENDBRANCH  33  34
ENDBRANCH  31  33
ENDBRANCH   1  31
TORSDOF 9
ENDMDL
MODEL 3
REMARK VINA RESULT: -8.193694644      2.739      6.727
REMARK  9 active torsions:
REMARK  status: ('A' for Active; 'I' for Inactive)
REMARK    1  A    between atoms: C2_2  and  O1_3 
REMARK    2  A    between atoms: O1_3  and  C3_4 
REMARK    3  A    between atoms: C3_4  and  C4_6 
REMARK    4  A    between atoms: C5_7  and  O3_8 
REMARK    5  A    between atoms: C11_15  and  O4_16 
REMARK    6  A    between atoms: C12_18  and  N1_19 
REMARK    7  A    between atoms: N1_19  and  C13_21 
REMARK    8  A    between atoms: C18_26  and  O5_27 
REMARK    9  A    between atoms: O5_27  and  C19_28 
ROOT
HETATM    1  C4  UNL     1      13.138  88.455  40.956  1.00  0.00     0.148 A 
HETATM    2  C5  UNL     1      13.074  87.989  39.675  1.00  0.00     0.101 A 
HETATM    3  C6  UNL     1      12.106  88.459  38.788  1.00  0.00     0.041 A 
HETATM    4  C7  UNL     1      12.059  87.972  37.490  1.00  0.00    -0.037 A 
HETATM    5  C8  UNL     1      12.988  86.962  36.974  1.00  0.00     0.050 C 
HETATM    6  C9  UNL     1      11.034  88.530  36.699  1.00  0.00    -0.019 A 
HETATM    7  C10 UNL     1      10.995  87.997  35.301  1.00  0.00     0.052 C 
HETATM    8  C11 UNL     1      10.154  89.464  37.137  1.00  0.00     0.101 A 
HETATM    9  C12 UNL     1      10.249  89.912  38.438  1.00  0.00     0.102 A 
HETATM   10  C22 UNL     1      11.226  89.403  39.253  1.00  0.00     0.122 A 
HETATM   11  O6  UNL     1      11.299  89.853  40.512  1.00  0.00    -0.271 OA
HETATM   12  C23 UNL     1      12.196  89.418  41.339  1.00  0.00     0.307 A 
HETATM   13  O7  UNL     1      12.228  89.871  42.517  1.00  0.00    -0.259 OA
ENDROOT
BRANCH   9  14
HETATM   14  N1  UNL     1       9.318  90.890  38.882  1.00  0.00    -0.350 N 
ATOM     15  H1  UNL     1       8.390  90.594  39.185  1.00  0.00     0.166 HD
BRANCH  14  16
HETATM   16  C13 UNL     1       9.650  92.269  38.914  1.00  0.00     0.057 A 
HETATM   17  C14 UNL     1      10.032  92.926  37.781  1.00  0.00     0.032 A 
HETATM   18  C15 UNL     1      10.352  94.275  37.832  1.00  0.00     0.012 A 
HETATM   19  C16 UNL     1      10.297  94.986  39.011  1.00  0.00    -0.027 A 
HETATM   20  C17 UNL     1      10.650  96.415  38.991  1.00  0.00     0.051 C 
HETATM   21  C18 UNL     1       9.907  94.317  40.168  1.00  0.00     0.098 A 
HETATM   22  C21 UNL     1       9.589  92.960  40.096  1.00  0.00     0.094 A 
HETATM   23 CL1  UNL     1       9.109  92.176  41.576  1.00  0.00    -0.079 Cl
BRANCH  21  24
HETATM   24  O5  UNL     1       9.860  95.045  41.327  1.00  0.00    -0.349 OA
BRANCH  24  25
HETATM   25  C19 UNL     1      10.975  95.061  42.230  1.00  0.00     0.171 C 
HETATM   26  C20 UNL     1      10.493  95.168  43.655  1.00  0.00     0.034 C 
ENDBRANCH  24  25
ENDBRANCH  21  24
ENDBRANCH  14  16
ENDBRANCH   9  14
BRANCH   8  27
HETATM   27  O4  UNL     1       9.144  89.993  36.310  1.00  0.00    -0.358 OA
ATOM     28  H4  UNL     1       9.330  90.359  35.453  1.00  0.00     0.217 HD
ENDBRANCH   8  27
BRANCH   2  29
HETATM   29  O3  UNL     1      13.929  87.066  39.207  1.00  0.00    -0.358 OA
ATOM     30  H3  UNL     1      13.994  86.199  39.590  1.00  0.00     0.217 HD
ENDBRANCH   2  29
BRANCH   1  31
HETATM   31  C3  UNL     1      14.099  88.030  41.941  1.00  0.00     0.302 C 
HETATM   32  O2  UNL     1      15.358  87.999  41.641  1.00  0.00    -0.259 OA
BRANCH  31  33
HETATM   33  O1  UNL     1      13.852  87.626  43.233  1.00  0.00    -0.318 OA
BRANCH  33  34
HETATM   34  C2  UNL     1      14.784  87.659  44.278  1.00  0.00     0.174 C 
HETATM   35  C1  UNL     1      14.132  87.662  45.645  1.00  0.00     0.034 C 
ENDBRANCH  33  34
ENDBRANCH  31  33
ENDBRANCH   1  31
TORSDOF 9
ENDMDL
MODEL 4
REMARK VINA RESULT: -8.160525126      2.912      7.546
REMARK  9 active torsions:
REMARK  status: ('A' for Active; 'I' for Inactive)
REMARK    1  A    between atoms: C2_2  and  O1_3 
REMARK    2  A    between atoms: O1_3  and  C3_4 
REMARK    3  A    between atoms: C3_4  and  C4_6 
REMARK    4  A    between atoms: C5_7  and  O3_8 
REMARK    5  A    between atoms: C11_15  and  O4_16 
REMARK    6  A    between atoms: C12_18  and  N1_19 
REMARK    7  A    between atoms: N1_19  and  C13_21 
REMARK    8  A    between atoms: C18_26  and  O5_27 
REMARK    9  A    between atoms: O5_27  and  C19_28 
ROOT
HETATM    1  C4  UNL     1      12.536  88.888  41.048  1.00  0.00     0.148 A 
HETATM    2  C5  UNL     1      12.630  88.434  39.764  1.00  0.00     0.101 A 
HETATM    3  C6  UNL     1      11.739  88.866  38.782  1.00  0.00     0.041 A 
HETATM    4  C7  UNL     1      11.855  88.392  37.484  1.00  0.00    -0.037 A 
HETATM    5  C8  UNL     1      12.882  87.434  37.063  1.00  0.00     0.050 C 
HETATM    6  C9  UNL     1      10.893  88.908  36.592  1.00  0.00    -0.019 A 
HETATM    7  C10 UNL     1      11.029  88.389  35.194  1.00  0.00     0.052 C 
HETATM    8  C11 UNL     1       9.926  89.792  36.939  1.00  0.00     0.101 A 
HETATM    9  C12 UNL     1       9.860  90.230  38.246  1.00  0.00     0.102 A 
HETATM   10  C22 UNL     1      10.769  89.761  39.157  1.00  0.00     0.122 A 
HETATM   11  O6  UNL     1      10.686  90.199  40.419  1.00  0.00    -0.271 OA
HETATM   12  C23 UNL     1      11.511  89.800  41.334  1.00  0.00     0.307 A 
HETATM   13  O7  UNL     1      11.395  90.240  42.511  1.00  0.00    -0.259 OA
ENDROOT
BRANCH   9  14
HETATM   14  N1  UNL     1       8.840  91.156  38.594  1.00  0.00    -0.350 N 
ATOM     15  H1  UNL     1       7.944  90.807  38.934  1.00  0.00     0.166 HD
BRANCH  14  16
HETATM   16  C13 UNL     1       9.039  92.556  38.479  1.00  0.00     0.057 A 
HETATM   17  C14 UNL     1      10.295  93.085  38.410  1.00  0.00     0.032 A 
HETATM   18  C15 UNL     1      10.469  94.457  38.297  1.00  0.00     0.012 A 
HETATM   19  C16 UNL     1       9.395  95.319  38.252  1.00  0.00    -0.027 A 
HETATM   20  C17 UNL     1       9.655  96.763  38.132  1.00  0.00     0.051 C 
HETATM   21  C18 UNL     1       8.113  94.782  38.322  1.00  0.00     0.098 A 
HETATM   22  C21 UNL     1       7.959  93.399  38.435  1.00  0.00     0.094 A 
HETATM   23 CL1  UNL     1       6.330  92.785  38.519  1.00  0.00    -0.079 Cl
BRANCH  21  24
HETATM   24  O5  UNL     1       7.063  95.659  38.275  1.00  0.00    -0.349 OA
BRANCH  24  25
HETATM   25  C19 UNL     1       6.386  96.059  39.476  1.00  0.00     0.171 C 
HETATM   26  C20 UNL     1       6.468  97.555  39.650  1.00  0.00     0.034 C 
ENDBRANCH  24  25
ENDBRANCH  21  24
ENDBRANCH  14  16
ENDBRANCH   9  14
BRANCH   8  27
HETATM   27  O4  UNL     1       8.985  90.281  36.012  1.00  0.00    -0.358 OA
ATOM     28  H4  UNL     1       9.134  91.070  35.505  1.00  0.00     0.217 HD
ENDBRANCH   8  27
BRANCH   2  29
HETATM   29  O3  UNL     1      13.575  87.559  39.385  1.00  0.00    -0.358 OA
ATOM     30  H3  UNL     1      14.481  87.644  39.658  1.00  0.00     0.217 HD
ENDBRANCH   2  29
BRANCH   1  31
HETATM   31  C3  UNL     1      13.406  88.500  42.127  1.00  0.00     0.302 C 
HETATM   32  O2  UNL     1      14.689  88.623  41.995  1.00  0.00    -0.259 OA
BRANCH  31  33
HETATM   33  O1  UNL     1      13.046  87.984  43.351  1.00  0.00    -0.318 OA
BRANCH  33  34
HETATM   34  C2  UNL     1      13.942  87.583  44.350  1.00  0.00     0.174 C 
HETATM   35  C1  UNL     1      13.252  86.927  45.527  1.00  0.00     0.034 C 
ENDBRANCH  33  34
ENDBRANCH  31  33
ENDBRANCH   1  31
TORSDOF 9
ENDMDL
MODEL 5
REMARK VINA RESULT: -8.043339948      1.426      2.139
REMARK  9 active torsions:
REMARK  status: ('A' for Active; 'I' for Inactive)
REMARK    1  A    between atoms: C2_2  and  O1_3 
REMARK    2  A    between atoms: O1_3  and  C3_4 
REMARK    3  A    between atoms: C3_4  and  C4_6 
REMARK    4  A    between atoms: C5_7  and  O3_8 
REMARK    5  A    between atoms: C11_15  and  O4_16 
REMARK    6  A    between atoms: C12_18  and  N1_19 
REMARK    7  A    between atoms: N1_19  and  C13_21 
REMARK    8  A    between atoms: C18_26  and  O5_27 
REMARK    9  A    between atoms: O5_27  and  C19_28 
ROOT
HETATM    1  C4  UNL     1       9.420  91.268  36.463  1.00  0.00     0.148 A 
HETATM    2  C5  UNL     1       9.763  90.013  36.050  1.00  0.00     0.101 A 
HETATM    3  C6  UNL     1      10.761  89.289  36.703  1.00  0.00     0.041 A 
HETATM    4  C7  UNL     1      11.093  88.016  36.266  1.00  0.00    -0.037 A 
HETATM    5  C8  UNL     1      10.447  87.361  35.124  1.00  0.00     0.050 C 
HETATM    6  C9  UNL     1      12.115  87.397  37.013  1.00  0.00    -0.019 A 
HETATM    7  C10 UNL     1      12.464  86.022  36.532  1.00  0.00     0.052 C 
HETATM    8  C11 UNL     1      12.739  87.966  38.073  1.00  0.00     0.101 A 
HETATM    9  C12 UNL     1      12.366  89.236  38.463  1.00  0.00     0.102 A 
HETATM   10  C22 UNL     1      11.378  89.887  37.772  1.00  0.00     0.122 A 
HETATM   11  O6  UNL     1      11.033  91.117  38.170  1.00  0.00    -0.271 OA
HETATM   12  C23 UNL     1      10.108  91.793  37.565  1.00  0.00     0.307 A 
HETATM   13  O7  UNL     1       9.814  92.951  37.974  1.00  0.00    -0.259 OA
ENDROOT
BRANCH   9  14
HETATM   14  N1  UNL     1      13.031  89.819  39.576  1.00  0.00    -0.350 N 
ATOM     15  H1  UNL     1      13.648  90.618  39.425  1.00  0.00     0.166 HD
BRANCH  14  16
HETATM   16  C13 UNL     1      12.856  89.317  40.891  1.00  0.00     0.057 A 
HETATM   17  C14 UNL     1      13.718  88.397  41.413  1.00  0.00     0.032 A 
HETATM   18  C15 UNL     1      13.531  87.918  42.701  1.00  0.00     0.012 A 
HETATM   19  C16 UNL     1      12.484  88.349  43.486  1.00  0.00    -0.027 A 
HETATM   20  C17 UNL     1      12.347  87.798  44.845  1.00  0.00     0.051 C 
HETATM   21  C18 UNL     1      11.603  89.288  42.956  1.00  0.00     0.098 A 
HETATM   22  C21 UNL     1      11.809  89.757  41.658  1.00  0.00     0.094 A 
HETATM   23 CL1  UNL     1      10.674  90.931  41.048  1.00  0.00    -0.079 Cl
BRANCH  21  24
HETATM   24  O5  UNL     1      10.571  89.700  43.755  1.00  0.00    -0.349 OA
BRANCH  24  25
HETATM   25  C19 UNL     1       9.306  89.024  43.728  1.00  0.00     0.171 C 
HETATM   26  C20 UNL     1       8.724  88.944  45.116  1.00  0.00     0.034 C 
ENDBRANCH  24  25
ENDBRANCH  21  24
ENDBRANCH  14  16
ENDBRANCH   9  14
BRANCH   8  27
HETATM   27  O4  UNL     1      13.757  87.308  38.790  1.00  0.00    -0.358 OA
ATOM     28  H4  UNL     1      14.184  87.701  39.542  1.00  0.00     0.217 HD
ENDBRANCH   8  27
BRANCH   2  29
HETATM   29  O3  UNL     1       9.167  89.418  35.005  1.00  0.00    -0.358 OA
ATOM     30  H3  UNL     1       9.657  88.926  34.357  1.00  0.00     0.217 HD
ENDBRANCH   2  29
BRANCH   1  31
HETATM   31  C3  UNL     1       8.407  92.089  35.853  1.00  0.00     0.302 C 
HETATM   32  O2  UNL     1       8.486  92.378  34.593  1.00  0.00    -0.259 OA
BRANCH  31  33
HETATM   33  O1  UNL     1       7.302  92.646  36.456  1.00  0.00    -0.318 OA
BRANCH  33  34
HETATM   34  C2  UNL     1       6.917  93.987  36.348  1.00  0.00     0.174 C 
HETATM   35  C1  UNL     1       6.178  94.485  37.573  1.00  0.00     0.034 C 
ENDBRANCH  33  34
ENDBRANCH  31  33
ENDBRANCH   1  31
TORSDOF 9
ENDMDL
