MODEL 1
REMARK VINA RESULT: -7.413565268      0.000      0.000
REMARK  9 active torsions:
REMARK  status: ('A' for Active; 'I' for Inactive)
REMARK    1  A    between atoms: C2_2  and  C3_3 
REMARK    2  A    between atoms: C6_9  and  C7_10 
REMARK    3  A    between atoms: C7_10  and  C8_12 
REMARK    4  A    between atoms: C9_13  and  O3_14 
REMARK    5  A    between atoms: C11_16  and  O4_17 
REMARK    6  A    between atoms: C14_20  and  O5_21 
REMARK    7  A    between atoms: C15_23  and  C16_24 
REMARK    8  A    between atoms: C17_26  and  C18_27 
REMARK    9  A    between atoms: C22_31  and  O7_32 
ROOT
HETATM    1  C8  UNL     1      11.345  90.270  38.841  1.00  0.00     0.067 A 
HETATM    2  C9  UNL     1      12.254  89.326  39.384  1.00  0.00     0.116 A 
HETATM    3  C11 UNL     1      12.319  88.990  40.704  1.00  0.00     0.105 A 
HETATM    4  C13 UNL     1      11.427  89.636  41.525  1.00  0.00     0.077 A 
HETATM    5  C14 UNL     1      10.544  90.544  41.047  1.00  0.00     0.082 A 
HETATM    6  C15 UNL     1      10.471  90.900  39.669  1.00  0.00     0.049 A 
ENDROOT
BRANCH   6   7
HETATM    7  C16 UNL     1       9.523  91.955  39.367  1.00  0.00     0.098 A 
HETATM    8  O6  UNL     1       9.943  93.223  39.572  1.00  0.00    -0.310 OA
HETATM    9  C17 UNL     1       9.057  94.094  39.283  1.00  0.00     0.095 A 
HETATM   10  C22 UNL     1       7.956  93.424  38.852  1.00  0.00     0.104 A 
HETATM   11  C23 UNL     1       8.275  92.041  38.910  1.00  0.00     0.009 A 
HETATM   12  C24 UNL     1       7.304  91.027  38.428  1.00  0.00     0.054 C 
BRANCH   9  13
HETATM   13  C18 UNL     1       9.231  95.570  39.415  1.00  0.00     0.001 C 
HETATM   14  C19 UNL     1       9.188  96.274  38.099  1.00  0.00     0.021 C 
HETATM   15  C20 UNL     1      10.629  95.794  40.021  1.00  0.00     0.021 C 
HETATM   16  C21 UNL     1       8.262  96.167  40.382  1.00  0.00     0.021 C 
ENDBRANCH   9  13
BRANCH  10  17
HETATM   17  O7  UNL     1       6.752  93.933  38.431  1.00  0.00    -0.357 OA
ATOM     18  H7  UNL     1       6.446  94.075  37.543  1.00  0.00     0.217 HD
ENDBRANCH  10  17
ENDBRANCH   6   7
BRANCH   1  19
HETATM   19  C7  UNL     1      11.415  90.404  37.400  1.00  0.00     0.200 C 
HETATM   20  O2  UNL     1      12.355  91.175  36.999  1.00  0.00    -0.286 OA
BRANCH  19  21
HETATM   21  C6  UNL     1      10.581  89.774  36.412  1.00  0.00     0.071 A 
HETATM   22  C3  UNL     1       9.631  90.424  35.620  1.00  0.00     0.049 A 
HETATM   23  N1  UNL     1       9.082  89.502  34.791  1.00  0.00    -0.264 N 
HETATM   24  O1  UNL     1       9.622  88.362  35.018  1.00  0.00    -0.242 OA
ATOM     25  H1  UNL     1       8.357  89.687  34.098  1.00  0.00     0.194 HD
HETATM   26  C4  UNL     1      10.541  88.468  35.991  1.00  0.00     0.088 A 
HETATM   27  C5  UNL     1      11.351  87.322  36.480  1.00  0.00     0.080 C 
BRANCH  22  28
HETATM   28  C2  UNL     1       9.311  91.867  35.670  1.00  0.00     0.056 C 
HETATM   29  C1  UNL     1       8.072  92.282  34.956  1.00  0.00     0.011 C 
ENDBRANCH  22  28
ENDBRANCH  19  21
ENDBRANCH   1  19
BRANCH   5  30
HETATM   30  O5  UNL     1       9.644  91.189  41.927  1.00  0.00    -0.360 OA
ATOM     31  H5  UNL     1       9.528  92.131  41.882  1.00  0.00     0.217 HD
ENDBRANCH   5  30
BRANCH   2  32
HETATM   32  O3  UNL     1      13.154  88.681  38.533  1.00  0.00    -0.352 OA
HETATM   33  C10 UNL     1      14.530  88.868  38.799  1.00  0.00     0.210 C 
ENDBRANCH   2  32
BRANCH   3  34
HETATM   34  O4  UNL     1      13.241  88.058  41.125  1.00  0.00    -0.353 OA
HETATM   35  C12 UNL     1      13.928  87.963  42.304  1.00  0.00     0.210 C 
ENDBRANCH   3  34
TORSDOF 9
ENDMDL
MODEL 2
REMARK VINA RESULT: -7.252102994      1.968      3.170
REMARK  9 active torsions:
REMARK  status: ('A' for Active; 'I' for Inactive)
REMARK    1  A    between atoms: C2_2  and  C3_3 
REMARK    2  A    between atoms: C6_9  and  C7_10 
REMARK    3  A    between atoms: C7_10  and  C8_12 
REMARK    4  A    between atoms: C9_13  and  O3_14 
REMARK    5  A    between atoms: C11_16  and  O4_17 
REMARK    6  A    between atoms: C14_20  and  O5_21 
REMARK    7  A    between atoms: C15_23  and  C16_24 
REMARK    8  A    between atoms: C17_26  and  C18_27 
REMARK    9  A    between atoms: C22_31  and  O7_32 
ROOT
HETATM    1  C8  UNL     1      10.115  92.282  38.971  1.00  0.00     0.067 A 
HETATM    2  C9  UNL     1      10.394  91.096  39.697  1.00  0.00     0.116 A 
HETATM    3  C11 UNL     1      10.234  90.963  41.044  1.00  0.00     0.105 A 
HETATM    4  C13 UNL     1       9.770  92.077  41.700  1.00  0.00     0.077 A 
HETATM    5  C14 UNL     1       9.493  93.229  41.044  1.00  0.00     0.082 A 
HETATM    6  C15 UNL     1       9.659  93.375  39.636  1.00  0.00     0.049 A 
ENDROOT
BRANCH   6   7
HETATM    7  C16 UNL     1       9.395  94.709  39.132  1.00  0.00     0.098 A 
HETATM    8  O6  UNL     1       8.103  95.106  39.117  1.00  0.00    -0.310 OA
HETATM    9  C17 UNL     1       7.950  96.287  38.663  1.00  0.00     0.095 A 
HETATM   10  C22 UNL     1       9.182  96.759  38.339  1.00  0.00     0.104 A 
HETATM   11  C23 UNL     1      10.107  95.726  38.651  1.00  0.00     0.009 A 
HETATM   12  C24 UNL     1      11.565  95.950  38.487  1.00  0.00     0.054 C 
BRANCH   9  13
HETATM   13  C18 UNL     1       6.641  96.988  38.520  1.00  0.00     0.001 C 
HETATM   14  C19 UNL     1       6.621  98.315  39.206  1.00  0.00     0.021 C 
HETATM   15  C20 UNL     1       5.587  96.093  39.200  1.00  0.00     0.021 C 
HETATM   16  C21 UNL     1       6.218  97.109  37.093  1.00  0.00     0.021 C 
ENDBRANCH   9  13
BRANCH  10  17
HETATM   17  O7  UNL     1       9.523  97.982  37.815  1.00  0.00    -0.357 OA
ATOM     18  H7  UNL     1      10.375  98.400  37.789  1.00  0.00     0.217 HD
ENDBRANCH  10  17
ENDBRANCH   6   7
BRANCH   1  19
HETATM   19  C7  UNL     1      10.293  92.158  37.537  1.00  0.00     0.200 C 
HETATM   20  O2  UNL     1      11.300  92.805  37.085  1.00  0.00    -0.286 OA
BRANCH  19  21
HETATM   21  C6  UNL     1       9.495  91.402  36.611  1.00  0.00     0.071 A 
HETATM   22  C3  UNL     1       8.161  91.662  36.289  1.00  0.00     0.049 A 
HETATM   23  N1  UNL     1       7.775  90.758  35.355  1.00  0.00    -0.264 N 
HETATM   24  O1  UNL     1       8.761  89.983  35.091  1.00  0.00    -0.242 OA
ATOM     25  H1  UNL     1       6.848  90.704  34.931  1.00  0.00     0.194 HD
HETATM   26  C4  UNL     1       9.833  90.329  35.823  1.00  0.00     0.088 A 
HETATM   27  C5  UNL     1      11.141  89.628  35.740  1.00  0.00     0.080 C 
BRANCH  22  28
HETATM   28  C2  UNL     1       7.336  92.752  36.855  1.00  0.00     0.056 C 
HETATM   29  C1  UNL     1       6.420  92.364  37.963  1.00  0.00     0.011 C 
ENDBRANCH  22  28
ENDBRANCH  19  21
ENDBRANCH   1  19
BRANCH   5  30
HETATM   30  O5  UNL     1       9.020  94.355  41.757  1.00  0.00    -0.360 OA
ATOM     31  H5  UNL     1       8.261  94.832  41.444  1.00  0.00     0.217 HD
ENDBRANCH   5  30
BRANCH   2  32
HETATM   32  O3  UNL     1      10.865  89.974  39.013  1.00  0.00    -0.352 OA
HETATM   33  C10 UNL     1      12.230  89.646  39.188  1.00  0.00     0.210 C 
ENDBRANCH   2  32
BRANCH   3  34
HETATM   34  O4  UNL     1      10.533  89.763  41.651  1.00  0.00    -0.353 OA
HETATM   35  C12 UNL     1      11.115  89.505  42.862  1.00  0.00     0.210 C 
ENDBRANCH   3  34
TORSDOF 9
ENDMDL
MODEL 3
REMARK VINA RESULT: -7.213024497      2.958      5.280
REMARK  9 active torsions:
REMARK  status: ('A' for Active; 'I' for Inactive)
REMARK    1  A    between atoms: C2_2  and  C3_3 
REMARK    2  A    between atoms: C6_9  and  C7_10 
REMARK    3  A    between atoms: C7_10  and  C8_12 
REMARK    4  A    between atoms: C9_13  and  O3_14 
REMARK    5  A    between atoms: C11_16  and  O4_17 
REMARK    6  A    between atoms: C14_20  and  O5_21 
REMARK    7  A    between atoms: C15_23  and  C16_24 
REMARK    8  A    between atoms: C17_26  and  C18_27 
REMARK    9  A    between atoms: C22_31  and  O7_32 
ROOT
HETATM    1  C8  UNL     1       9.678  92.989  39.195  1.00  0.00     0.067 A 
HETATM    2  C9  UNL     1      10.066  91.915  38.353  1.00  0.00     0.116 A 
HETATM    3  C11 UNL     1      10.337  90.653  38.791  1.00  0.00     0.105 A 
HETATM    4  C13 UNL     1      10.215  90.455  40.145  1.00  0.00     0.077 A 
HETATM    5  C14 UNL     1       9.848  91.455  40.983  1.00  0.00     0.082 A 
HETATM    6  C15 UNL     1       9.564  92.776  40.532  1.00  0.00     0.049 A 
ENDROOT
BRANCH   6   7
HETATM    7  C16 UNL     1       9.276  93.726  41.588  1.00  0.00     0.098 A 
HETATM    8  O6  UNL     1       8.151  93.511  42.306  1.00  0.00    -0.310 OA
HETATM    9  C17 UNL     1       7.966  94.385  43.216  1.00  0.00     0.095 A 
HETATM   10  C22 UNL     1       9.000  95.263  43.150  1.00  0.00     0.104 A 
HETATM   11  C23 UNL     1       9.841  94.821  42.093  1.00  0.00     0.009 A 
HETATM   12  C24 UNL     1      11.116  95.525  41.805  1.00  0.00     0.054 C 
BRANCH   9  13
HETATM   13  C18 UNL     1       6.808  94.411  44.157  1.00  0.00     0.001 C 
HETATM   14  C19 UNL     1       7.221  94.660  45.570  1.00  0.00     0.021 C 
HETATM   15  C20 UNL     1       6.163  93.013  44.097  1.00  0.00     0.021 C 
HETATM   16  C21 UNL     1       5.750  95.371  43.723  1.00  0.00     0.021 C 
ENDBRANCH   9  13
BRANCH  10  17
HETATM   17  O7  UNL     1       9.236  96.371  43.927  1.00  0.00    -0.357 OA
ATOM     18  H7  UNL     1       9.928  96.514  44.561  1.00  0.00     0.217 HD
ENDBRANCH  10  17
ENDBRANCH   6   7
BRANCH   1  19
HETATM   19  C7  UNL     1       9.372  94.218  38.490  1.00  0.00     0.200 C 
HETATM   20  O2  UNL     1      10.405  94.908  38.184  1.00  0.00    -0.286 OA
BRANCH  19  21
HETATM   21  C6  UNL     1       8.080  94.714  38.100  1.00  0.00     0.071 A 
HETATM   22  C3  UNL     1       7.442  95.831  38.647  1.00  0.00     0.049 A 
HETATM   23  N1  UNL     1       6.266  95.998  37.994  1.00  0.00    -0.264 N 
HETATM   24  O1  UNL     1       6.146  95.081  37.107  1.00  0.00    -0.242 OA
ATOM     25  H1  UNL     1       5.585  96.736  38.180  1.00  0.00     0.194 HD
HETATM   26  C4  UNL     1       7.219  94.274  37.125  1.00  0.00     0.088 A 
HETATM   27  C5  UNL     1       7.389  93.117  36.208  1.00  0.00     0.080 C 
BRANCH  22  28
HETATM   28  C2  UNL     1       7.980  96.686  39.727  1.00  0.00     0.056 C 
HETATM   29  C1  UNL     1       6.981  97.211  40.699  1.00  0.00     0.011 C 
ENDBRANCH  22  28
ENDBRANCH  19  21
ENDBRANCH   1  19
BRANCH   5  30
HETATM   30  O5  UNL     1       9.737  91.210  42.371  1.00  0.00    -0.360 OA
ATOM     31  H5  UNL     1       9.048  91.628  42.874  1.00  0.00     0.217 HD
ENDBRANCH   5  30
BRANCH   2  32
HETATM   32  O3  UNL     1      10.185  92.136  36.980  1.00  0.00    -0.352 OA
HETATM   33  C10 UNL     1      11.496  92.259  36.464  1.00  0.00     0.210 C 
ENDBRANCH   2  32
BRANCH   3  34
HETATM   34  O4  UNL     1      10.704  89.681  37.886  1.00  0.00    -0.353 OA
HETATM   35  C12 UNL     1      11.660  88.707  37.974  1.00  0.00     0.210 C 
ENDBRANCH   3  34
TORSDOF 9
ENDMDL
MODEL 4
REMARK VINA RESULT: -7.201767179      0.676      1.885
REMARK  9 active torsions:
REMARK  status: ('A' for Active; 'I' for Inactive)
REMARK    1  A    between atoms: C2_2  and  C3_3 
REMARK    2  A    between atoms: C6_9  and  C7_10 
REMARK    3  A    between atoms: C7_10  and  C8_12 
REMARK    4  A    between atoms: C9_13  and  O3_14 
REMARK    5  A    between atoms: C11_16  and  O4_17 
REMARK    6  A    between atoms: C14_20  and  O5_21 
REMARK    7  A    between atoms: C15_23  and  C16_24 
REMARK    8  A    between atoms: C17_26  and  C18_27 
REMARK    9  A    between atoms: C22_31  and  O7_32 
ROOT
HETATM    1  C8  UNL     1      11.187  90.513  38.606  1.00  0.00     0.067 A 
HETATM    2  C9  UNL     1      12.126  89.573  39.105  1.00  0.00     0.116 A 
HETATM    3  C11 UNL     1      12.204  89.183  40.409  1.00  0.00     0.105 A 
HETATM    4  C13 UNL     1      11.295  89.765  41.259  1.00  0.00     0.077 A 
HETATM    5  C14 UNL     1      10.384  90.667  40.822  1.00  0.00     0.082 A 
HETATM    6  C15 UNL     1      10.297  91.079  39.461  1.00  0.00     0.049 A 
ENDROOT
BRANCH   6   7
HETATM    7  C16 UNL     1       9.317  92.118  39.206  1.00  0.00     0.098 A 
HETATM    8  O6  UNL     1       9.732  93.394  39.369  1.00  0.00    -0.310 OA
HETATM    9  C17 UNL     1       8.818  94.249  39.126  1.00  0.00     0.095 A 
HETATM   10  C22 UNL     1       7.702  93.559  38.773  1.00  0.00     0.104 A 
HETATM   11  C23 UNL     1       8.042  92.182  38.828  1.00  0.00     0.009 A 
HETATM   12  C24 UNL     1       7.057  91.149  38.420  1.00  0.00     0.054 C 
BRANCH   9  13
HETATM   13  C18 UNL     1       8.979  95.729  39.229  1.00  0.00     0.001 C 
HETATM   14  C19 UNL     1       8.762  96.423  37.925  1.00  0.00     0.021 C 
HETATM   15  C20 UNL     1      10.437  95.983  39.657  1.00  0.00     0.021 C 
HETATM   16  C21 UNL     1       8.126  96.316  40.305  1.00  0.00     0.021 C 
ENDBRANCH   9  13
BRANCH  10  17
HETATM   17  O7  UNL     1       6.467  94.047  38.422  1.00  0.00    -0.357 OA
ATOM     18  H7  UNL     1       5.643  93.580  38.349  1.00  0.00     0.217 HD
ENDBRANCH  10  17
ENDBRANCH   6   7
BRANCH   1  19
HETATM   19  C7  UNL     1      11.250  90.711  37.171  1.00  0.00     0.200 C 
HETATM   20  O2  UNL     1      12.283  91.362  36.786  1.00  0.00    -0.286 OA
BRANCH  19  21
HETATM   21  C6  UNL     1      10.317  90.258  36.175  1.00  0.00     0.071 A 
HETATM   22  C3  UNL     1      10.215  88.950  35.696  1.00  0.00     0.049 A 
HETATM   23  N1  UNL     1       9.199  88.914  34.800  1.00  0.00    -0.264 N 
HETATM   24  O1  UNL     1       8.686  90.085  34.703  1.00  0.00    -0.242 OA
ATOM     25  H1  UNL     1       8.892  88.088  34.285  1.00  0.00     0.194 HD
HETATM   26  C4  UNL     1       9.324  90.940  35.517  1.00  0.00     0.088 A 
HETATM   27  C5  UNL     1       8.960  92.376  35.643  1.00  0.00     0.080 C 
BRANCH  22  28
HETATM   28  C2  UNL     1      11.056  87.810  36.121  1.00  0.00     0.056 C 
HETATM   29  C1  UNL     1      10.428  86.464  36.014  1.00  0.00     0.011 C 
ENDBRANCH  22  28
ENDBRANCH  19  21
ENDBRANCH   1  19
BRANCH   5  30
HETATM   30  O5  UNL     1       9.468  91.245  41.730  1.00  0.00    -0.360 OA
ATOM     31  H5  UNL     1       8.727  91.743  41.406  1.00  0.00     0.217 HD
ENDBRANCH   5  30
BRANCH   2  32
HETATM   32  O3  UNL     1      13.042  88.993  38.226  1.00  0.00    -0.352 OA
HETATM   33  C10 UNL     1      13.192  87.589  38.296  1.00  0.00     0.210 C 
ENDBRANCH   2  32
BRANCH   3  34
HETATM   34  O4  UNL     1      13.154  88.260  40.788  1.00  0.00    -0.353 OA
HETATM   35  C12 UNL     1      13.848  88.136  41.960  1.00  0.00     0.210 C 
ENDBRANCH   3  34
TORSDOF 9
ENDMDL
MODEL 5
REMARK VINA RESULT: -7.182606197      2.782      4.633
REMARK  9 active torsions:
REMARK  status: ('A' for Active; 'I' for Inactive)
REMARK    1  A    between atoms: C2_2  and  C3_3 
REMARK    2  A    between atoms: C6_9  and  C7_10 
REMARK    3  A    between atoms: C7_10  and  C8_12 
REMARK    4  A    between atoms: C9_13  and  O3_14 
REMARK    5  A    between atoms: C11_16  and  O4_17 
REMARK    6  A    between atoms: C14_20  and  O5_21 
REMARK    7  A    between atoms: C15_23  and  C16_24 
REMARK    8  A    between atoms: C17_26  and  C18_27 
REMARK    9  A    between atoms: C22_31  and  O7_32 
ROOT
HETATM    1  C8  UNL     1       9.864  91.965  39.658  1.00  0.00     0.067 A 
HETATM    2  C9  UNL     1      10.436  90.855  38.983  1.00  0.00     0.116 A 
HETATM    3  C11 UNL     1      11.045  89.807  39.605  1.00  0.00     0.105 A 
HETATM    4  C13 UNL     1      11.087  89.873  40.977  1.00  0.00     0.077 A 
HETATM    5  C14 UNL     1      10.555  90.915  41.658  1.00  0.00     0.082 A 
HETATM    6  C15 UNL     1       9.916  92.014  41.014  1.00  0.00     0.049 A 
ENDROOT
BRANCH   6   7
HETATM    7  C16 UNL     1       9.489  93.073  41.908  1.00  0.00     0.098 A 
HETATM    8  O6  UNL     1       8.413  92.814  42.683  1.00  0.00    -0.310 OA
HETATM    9  C17 UNL     1       8.098  93.790  43.442  1.00  0.00     0.095 A 
HETATM   10  C22 UNL     1       8.986  94.790  43.203  1.00  0.00     0.104 A 
HETATM   11  C23 UNL     1       9.881  94.309  42.210  1.00  0.00     0.009 A 
HETATM   12  C24 UNL     1      11.033  95.138  41.774  1.00  0.00     0.054 C 
BRANCH   9  13
HETATM   13  C18 UNL     1       6.954  93.797  44.398  1.00  0.00     0.001 C 
HETATM   14  C19 UNL     1       7.383  94.041  45.808  1.00  0.00     0.021 C 
HETATM   15  C20 UNL     1       6.321  92.394  44.338  1.00  0.00     0.021 C 
HETATM   16  C21 UNL     1       5.880  94.750  43.986  1.00  0.00     0.021 C 
ENDBRANCH   9  13
BRANCH  10  17
HETATM   17  O7  UNL     1       9.053  96.034  43.780  1.00  0.00    -0.357 OA
ATOM     18  H7  UNL     1       9.532  96.800  43.487  1.00  0.00     0.217 HD
ENDBRANCH  10  17
ENDBRANCH   6   7
BRANCH   1  19
HETATM   19  C7  UNL     1       9.206  92.918  38.786  1.00  0.00     0.200 C 
HETATM   20  O2  UNL     1      10.004  93.767  38.256  1.00  0.00    -0.286 OA
BRANCH  19  21
HETATM   21  C6  UNL     1       7.809  92.995  38.456  1.00  0.00     0.071 A 
HETATM   22  C3  UNL     1       7.176  92.279  37.437  1.00  0.00     0.049 A 
HETATM   23  N1  UNL     1       5.857  92.593  37.467  1.00  0.00    -0.264 N 
HETATM   24  O1  UNL     1       5.649  93.432  38.413  1.00  0.00    -0.242 OA
ATOM     25  H1  UNL     1       5.146  92.221  36.837  1.00  0.00     0.194 HD
HETATM   26  C4  UNL     1       6.798  93.711  39.049  1.00  0.00     0.088 A 
HETATM   27  C5  UNL     1       6.890  94.645  40.202  1.00  0.00     0.080 C 
BRANCH  22  28
HETATM   28  C2  UNL     1       7.835  91.328  36.516  1.00  0.00     0.056 C 
HETATM   29  C1  UNL     1       8.235  91.879  35.191  1.00  0.00     0.011 C 
ENDBRANCH  22  28
ENDBRANCH  19  21
ENDBRANCH   1  19
BRANCH   5  30
HETATM   30  O5  UNL     1      10.622  90.946  43.070  1.00  0.00    -0.360 OA
ATOM     31  H5  UNL     1      10.386  91.737  43.540  1.00  0.00     0.217 HD
ENDBRANCH   5  30
BRANCH   2  32
HETATM   32  O3  UNL     1      10.384  90.807  37.589  1.00  0.00    -0.352 OA
HETATM   33  C10 UNL     1      11.563  91.162  36.893  1.00  0.00     0.210 C 
ENDBRANCH   2  32
BRANCH   3  34
HETATM   34  O4  UNL     1      11.566  88.777  38.853  1.00  0.00    -0.353 OA
HETATM   35  C12 UNL     1      12.782  88.155  38.927  1.00  0.00     0.210 C 
ENDBRANCH   3  34
TORSDOF 9
ENDMDL
