MODEL 1
REMARK VINA RESULT: -9.486189636      0.000      0.000
REMARK  11 active torsions:
REMARK  status: ('A' for Active; 'I' for Inactive)
REMARK    1  A    between atoms: C5_5  and  C6_6 
REMARK    2  A    between atoms: C6_6  and  C7_7 
REMARK    3  A    between atoms: C9_12  and  C10_13 
REMARK    4  A    between atoms: C10_13  and  C11_14 
REMARK    5  A    between atoms: C12_15  and  C13_16 
REMARK    6  A    between atoms: C13_16  and  C14_17 
REMARK    7  A    between atoms: C14_17  and  C15_18 
REMARK    8  A    between atoms: C15_18  and  N2_19 
REMARK    9  A    between atoms: C22_26  and  C23_27 
REMARK   10  A    between atoms: C23_27  and  C24_28 
REMARK   11  A    between atoms: C26_32  and  N4_33 
ROOT
HETATM    1  C11 UNL     1       4.625  15.987  -2.447  1.00  0.00    -0.021 A 
HETATM    2  C12 UNL     1       4.307  15.313  -3.637  1.00  0.00    -0.047 A 
HETATM    3  C19 UNL     1       4.239  16.090  -4.783  1.00  0.00     0.008 A 
HETATM    4  C20 UNL     1       4.463  17.432  -4.794  1.00  0.00     0.001 A 
HETATM    5  C21 UNL     1       4.769  18.063  -3.627  1.00  0.00     0.008 A 
HETATM    6  C22 UNL     1       4.851  17.327  -2.421  1.00  0.00    -0.043 A 
ENDROOT
BRANCH   1   7
HETATM    7  C10 UNL     1       4.737  15.162  -1.243  1.00  0.00     0.048 C 
BRANCH   7   8
HETATM    8  C9  UNL     1       5.791  14.575  -0.765  1.00  0.00     0.104 A 
HETATM    9  C8  UNL     1       5.606  13.734   0.321  1.00  0.00     0.273 A 
HETATM   10  N1  UNL     1       6.649  13.081   0.855  1.00  0.00    -0.317 N 
HETATM   11  O1  UNL     1       4.475  13.551   0.838  1.00  0.00    -0.266 OA
HETATM   12  C7  UNL     1       7.911  13.188   0.395  1.00  0.00     0.106 A 
ATOM     13  H1  UNL     1       6.477  12.470   1.653  1.00  0.00     0.169 HD
HETATM   14  C28 UNL     1       8.091  14.023  -0.680  1.00  0.00     0.273 A 
HETATM   15  N6  UNL     1       7.039  14.694  -1.234  1.00  0.00    -0.317 N 
HETATM   16  O3  UNL     1       9.250  14.163  -1.149  1.00  0.00    -0.266 OA
ATOM     17  H6  UNL     1       7.209  15.306  -2.032  1.00  0.00     0.169 HD
BRANCH  12  18
HETATM   18  C6  UNL     1       8.876  12.508   0.974  1.00  0.00     0.064 C 
BRANCH  18  19
HETATM   19  C5  UNL     1       9.562  11.356   0.393  1.00  0.00     0.034 A 
HETATM   20  C4  UNL     1       9.413  10.013   0.657  1.00  0.00     0.031 A 
HETATM   21  C3  UNL     1      10.298   9.293  -0.136  1.00  0.00     0.027 A 
HETATM   22  C2  UNL     1      10.987  10.218  -0.889  1.00  0.00     0.005 A 
HETATM   23  C1  UNL     1      12.057   9.885  -1.896  1.00  0.00     0.068 C 
HETATM   24  N7  UNL     1      10.537  11.425  -0.561  1.00  0.00    -0.360 N 
ATOM     25  H7  UNL     1      10.878  12.295  -0.971  1.00  0.00     0.166 HD
ENDBRANCH  18  19
ENDBRANCH  12  18
ENDBRANCH   7   8
ENDBRANCH   1   7
BRANCH   2  26
HETATM   26  C13 UNL     1       4.082  13.850  -3.707  1.00  0.00     0.041 C 
BRANCH  26  27
HETATM   27  C14 UNL     1       3.363  13.493  -4.971  1.00  0.00     0.032 C 
BRANCH  27  28
HETATM   28  C15 UNL     1       1.936  13.046  -4.711  1.00  0.00     0.236 C 
BRANCH  28  29
HETATM   29  N2  UNL     1       1.046  13.928  -5.454  1.00  0.00    -0.079 N 
HETATM   30  C16 UNL     1      -0.167  13.220  -5.850  1.00  0.00     0.271 C 
HETATM   31  C17 UNL     1       0.626  15.048  -4.647  1.00  0.00     0.271 C 
HETATM   32  C18 UNL     1       1.732  14.476  -6.630  1.00  0.00     0.271 C 
ENDBRANCH  28  29
ENDBRANCH  27  28
ENDBRANCH  26  27
ENDBRANCH   2  26
BRANCH   6  33
HETATM   33  C23 UNL     1       5.069  18.203  -1.248  1.00  0.00     0.085 C 
BRANCH  33  34
HETATM   34  C24 UNL     1       6.443  18.639  -0.981  1.00  0.00     0.030 A 
HETATM   35  C25 UNL     1       7.174  17.847  -0.067  1.00  0.00     0.119 A 
HETATM   36  N3  UNL     1       8.445  18.155   0.219  1.00  0.00    -0.201 N 
HETATM   37  C26 UNL     1       9.089  19.197  -0.320  1.00  0.00     0.678 A 
ATOM     38  H3  UNL     1       8.948  17.566   0.883  1.00  0.00     0.183 HD
HETATM   39  N5  UNL     1       8.425  19.964  -1.185  1.00  0.00    -0.156 N 
HETATM   40  C27 UNL     1       7.113  19.682  -1.509  1.00  0.00     0.267 A 
ATOM     41  H5  UNL     1       8.890  20.765  -1.612  1.00  0.00     0.187 HD
HETATM   42  O2  UNL     1       6.584  20.472  -2.328  1.00  0.00    -0.267 OA
BRANCH  37  43
HETATM   43  N4  UNL     1      10.319  19.422   0.019  1.00  0.00    -0.234 N 
ATOM     44  H42 UNL     1      10.645  19.375   0.984  1.00  0.00     0.174 HD
ATOM     45  H41 UNL     1      10.998  19.653  -0.706  1.00  0.00     0.174 HD
ENDBRANCH  37  43
ENDBRANCH  33  34
ENDBRANCH   6  33
TORSDOF 11
ENDMDL
MODEL 2
REMARK VINA RESULT: -9.312235694      0.910      1.016
REMARK  11 active torsions:
REMARK  status: ('A' for Active; 'I' for Inactive)
REMARK    1  A    between atoms: C5_5  and  C6_6 
REMARK    2  A    between atoms: C6_6  and  C7_7 
REMARK    3  A    between atoms: C9_12  and  C10_13 
REMARK    4  A    between atoms: C10_13  and  C11_14 
REMARK    5  A    between atoms: C12_15  and  C13_16 
REMARK    6  A    between atoms: C13_16  and  C14_17 
REMARK    7  A    between atoms: C14_17  and  C15_18 
REMARK    8  A    between atoms: C15_18  and  N2_19 
REMARK    9  A    between atoms: C22_26  and  C23_27 
REMARK   10  A    between atoms: C23_27  and  C24_28 
REMARK   11  A    between atoms: C26_32  and  N4_33 
ROOT
HETATM    1  C11 UNL     1       4.367  15.764  -2.454  1.00  0.00    -0.021 A 
HETATM    2  C12 UNL     1       4.078  14.963  -3.571  1.00  0.00    -0.047 A 
HETATM    3  C19 UNL     1       3.932  15.625  -4.780  1.00  0.00     0.008 A 
HETATM    4  C20 UNL     1       4.057  16.973  -4.916  1.00  0.00     0.001 A 
HETATM    5  C21 UNL     1       4.337  17.728  -3.819  1.00  0.00     0.008 A 
HETATM    6  C22 UNL     1       4.494  17.114  -2.554  1.00  0.00    -0.043 A 
ENDROOT
BRANCH   1   7
HETATM    7  C10 UNL     1       4.561  15.062  -1.184  1.00  0.00     0.048 C 
BRANCH   7   8
HETATM    8  C9  UNL     1       5.644  14.516  -0.723  1.00  0.00     0.104 A 
HETATM    9  C8  UNL     1       5.512  13.686   0.378  1.00  0.00     0.273 A 
HETATM   10  N1  UNL     1       6.588  13.074   0.896  1.00  0.00    -0.317 N 
HETATM   11  O1  UNL     1       4.401  13.475   0.925  1.00  0.00    -0.266 OA
HETATM   12  C7  UNL     1       7.835  13.215   0.403  1.00  0.00     0.106 A 
ATOM     13  H1  UNL     1       6.455  12.469   1.706  1.00  0.00     0.169 HD
HETATM   14  C28 UNL     1       7.962  14.038  -0.687  1.00  0.00     0.273 A 
HETATM   15  N6  UNL     1       6.876  14.668  -1.225  1.00  0.00    -0.317 N 
HETATM   16  O3  UNL     1       9.104  14.208  -1.187  1.00  0.00    -0.266 OA
ATOM     17  H6  UNL     1       7.007  15.273  -2.036  1.00  0.00     0.169 HD
BRANCH  12  18
HETATM   18  C6  UNL     1       8.834  12.574   0.968  1.00  0.00     0.064 C 
BRANCH  18  19
HETATM   19  C5  UNL     1       9.519  11.413   0.402  1.00  0.00     0.034 A 
HETATM   20  C4  UNL     1       9.351  10.072   0.668  1.00  0.00     0.031 A 
HETATM   21  C3  UNL     1      10.242   9.340  -0.107  1.00  0.00     0.027 A 
HETATM   22  C2  UNL     1      10.955  10.256  -0.849  1.00  0.00     0.005 A 
HETATM   23  C1  UNL     1      12.041   9.908  -1.835  1.00  0.00     0.068 C 
HETATM   24  N7  UNL     1      10.512  11.469  -0.533  1.00  0.00    -0.360 N 
ATOM     25  H7  UNL     1      10.870  12.333  -0.939  1.00  0.00     0.166 HD
ENDBRANCH  18  19
ENDBRANCH  12  18
ENDBRANCH   7   8
ENDBRANCH   1   7
BRANCH   2  26
HETATM   26  C13 UNL     1       3.960  13.487  -3.504  1.00  0.00     0.041 C 
BRANCH  26  27
HETATM   27  C14 UNL     1       2.604  13.051  -3.962  1.00  0.00     0.032 C 
BRANCH  27  28
HETATM   28  C15 UNL     1       1.637  12.880  -2.804  1.00  0.00     0.236 C 
BRANCH  28  29
HETATM   29  N2  UNL     1       0.511  13.779  -3.021  1.00  0.00    -0.079 N 
HETATM   30  C16 UNL     1      -0.738  13.148  -2.606  1.00  0.00     0.271 C 
HETATM   31  C17 UNL     1       0.646  14.983  -2.238  1.00  0.00     0.271 C 
HETATM   32  C18 UNL     1       0.443  14.184  -4.429  1.00  0.00     0.271 C 
ENDBRANCH  28  29
ENDBRANCH  27  28
ENDBRANCH  26  27
ENDBRANCH   2  26
BRANCH   6  33
HETATM   33  C23 UNL     1       4.668  18.105  -1.470  1.00  0.00     0.085 C 
BRANCH  33  34
HETATM   34  C24 UNL     1       6.028  18.588  -1.212  1.00  0.00     0.030 A 
HETATM   35  C25 UNL     1       6.749  17.895  -0.214  1.00  0.00     0.119 A 
HETATM   36  N3  UNL     1       8.007  18.250   0.072  1.00  0.00    -0.201 N 
HETATM   37  C26 UNL     1       8.648  19.250  -0.544  1.00  0.00     0.678 A 
ATOM     38  H3  UNL     1       8.503  17.732   0.798  1.00  0.00     0.183 HD
HETATM   39  N5  UNL     1       7.994  19.924  -1.489  1.00  0.00    -0.156 N 
HETATM   40  C27 UNL     1       6.694  19.591  -1.816  1.00  0.00     0.267 A 
ATOM     41  H5  UNL     1       8.456  20.692  -1.976  1.00  0.00     0.187 HD
HETATM   42  O2  UNL     1       6.173  20.295  -2.716  1.00  0.00    -0.267 OA
BRANCH  37  43
HETATM   43  N4  UNL     1       9.866  19.526  -0.199  1.00  0.00    -0.234 N 
ATOM     44  H42 UNL     1      10.482  20.112  -0.761  1.00  0.00     0.174 HD
ATOM     45  H41 UNL     1      10.231  19.146   0.675  1.00  0.00     0.174 HD
ENDBRANCH  37  43
ENDBRANCH  33  34
ENDBRANCH   6  33
TORSDOF 11
ENDMDL
MODEL 3
REMARK VINA RESULT: -9.275409627      1.531      6.398
REMARK  11 active torsions:
REMARK  status: ('A' for Active; 'I' for Inactive)
REMARK    1  A    between atoms: C5_5  and  C6_6 
REMARK    2  A    between atoms: C6_6  and  C7_7 
REMARK    3  A    between atoms: C9_12  and  C10_13 
REMARK    4  A    between atoms: C10_13  and  C11_14 
REMARK    5  A    between atoms: C12_15  and  C13_16 
REMARK    6  A    between atoms: C13_16  and  C14_17 
REMARK    7  A    between atoms: C14_17  and  C15_18 
REMARK    8  A    between atoms: C15_18  and  N2_19 
REMARK    9  A    between atoms: C22_26  and  C23_27 
REMARK   10  A    between atoms: C23_27  and  C24_28 
REMARK   11  A    between atoms: C26_32  and  N4_33 
ROOT
HETATM    1  C11 UNL     1       5.084  16.510  -2.481  1.00  0.00    -0.021 A 
HETATM    2  C12 UNL     1       5.504  17.845  -2.352  1.00  0.00    -0.047 A 
HETATM    3  C19 UNL     1       5.495  18.606  -3.510  1.00  0.00     0.008 A 
HETATM    4  C20 UNL     1       5.106  18.124  -4.721  1.00  0.00     0.001 A 
HETATM    5  C21 UNL     1       4.704  16.828  -4.822  1.00  0.00     0.008 A 
HETATM    6  C22 UNL     1       4.693  15.995  -3.677  1.00  0.00    -0.043 A 
ENDROOT
BRANCH   1   7
HETATM    7  C10 UNL     1       5.055  15.717  -1.252  1.00  0.00     0.048 C 
BRANCH   7   8
HETATM    8  C9  UNL     1       6.008  15.009  -0.728  1.00  0.00     0.104 A 
HETATM    9  C8  UNL     1       5.686  14.236   0.376  1.00  0.00     0.273 A 
HETATM   10  N1  UNL     1       6.617  13.465   0.956  1.00  0.00    -0.317 N 
HETATM   11  O1  UNL     1       4.529  14.225   0.868  1.00  0.00    -0.266 OA
HETATM   12  C7  UNL     1       7.893  13.386   0.527  1.00  0.00     0.106 A 
ATOM     13  H1  UNL     1       6.346  12.909   1.767  1.00  0.00     0.169 HD
HETATM   14  C28 UNL     1       8.209  14.153  -0.566  1.00  0.00     0.273 A 
HETATM   15  N6  UNL     1       7.270  14.943  -1.168  1.00  0.00    -0.317 N 
HETATM   16  O3  UNL     1       9.386  14.120  -1.009  1.00  0.00    -0.266 OA
ATOM     17  H6  UNL     1       7.540  15.500  -1.978  1.00  0.00     0.169 HD
BRANCH  12  18
HETATM   18  C6  UNL     1       8.742  12.600   1.151  1.00  0.00     0.064 C 
BRANCH  18  19
HETATM   19  C5  UNL     1       9.365  11.408   0.579  1.00  0.00     0.034 A 
HETATM   20  C4  UNL     1       9.060  10.078   0.760  1.00  0.00     0.031 A 
HETATM   21  C3  UNL     1       9.942   9.303   0.017  1.00  0.00     0.027 A 
HETATM   22  C2  UNL     1      10.790  10.183  -0.619  1.00  0.00     0.005 A 
HETATM   23  C1  UNL     1      11.916   9.782  -1.537  1.00  0.00     0.068 C 
HETATM   24  N7  UNL     1      10.431  11.415  -0.274  1.00  0.00    -0.360 N 
ATOM     25  H7  UNL     1      10.895  12.261  -0.606  1.00  0.00     0.166 HD
ENDBRANCH  18  19
ENDBRANCH  12  18
ENDBRANCH   7   8
ENDBRANCH   1   7
BRANCH   2  26
HETATM   26  C13 UNL     1       5.910  18.447  -1.060  1.00  0.00     0.041 C 
BRANCH  26  27
HETATM   27  C14 UNL     1       7.401  18.538  -0.973  1.00  0.00     0.032 C 
BRANCH  27  28
HETATM   28  C15 UNL     1       7.921  18.125   0.392  1.00  0.00     0.236 C 
BRANCH  28  29
HETATM   29  N2  UNL     1       9.350  18.410   0.435  1.00  0.00    -0.079 N 
HETATM   30  C16 UNL     1       9.749  19.209  -0.720  1.00  0.00     0.271 C 
HETATM   31  C17 UNL     1       9.694  19.177   1.608  1.00  0.00     0.271 C 
HETATM   32  C18 UNL     1      10.119  17.162   0.493  1.00  0.00     0.271 C 
ENDBRANCH  28  29
ENDBRANCH  27  28
ENDBRANCH  26  27
ENDBRANCH   2  26
BRANCH   6  33
HETATM   33  C23 UNL     1       4.348  14.596  -4.009  1.00  0.00     0.085 C 
BRANCH  33  34
HETATM   34  C24 UNL     1       3.169  14.375  -4.852  1.00  0.00     0.030 A 
HETATM   35  C25 UNL     1       1.950  14.886  -4.354  1.00  0.00     0.119 A 
HETATM   36  N3  UNL     1       0.826  14.753  -5.067  1.00  0.00    -0.201 N 
HETATM   37  C26 UNL     1       0.779  14.149  -6.261  1.00  0.00     0.678 A 
ATOM     38  H3  UNL     1      -0.040  15.131  -4.682  1.00  0.00     0.183 HD
HETATM   39  N5  UNL     1       1.913  13.657  -6.758  1.00  0.00    -0.156 N 
HETATM   40  C27 UNL     1       3.096  13.771  -6.055  1.00  0.00     0.267 A 
ATOM     41  H5  UNL     1       1.908  13.190  -7.666  1.00  0.00     0.187 HD
HETATM   42  O2  UNL     1       4.100  13.267  -6.614  1.00  0.00    -0.267 OA
BRANCH  37  43
HETATM   43  N4  UNL     1      -0.356  14.064  -6.880  1.00  0.00    -0.234 N 
ATOM     44  H42 UNL     1      -1.121  13.472  -6.555  1.00  0.00     0.174 HD
ATOM     45  H41 UNL     1      -0.501  14.612  -7.728  1.00  0.00     0.174 HD
ENDBRANCH  37  43
ENDBRANCH  33  34
ENDBRANCH   6  33
TORSDOF 11
ENDMDL
MODEL 4
REMARK VINA RESULT: -9.246553981      3.425      7.613
REMARK  11 active torsions:
REMARK  status: ('A' for Active; 'I' for Inactive)
REMARK    1  A    between atoms: C5_5  and  C6_6 
REMARK    2  A    between atoms: C6_6  and  C7_7 
REMARK    3  A    between atoms: C9_12  and  C10_13 
REMARK    4  A    between atoms: C10_13  and  C11_14 
REMARK    5  A    between atoms: C12_15  and  C13_16 
REMARK    6  A    between atoms: C13_16  and  C14_17 
REMARK    7  A    between atoms: C14_17  and  C15_18 
REMARK    8  A    between atoms: C15_18  and  N2_19 
REMARK    9  A    between atoms: C22_26  and  C23_27 
REMARK   10  A    between atoms: C23_27  and  C24_28 
REMARK   11  A    between atoms: C26_32  and  N4_33 
ROOT
HETATM    1  C11 UNL     1       7.480  15.017   0.198  1.00  0.00    -0.021 A 
HETATM    2  C12 UNL     1       7.316  16.360  -0.181  1.00  0.00    -0.047 A 
HETATM    3  C19 UNL     1       8.418  17.184  -0.014  1.00  0.00     0.008 A 
HETATM    4  C20 UNL     1       9.608  16.753   0.484  1.00  0.00     0.001 A 
HETATM    5  C21 UNL     1       9.742  15.447   0.845  1.00  0.00     0.008 A 
HETATM    6  C22 UNL     1       8.654  14.554   0.703  1.00  0.00    -0.043 A 
ENDROOT
BRANCH   1   7
HETATM    7  C10 UNL     1       6.330  14.137  -0.016  1.00  0.00     0.048 C 
BRANCH   7   8
HETATM    8  C9  UNL     1       5.377  13.842   0.815  1.00  0.00     0.104 A 
HETATM    9  C8  UNL     1       4.088  13.806   0.308  1.00  0.00     0.273 A 
HETATM   10  N1  UNL     1       3.057  13.490   1.106  1.00  0.00    -0.317 N 
HETATM   11  O1  UNL     1       3.838  14.060  -0.897  1.00  0.00    -0.266 OA
HETATM   12  C7  UNL     1       3.190  13.195   2.414  1.00  0.00     0.106 A 
ATOM     13  H1  UNL     1       2.122  13.472   0.700  1.00  0.00     0.169 HD
HETATM   14  C28 UNL     1       4.468  13.233   2.913  1.00  0.00     0.273 A 
HETATM   15  N6  UNL     1       5.528  13.553   2.113  1.00  0.00    -0.317 N 
HETATM   16  O3  UNL     1       4.651  12.969   4.130  1.00  0.00    -0.266 OA
ATOM     17  H6  UNL     1       6.463  13.572   2.517  1.00  0.00     0.169 HD
BRANCH  12  18
HETATM   18  C6  UNL     1       2.126  12.889   3.124  1.00  0.00     0.064 C 
BRANCH  18  19
HETATM   19  C5  UNL     1       0.913  13.699   3.218  1.00  0.00     0.034 A 
HETATM   20  C4  UNL     1      -0.394  13.367   2.942  1.00  0.00     0.031 A 
HETATM   21  C3  UNL     1      -1.202  14.475   3.166  1.00  0.00     0.027 A 
HETATM   22  C2  UNL     1      -0.365  15.487   3.584  1.00  0.00     0.005 A 
HETATM   23  C1  UNL     1      -0.811  16.882   3.942  1.00  0.00     0.068 C 
HETATM   24  N7  UNL     1       0.874  15.007   3.607  1.00  0.00    -0.360 N 
ATOM     25  H7  UNL     1       1.694  15.549   3.881  1.00  0.00     0.166 HD
ENDBRANCH  18  19
ENDBRANCH  12  18
ENDBRANCH   7   8
ENDBRANCH   1   7
BRANCH   2  26
HETATM   26  C13 UNL     1       6.060  16.893  -0.760  1.00  0.00     0.041 C 
BRANCH  26  27
HETATM   27  C14 UNL     1       6.241  17.184  -2.217  1.00  0.00     0.032 C 
BRANCH  27  28
HETATM   28  C15 UNL     1       5.290  16.379  -3.085  1.00  0.00     0.236 C 
BRANCH  28  29
HETATM   29  N2  UNL     1       4.568  17.308  -3.944  1.00  0.00    -0.079 N 
HETATM   30  C16 UNL     1       5.500  18.135  -4.704  1.00  0.00     0.271 C 
HETATM   31  C17 UNL     1       3.757  16.605  -4.907  1.00  0.00     0.271 C 
HETATM   32  C18 UNL     1       3.664  18.145  -3.146  1.00  0.00     0.271 C 
ENDBRANCH  28  29
ENDBRANCH  27  28
ENDBRANCH  26  27
ENDBRANCH   2  26
BRANCH   6  33
HETATM   33  C23 UNL     1       8.953  13.218   1.262  1.00  0.00     0.085 C 
BRANCH  33  34
HETATM   34  C24 UNL     1       9.609  12.250   0.378  1.00  0.00     0.030 A 
HETATM   35  C25 UNL     1      10.453  12.795  -0.615  1.00  0.00     0.119 A 
HETATM   36  N3  UNL     1      11.114  11.986  -1.451  1.00  0.00    -0.201 N 
HETATM   37  C26 UNL     1      11.024  10.651  -1.408  1.00  0.00     0.678 A 
ATOM     38  H3  UNL     1      11.716  12.408  -2.158  1.00  0.00     0.183 HD
HETATM   39  N5  UNL     1      10.234  10.106  -0.483  1.00  0.00    -0.156 N 
HETATM   40  C27 UNL     1       9.535  10.904   0.400  1.00  0.00     0.267 A 
ATOM     41  H5  UNL     1      10.146   9.091  -0.427  1.00  0.00     0.187 HD
HETATM   42  O2  UNL     1       8.818  10.286   1.224  1.00  0.00    -0.267 OA
BRANCH  37  43
HETATM   43  N4  UNL     1      11.697   9.946  -2.262  1.00  0.00    -0.234 N 
ATOM     44  H42 UNL     1      12.274  10.363  -2.993  1.00  0.00     0.174 HD
ATOM     45  H41 UNL     1      11.659   8.928  -2.205  1.00  0.00     0.174 HD
ENDBRANCH  37  43
ENDBRANCH  33  34
ENDBRANCH   6  33
TORSDOF 11
ENDMDL
MODEL 5
REMARK VINA RESULT: -9.170804869      2.890      6.403
REMARK  11 active torsions:
REMARK  status: ('A' for Active; 'I' for Inactive)
REMARK    1  A    between atoms: C5_5  and  C6_6 
REMARK    2  A    between atoms: C6_6  and  C7_7 
REMARK    3  A    between atoms: C9_12  and  C10_13 
REMARK    4  A    between atoms: C10_13  and  C11_14 
REMARK    5  A    between atoms: C12_15  and  C13_16 
REMARK    6  A    between atoms: C13_16  and  C14_17 
REMARK    7  A    between atoms: C14_17  and  C15_18 
REMARK    8  A    between atoms: C15_18  and  N2_19 
REMARK    9  A    between atoms: C22_26  and  C23_27 
REMARK   10  A    between atoms: C23_27  and  C24_28 
REMARK   11  A    between atoms: C26_32  and  N4_33 
ROOT
HETATM    1  C11 UNL     1       2.968  14.204  -1.578  1.00  0.00    -0.021 A 
HETATM    2  C12 UNL     1       2.049  14.126  -0.519  1.00  0.00    -0.047 A 
HETATM    3  C19 UNL     1       0.918  13.356  -0.743  1.00  0.00     0.008 A 
HETATM    4  C20 UNL     1       0.679  12.697  -1.909  1.00  0.00     0.001 A 
HETATM    5  C21 UNL     1       1.584  12.788  -2.921  1.00  0.00     0.008 A 
HETATM    6  C22 UNL     1       2.758  13.561  -2.758  1.00  0.00    -0.043 A 
ENDROOT
BRANCH   1   7
HETATM    7  C10 UNL     1       4.181  14.984  -1.329  1.00  0.00     0.048 C 
BRANCH   7   8
HETATM    8  C9  UNL     1       5.334  14.566  -0.904  1.00  0.00     0.104 A 
HETATM    9  C8  UNL     1       6.410  14.702  -1.765  1.00  0.00     0.273 A 
HETATM   10  N1  UNL     1       7.635  14.308  -1.384  1.00  0.00    -0.317 N 
HETATM   11  O1  UNL     1       6.286  15.193  -2.915  1.00  0.00    -0.266 OA
HETATM   12  C7  UNL     1       7.903  13.768  -0.179  1.00  0.00     0.106 A 
ATOM     13  H1  UNL     1       8.405  14.424  -2.043  1.00  0.00     0.169 HD
HETATM   14  C28 UNL     1       6.834  13.633   0.672  1.00  0.00     0.273 A 
HETATM   15  N6  UNL     1       5.582  14.031   0.298  1.00  0.00    -0.317 N 
HETATM   16  O3  UNL     1       7.026  13.133   1.810  1.00  0.00    -0.266 OA
ATOM     17  H6  UNL     1       4.811  13.916   0.955  1.00  0.00     0.169 HD
BRANCH  12  18
HETATM   18  C6  UNL     1       9.134  13.414   0.117  1.00  0.00     0.064 C 
BRANCH  18  19
HETATM   19  C5  UNL     1       9.714  12.094  -0.126  1.00  0.00     0.034 A 
HETATM   20  C4  UNL     1       9.452  10.888   0.484  1.00  0.00     0.031 A 
HETATM   21  C3  UNL     1      10.264   9.910  -0.076  1.00  0.00     0.027 A 
HETATM   22  C2  UNL     1      11.025  10.539  -1.037  1.00  0.00     0.005 A 
HETATM   23  C1  UNL     1      12.054   9.860  -1.903  1.00  0.00     0.068 C 
HETATM   24  N7  UNL     1      10.683  11.824  -1.049  1.00  0.00    -0.360 N 
ATOM     25  H7  UNL     1      11.095  12.521  -1.670  1.00  0.00     0.166 HD
ENDBRANCH  18  19
ENDBRANCH  12  18
ENDBRANCH   7   8
ENDBRANCH   1   7
BRANCH   2  26
HETATM   26  C13 UNL     1       2.258  14.790   0.789  1.00  0.00     0.041 C 
BRANCH  26  27
HETATM   27  C14 UNL     1       1.772  13.914   1.901  1.00  0.00     0.032 C 
BRANCH  27  28
HETATM   28  C15 UNL     1       2.900  13.128   2.545  1.00  0.00     0.236 C 
BRANCH  28  29
HETATM   29  N2  UNL     1       2.775  13.262   3.991  1.00  0.00    -0.079 N 
HETATM   30  C16 UNL     1       4.063  13.044   4.640  1.00  0.00     0.271 C 
HETATM   31  C17 UNL     1       2.347  14.591   4.356  1.00  0.00     0.271 C 
HETATM   32  C18 UNL     1       1.769  12.327   4.506  1.00  0.00     0.271 C 
ENDBRANCH  28  29
ENDBRANCH  27  28
ENDBRANCH  26  27
ENDBRANCH   2  26
BRANCH   6  33
HETATM   33  C23 UNL     1       3.552  13.640  -4.004  1.00  0.00     0.085 C 
BRANCH  33  34
HETATM   34  C24 UNL     1       2.912  14.255  -5.171  1.00  0.00     0.030 A 
HETATM   35  C25 UNL     1       2.501  15.597  -5.013  1.00  0.00     0.119 A 
HETATM   36  N3  UNL     1       1.929  16.248  -6.033  1.00  0.00    -0.201 N 
HETATM   37  C26 UNL     1       1.715  15.693  -7.232  1.00  0.00     0.678 A 
ATOM     38  H3  UNL     1       1.643  17.216  -5.890  1.00  0.00     0.183 HD
HETATM   39  N5  UNL     1       2.091  14.427  -7.412  1.00  0.00    -0.156 N 
HETATM   40  C27 UNL     1       2.684  13.719  -6.386  1.00  0.00     0.267 A 
ATOM     41  H5  UNL     1       1.939  13.977  -8.315  1.00  0.00     0.187 HD
HETATM   42  O2  UNL     1       2.992  12.534  -6.664  1.00  0.00    -0.267 OA
BRANCH  37  43
HETATM   43  N4  UNL     1       1.151  16.398  -8.161  1.00  0.00    -0.234 N 
ATOM     44  H42 UNL     1       0.146  16.389  -8.331  1.00  0.00     0.174 HD
ATOM     45  H41 UNL     1       1.732  16.995  -8.751  1.00  0.00     0.174 HD
ENDBRANCH  37  43
ENDBRANCH  33  34
ENDBRANCH   6  33
TORSDOF 11
ENDMDL
