MODEL 1
REMARK VINA RESULT: -10.132687695      0.000      0.000
REMARK  11 active torsions:
REMARK  status: ('A' for Active; 'I' for Inactive)
REMARK    1  A    between atoms: N1_4  and  C3_5 
REMARK    2  A    between atoms: C3_5  and  C4_6 
REMARK    3  A    between atoms: C9_13  and  C10_14 
REMARK    4  A    between atoms: C10_14  and  C11_15 
REMARK    5  A    between atoms: C11_15  and  C12_16 
REMARK    6  A    between atoms: C12_16  and  N3_17 
REMARK    7  A    between atoms: N3_17  and  C13_19 
REMARK    8  A    between atoms: C14_22  and  N5_23 
REMARK    9  A    between atoms: N5_23  and  C15_25 
REMARK   10  A    between atoms: C15_25  and  C16_26 
REMARK   11  A    between atoms: C16_26  and  C17_27 
ROOT
HETATM    1  C13 UNL     1       6.487  12.563   0.845  1.00  0.00     0.681 A 
HETATM    2  N4  UNL     1       6.751  13.542  -0.030  1.00  0.00    -0.176 N 
ATOM      3  H4  UNL     1       5.996  14.173  -0.299  1.00  0.00     0.186 HD
HETATM    4  C14 UNL     1       7.957  13.728  -0.566  1.00  0.00     0.136 A 
HETATM    5  C23 UNL     1       8.992  12.869  -0.202  1.00  0.00     0.123 A 
HETATM    6  C24 UNL     1      10.328  12.792  -0.571  1.00  0.00     0.277 A 
HETATM    7  O2  UNL     1      10.881  13.559  -1.368  1.00  0.00    -0.266 OA
HETATM    8  N6  UNL     1      10.832  11.739   0.118  1.00  0.00    -0.264 N 
ATOM      9  H6  UNL     1      11.798  11.416   0.067  1.00  0.00     0.190 HD
HETATM   10  N7  UNL     1       9.892  11.191   0.864  1.00  0.00    -0.281 N 
ATOM     11  H7  UNL     1      10.021  10.383   1.475  1.00  0.00     0.188 HD
HETATM   12  C25 UNL     1       8.722  11.867   0.694  1.00  0.00     0.155 A 
HETATM   13  N8  UNL     1       7.475  11.734   1.200  1.00  0.00    -0.174 N 
ATOM     14  H8  UNL     1       7.284  10.986   1.867  1.00  0.00     0.186 HD
ENDROOT
BRANCH   1  15
HETATM   15  N3  UNL     1       5.317  12.398   1.348  1.00  0.00    -0.226 N 
ATOM     16  H3  UNL     1       4.825  11.555   1.052  1.00  0.00     0.177 HD
BRANCH  15  17
HETATM   17  C12 UNL     1       4.616  13.225   2.257  1.00  0.00     0.138 C 
BRANCH  17  18
HETATM   18  C11 UNL     1       3.169  13.323   1.837  1.00  0.00     0.026 C 
BRANCH  18  19
HETATM   19  C10 UNL     1       2.937  14.285   0.702  1.00  0.00     0.061 C 
BRANCH  19  20
HETATM   20  C9  UNL     1       2.742  13.612  -0.587  1.00  0.00     0.033 A 
HETATM   21  C8  UNL     1       1.977  12.512  -0.854  1.00  0.00     0.115 A 
HETATM   22  N2  UNL     1       2.086  12.248  -2.159  1.00  0.00    -0.350 N 
HETATM   23  C7  UNL     1       2.909  13.172  -2.694  1.00  0.00     0.111 A 
ATOM     24  H2  UNL     1       1.630  11.485  -2.660  1.00  0.00     0.166 HD
HETATM   25  C6  UNL     1       3.384  13.401  -3.982  1.00  0.00     0.050 A 
HETATM   26  N9  UNL     1       3.319  14.014  -1.739  1.00  0.00    -0.310 N 
HETATM   27  C5  UNL     1       4.237  14.438  -4.285  1.00  0.00     0.013 A 
HETATM   28  C4  UNL     1       4.645  15.292  -3.288  1.00  0.00    -0.027 A 
HETATM   29  C26 UNL     1       4.164  15.050  -2.018  1.00  0.00     0.107 A 
BRANCH  28  30
HETATM   30  C3  UNL     1       5.563  16.423  -3.579  1.00  0.00     0.154 C 
BRANCH  30  31
HETATM   31  N1  UNL     1       4.915  17.586  -4.093  1.00  0.00    -0.216 NA
HETATM   32  C2  UNL     1       4.352  18.522  -3.177  1.00  0.00     0.218 C 
HETATM   33  C1  UNL     1       5.398  19.443  -3.632  1.00  0.00     0.246 C 
HETATM   34  O1  UNL     1       5.931  20.546  -3.315  1.00  0.00    -0.271 OA
HETATM   35  N10 UNL     1       5.652  18.559  -4.708  1.00  0.00    -0.287 N 
ATOM     36  H10 UNL     1       6.171  18.622  -5.583  1.00  0.00     0.184 HD
ENDBRANCH  30  31
ENDBRANCH  28  30
ENDBRANCH  19  20
ENDBRANCH  18  19
ENDBRANCH  17  18
ENDBRANCH  15  17
ENDBRANCH   1  15
BRANCH   4  37
HETATM   37  N5  UNL     1       8.264  14.647  -1.389  1.00  0.00    -0.375 N 
ATOM     38  H5  UNL     1       8.523  14.328  -2.322  1.00  0.00     0.161 HD
BRANCH  37  39
HETATM   39  C15 UNL     1       8.298  16.052  -1.198  1.00  0.00     0.126 C 
BRANCH  39  40
HETATM   40  C16 UNL     1       8.572  16.521   0.197  1.00  0.00     0.058 C 
BRANCH  40  41
HETATM   41  C17 UNL     1       9.071  17.931   0.065  1.00  0.00    -0.057 A 
HETATM   42  C18 UNL     1       8.442  18.803  -0.828  1.00  0.00     0.007 A 
HETATM   43  C19 UNL     1       8.831  20.103  -1.013  1.00  0.00     0.001 A 
HETATM   44  C20 UNL     1       9.892  20.587  -0.290  1.00  0.00     0.000 A 
HETATM   45  C21 UNL     1      10.525  19.735   0.598  1.00  0.00     0.001 A 
HETATM   46  C22 UNL     1      10.133  18.426   0.783  1.00  0.00     0.007 A 
ENDBRANCH  40  41
ENDBRANCH  39  40
ENDBRANCH  37  39
ENDBRANCH   4  37
TORSDOF 11
ENDMDL
MODEL 2
REMARK VINA RESULT: -9.919951350      3.386      7.040
REMARK  11 active torsions:
REMARK  status: ('A' for Active; 'I' for Inactive)
REMARK    1  A    between atoms: N1_4  and  C3_5 
REMARK    2  A    between atoms: C3_5  and  C4_6 
REMARK    3  A    between atoms: C9_13  and  C10_14 
REMARK    4  A    between atoms: C10_14  and  C11_15 
REMARK    5  A    between atoms: C11_15  and  C12_16 
REMARK    6  A    between atoms: C12_16  and  N3_17 
REMARK    7  A    between atoms: N3_17  and  C13_19 
REMARK    8  A    between atoms: C14_22  and  N5_23 
REMARK    9  A    between atoms: N5_23  and  C15_25 
REMARK   10  A    between atoms: C15_25  and  C16_26 
REMARK   11  A    between atoms: C16_26  and  C17_27 
ROOT
HETATM    1  C13 UNL     1       8.976  16.658   0.500  1.00  0.00     0.681 A 
HETATM    2  N4  UNL     1       8.024  17.215  -0.259  1.00  0.00    -0.176 N 
ATOM      3  H4  UNL     1       7.228  16.643  -0.541  1.00  0.00     0.186 HD
HETATM    4  C14 UNL     1       8.071  18.484  -0.663  1.00  0.00     0.136 A 
HETATM    5  C23 UNL     1       9.158  19.269  -0.282  1.00  0.00     0.123 A 
HETATM    6  C24 UNL     1       9.500  20.590  -0.531  1.00  0.00     0.277 A 
HETATM    7  O2  UNL     1       8.823  21.376  -1.204  1.00  0.00    -0.266 OA
HETATM    8  N6  UNL     1      10.681  20.783   0.107  1.00  0.00    -0.264 N 
ATOM      9  H6  UNL     1      11.203  21.659   0.117  1.00  0.00     0.190 HD
HETATM   10  N7  UNL     1      11.058  19.673   0.713  1.00  0.00    -0.281 N 
ATOM     11  H7  UNL     1      11.912  19.563   1.261  1.00  0.00     0.188 HD
HETATM   12  C25 UNL     1      10.132  18.698   0.495  1.00  0.00     0.155 A 
HETATM   13  N8  UNL     1      10.022  17.404   0.871  1.00  0.00    -0.174 N 
ATOM     14  H8  UNL     1      10.752  16.988   1.450  1.00  0.00     0.186 HD
ENDROOT
BRANCH   1  15
HETATM   15  N3  UNL     1       8.914  15.431   0.877  1.00  0.00    -0.226 N 
ATOM     16  H3  UNL     1       8.193  15.219   1.567  1.00  0.00     0.177 HD
BRANCH  15  17
HETATM   17  C12 UNL     1       9.707  14.334   0.467  1.00  0.00     0.138 C 
BRANCH  17  18
HETATM   18  C11 UNL     1       8.921  13.477  -0.497  1.00  0.00     0.026 C 
BRANCH  18  19
HETATM   19  C10 UNL     1       7.609  12.994   0.061  1.00  0.00     0.061 C 
BRANCH  19  20
HETATM   20  C9  UNL     1       6.460  13.755  -0.441  1.00  0.00     0.033 A 
HETATM   21  C8  UNL     1       6.305  14.332  -1.669  1.00  0.00     0.115 A 
HETATM   22  N2  UNL     1       5.103  14.918  -1.694  1.00  0.00    -0.350 N 
HETATM   23  C7  UNL     1       4.522  14.707  -0.496  1.00  0.00     0.111 A 
ATOM     24  H2  UNL     1       4.699  15.431  -2.478  1.00  0.00     0.166 HD
HETATM   25  C6  UNL     1       3.295  15.070   0.050  1.00  0.00     0.050 A 
HETATM   26  N9  UNL     1       5.345  13.996   0.283  1.00  0.00    -0.310 N 
HETATM   27  C5  UNL     1       2.922  14.726   1.329  1.00  0.00     0.013 A 
HETATM   28  C4  UNL     1       3.783  13.995   2.112  1.00  0.00    -0.027 A 
HETATM   29  C26 UNL     1       4.995  13.643   1.554  1.00  0.00     0.107 A 
BRANCH  28  30
HETATM   30  C3  UNL     1       3.412  13.604   3.496  1.00  0.00     0.154 C 
BRANCH  30  31
HETATM   31  N1  UNL     1       2.052  13.871   3.838  1.00  0.00    -0.216 NA
HETATM   32  C2  UNL     1       1.090  12.830   3.700  1.00  0.00     0.218 C 
HETATM   33  C1  UNL     1       1.000  12.857   5.163  1.00  0.00     0.246 C 
HETATM   34  O1  UNL     1       0.538  12.177   6.125  1.00  0.00    -0.271 OA
HETATM   35  N10 UNL     1       1.707  14.083   5.143  1.00  0.00    -0.287 N 
ATOM     36  H10 UNL     1       1.885  14.822   5.823  1.00  0.00     0.184 HD
ENDBRANCH  30  31
ENDBRANCH  28  30
ENDBRANCH  19  20
ENDBRANCH  18  19
ENDBRANCH  17  18
ENDBRANCH  15  17
ENDBRANCH   1  15
BRANCH   4  37
HETATM   37  N5  UNL     1       7.190  19.066  -1.371  1.00  0.00    -0.375 N 
ATOM     38  H5  UNL     1       7.458  19.979  -1.738  1.00  0.00     0.161 HD
BRANCH  37  39
HETATM   39  C15 UNL     1       5.889  18.629  -1.726  1.00  0.00     0.126 C 
BRANCH  39  40
HETATM   40  C16 UNL     1       5.353  19.141  -3.027  1.00  0.00     0.058 C 
BRANCH  40  41
HETATM   41  C17 UNL     1       4.373  18.108  -3.502  1.00  0.00    -0.057 A 
HETATM   42  C18 UNL     1       3.230  17.843  -2.742  1.00  0.00     0.007 A 
HETATM   43  C19 UNL     1       2.285  16.918  -3.099  1.00  0.00     0.001 A 
HETATM   44  C20 UNL     1       2.457  16.208  -4.261  1.00  0.00     0.000 A 
HETATM   45  C21 UNL     1       3.585  16.460  -5.024  1.00  0.00     0.001 A 
HETATM   46  C22 UNL     1       4.535  17.391  -4.663  1.00  0.00     0.007 A 
ENDBRANCH  40  41
ENDBRANCH  39  40
ENDBRANCH  37  39
ENDBRANCH   4  37
TORSDOF 11
ENDMDL
MODEL 3
REMARK VINA RESULT: -9.917554134      1.945      4.581
REMARK  11 active torsions:
REMARK  status: ('A' for Active; 'I' for Inactive)
REMARK    1  A    between atoms: N1_4  and  C3_5 
REMARK    2  A    between atoms: C3_5  and  C4_6 
REMARK    3  A    between atoms: C9_13  and  C10_14 
REMARK    4  A    between atoms: C10_14  and  C11_15 
REMARK    5  A    between atoms: C11_15  and  C12_16 
REMARK    6  A    between atoms: C12_16  and  N3_17 
REMARK    7  A    between atoms: N3_17  and  C13_19 
REMARK    8  A    between atoms: C14_22  and  N5_23 
REMARK    9  A    between atoms: N5_23  and  C15_25 
REMARK   10  A    between atoms: C15_25  and  C16_26 
REMARK   11  A    between atoms: C16_26  and  C17_27 
ROOT
HETATM    1  C13 UNL     1       5.921  15.242   0.292  1.00  0.00     0.681 A 
HETATM    2  N4  UNL     1       7.239  15.014   0.235  1.00  0.00    -0.176 N 
ATOM      3  H4  UNL     1       7.581  14.075   0.438  1.00  0.00     0.186 HD
HETATM    4  C14 UNL     1       8.125  15.960  -0.076  1.00  0.00     0.136 A 
HETATM    5  C23 UNL     1       7.663  17.245  -0.354  1.00  0.00     0.123 A 
HETATM    6  C24 UNL     1       8.308  18.425  -0.699  1.00  0.00     0.277 A 
HETATM    7  O2  UNL     1       9.531  18.543  -0.833  1.00  0.00    -0.266 OA
HETATM    8  N6  UNL     1       7.322  19.346  -0.841  1.00  0.00    -0.264 N 
ATOM      9  H6  UNL     1       7.468  20.323  -1.093  1.00  0.00     0.190 HD
HETATM   10  N7  UNL     1       6.146  18.795  -0.605  1.00  0.00    -0.281 N 
ATOM     11  H7  UNL     1       5.250  19.280  -0.648  1.00  0.00     0.188 HD
HETATM   12  C25 UNL     1       6.313  17.479  -0.296  1.00  0.00     0.155 A 
HETATM   13  N8  UNL     1       5.469  16.473   0.025  1.00  0.00    -0.174 N 
ATOM     14  H8  UNL     1       4.466  16.656   0.066  1.00  0.00     0.186 HD
ENDROOT
BRANCH   1  15
HETATM   15  N3  UNL     1       5.083  14.317   0.596  1.00  0.00    -0.226 N 
ATOM     16  H3  UNL     1       5.339  13.376   0.298  1.00  0.00     0.177 HD
BRANCH  15  17
HETATM   17  C12 UNL     1       3.854  14.424   1.288  1.00  0.00     0.138 C 
BRANCH  17  18
HETATM   18  C11 UNL     1       2.920  13.329   0.829  1.00  0.00     0.026 C 
BRANCH  18  19
HETATM   19  C10 UNL     1       1.850  13.808  -0.114  1.00  0.00     0.061 C 
BRANCH  19  20
HETATM   20  C9  UNL     1       1.939  13.189  -1.441  1.00  0.00     0.033 A 
HETATM   21  C8  UNL     1       1.260  12.099  -1.908  1.00  0.00     0.115 A 
HETATM   22  N2  UNL     1       1.646  11.889  -3.170  1.00  0.00    -0.350 N 
HETATM   23  C7  UNL     1       2.552  12.838  -3.482  1.00  0.00     0.111 A 
ATOM     24  H2  UNL     1       1.315  11.147  -3.786  1.00  0.00     0.166 HD
HETATM   25  C6  UNL     1       3.286  13.121  -4.630  1.00  0.00     0.050 A 
HETATM   26  N9  UNL     1       2.742  13.641  -2.429  1.00  0.00    -0.310 N 
HETATM   27  C5  UNL     1       4.170  14.173  -4.704  1.00  0.00     0.013 A 
HETATM   28  C4  UNL     1       4.349  14.985  -3.610  1.00  0.00    -0.027 A 
HETATM   29  C26 UNL     1       3.613  14.689  -2.481  1.00  0.00     0.107 A 
BRANCH  28  30
HETATM   30  C3  UNL     1       5.294  16.131  -3.655  1.00  0.00     0.154 C 
BRANCH  30  31
HETATM   31  N1  UNL     1       4.758  17.310  -4.253  1.00  0.00    -0.216 NA
HETATM   32  C2  UNL     1       4.166  18.299  -3.415  1.00  0.00     0.218 C 
HETATM   33  C1  UNL     1       5.295  19.153  -3.793  1.00  0.00     0.246 C 
HETATM   34  O1  UNL     1       5.855  20.236  -3.455  1.00  0.00    -0.271 OA
HETATM   35  N10 UNL     1       5.597  18.227  -4.821  1.00  0.00    -0.287 N 
ATOM     36  H10 UNL     1       6.196  18.239  -5.646  1.00  0.00     0.184 HD
ENDBRANCH  30  31
ENDBRANCH  28  30
ENDBRANCH  19  20
ENDBRANCH  18  19
ENDBRANCH  17  18
ENDBRANCH  15  17
ENDBRANCH   1  15
BRANCH   4  37
HETATM   37  N5  UNL     1       9.383  15.794  -0.157  1.00  0.00    -0.375 N 
ATOM     38  H5  UNL     1       9.904  16.589  -0.526  1.00  0.00     0.161 HD
BRANCH  37  39
HETATM   39  C15 UNL     1      10.165  14.665   0.190  1.00  0.00     0.126 C 
BRANCH  39  40
HETATM   40  C16 UNL     1      10.501  13.726  -0.926  1.00  0.00     0.058 C 
BRANCH  40  41
HETATM   41  C17 UNL     1      10.136  12.355  -0.434  1.00  0.00    -0.057 A 
HETATM   42  C18 UNL     1      10.887  11.252  -0.851  1.00  0.00     0.007 A 
HETATM   43  C19 UNL     1      10.625   9.968  -0.452  1.00  0.00     0.001 A 
HETATM   44  C20 UNL     1       9.574   9.739   0.400  1.00  0.00     0.000 A 
HETATM   45  C21 UNL     1       8.821  10.822   0.820  1.00  0.00     0.001 A 
HETATM   46  C22 UNL     1       9.086  12.114   0.418  1.00  0.00     0.007 A 
ENDBRANCH  40  41
ENDBRANCH  39  40
ENDBRANCH  37  39
ENDBRANCH   4  37
TORSDOF 11
ENDMDL
MODEL 4
REMARK VINA RESULT: -9.873196732      2.649      6.065
REMARK  11 active torsions:
REMARK  status: ('A' for Active; 'I' for Inactive)
REMARK    1  A    between atoms: N1_4  and  C3_5 
REMARK    2  A    between atoms: C3_5  and  C4_6 
REMARK    3  A    between atoms: C9_13  and  C10_14 
REMARK    4  A    between atoms: C10_14  and  C11_15 
REMARK    5  A    between atoms: C11_15  and  C12_16 
REMARK    6  A    between atoms: C12_16  and  N3_17 
REMARK    7  A    between atoms: N3_17  and  C13_19 
REMARK    8  A    between atoms: C14_22  and  N5_23 
REMARK    9  A    between atoms: N5_23  and  C15_25 
REMARK   10  A    between atoms: C15_25  and  C16_26 
REMARK   11  A    between atoms: C16_26  and  C17_27 
ROOT
HETATM    1  C13 UNL     1       2.669  13.403   0.758  1.00  0.00     0.681 A 
HETATM    2  N4  UNL     1       3.997  13.380   0.936  1.00  0.00    -0.176 N 
ATOM      3  H4  UNL     1       4.600  13.468   0.119  1.00  0.00     0.186 HD
HETATM    4  C14 UNL     1       4.564  13.247   2.135  1.00  0.00     0.136 A 
HETATM    5  C23 UNL     1       3.744  13.126   3.255  1.00  0.00     0.123 A 
HETATM    6  C24 UNL     1       4.011  12.973   4.608  1.00  0.00     0.277 A 
HETATM    7  O2  UNL     1       5.146  12.916   5.097  1.00  0.00    -0.266 OA
HETATM    8  N6  UNL     1       2.798  12.908   5.210  1.00  0.00    -0.264 N 
ATOM      9  H6  UNL     1       2.649  12.796   6.213  1.00  0.00     0.190 HD
HETATM   10  N7  UNL     1       1.837  13.012   4.312  1.00  0.00    -0.281 N 
ATOM     11  H7  UNL     1       0.837  12.991   4.514  1.00  0.00     0.188 HD
HETATM   12  C25 UNL     1       2.385  13.149   3.073  1.00  0.00     0.155 A 
HETATM   13  N8  UNL     1       1.875  13.288   1.828  1.00  0.00    -0.174 N 
ATOM     14  H8  UNL     1       0.862  13.304   1.702  1.00  0.00     0.186 HD
ENDROOT
BRANCH   1  15
HETATM   15  N3  UNL     1       2.142  13.529  -0.406  1.00  0.00    -0.226 N 
ATOM     16  H3  UNL     1       1.370  12.895  -0.611  1.00  0.00     0.177 HD
BRANCH  15  17
HETATM   17  C12 UNL     1       2.484  14.428  -1.444  1.00  0.00     0.138 C 
BRANCH  17  18
HETATM   18  C11 UNL     1       3.091  13.661  -2.595  1.00  0.00     0.026 C 
BRANCH  18  19
HETATM   19  C10 UNL     1       4.428  14.197  -3.034  1.00  0.00     0.061 C 
BRANCH  19  20
HETATM   20  C9  UNL     1       4.335  15.521  -3.659  1.00  0.00     0.033 A 
HETATM   21  C8  UNL     1       3.658  15.870  -4.793  1.00  0.00     0.115 A 
HETATM   22  N2  UNL     1       3.842  17.179  -4.990  1.00  0.00    -0.350 N 
HETATM   23  C7  UNL     1       4.625  17.635  -3.991  1.00  0.00     0.111 A 
ATOM     24  H2  UNL     1       3.461  17.733  -5.757  1.00  0.00     0.166 HD
HETATM   25  C6  UNL     1       5.140  18.888  -3.674  1.00  0.00     0.050 A 
HETATM   26  N9  UNL     1       4.935  16.627  -3.168  1.00  0.00    -0.310 N 
HETATM   27  C5  UNL     1       5.934  19.106  -2.571  1.00  0.00     0.013 A 
HETATM   28  C4  UNL     1       6.240  18.056  -1.739  1.00  0.00    -0.027 A 
HETATM   29  C26 UNL     1       5.720  16.821  -2.069  1.00  0.00     0.107 A 
BRANCH  28  30
HETATM   30  C3  UNL     1       7.092  18.255  -0.539  1.00  0.00     0.154 C 
BRANCH  30  31
HETATM   31  N1  UNL     1       8.481  18.416  -0.825  1.00  0.00    -0.216 NA
HETATM   32  C2  UNL     1       9.048  19.721  -0.769  1.00  0.00     0.218 C 
HETATM   33  C1  UNL     1       9.797  19.237   0.395  1.00  0.00     0.246 C 
HETATM   34  O1  UNL     1      10.502  19.672   1.351  1.00  0.00    -0.271 OA
HETATM   35  N10 UNL     1       9.416  17.921   0.040  1.00  0.00    -0.287 N 
ATOM     36  H10 UNL     1       9.716  16.986   0.317  1.00  0.00     0.184 HD
ENDBRANCH  30  31
ENDBRANCH  28  30
ENDBRANCH  19  20
ENDBRANCH  18  19
ENDBRANCH  17  18
ENDBRANCH  15  17
ENDBRANCH   1  15
BRANCH   4  37
HETATM   37  N5  UNL     1       5.815  13.233   2.361  1.00  0.00    -0.375 N 
ATOM     38  H5  UNL     1       6.080  13.188   3.345  1.00  0.00     0.161 HD
BRANCH  37  39
HETATM   39  C15 UNL     1       6.895  13.270   1.444  1.00  0.00     0.126 C 
BRANCH  39  40
HETATM   40  C16 UNL     1       8.268  13.218   2.040  1.00  0.00     0.058 C 
BRANCH  40  41
HETATM   41  C17 UNL     1       9.016  12.178   1.257  1.00  0.00    -0.057 A 
HETATM   42  C18 UNL     1      10.169  12.541   0.557  1.00  0.00     0.007 A 
HETATM   43  C19 UNL     1      10.912  11.660  -0.183  1.00  0.00     0.001 A 
HETATM   44  C20 UNL     1      10.513  10.348  -0.248  1.00  0.00     0.000 A 
HETATM   45  C21 UNL     1       9.372   9.974   0.441  1.00  0.00     0.001 A 
HETATM   46  C22 UNL     1       8.626  10.862   1.185  1.00  0.00     0.007 A 
ENDBRANCH  40  41
ENDBRANCH  39  40
ENDBRANCH  37  39
ENDBRANCH   4  37
TORSDOF 11
ENDMDL
MODEL 5
REMARK VINA RESULT: -9.714114467      2.619      6.758
REMARK  11 active torsions:
REMARK  status: ('A' for Active; 'I' for Inactive)
REMARK    1  A    between atoms: N1_4  and  C3_5 
REMARK    2  A    between atoms: C3_5  and  C4_6 
REMARK    3  A    between atoms: C9_13  and  C10_14 
REMARK    4  A    between atoms: C10_14  and  C11_15 
REMARK    5  A    between atoms: C11_15  and  C12_16 
REMARK    6  A    between atoms: C12_16  and  N3_17 
REMARK    7  A    between atoms: N3_17  and  C13_19 
REMARK    8  A    between atoms: C14_22  and  N5_23 
REMARK    9  A    between atoms: N5_23  and  C15_25 
REMARK   10  A    between atoms: C15_25  and  C16_26 
REMARK   11  A    between atoms: C16_26  and  C17_27 
ROOT
HETATM    1  C13 UNL     1       5.314  13.003   1.742  1.00  0.00     0.681 A 
HETATM    2  N4  UNL     1       4.256  13.338   0.992  1.00  0.00    -0.176 N 
ATOM      3  H4  UNL     1       4.297  13.167  -0.013  1.00  0.00     0.186 HD
HETATM    4  C14 UNL     1       3.152  13.884   1.501  1.00  0.00     0.136 A 
HETATM    5  C23 UNL     1       3.093  14.121   2.873  1.00  0.00     0.123 A 
HETATM    6  C24 UNL     1       2.116  14.665   3.695  1.00  0.00     0.277 A 
HETATM    7  O2  UNL     1       1.016  15.072   3.303  1.00  0.00    -0.266 OA
HETATM    8  N6  UNL     1       2.640  14.636   4.945  1.00  0.00    -0.264 N 
ATOM      9  H6  UNL     1       2.166  14.969   5.784  1.00  0.00     0.190 HD
HETATM   10  N7  UNL     1       3.852  14.115   4.920  1.00  0.00    -0.281 N 
ATOM     11  H7  UNL     1       4.454  13.985   5.733  1.00  0.00     0.188 HD
HETATM   12  C25 UNL     1       4.176  13.778   3.641  1.00  0.00     0.155 A 
HETATM   13  N8  UNL     1       5.265  13.226   3.060  1.00  0.00    -0.174 N 
ATOM     14  H8  UNL     1       6.066  12.974   3.639  1.00  0.00     0.186 HD
ENDROOT
BRANCH   1  15
HETATM   15  N3  UNL     1       6.371  12.480   1.232  1.00  0.00    -0.226 N 
ATOM     16  H3  UNL     1       6.212  11.826   0.465  1.00  0.00     0.177 HD
BRANCH  15  17
HETATM   17  C12 UNL     1       7.725  12.684   1.587  1.00  0.00     0.138 C 
BRANCH  17  18
HETATM   18  C11 UNL     1       8.613  12.317   0.422  1.00  0.00     0.026 C 
BRANCH  18  19
HETATM   19  C10 UNL     1       8.595  13.332  -0.689  1.00  0.00     0.061 C 
BRANCH  19  20
HETATM   20  C9  UNL     1       8.874  14.694  -0.223  1.00  0.00     0.033 A 
HETATM   21  C8  UNL     1      10.010  15.165   0.371  1.00  0.00     0.115 A 
HETATM   22  N2  UNL     1       9.829  16.465   0.623  1.00  0.00    -0.350 N 
HETATM   23  C7  UNL     1       8.596  16.796   0.191  1.00  0.00     0.111 A 
ATOM     24  H2  UNL     1      10.502  17.093   1.062  1.00  0.00     0.166 HD
HETATM   25  C6  UNL     1       7.869  17.982   0.186  1.00  0.00     0.050 A 
HETATM   26  N9  UNL     1       7.998  15.718  -0.329  1.00  0.00    -0.310 N 
HETATM   27  C5  UNL     1       6.594  18.069  -0.325  1.00  0.00     0.013 A 
HETATM   28  C4  UNL     1       5.999  16.949  -0.855  1.00  0.00    -0.027 A 
HETATM   29  C26 UNL     1       6.735  15.782  -0.842  1.00  0.00     0.107 A 
BRANCH  28  30
HETATM   30  C3  UNL     1       4.626  17.007  -1.417  1.00  0.00     0.154 C 
BRANCH  30  31
HETATM   31  N1  UNL     1       4.503  17.818  -2.584  1.00  0.00    -0.216 NA
HETATM   32  C2  UNL     1       5.130  17.390  -3.790  1.00  0.00     0.218 C 
HETATM   33  C1  UNL     1       3.773  17.208  -4.313  1.00  0.00     0.246 C 
HETATM   34  O1  UNL     1       3.166  16.672  -5.285  1.00  0.00    -0.271 OA
HETATM   35  N10 UNL     1       3.291  17.942  -3.203  1.00  0.00    -0.287 N 
ATOM     36  H10 UNL     1       2.403  18.383  -2.963  1.00  0.00     0.184 HD
ENDBRANCH  30  31
ENDBRANCH  28  30
ENDBRANCH  19  20
ENDBRANCH  18  19
ENDBRANCH  17  18
ENDBRANCH  15  17
ENDBRANCH   1  15
BRANCH   4  37
HETATM   37  N5  UNL     1       2.117  14.208   0.838  1.00  0.00    -0.375 N 
ATOM     38  H5  UNL     1       1.497  14.876   1.296  1.00  0.00     0.161 HD
BRANCH  37  39
HETATM   39  C15 UNL     1       1.699  13.775  -0.445  1.00  0.00     0.126 C 
BRANCH  39  40
HETATM   40  C16 UNL     1       1.686  14.816  -1.521  1.00  0.00     0.058 C 
BRANCH  40  41
HETATM   41  C17 UNL     1       2.269  14.157  -2.737  1.00  0.00    -0.057 A 
HETATM   42  C18 UNL     1       1.453  13.910  -3.844  1.00  0.00     0.007 A 
HETATM   43  C19 UNL     1       1.901  13.314  -4.994  1.00  0.00     0.001 A 
HETATM   44  C20 UNL     1       3.217  12.934  -5.074  1.00  0.00     0.000 A 
HETATM   45  C21 UNL     1       4.037  13.171  -3.984  1.00  0.00     0.001 A 
HETATM   46  C22 UNL     1       3.585  13.771  -2.829  1.00  0.00     0.007 A 
ENDBRANCH  40  41
ENDBRANCH  39  40
ENDBRANCH  37  39
ENDBRANCH   4  37
TORSDOF 11
ENDMDL
