MODEL 1
REMARK VINA RESULT: -10.171786618      0.000      0.000
REMARK  10 active torsions:
REMARK  status: ('A' for Active; 'I' for Inactive)
REMARK    1  A    between atoms: C5_5  and  C6_6 
REMARK    2  A    between atoms: C6_6  and  C7_7 
REMARK       I    between atoms: C7_7  and  N1_9 
REMARK    3  A    between atoms: N1_9  and  C8_11 
REMARK    4  A    between atoms: C8_11  and  C9_12 
REMARK       I    between atoms: C9_12  and  N2_14 
REMARK    5  A    between atoms: N2_14  and  C10_15 
REMARK    6  A    between atoms: C10_15  and  C11_16 
REMARK    7  A    between atoms: C14_19  and  C15_20 
REMARK    8  A    between atoms: C15_20  and  N3_21 
REMARK    9  A    between atoms: N3_21  and  C16_23 
REMARK   10  A    between atoms: C16_23  and  C21_35 
ROOT
HETATM    1  C11 UNL     1       6.445  17.428  -1.114  1.00  0.00    -0.007 A 
HETATM    2  C12 UNL     1       6.760  16.188  -1.664  1.00  0.00     0.014 A 
HETATM    3  C13 UNL     1       5.814  15.204  -1.782  1.00  0.00     0.010 A 
HETATM    4  C14 UNL     1       4.516  15.425  -1.352  1.00  0.00    -0.041 A 
HETATM    5  C27 UNL     1       4.195  16.630  -0.812  1.00  0.00     0.010 A 
HETATM    6  C28 UNL     1       5.167  17.636  -0.692  1.00  0.00     0.014 A 
ENDROOT
BRANCH   4   7
HETATM    7  C15 UNL     1       3.540  14.337  -1.567  1.00  0.00     0.158 C 
BRANCH   7   8
HETATM    8  N3  UNL     1       3.579  13.282  -0.629  1.00  0.00    -0.384 N 
ATOM      9  H3  UNL     1       4.171  12.482  -0.852  1.00  0.00     0.160 HD
BRANCH   8  10
HETATM   10  C16 UNL     1       2.869  13.241   0.590  1.00  0.00     0.060 C 
HETATM   11  C17 UNL     1       3.410  13.265   1.807  1.00  0.00     0.127 A 
HETATM   12  C18 UNL     1       2.576  13.246   3.007  1.00  0.00     0.267 A 
HETATM   13  C20 UNL     1       4.852  13.157   2.038  1.00  0.00     0.267 A 
HETATM   14  O3  UNL     1       1.313  13.335   2.994  1.00  0.00    -0.267 OA
HETATM   15  N4  UNL     1       3.129  13.134   4.334  1.00  0.00    -0.275 N 
HETATM   16  C19 UNL     1       4.519  13.035   4.518  1.00  0.00     0.329 A 
ATOM     17  H4  UNL     1       2.508  13.125   5.143  1.00  0.00     0.173 HD
HETATM   18  O4  UNL     1       5.011  12.937   5.684  1.00  0.00    -0.246 OA
HETATM   19  N5  UNL     1       5.357  13.047   3.391  1.00  0.00    -0.275 N 
ATOM     20  H5  UNL     1       6.365  12.975   3.531  1.00  0.00     0.173 HD
HETATM   21  O5  UNL     1       5.676  13.153   1.106  1.00  0.00    -0.267 OA
BRANCH  10  22
HETATM   22  C21 UNL     1       1.448  12.869   0.447  1.00  0.00    -0.009 A 
HETATM   23  C22 UNL     1       1.117  11.517   0.461  1.00  0.00     0.014 A 
HETATM   24  C23 UNL     1      -0.168  11.115   0.326  1.00  0.00     0.001 A 
HETATM   25  C24 UNL     1      -1.200  12.022   0.167  1.00  0.00     0.000 A 
HETATM   26  C25 UNL     1      -0.866  13.340   0.156  1.00  0.00     0.001 A 
HETATM   27  C26 UNL     1       0.456  13.756   0.297  1.00  0.00     0.014 A 
ENDBRANCH  10  22
ENDBRANCH   8  10
ENDBRANCH   7   8
ENDBRANCH   4   7
BRANCH   1  28
HETATM   28  C10 UNL     1       7.481  18.501  -1.075  1.00  0.00     0.197 C 
BRANCH  28  29
HETATM   29  N2  UNL     1       8.467  18.413  -0.174  1.00  0.00    -0.381 NA
HETATM   30  C9  UNL     1       9.498  18.323   0.768  1.00  0.00     0.308 C 
HETATM   31  O2  UNL     1       9.825  19.198   1.586  1.00  0.00    -0.255 OA
BRANCH  30  32
HETATM   32  C8  UNL     1      10.293  17.023   0.775  1.00  0.00     0.242 C 
BRANCH  32  33
HETATM   33  N1  UNL     1       9.465  15.859   0.694  1.00  0.00    -0.348 N 
HETATM   34  C7  UNL     1      10.059  14.615   0.305  1.00  0.00     0.243 C 
HETATM   35  O1  UNL     1      11.263  14.506   0.047  1.00  0.00    -0.269 OA
ATOM     36  H1  UNL     1       8.470  15.914   0.911  1.00  0.00     0.163 HD
BRANCH  34  37
HETATM   37  C6  UNL     1       9.184  13.466   0.224  1.00  0.00     0.103 C 
BRANCH  37  38
HETATM   38  C5  UNL     1       9.592  12.210   0.054  1.00  0.00     0.037 A 
HETATM   39  C4  UNL     1       9.090  11.053   0.586  1.00  0.00     0.032 A 
HETATM   40  C3  UNL     1       9.865  10.012   0.085  1.00  0.00     0.031 A 
HETATM   41  C2  UNL     1      10.828  10.524  -0.742  1.00  0.00     0.023 A 
HETATM   42  C1  UNL     1      11.743   9.810  -1.395  1.00  0.00     0.043 C 
HETATM   43  N6  UNL     1      10.639  11.844  -0.741  1.00  0.00    -0.357 N 
ATOM     44  H6  UNL     1      11.210  12.502  -1.271  1.00  0.00     0.166 HD
ENDBRANCH  37  38
ENDBRANCH  34  37
ENDBRANCH  32  33
ENDBRANCH  30  32
ENDBRANCH  28  29
ENDBRANCH   1  28
TORSDOF 10
ENDMDL
MODEL 2
REMARK VINA RESULT: -10.054632439      2.426      7.772
REMARK  10 active torsions:
REMARK  status: ('A' for Active; 'I' for Inactive)
REMARK    1  A    between atoms: C5_5  and  C6_6 
REMARK    2  A    between atoms: C6_6  and  C7_7 
REMARK       I    between atoms: C7_7  and  N1_9 
REMARK    3  A    between atoms: N1_9  and  C8_11 
REMARK    4  A    between atoms: C8_11  and  C9_12 
REMARK       I    between atoms: C9_12  and  N2_14 
REMARK    5  A    between atoms: N2_14  and  C10_15 
REMARK    6  A    between atoms: C10_15  and  C11_16 
REMARK    7  A    between atoms: C14_19  and  C15_20 
REMARK    8  A    between atoms: C15_20  and  N3_21 
REMARK    9  A    between atoms: N3_21  and  C16_23 
REMARK   10  A    between atoms: C16_23  and  C21_35 
ROOT
HETATM    1  C11 UNL     1       5.055  13.393   2.254  1.00  0.00    -0.007 A 
HETATM    2  C12 UNL     1       4.259  14.018   1.298  1.00  0.00     0.014 A 
HETATM    3  C13 UNL     1       4.718  14.239   0.026  1.00  0.00     0.010 A 
HETATM    4  C14 UNL     1       5.995  13.842  -0.336  1.00  0.00    -0.041 A 
HETATM    5  C27 UNL     1       6.784  13.233   0.588  1.00  0.00     0.010 A 
HETATM    6  C28 UNL     1       6.310  13.009   1.891  1.00  0.00     0.014 A 
ENDROOT
BRANCH   4   7
HETATM    7  C15 UNL     1       6.396  14.061  -1.740  1.00  0.00     0.158 C 
BRANCH   7   8
HETATM    8  N3  UNL     1       7.443  14.987  -1.943  1.00  0.00    -0.384 N 
ATOM      9  H3  UNL     1       8.348  14.613  -2.229  1.00  0.00     0.160 HD
BRANCH   8  10
HETATM   10  C16 UNL     1       7.344  16.387  -1.783  1.00  0.00     0.060 C 
HETATM   11  C17 UNL     1       8.130  17.140  -1.016  1.00  0.00     0.127 A 
HETATM   12  C18 UNL     1       7.956  18.589  -0.945  1.00  0.00     0.267 A 
HETATM   13  C20 UNL     1       9.108  16.575  -0.084  1.00  0.00     0.267 A 
HETATM   14  O3  UNL     1       7.158  19.243  -1.680  1.00  0.00    -0.267 OA
HETATM   15  N4  UNL     1       8.697  19.415  -0.025  1.00  0.00    -0.275 N 
HETATM   16  C19 UNL     1       9.630  18.839   0.853  1.00  0.00     0.329 A 
ATOM     17  H4  UNL     1       8.543  20.424  -0.012  1.00  0.00     0.173 HD
HETATM   18  O4  UNL     1      10.286  19.563   1.664  1.00  0.00    -0.246 OA
HETATM   19  N5  UNL     1       9.827  17.449   0.820  1.00  0.00    -0.275 N 
ATOM     20  H5  UNL     1      10.507  17.037   1.460  1.00  0.00     0.173 HD
HETATM   21  O5  UNL     1       9.350  15.357  -0.032  1.00  0.00    -0.267 OA
BRANCH  10  22
HETATM   22  C21 UNL     1       6.092  16.965  -2.310  1.00  0.00    -0.009 A 
HETATM   23  C22 UNL     1       6.000  17.196  -3.680  1.00  0.00     0.014 A 
HETATM   24  C23 UNL     1       4.881  17.731  -4.220  1.00  0.00     0.001 A 
HETATM   25  C24 UNL     1       3.789  18.071  -3.441  1.00  0.00     0.000 A 
HETATM   26  C25 UNL     1       3.890  17.839  -2.105  1.00  0.00     0.001 A 
HETATM   27  C26 UNL     1       5.040  17.287  -1.547  1.00  0.00     0.014 A 
ENDBRANCH  10  22
ENDBRANCH   8  10
ENDBRANCH   7   8
ENDBRANCH   4   7
BRANCH   1  28
HETATM   28  C10 UNL     1       4.492  13.099   3.604  1.00  0.00     0.197 C 
BRANCH  28  29
HETATM   29  N2  UNL     1       3.182  13.284   3.811  1.00  0.00    -0.381 NA
HETATM   30  C9  UNL     1       1.814  13.478   4.029  1.00  0.00     0.308 C 
HETATM   31  O2  UNL     1       1.300  14.342   4.757  1.00  0.00    -0.255 OA
BRANCH  30  32
HETATM   32  C8  UNL     1       0.873  12.523   3.303  1.00  0.00     0.242 C 
BRANCH  32  33
HETATM   33  N1  UNL     1       0.439  13.023   2.034  1.00  0.00    -0.348 N 
HETATM   34  C7  UNL     1       1.038  12.498   0.844  1.00  0.00     0.243 C 
HETATM   35  O1  UNL     1       1.909  11.621   0.870  1.00  0.00    -0.269 OA
ATOM     36  H1  UNL     1      -0.285  13.739   1.979  1.00  0.00     0.163 HD
BRANCH  34  37
HETATM   37  C6  UNL     1       0.578  13.039  -0.416  1.00  0.00     0.103 C 
BRANCH  37  38
HETATM   38  C5  UNL     1       1.371  13.426  -1.413  1.00  0.00     0.037 A 
HETATM   39  C4  UNL     1       1.588  14.680  -1.916  1.00  0.00     0.032 A 
HETATM   40  C3  UNL     1       2.516  14.545  -2.944  1.00  0.00     0.031 A 
HETATM   41  C2  UNL     1       2.863  13.226  -3.068  1.00  0.00     0.023 A 
HETATM   42  C1  UNL     1       3.732  12.738  -3.952  1.00  0.00     0.043 C 
HETATM   43  N6  UNL     1       2.161  12.580  -2.138  1.00  0.00    -0.357 N 
ATOM     44  H6  UNL     1       2.208  11.572  -1.986  1.00  0.00     0.166 HD
ENDBRANCH  37  38
ENDBRANCH  34  37
ENDBRANCH  32  33
ENDBRANCH  30  32
ENDBRANCH  28  29
ENDBRANCH   1  28
TORSDOF 10
ENDMDL
MODEL 3
REMARK VINA RESULT: -10.010279804      3.044      5.576
REMARK  10 active torsions:
REMARK  status: ('A' for Active; 'I' for Inactive)
REMARK    1  A    between atoms: C5_5  and  C6_6 
REMARK    2  A    between atoms: C6_6  and  C7_7 
REMARK       I    between atoms: C7_7  and  N1_9 
REMARK    3  A    between atoms: N1_9  and  C8_11 
REMARK    4  A    between atoms: C8_11  and  C9_12 
REMARK       I    between atoms: C9_12  and  N2_14 
REMARK    5  A    between atoms: N2_14  and  C10_15 
REMARK    6  A    between atoms: C10_15  and  C11_16 
REMARK    7  A    between atoms: C14_19  and  C15_20 
REMARK    8  A    between atoms: C15_20  and  N3_21 
REMARK    9  A    between atoms: N3_21  and  C16_23 
REMARK   10  A    between atoms: C16_23  and  C21_35 
ROOT
HETATM    1  C11 UNL     1       7.239  17.891  -1.263  1.00  0.00    -0.007 A 
HETATM    2  C12 UNL     1       6.424  18.920  -1.727  1.00  0.00     0.014 A 
HETATM    3  C13 UNL     1       5.574  18.730  -2.785  1.00  0.00     0.010 A 
HETATM    4  C14 UNL     1       5.510  17.500  -3.419  1.00  0.00    -0.041 A 
HETATM    5  C27 UNL     1       6.302  16.487  -2.979  1.00  0.00     0.010 A 
HETATM    6  C28 UNL     1       7.172  16.686  -1.894  1.00  0.00     0.014 A 
ENDROOT
BRANCH   4   7
HETATM    7  C15 UNL     1       4.528  17.356  -4.513  1.00  0.00     0.158 C 
BRANCH   7   8
HETATM    8  N3  UNL     1       3.178  17.235  -4.115  1.00  0.00    -0.384 N 
ATOM      9  H3  UNL     1       2.671  18.098  -3.921  1.00  0.00     0.160 HD
BRANCH   8  10
HETATM   10  C16 UNL     1       2.473  16.021  -3.963  1.00  0.00     0.060 C 
HETATM   11  C17 UNL     1       1.831  15.627  -2.865  1.00  0.00     0.127 A 
HETATM   12  C18 UNL     1       1.106  14.359  -2.825  1.00  0.00     0.267 A 
HETATM   13  C20 UNL     1       1.925  16.340  -1.589  1.00  0.00     0.267 A 
HETATM   14  O3  UNL     1       0.924  13.615  -3.834  1.00  0.00    -0.267 OA
HETATM   15  N4  UNL     1       0.517  13.839  -1.617  1.00  0.00    -0.275 N 
HETATM   16  C19 UNL     1       0.625  14.553  -0.410  1.00  0.00     0.329 A 
ATOM     17  H4  UNL     1       0.020  12.949  -1.637  1.00  0.00     0.173 HD
HETATM   18  O4  UNL     1       0.107  14.100   0.656  1.00  0.00    -0.246 OA
HETATM   19  N5  UNL     1       1.315  15.776  -0.403  1.00  0.00    -0.275 N 
ATOM     20  H5  UNL     1       1.390  16.289   0.475  1.00  0.00     0.173 HD
HETATM   21  O5  UNL     1       2.520  17.427  -1.478  1.00  0.00    -0.267 OA
BRANCH  10  22
HETATM   22  C21 UNL     1       2.730  15.038  -5.033  1.00  0.00    -0.009 A 
HETATM   23  C22 UNL     1       3.695  14.059  -4.811  1.00  0.00     0.014 A 
HETATM   24  C23 UNL     1       3.979  13.136  -5.757  1.00  0.00     0.001 A 
HETATM   25  C24 UNL     1       3.330  13.125  -6.979  1.00  0.00     0.000 A 
HETATM   26  C25 UNL     1       2.388  14.084  -7.185  1.00  0.00     0.001 A 
HETATM   27  C26 UNL     1       2.093  15.034  -6.211  1.00  0.00     0.014 A 
ENDBRANCH  10  22
ENDBRANCH   8  10
ENDBRANCH   7   8
ENDBRANCH   4   7
BRANCH   1  28
HETATM   28  C10 UNL     1       8.092  18.113  -0.059  1.00  0.00     0.197 C 
BRANCH  28  29
HETATM   29  N2  UNL     1       8.933  17.144   0.323  1.00  0.00    -0.381 NA
HETATM   30  C9  UNL     1       9.813  16.132   0.721  1.00  0.00     0.308 C 
HETATM   31  O2  UNL     1      11.026  16.263   0.957  1.00  0.00    -0.255 OA
BRANCH  30  32
HETATM   32  C8  UNL     1       9.216  14.738   0.869  1.00  0.00     0.242 C 
BRANCH  32  33
HETATM   33  N1  UNL     1       7.786  14.743   0.910  1.00  0.00    -0.348 N 
HETATM   34  C7  UNL     1       7.077  13.612   0.389  1.00  0.00     0.243 C 
HETATM   35  O1  UNL     1       7.654  12.627  -0.084  1.00  0.00    -0.269 OA
ATOM     36  H1  UNL     1       7.280  15.536   1.303  1.00  0.00     0.163 HD
BRANCH  34  37
HETATM   37  C6  UNL     1       5.632  13.663   0.439  1.00  0.00     0.103 C 
BRANCH  37  38
HETATM   38  C5  UNL     1       4.909  13.667   1.557  1.00  0.00     0.037 A 
HETATM   39  C4  UNL     1       3.635  14.119   1.768  1.00  0.00     0.032 A 
HETATM   40  C3  UNL     1       3.341  13.881   3.106  1.00  0.00     0.031 A 
HETATM   41  C2  UNL     1       4.420  13.291   3.707  1.00  0.00     0.023 A 
HETATM   42  C1  UNL     1       4.485  12.924   4.986  1.00  0.00     0.043 C 
HETATM   43  N6  UNL     1       5.344  13.176   2.754  1.00  0.00    -0.357 N 
ATOM     44  H6  UNL     1       6.268  12.769   2.902  1.00  0.00     0.166 HD
ENDBRANCH  37  38
ENDBRANCH  34  37
ENDBRANCH  32  33
ENDBRANCH  30  32
ENDBRANCH  28  29
ENDBRANCH   1  28
TORSDOF 10
ENDMDL
MODEL 4
REMARK VINA RESULT: -9.949786677      2.620      3.972
REMARK  10 active torsions:
REMARK  status: ('A' for Active; 'I' for Inactive)
REMARK    1  A    between atoms: C5_5  and  C6_6 
REMARK    2  A    between atoms: C6_6  and  C7_7 
REMARK       I    between atoms: C7_7  and  N1_9 
REMARK    3  A    between atoms: N1_9  and  C8_11 
REMARK    4  A    between atoms: C8_11  and  C9_12 
REMARK       I    between atoms: C9_12  and  N2_14 
REMARK    5  A    between atoms: N2_14  and  C10_15 
REMARK    6  A    between atoms: C10_15  and  C11_16 
REMARK    7  A    between atoms: C14_19  and  C15_20 
REMARK    8  A    between atoms: C15_20  and  N3_21 
REMARK    9  A    between atoms: N3_21  and  C16_23 
REMARK   10  A    between atoms: C16_23  and  C21_35 
ROOT
HETATM    1  C11 UNL     1       6.858  18.767  -1.894  1.00  0.00    -0.007 A 
HETATM    2  C12 UNL     1       5.949  19.566  -2.583  1.00  0.00     0.014 A 
HETATM    3  C13 UNL     1       4.912  19.014  -3.288  1.00  0.00     0.010 A 
HETATM    4  C14 UNL     1       4.747  17.639  -3.330  1.00  0.00    -0.041 A 
HETATM    5  C27 UNL     1       5.628  16.847  -2.665  1.00  0.00     0.010 A 
HETATM    6  C28 UNL     1       6.691  17.416  -1.943  1.00  0.00     0.014 A 
ENDROOT
BRANCH   4   7
HETATM    7  C15 UNL     1       3.572  17.123  -4.062  1.00  0.00     0.158 C 
BRANCH   7   8
HETATM    8  N3  UNL     1       2.584  16.496  -3.272  1.00  0.00    -0.384 N 
ATOM      9  H3  UNL     1       1.916  17.101  -2.794  1.00  0.00     0.160 HD
BRANCH   8  10
HETATM   10  C16 UNL     1       2.441  15.103  -3.088  1.00  0.00     0.060 C 
HETATM   11  C17 UNL     1       2.446  14.468  -1.917  1.00  0.00     0.127 A 
HETATM   12  C18 UNL     1       2.261  13.021  -1.839  1.00  0.00     0.267 A 
HETATM   13  C20 UNL     1       2.783  15.131  -0.655  1.00  0.00     0.267 A 
HETATM   14  O3  UNL     1       1.962  12.291  -2.830  1.00  0.00    -0.267 OA
HETATM   15  N4  UNL     1       2.397  12.287  -0.606  1.00  0.00    -0.275 N 
HETATM   16  C19 UNL     1       2.719  12.957   0.587  1.00  0.00     0.329 A 
ATOM     17  H4  UNL     1       2.258  11.276  -0.599  1.00  0.00     0.173 HD
HETATM   18  O4  UNL     1       2.837  12.315   1.676  1.00  0.00    -0.246 OA
HETATM   19  N5  UNL     1       2.906  14.348   0.557  1.00  0.00    -0.275 N 
ATOM     20  H5  UNL     1       3.140  14.828   1.427  1.00  0.00     0.173 HD
HETATM   21  O5  UNL     1       2.975  16.357  -0.579  1.00  0.00    -0.267 OA
BRANCH  10  22
HETATM   22  C21 UNL     1       2.575  14.315  -4.329  1.00  0.00    -0.009 A 
HETATM   23  C22 UNL     1       1.445  14.137  -5.121  1.00  0.00     0.014 A 
HETATM   24  C23 UNL     1       1.505  13.419  -6.266  1.00  0.00     0.001 A 
HETATM   25  C24 UNL     1       2.683  12.833  -6.695  1.00  0.00     0.000 A 
HETATM   26  C25 UNL     1       3.781  13.015  -5.914  1.00  0.00     0.001 A 
HETATM   27  C26 UNL     1       3.721  13.756  -4.737  1.00  0.00     0.014 A 
ENDBRANCH  10  22
ENDBRANCH   8  10
ENDBRANCH   7   8
ENDBRANCH   4   7
BRANCH   1  28
HETATM   28  C10 UNL     1       7.927  19.408  -1.073  1.00  0.00     0.197 C 
BRANCH  28  29
HETATM   29  N2  UNL     1       8.704  18.632  -0.308  1.00  0.00    -0.381 NA
HETATM   30  C9  UNL     1       9.519  17.822   0.491  1.00  0.00     0.308 C 
HETATM   31  O2  UNL     1      10.610  18.142   0.991  1.00  0.00    -0.255 OA
BRANCH  30  32
HETATM   32  C8  UNL     1       9.011  16.411   0.760  1.00  0.00     0.242 C 
BRANCH  32  33
HETATM   33  N1  UNL     1       9.936  15.397   0.357  1.00  0.00    -0.348 N 
HETATM   34  C7  UNL     1       9.504  14.400  -0.576  1.00  0.00     0.243 C 
HETATM   35  O1  UNL     1       8.365  14.389  -1.057  1.00  0.00    -0.269 OA
ATOM     36  H1  UNL     1      10.886  15.384   0.727  1.00  0.00     0.163 HD
BRANCH  34  37
HETATM   37  C6  UNL     1      10.466  13.386  -0.948  1.00  0.00     0.103 C 
BRANCH  37  38
HETATM   38  C5  UNL     1      10.359  12.092  -0.655  1.00  0.00     0.037 A 
HETATM   39  C4  UNL     1      11.162  11.047  -1.024  1.00  0.00     0.032 A 
HETATM   40  C3  UNL     1      10.623   9.902  -0.445  1.00  0.00     0.031 A 
HETATM   41  C2  UNL     1       9.505  10.242   0.268  1.00  0.00     0.023 A 
HETATM   42  C1  UNL     1       8.740   9.392   0.952  1.00  0.00     0.043 C 
HETATM   43  N6  UNL     1       9.372  11.560   0.124  1.00  0.00    -0.357 N 
ATOM     44  H6  UNL     1       8.621  12.106   0.545  1.00  0.00     0.166 HD
ENDBRANCH  37  38
ENDBRANCH  34  37
ENDBRANCH  32  33
ENDBRANCH  30  32
ENDBRANCH  28  29
ENDBRANCH   1  28
TORSDOF 10
ENDMDL
MODEL 5
REMARK VINA RESULT: -9.902662742      2.611      8.031
REMARK  10 active torsions:
REMARK  status: ('A' for Active; 'I' for Inactive)
REMARK    1  A    between atoms: C5_5  and  C6_6 
REMARK    2  A    between atoms: C6_6  and  C7_7 
REMARK       I    between atoms: C7_7  and  N1_9 
REMARK    3  A    between atoms: N1_9  and  C8_11 
REMARK    4  A    between atoms: C8_11  and  C9_12 
REMARK       I    between atoms: C9_12  and  N2_14 
REMARK    5  A    between atoms: N2_14  and  C10_15 
REMARK    6  A    between atoms: C10_15  and  C11_16 
REMARK    7  A    between atoms: C14_19  and  C15_20 
REMARK    8  A    between atoms: C15_20  and  N3_21 
REMARK    9  A    between atoms: N3_21  and  C16_23 
REMARK   10  A    between atoms: C16_23  and  C21_35 
ROOT
HETATM    1  C11 UNL     1       4.661  13.467   1.892  1.00  0.00    -0.007 A 
HETATM    2  C12 UNL     1       4.013  14.057   0.809  1.00  0.00     0.014 A 
HETATM    3  C13 UNL     1       4.666  14.272  -0.376  1.00  0.00     0.010 A 
HETATM    4  C14 UNL     1       5.994  13.906  -0.521  1.00  0.00    -0.041 A 
HETATM    5  C27 UNL     1       6.639  13.332   0.528  1.00  0.00     0.010 A 
HETATM    6  C28 UNL     1       5.967  13.112   1.742  1.00  0.00     0.014 A 
ENDROOT
BRANCH   4   7
HETATM    7  C15 UNL     1       6.611  14.117  -1.846  1.00  0.00     0.158 C 
BRANCH   7   8
HETATM    8  N3  UNL     1       7.673  15.047  -1.888  1.00  0.00    -0.384 N 
ATOM      9  H3  UNL     1       8.613  14.676  -2.031  1.00  0.00     0.160 HD
BRANCH   8  10
HETATM   10  C16 UNL     1       7.546  16.446  -1.749  1.00  0.00     0.060 C 
HETATM   11  C17 UNL     1       8.292  17.222  -0.966  1.00  0.00     0.127 A 
HETATM   12  C18 UNL     1       8.092  18.669  -0.920  1.00  0.00     0.267 A 
HETATM   13  C20 UNL     1       9.248  16.685   0.005  1.00  0.00     0.267 A 
HETATM   14  O3  UNL     1       7.309  19.300  -1.689  1.00  0.00    -0.267 OA
HETATM   15  N4  UNL     1       8.788  19.518   0.014  1.00  0.00    -0.275 N 
HETATM   16  C19 UNL     1       9.701  18.969   0.931  1.00  0.00     0.329 A 
ATOM     17  H4  UNL     1       8.617  20.524   0.010  1.00  0.00     0.173 HD
HETATM   18  O4  UNL     1      10.316  19.713   1.754  1.00  0.00    -0.246 OA
HETATM   19  N5  UNL     1       9.922  17.582   0.922  1.00  0.00    -0.275 N 
ATOM     20  H5  UNL     1      10.586  17.189   1.589  1.00  0.00     0.173 HD
HETATM   21  O5  UNL     1       9.509  15.472   0.081  1.00  0.00    -0.267 OA
BRANCH  10  22
HETATM   22  C21 UNL     1       6.303  16.997  -2.326  1.00  0.00    -0.009 A 
HETATM   23  C22 UNL     1       6.240  17.177  -3.705  1.00  0.00     0.014 A 
HETATM   24  C23 UNL     1       5.131  17.685  -4.289  1.00  0.00     0.001 A 
HETATM   25  C24 UNL     1       4.020  18.046  -3.548  1.00  0.00     0.000 A 
HETATM   26  C25 UNL     1       4.092  17.864  -2.202  1.00  0.00     0.001 A 
HETATM   27  C26 UNL     1       5.232  17.340  -1.599  1.00  0.00     0.014 A 
ENDBRANCH  10  22
ENDBRANCH   8  10
ENDBRANCH   7   8
ENDBRANCH   4   7
BRANCH   1  28
HETATM   28  C10 UNL     1       3.894  13.176   3.139  1.00  0.00     0.197 C 
BRANCH  28  29
HETATM   29  N2  UNL     1       2.672  12.641   3.035  1.00  0.00    -0.381 NA
HETATM   30  C9  UNL     1       1.395  12.080   2.926  1.00  0.00     0.308 C 
HETATM   31  O2  UNL     1       0.871  11.284   3.723  1.00  0.00    -0.255 OA
BRANCH  30  32
HETATM   32  C8  UNL     1       0.581  12.487   1.704  1.00  0.00     0.242 C 
BRANCH  32  33
HETATM   33  N1  UNL     1       1.122  11.985   0.478  1.00  0.00    -0.348 N 
HETATM   34  C7  UNL     1       1.080  12.818  -0.686  1.00  0.00     0.243 C 
HETATM   35  O1  UNL     1       0.604  13.959  -0.670  1.00  0.00    -0.269 OA
ATOM     36  H1  UNL     1       1.531  11.052   0.435  1.00  0.00     0.163 HD
BRANCH  34  37
HETATM   37  C6  UNL     1       1.627  12.269  -1.907  1.00  0.00     0.103 C 
BRANCH  37  38
HETATM   38  C5  UNL     1       2.185  12.985  -2.881  1.00  0.00     0.037 A 
HETATM   39  C4  UNL     1       3.435  12.885  -3.428  1.00  0.00     0.032 A 
HETATM   40  C3  UNL     1       3.518  13.855  -4.421  1.00  0.00     0.031 A 
HETATM   41  C2  UNL     1       2.334  14.541  -4.481  1.00  0.00     0.023 A 
HETATM   42  C1  UNL     1       2.063  15.538  -5.321  1.00  0.00     0.043 C 
HETATM   43  N6  UNL     1       1.555  13.997  -3.547  1.00  0.00    -0.357 N 
ATOM     44  H6  UNL     1       0.601  14.301  -3.352  1.00  0.00     0.166 HD
ENDBRANCH  37  38
ENDBRANCH  34  37
ENDBRANCH  32  33
ENDBRANCH  30  32
ENDBRANCH  28  29
ENDBRANCH   1  28
TORSDOF 10
ENDMDL
