MODEL 1
REMARK VINA RESULT: -7.779477355      0.000      0.000
REMARK  10 active torsions:
REMARK  status: ('A' for Active; 'I' for Inactive)
REMARK    1  A    between atoms: C1_2  and  C2_4 
REMARK    2  A    between atoms: N6_15  and  C5_16 
REMARK    3  A    between atoms: C5_16  and  C6_17 
REMARK       I    between atoms: C6_17  and  N7_19 
REMARK    4  A    between atoms: N7_19  and  C7_21 
REMARK    5  A    between atoms: C7_21  and  C8_22 
REMARK    6  A    between atoms: C7_21  and  C10_26 
REMARK    7  A    between atoms: C8_22  and  C9_23 
REMARK       I    between atoms: C10_26  and  N8_28 
REMARK    8  A    between atoms: N8_28  and  C11_30 
REMARK    9  A    between atoms: C11_30  and  C12_31 
REMARK       I    between atoms: C12_31  and  N9_33 
REMARK   10  A    between atoms: N9_33  and  S1_35 
ROOT
HETATM    1  C6  UNL     1      -9.463   4.091   1.029  1.00  0.00     0.238 C 
HETATM    2  O2  UNL     1     -10.720   4.294   1.070  1.00  0.00    -0.272 OA
HETATM    3  N7  UNL     1      -8.911   2.815   0.790  1.00  0.00    -0.346 N 
ATOM      4  H7  UNL     1      -7.898   2.700   0.778  1.00  0.00     0.163 HD
ENDROOT
BRANCH   1   5
HETATM    5  C5  UNL     1      -8.635   5.294   1.250  1.00  0.00     0.256 C 
BRANCH   5   6
HETATM    6  N6  UNL     1      -7.532   4.919   2.132  1.00  0.00    -0.232 N 
HETATM    7  N5  UNL     1      -7.646   4.858   3.432  1.00  0.00    -0.237 N 
HETATM    8  N4  UNL     1      -6.655   4.517   4.239  1.00  0.00    -0.287 N 
ATOM      9  H5  UNL     1      -8.550   5.085   3.847  1.00  0.00     0.208 HD
HETATM   10  C4  UNL     1      -5.427   4.201   3.739  1.00  0.00     0.066 A 
ATOM     11  H4  UNL     1      -6.811   4.491   5.247  1.00  0.00     0.188 HD
HETATM   12  C3  UNL     1      -5.288   4.260   2.377  1.00  0.00     0.142 A 
HETATM   13  C14 UNL     1      -4.317   3.815   4.636  1.00  0.00     0.125 A 
HETATM   14  N3  UNL     1      -4.038   3.948   1.764  1.00  0.00    -0.294 N 
HETATM   15  C13 UNL     1      -6.338   4.619   1.551  1.00  0.00     0.293 A 
HETATM   16  N2  UNL     1      -2.979   3.588   2.591  1.00  0.00    -0.299 N 
ATOM     17  H3  UNL     1      -3.924   3.988   0.751  1.00  0.00     0.187 HD
HETATM   18  C2  UNL     1      -3.089   3.525   3.882  1.00  0.00     0.096 A 
ATOM     19  H2  UNL     1      -2.080   3.364   2.165  1.00  0.00     0.186 HD
HETATM   20  O10 UNL     1      -6.245   4.684   0.295  1.00  0.00    -0.264 OA
BRANCH  18  21
HETATM   21  C1  UNL     1      -1.889   3.131   4.610  1.00  0.00     0.279 C 
HETATM   22  N1  UNL     1      -0.603   3.202   3.972  1.00  0.00    -0.056 NA
HETATM   23  O1  UNL     1      -1.996   2.734   5.783  1.00  0.00    -0.270 OA
ENDBRANCH  18  21
ENDBRANCH   5   6
ENDBRANCH   1   5
BRANCH   3  24
HETATM   24  C7  UNL     1      -9.784   1.632   0.556  1.00  0.00     0.186 C 
BRANCH  24  25
HETATM   25  C8  UNL     1      -9.508   1.121  -0.784  1.00  0.00     0.147 C 
BRANCH  25  26
HETATM   26  C9  UNL     1      -8.700   1.922  -1.697  1.00  0.00     0.175 C 
HETATM   27  O3  UNL     1      -9.108   2.808  -2.490  1.00  0.00    -0.648 OA
HETATM   28  O4  UNL     1      -7.324   1.709  -1.717  1.00  0.00    -0.648 OA
ENDBRANCH  25  26
ENDBRANCH  24  25
BRANCH  24  29
HETATM   29  C10 UNL     1      -9.622   0.742   1.712  1.00  0.00     0.241 C 
HETATM   30  O5  UNL     1      -9.529  -0.498   1.453  1.00  0.00    -0.271 OA
HETATM   31  N8  UNL     1      -9.570   1.141   3.039  1.00  0.00    -0.350 N 
ATOM     32  H8  UNL     1      -9.649   2.126   3.291  1.00  0.00     0.163 HD
BRANCH  31  33
HETATM   33  C11 UNL     1      -9.394   0.100   4.082  1.00  0.00     0.226 C 
BRANCH  33  34
HETATM   34  C12 UNL     1      -7.943  -0.091   4.301  1.00  0.00     0.250 C 
HETATM   35  O6  UNL     1      -7.269   0.679   5.048  1.00  0.00    -0.271 OA
HETATM   36  N9  UNL     1      -7.282  -1.180   3.650  1.00  0.00    -0.234 N 
ATOM     37  H9  UNL     1      -7.807  -1.812   3.045  1.00  0.00     0.184 HD
BRANCH  36  38
HETATM   38  S1  UNL     1      -5.595  -1.417   3.897  1.00  0.00     0.211 S 
HETATM   39  O7  UNL     1      -5.048  -2.490   2.994  1.00  0.00    -0.578 OA
HETATM   40  O8  UNL     1      -5.318  -1.836   5.324  1.00  0.00    -0.578 OA
HETATM   41  O9  UNL     1      -4.735   0.012   3.556  1.00  0.00    -0.578 OA
ENDBRANCH  36  38
ENDBRANCH  33  34
ENDBRANCH  31  33
ENDBRANCH  24  29
ENDBRANCH   3  24
TORSDOF 10
ENDMDL
MODEL 2
REMARK VINA RESULT: -7.608521011      2.904      4.943
REMARK  10 active torsions:
REMARK  status: ('A' for Active; 'I' for Inactive)
REMARK    1  A    between atoms: C1_2  and  C2_4 
REMARK    2  A    between atoms: N6_15  and  C5_16 
REMARK    3  A    between atoms: C5_16  and  C6_17 
REMARK       I    between atoms: C6_17  and  N7_19 
REMARK    4  A    between atoms: N7_19  and  C7_21 
REMARK    5  A    between atoms: C7_21  and  C8_22 
REMARK    6  A    between atoms: C7_21  and  C10_26 
REMARK    7  A    between atoms: C8_22  and  C9_23 
REMARK       I    between atoms: C10_26  and  N8_28 
REMARK    8  A    between atoms: N8_28  and  C11_30 
REMARK    9  A    between atoms: C11_30  and  C12_31 
REMARK       I    between atoms: C12_31  and  N9_33 
REMARK   10  A    between atoms: N9_33  and  S1_35 
ROOT
HETATM    1  C6  UNL     1      -9.417   2.631  -1.327  1.00  0.00     0.238 C 
HETATM    2  O2  UNL     1      -9.142   2.995  -2.516  1.00  0.00    -0.272 OA
HETATM    3  N7  UNL     1     -10.392   3.285  -0.543  1.00  0.00    -0.346 N 
ATOM      4  H7  UNL     1     -10.569   2.964   0.409  1.00  0.00     0.163 HD
ENDROOT
BRANCH   1   5
HETATM    5  C5  UNL     1      -8.635   1.477  -0.837  1.00  0.00     0.256 C 
BRANCH   5   6
HETATM    6  N6  UNL     1      -7.484   1.999  -0.104  1.00  0.00    -0.232 N 
HETATM    7  N5  UNL     1      -6.699   2.930  -0.577  1.00  0.00    -0.237 N 
HETATM    8  N4  UNL     1      -5.654   3.410   0.078  1.00  0.00    -0.287 N 
ATOM      9  H5  UNL     1      -6.902   3.307  -1.503  1.00  0.00     0.208 HD
HETATM   10  C4  UNL     1      -5.337   2.945   1.320  1.00  0.00     0.066 A 
ATOM     11  H4  UNL     1      -5.081   4.137  -0.351  1.00  0.00     0.188 HD
HETATM   12  C3  UNL     1      -6.150   1.968   1.833  1.00  0.00     0.142 A 
HETATM   13  C14 UNL     1      -4.175   3.482   2.058  1.00  0.00     0.125 A 
HETATM   14  N3  UNL     1      -5.894   1.420   3.124  1.00  0.00    -0.294 N 
HETATM   15  C13 UNL     1      -7.236   1.479   1.130  1.00  0.00     0.293 A 
HETATM   16  N2  UNL     1      -4.801   1.907   3.834  1.00  0.00    -0.299 N 
ATOM     17  H3  UNL     1      -6.493   0.693   3.515  1.00  0.00     0.187 HD
HETATM   18  C2  UNL     1      -4.019   2.832   3.367  1.00  0.00     0.096 A 
ATOM     19  H2  UNL     1      -4.606   1.523   4.758  1.00  0.00     0.186 HD
HETATM   20  O10 UNL     1      -8.004   0.581   1.571  1.00  0.00    -0.264 OA
BRANCH  18  21
HETATM   21  C1  UNL     1      -2.918   3.237   4.232  1.00  0.00     0.279 C 
HETATM   22  N1  UNL     1      -1.559   3.061   3.800  1.00  0.00    -0.056 NA
HETATM   23  O1  UNL     1      -3.172   3.733   5.343  1.00  0.00    -0.270 OA
ENDBRANCH  18  21
ENDBRANCH   5   6
ENDBRANCH   1   5
BRANCH   3  24
HETATM   24  C7  UNL     1     -11.167   4.435  -1.083  1.00  0.00     0.186 C 
BRANCH  24  25
HETATM   25  C8  UNL     1     -12.505   3.960  -1.428  1.00  0.00     0.147 C 
BRANCH  25  26
HETATM   26  C9  UNL     1     -13.069   2.832  -0.694  1.00  0.00     0.175 C 
HETATM   27  O3  UNL     1     -13.088   2.674   0.553  1.00  0.00    -0.648 OA
HETATM   28  O4  UNL     1     -13.657   1.800  -1.423  1.00  0.00    -0.648 OA
ENDBRANCH  25  26
ENDBRANCH  24  25
BRANCH  24  29
HETATM   29  C10 UNL     1     -11.021   5.540  -0.128  1.00  0.00     0.241 C 
HETATM   30  O5  UNL     1     -11.925   6.431  -0.163  1.00  0.00    -0.271 OA
HETATM   31  N8  UNL     1      -9.991   5.685   0.788  1.00  0.00    -0.350 N 
ATOM     32  H8  UNL     1      -9.240   4.997   0.844  1.00  0.00     0.163 HD
BRANCH  31  33
HETATM   33  C11 UNL     1     -10.006   6.866   1.686  1.00  0.00     0.226 C 
BRANCH  33  34
HETATM   34  C12 UNL     1      -8.769   6.843   2.498  1.00  0.00     0.250 C 
HETATM   35  O6  UNL     1      -8.058   7.878   2.667  1.00  0.00    -0.271 OA
HETATM   36  N9  UNL     1      -8.367   5.615   3.112  1.00  0.00    -0.234 N 
ATOM     37  H9  UNL     1      -8.927   4.771   2.989  1.00  0.00     0.184 HD
BRANCH  36  38
HETATM   38  S1  UNL     1      -6.931   5.573   4.061  1.00  0.00     0.211 S 
HETATM   39  O7  UNL     1      -5.723   5.970   3.255  1.00  0.00    -0.578 OA
HETATM   40  O8  UNL     1      -6.686   4.178   4.595  1.00  0.00    -0.578 OA
HETATM   41  O9  UNL     1      -7.044   6.660   5.365  1.00  0.00    -0.578 OA
ENDBRANCH  36  38
ENDBRANCH  33  34
ENDBRANCH  31  33
ENDBRANCH  24  29
ENDBRANCH   3  24
TORSDOF 10
ENDMDL
MODEL 3
REMARK VINA RESULT: -7.500459621      2.939      4.733
REMARK  10 active torsions:
REMARK  status: ('A' for Active; 'I' for Inactive)
REMARK    1  A    between atoms: C1_2  and  C2_4 
REMARK    2  A    between atoms: N6_15  and  C5_16 
REMARK    3  A    between atoms: C5_16  and  C6_17 
REMARK       I    between atoms: C6_17  and  N7_19 
REMARK    4  A    between atoms: N7_19  and  C7_21 
REMARK    5  A    between atoms: C7_21  and  C8_22 
REMARK    6  A    between atoms: C7_21  and  C10_26 
REMARK    7  A    between atoms: C8_22  and  C9_23 
REMARK       I    between atoms: C10_26  and  N8_28 
REMARK    8  A    between atoms: N8_28  and  C11_30 
REMARK    9  A    between atoms: C11_30  and  C12_31 
REMARK       I    between atoms: C12_31  and  N9_33 
REMARK   10  A    between atoms: N9_33  and  S1_35 
ROOT
HETATM    1  C6  UNL     1      -8.913   2.958  -1.453  1.00  0.00     0.238 C 
HETATM    2  O2  UNL     1      -8.743   3.639  -2.516  1.00  0.00    -0.272 OA
HETATM    3  N7  UNL     1      -9.798   3.361  -0.431  1.00  0.00    -0.346 N 
ATOM      4  H7  UNL     1      -9.891   2.788   0.407  1.00  0.00     0.163 HD
ENDROOT
BRANCH   1   5
HETATM    5  C5  UNL     1      -8.113   1.719  -1.379  1.00  0.00     0.256 C 
BRANCH   5   6
HETATM    6  N6  UNL     1      -7.388   1.733  -0.111  1.00  0.00    -0.232 N 
HETATM    7  N5  UNL     1      -7.648   0.910   0.869  1.00  0.00    -0.237 N 
HETATM    8  N4  UNL     1      -6.996   0.913   2.021  1.00  0.00    -0.287 N 
ATOM      9  H5  UNL     1      -8.394   0.227   0.740  1.00  0.00     0.208 HD
HETATM   10  C4  UNL     1      -5.988   1.802   2.248  1.00  0.00     0.066 A 
ATOM     11  H4  UNL     1      -7.251   0.242   2.747  1.00  0.00     0.188 HD
HETATM   12  C3  UNL     1      -5.701   2.673   1.231  1.00  0.00     0.142 A 
HETATM   13  C14 UNL     1      -5.254   1.806   3.531  1.00  0.00     0.125 A 
HETATM   14  N3  UNL     1      -4.663   3.640   1.380  1.00  0.00    -0.294 N 
HETATM   15  C13 UNL     1      -6.395   2.653   0.035  1.00  0.00     0.293 A 
HETATM   16  N2  UNL     1      -3.963   3.665   2.582  1.00  0.00    -0.299 N 
ATOM     17  H3  UNL     1      -4.441   4.293   0.628  1.00  0.00     0.187 HD
HETATM   18  C2  UNL     1      -4.218   2.848   3.557  1.00  0.00     0.096 A 
ATOM     19  H2  UNL     1      -3.219   4.353   2.701  1.00  0.00     0.186 HD
HETATM   20  O10 UNL     1      -6.158   3.440  -0.921  1.00  0.00    -0.264 OA
BRANCH  18  21
HETATM   21  C1  UNL     1      -3.396   3.000   4.752  1.00  0.00     0.279 C 
HETATM   22  N1  UNL     1      -1.968   3.109   4.636  1.00  0.00    -0.056 NA
HETATM   23  O1  UNL     1      -3.948   3.032   5.865  1.00  0.00    -0.270 OA
ENDBRANCH  18  21
ENDBRANCH   5   6
ENDBRANCH   1   5
BRANCH   3  24
HETATM   24  C7  UNL     1     -10.597   4.611  -0.555  1.00  0.00     0.186 C 
BRANCH  24  25
HETATM   25  C8  UNL     1     -11.869   4.276  -1.191  1.00  0.00     0.147 C 
BRANCH  25  26
HETATM   26  C9  UNL     1     -12.604   3.103  -0.732  1.00  0.00     0.175 C 
HETATM   27  O3  UNL     1     -13.521   3.071   0.127  1.00  0.00    -0.648 OA
HETATM   28  O4  UNL     1     -12.280   1.866  -1.286  1.00  0.00    -0.648 OA
ENDBRANCH  25  26
ENDBRANCH  24  25
BRANCH  24  29
HETATM   29  C10 UNL     1     -10.601   5.253   0.766  1.00  0.00     0.241 C 
HETATM   30  O5  UNL     1     -10.869   4.499   1.752  1.00  0.00    -0.271 OA
HETATM   31  N8  UNL     1     -10.344   6.592   1.014  1.00  0.00    -0.350 N 
ATOM     32  H8  UNL     1     -10.133   7.234   0.249  1.00  0.00     0.163 HD
BRANCH  31  33
HETATM   33  C11 UNL     1     -10.384   7.070   2.418  1.00  0.00     0.226 C 
BRANCH  33  34
HETATM   34  C12 UNL     1      -9.014   6.990   2.970  1.00  0.00     0.250 C 
HETATM   35  O6  UNL     1      -8.139   7.872   2.726  1.00  0.00    -0.271 OA
HETATM   36  N9  UNL     1      -8.669   5.882   3.808  1.00  0.00    -0.234 N 
ATOM     37  H9  UNL     1      -9.360   5.161   4.017  1.00  0.00     0.184 HD
BRANCH  36  38
HETATM   38  S1  UNL     1      -7.078   5.775   4.459  1.00  0.00     0.211 S 
HETATM   39  O7  UNL     1      -6.876   4.491   5.218  1.00  0.00    -0.578 OA
HETATM   40  O8  UNL     1      -6.817   6.919   5.415  1.00  0.00    -0.578 OA
HETATM   41  O9  UNL     1      -5.919   5.810   3.214  1.00  0.00    -0.578 OA
ENDBRANCH  36  38
ENDBRANCH  33  34
ENDBRANCH  31  33
ENDBRANCH  24  29
ENDBRANCH   3  24
TORSDOF 10
ENDMDL
MODEL 4
REMARK VINA RESULT: -7.486661124      2.749      4.692
REMARK  10 active torsions:
REMARK  status: ('A' for Active; 'I' for Inactive)
REMARK    1  A    between atoms: C1_2  and  C2_4 
REMARK    2  A    between atoms: N6_15  and  C5_16 
REMARK    3  A    between atoms: C5_16  and  C6_17 
REMARK       I    between atoms: C6_17  and  N7_19 
REMARK    4  A    between atoms: N7_19  and  C7_21 
REMARK    5  A    between atoms: C7_21  and  C8_22 
REMARK    6  A    between atoms: C7_21  and  C10_26 
REMARK    7  A    between atoms: C8_22  and  C9_23 
REMARK       I    between atoms: C10_26  and  N8_28 
REMARK    8  A    between atoms: N8_28  and  C11_30 
REMARK    9  A    between atoms: C11_30  and  C12_31 
REMARK       I    between atoms: C12_31  and  N9_33 
REMARK   10  A    between atoms: N9_33  and  S1_35 
ROOT
HETATM    1  C6  UNL     1      -9.313   2.249  -1.257  1.00  0.00     0.238 C 
HETATM    2  O2  UNL     1      -9.754   2.790  -2.322  1.00  0.00    -0.272 OA
HETATM    3  N7  UNL     1      -9.958   2.398  -0.010  1.00  0.00    -0.346 N 
ATOM      4  H7  UNL     1      -9.560   1.956   0.817  1.00  0.00     0.163 HD
ENDROOT
BRANCH   1   5
HETATM    5  C5  UNL     1      -8.077   1.459  -1.430  1.00  0.00     0.256 C 
BRANCH   5   6
HETATM    6  N6  UNL     1      -7.316   1.544  -0.187  1.00  0.00    -0.232 N 
HETATM    7  N5  UNL     1      -7.441   0.683   0.788  1.00  0.00    -0.237 N 
HETATM    8  N4  UNL     1      -6.755   0.750   1.917  1.00  0.00    -0.287 N 
ATOM      9  H5  UNL     1      -8.103  -0.084   0.671  1.00  0.00     0.208 HD
HETATM   10  C4  UNL     1      -5.854   1.752   2.127  1.00  0.00     0.066 A 
ATOM     11  H4  UNL     1      -6.902   0.044   2.639  1.00  0.00     0.188 HD
HETATM   12  C3  UNL     1      -5.710   2.665   1.116  1.00  0.00     0.142 A 
HETATM   13  C14 UNL     1      -5.082   1.828   3.385  1.00  0.00     0.125 A 
HETATM   14  N3  UNL     1      -4.792   3.749   1.247  1.00  0.00    -0.294 N 
HETATM   15  C13 UNL     1      -6.437   2.576  -0.057  1.00  0.00     0.293 A 
HETATM   16  N2  UNL     1      -4.059   3.842   2.426  1.00  0.00    -0.299 N 
ATOM     17  H3  UNL     1      -4.676   4.434   0.500  1.00  0.00     0.187 HD
HETATM   18  C2  UNL     1      -4.180   2.988   3.395  1.00  0.00     0.096 A 
ATOM     19  H2  UNL     1      -3.400   4.614   2.533  1.00  0.00     0.186 HD
HETATM   20  O10 UNL     1      -6.330   3.399  -1.007  1.00  0.00    -0.264 OA
BRANCH  18  21
HETATM   21  C1  UNL     1      -3.341   3.223   4.565  1.00  0.00     0.279 C 
HETATM   22  N1  UNL     1      -1.931   3.445   4.408  1.00  0.00    -0.056 NA
HETATM   23  O1  UNL     1      -3.864   3.226   5.692  1.00  0.00    -0.270 OA
ENDBRANCH  18  21
ENDBRANCH   5   6
ENDBRANCH   1   5
BRANCH   3  24
HETATM   24  C7  UNL     1     -11.211   3.192   0.116  1.00  0.00     0.186 C 
BRANCH  24  25
HETATM   25  C8  UNL     1     -12.102   2.492   1.038  1.00  0.00     0.147 C 
BRANCH  25  26
HETATM   26  C9  UNL     1     -11.527   1.617   2.053  1.00  0.00     0.175 C 
HETATM   27  O3  UNL     1     -11.606   0.364   2.106  1.00  0.00    -0.648 OA
HETATM   28  O4  UNL     1     -10.806   2.201   3.093  1.00  0.00    -0.648 OA
ENDBRANCH  25  26
ENDBRANCH  24  25
BRANCH  24  29
HETATM   29  C10 UNL     1     -10.817   4.576   0.408  1.00  0.00     0.241 C 
HETATM   30  O5  UNL     1     -11.022   5.422  -0.516  1.00  0.00    -0.271 OA
HETATM   31  N8  UNL     1     -10.245   5.020   1.590  1.00  0.00    -0.350 N 
ATOM     32  H8  UNL     1     -10.055   4.372   2.355  1.00  0.00     0.163 HD
BRANCH  31  33
HETATM   33  C11 UNL     1      -9.916   6.461   1.717  1.00  0.00     0.226 C 
BRANCH  33  34
HETATM   34  C12 UNL     1      -8.724   6.586   2.585  1.00  0.00     0.250 C 
HETATM   35  O6  UNL     1      -8.015   7.636   2.605  1.00  0.00    -0.271 OA
HETATM   36  N9  UNL     1      -8.363   5.488   3.428  1.00  0.00    -0.234 N 
ATOM     37  H9  UNL     1      -8.921   4.634   3.426  1.00  0.00     0.184 HD
BRANCH  36  38
HETATM   38  S1  UNL     1      -6.980   5.619   4.445  1.00  0.00     0.211 S 
HETATM   39  O7  UNL     1      -5.720   5.812   3.643  1.00  0.00    -0.578 OA
HETATM   40  O8  UNL     1      -6.807   4.364   5.273  1.00  0.00    -0.578 OA
HETATM   41  O9  UNL     1      -7.125   6.959   5.482  1.00  0.00    -0.578 OA
ENDBRANCH  36  38
ENDBRANCH  33  34
ENDBRANCH  31  33
ENDBRANCH  24  29
ENDBRANCH   3  24
TORSDOF 10
ENDMDL
MODEL 5
REMARK VINA RESULT: -7.440699154      2.748      5.547
REMARK  10 active torsions:
REMARK  status: ('A' for Active; 'I' for Inactive)
REMARK    1  A    between atoms: C1_2  and  C2_4 
REMARK    2  A    between atoms: N6_15  and  C5_16 
REMARK    3  A    between atoms: C5_16  and  C6_17 
REMARK       I    between atoms: C6_17  and  N7_19 
REMARK    4  A    between atoms: N7_19  and  C7_21 
REMARK    5  A    between atoms: C7_21  and  C8_22 
REMARK    6  A    between atoms: C7_21  and  C10_26 
REMARK    7  A    between atoms: C8_22  and  C9_23 
REMARK       I    between atoms: C10_26  and  N8_28 
REMARK    8  A    between atoms: N8_28  and  C11_30 
REMARK    9  A    between atoms: C11_30  and  C12_31 
REMARK       I    between atoms: C12_31  and  N9_33 
REMARK   10  A    between atoms: N9_33  and  S1_35 
ROOT
HETATM    1  C6  UNL     1      -7.220   5.572   2.291  1.00  0.00     0.238 C 
HETATM    2  O2  UNL     1      -7.222   5.432   1.025  1.00  0.00    -0.272 OA
HETATM    3  N7  UNL     1      -8.333   6.076   2.997  1.00  0.00    -0.346 N 
ATOM      4  H7  UNL     1      -8.279   6.181   4.010  1.00  0.00     0.163 HD
ENDROOT
BRANCH   1   5
HETATM    5  C5  UNL     1      -5.964   5.168   2.955  1.00  0.00     0.256 C 
BRANCH   5   6
HETATM    6  N6  UNL     1      -6.022   3.725   3.175  1.00  0.00    -0.232 N 
HETATM    7  N5  UNL     1      -7.064   2.998   2.873  1.00  0.00    -0.237 N 
HETATM    8  N4  UNL     1      -7.127   1.690   3.066  1.00  0.00    -0.287 N 
ATOM      9  H5  UNL     1      -7.875   3.464   2.466  1.00  0.00     0.208 HD
HETATM   10  C4  UNL     1      -6.073   1.015   3.605  1.00  0.00     0.066 A 
ATOM     11  H4  UNL     1      -7.974   1.183   2.809  1.00  0.00     0.188 HD
HETATM   12  C3  UNL     1      -4.969   1.761   3.928  1.00  0.00     0.142 A 
HETATM   13  C14 UNL     1      -6.135  -0.446   3.818  1.00  0.00     0.125 A 
HETATM   14  N3  UNL     1      -3.819   1.140   4.499  1.00  0.00    -0.294 N 
HETATM   15  C13 UNL     1      -4.926   3.127   3.718  1.00  0.00     0.293 A 
HETATM   16  N2  UNL     1      -3.860  -0.234   4.713  1.00  0.00    -0.299 N 
ATOM     17  H3  UNL     1      -2.993   1.686   4.742  1.00  0.00     0.187 HD
HETATM   18  C2  UNL     1      -4.894  -0.960   4.413  1.00  0.00     0.096 A 
ATOM     19  H2  UNL     1      -3.044  -0.690   5.121  1.00  0.00     0.186 HD
HETATM   20  O10 UNL     1      -3.928   3.844   4.004  1.00  0.00    -0.264 OA
BRANCH  18  21
HETATM   21  C1  UNL     1      -4.781  -2.385   4.697  1.00  0.00     0.279 C 
HETATM   22  N1  UNL     1      -4.763  -2.851   6.056  1.00  0.00    -0.056 NA
HETATM   23  O1  UNL     1      -4.700  -3.185   3.750  1.00  0.00    -0.270 OA
ENDBRANCH  18  21
ENDBRANCH   5   6
ENDBRANCH   1   5
BRANCH   3  24
HETATM   24  C7  UNL     1      -9.584   6.457   2.288  1.00  0.00     0.186 C 
BRANCH  24  25
HETATM   25  C8  UNL     1      -9.401   7.794   1.728  1.00  0.00     0.147 C 
BRANCH  25  26
HETATM   26  C9  UNL     1      -8.342   8.646   2.258  1.00  0.00     0.175 C 
HETATM   27  O3  UNL     1      -8.373   9.320   3.319  1.00  0.00    -0.648 OA
HETATM   28  O4  UNL     1      -7.155   8.748   1.536  1.00  0.00    -0.648 OA
ENDBRANCH  25  26
ENDBRANCH  24  25
BRANCH  24  29
HETATM   29  C10 UNL     1      -9.929   5.344   1.394  1.00  0.00     0.241 C 
HETATM   30  O5  UNL     1     -10.117   4.219   1.951  1.00  0.00    -0.271 OA
HETATM   31  N8  UNL     1     -10.057   5.425   0.016  1.00  0.00    -0.350 N 
ATOM     32  H8  UNL     1      -9.906   6.308  -0.472  1.00  0.00     0.163 HD
BRANCH  31  33
HETATM   33  C11 UNL     1     -10.420   4.196  -0.732  1.00  0.00     0.226 C 
BRANCH  33  34
HETATM   34  C12 UNL     1      -9.174   3.593  -1.257  1.00  0.00     0.250 C 
HETATM   35  O6  UNL     1      -8.861   3.660  -2.482  1.00  0.00    -0.271 OA
HETATM   36  N9  UNL     1      -8.297   2.916  -0.352  1.00  0.00    -0.234 N 
ATOM     37  H9  UNL     1      -8.532   2.852   0.640  1.00  0.00     0.184 HD
BRANCH  36  38
HETATM   38  S1  UNL     1      -6.844   2.211  -0.948  1.00  0.00     0.211 S 
HETATM   39  O7  UNL     1      -6.074   3.176  -1.810  1.00  0.00    -0.578 OA
HETATM   40  O8  UNL     1      -7.150   0.990  -1.788  1.00  0.00    -0.578 OA
HETATM   41  O9  UNL     1      -5.825   1.764   0.340  1.00  0.00    -0.578 OA
ENDBRANCH  36  38
ENDBRANCH  33  34
ENDBRANCH  31  33
ENDBRANCH  24  29
ENDBRANCH   3  24
TORSDOF 10
ENDMDL
