MODEL 1
REMARK VINA RESULT: -7.538024714      0.000      0.000
REMARK  13 active torsions:
REMARK  status: ('A' for Active; 'I' for Inactive)
REMARK    1  A    between atoms: C2_9  and  N5_10 
REMARK    2  A    between atoms: N5_10  and  C3_12 
REMARK    3  A    between atoms: C3_12  and  O1_13 
REMARK    4  A    between atoms: C3_12  and  C4_15 
REMARK    5  A    between atoms: C4_15  and  C5_16 
REMARK    6  A    between atoms: C4_15  and  N7_20 
REMARK    7  A    between atoms: C5_16  and  C6_17 
REMARK       I    between atoms: N7_20  and  C7_22 
REMARK    8  A    between atoms: C7_22  and  C8_24 
REMARK    9  A    between atoms: C8_24  and  C9_25 
REMARK   10  A    between atoms: C9_25  and  C10_26 
REMARK   11  A    between atoms: C10_26  and  N8_27 
REMARK   12  A    between atoms: C10_26  and  C16_43 
REMARK   13  A    between atoms: N8_27  and  C11_29 
ROOT
HETATM    1  N7  UNL     1      -6.275   3.585   3.616  1.00  0.00    -0.352 N 
ATOM      2  H7  UNL     1      -7.179   3.180   3.862  1.00  0.00     0.163 HD
HETATM    3  C7  UNL     1      -6.113   4.958   3.816  1.00  0.00     0.218 C 
HETATM    4  O3  UNL     1      -5.025   5.493   3.528  1.00  0.00    -0.274 OA
ENDROOT
BRANCH   3   5
HETATM    5  C8  UNL     1      -7.212   5.770   4.359  1.00  0.00     0.105 C 
BRANCH   5   6
HETATM    6  C9  UNL     1      -8.267   6.194   3.412  1.00  0.00     0.046 C 
BRANCH   6   7
HETATM    7  C10 UNL     1      -7.886   6.565   2.030  1.00  0.00     0.201 C 
BRANCH   7   8
HETATM    8  N8  UNL     1      -8.538   5.777   1.050  1.00  0.00    -0.209 N 
ATOM      9  H8  UNL     1      -9.420   6.192   0.752  1.00  0.00     0.178 HD
BRANCH   8  10
HETATM   10  C11 UNL     1      -8.304   4.697   0.455  1.00  0.00     0.719 A 
HETATM   11  N9  UNL     1      -7.282   4.488  -0.369  1.00  0.00    -0.138 N 
HETATM   12  C12 UNL     1      -7.128   3.263  -0.967  1.00  0.00     0.354 A 
ATOM     13  H9  UNL     1      -6.614   5.236  -0.557  1.00  0.00     0.189 HD
HETATM   14  O4  UNL     1      -6.134   3.134  -1.741  1.00  0.00    -0.245 OA
HETATM   15  N10 UNL     1      -8.004   2.275  -0.722  1.00  0.00    -0.134 N 
HETATM   16  C13 UNL     1      -7.827   0.995  -1.359  1.00  0.00     0.180 C 
HETATM   17  C14 UNL     1      -9.032   2.504   0.114  1.00  0.00     0.725 A 
HETATM   18  N11 UNL     1     -10.041   1.696   0.525  1.00  0.00    -0.184 N 
HETATM   19  N13 UNL     1      -9.204   3.679   0.705  1.00  0.00     0.091 N 
HETATM   20  C15 UNL     1     -10.832   2.395   1.375  1.00  0.00     0.216 A 
ATOM     21  H11 UNL     1     -10.181   0.726   0.241  1.00  0.00     0.185 HD
HETATM   22  N12 UNL     1     -10.281   3.618   1.461  1.00  0.00    -0.260 N 
ATOM     23  H12 UNL     1     -10.644   4.385   2.027  1.00  0.00     0.189 HD
ENDBRANCH   8  10
ENDBRANCH   7   8
BRANCH   7  24
HETATM   24  C16 UNL     1      -7.973   8.017   1.788  1.00  0.00     0.197 C 
HETATM   25  O5  UNL     1      -8.966   8.742   2.009  1.00  0.00    -0.646 OA
HETATM   26  O6  UNL     1      -6.844   8.666   1.265  1.00  0.00    -0.646 OA
ENDBRANCH   7  24
ENDBRANCH   6   7
ENDBRANCH   5   6
ENDBRANCH   3   5
BRANCH   1  27
HETATM   27  C4  UNL     1      -5.269   2.691   3.091  1.00  0.00     0.141 C 
BRANCH  27  28
HETATM   28  C3  UNL     1      -4.348   2.152   4.141  1.00  0.00     0.258 C 
BRANCH  28  29
HETATM   29  N5  UNL     1      -3.313   3.098   4.481  1.00  0.00    -0.195 N 
ATOM     30  H5  UNL     1      -3.349   3.517   5.411  1.00  0.00     0.180 HD
BRANCH  29  31
HETATM   31  C2  UNL     1      -2.342   3.459   3.706  1.00  0.00     0.713 A 
HETATM   32  N1  UNL     1      -1.041   3.528   4.136  1.00  0.00    -0.111 N 
HETATM   33  C1  UNL     1      -0.579   3.208   5.494  1.00  0.00     0.199 C 
HETATM   34  N2  UNL     1      -0.324   3.925   3.109  1.00  0.00    -0.211 N 
HETATM   35  N3  UNL     1      -1.103   4.109   2.063  1.00  0.00    -0.213 N 
ATOM     36  H2  UNL     1       0.686   4.068   3.121  1.00  0.00     0.210 HD
HETATM   37  N4  UNL     1      -2.349   3.826   2.414  1.00  0.00    -0.115 N 
ATOM     38  H3  UNL     1      -0.799   4.418   1.139  1.00  0.00     0.210 HD
ATOM     39  H4  UNL     1      -3.170   3.877   1.810  1.00  0.00     0.207 HD
ENDBRANCH  29  31
ENDBRANCH  28  29
BRANCH  28  40
HETATM   40  O1  UNL     1      -3.702   0.997   3.693  1.00  0.00    -0.374 OA
ATOM     41  H1  UNL     1      -4.330   0.288   3.770  1.00  0.00     0.212 HD
ENDBRANCH  28  40
ENDBRANCH  27  28
BRANCH  27  42
HETATM   42  C5  UNL     1      -5.842   1.659   2.166  1.00  0.00     0.129 C 
BRANCH  42  43
HETATM   43  C6  UNL     1      -6.845   0.768   2.736  1.00  0.00     0.233 C 
HETATM   44  N6  UNL     1      -6.452  -0.556   3.051  1.00  0.00    -0.062 NA
HETATM   45  O2  UNL     1      -8.041   1.063   2.976  1.00  0.00    -0.277 OA
ENDBRANCH  42  43
ENDBRANCH  27  42
ENDBRANCH   1  27
TORSDOF 13
ENDMDL
MODEL 2
REMARK VINA RESULT: -7.470743813      2.165      4.456
REMARK  13 active torsions:
REMARK  status: ('A' for Active; 'I' for Inactive)
REMARK    1  A    between atoms: C2_9  and  N5_10 
REMARK    2  A    between atoms: N5_10  and  C3_12 
REMARK    3  A    between atoms: C3_12  and  O1_13 
REMARK    4  A    between atoms: C3_12  and  C4_15 
REMARK    5  A    between atoms: C4_15  and  C5_16 
REMARK    6  A    between atoms: C4_15  and  N7_20 
REMARK    7  A    between atoms: C5_16  and  C6_17 
REMARK       I    between atoms: N7_20  and  C7_22 
REMARK    8  A    between atoms: C7_22  and  C8_24 
REMARK    9  A    between atoms: C8_24  and  C9_25 
REMARK   10  A    between atoms: C9_25  and  C10_26 
REMARK   11  A    between atoms: C10_26  and  N8_27 
REMARK   12  A    between atoms: C10_26  and  C16_43 
REMARK   13  A    between atoms: N8_27  and  C11_29 
ROOT
HETATM    1  N7  UNL     1      -5.711   2.710   2.432  1.00  0.00    -0.352 N 
ATOM      2  H7  UNL     1      -5.398   3.607   2.058  1.00  0.00     0.163 HD
HETATM    3  C7  UNL     1      -6.097   1.732   1.512  1.00  0.00     0.218 C 
HETATM    4  O3  UNL     1      -6.488   0.624   1.927  1.00  0.00    -0.274 OA
ENDROOT
BRANCH   3   5
HETATM    5  C8  UNL     1      -6.047   2.003   0.068  1.00  0.00     0.105 C 
BRANCH   5   6
HETATM    6  C9  UNL     1      -7.295   1.795  -0.700  1.00  0.00     0.046 C 
BRANCH   6   7
HETATM    7  C10 UNL     1      -8.584   2.215  -0.104  1.00  0.00     0.201 C 
BRANCH   7   8
HETATM    8  N8  UNL     1      -8.999   3.497  -0.540  1.00  0.00    -0.209 N 
ATOM      9  H8  UNL     1      -8.631   3.723  -1.464  1.00  0.00     0.178 HD
BRANCH   8  10
HETATM   10  C11 UNL     1      -9.706   4.424  -0.077  1.00  0.00     0.719 A 
HETATM   11  N9  UNL     1      -9.314   5.287   0.856  1.00  0.00    -0.138 N 
HETATM   12  C12 UNL     1     -10.177   6.262   1.288  1.00  0.00     0.354 A 
ATOM     13  H9  UNL     1      -8.374   5.224   1.249  1.00  0.00     0.189 HD
HETATM   14  O4  UNL     1      -9.738   7.049   2.179  1.00  0.00    -0.245 OA
HETATM   15  N10 UNL     1     -11.414   6.349   0.773  1.00  0.00    -0.134 N 
HETATM   16  C13 UNL     1     -12.307   7.379   1.239  1.00  0.00     0.180 C 
HETATM   17  C14 UNL     1     -11.793   5.469  -0.169  1.00  0.00     0.725 A 
HETATM   18  N11 UNL     1     -12.964   5.335  -0.842  1.00  0.00    -0.184 N 
HETATM   19  N13 UNL     1     -10.979   4.516  -0.606  1.00  0.00     0.091 N 
HETATM   20  C15 UNL     1     -12.853   4.287  -1.694  1.00  0.00     0.216 A 
ATOM     21  H11 UNL     1     -13.789   5.924  -0.725  1.00  0.00     0.185 HD
HETATM   22  N12 UNL     1     -11.610   3.806  -1.518  1.00  0.00    -0.260 N 
ATOM     23  H12 UNL     1     -11.214   3.009  -2.017  1.00  0.00     0.189 HD
ENDBRANCH   8  10
ENDBRANCH   7   8
BRANCH   7  24
HETATM   24  C16 UNL     1      -9.625   1.176  -0.215  1.00  0.00     0.197 C 
HETATM   25  O5  UNL     1     -10.627   1.214  -0.959  1.00  0.00    -0.646 OA
HETATM   26  O6  UNL     1      -9.495   0.026   0.579  1.00  0.00    -0.646 OA
ENDBRANCH   7  24
ENDBRANCH   6   7
ENDBRANCH   5   6
ENDBRANCH   3   5
BRANCH   1  27
HETATM   27  C4  UNL     1      -5.719   2.558   3.869  1.00  0.00     0.141 C 
BRANCH  27  28
HETATM   28  C3  UNL     1      -4.409   2.094   4.423  1.00  0.00     0.258 C 
BRANCH  28  29
HETATM   29  N5  UNL     1      -3.468   3.180   4.554  1.00  0.00    -0.195 N 
ATOM     30  H5  UNL     1      -3.550   3.773   5.380  1.00  0.00     0.180 HD
BRANCH  29  31
HETATM   31  C2  UNL     1      -2.528   3.465   3.712  1.00  0.00     0.713 A 
HETATM   32  N1  UNL     1      -1.201   3.459   4.058  1.00  0.00    -0.111 N 
HETATM   33  C1  UNL     1      -0.674   3.135   5.391  1.00  0.00     0.199 C 
HETATM   34  N2  UNL     1      -0.527   3.790   2.980  1.00  0.00    -0.211 N 
HETATM   35  N3  UNL     1      -1.359   4.005   1.980  1.00  0.00    -0.213 N 
ATOM     36  H2  UNL     1       0.488   3.870   2.925  1.00  0.00     0.210 HD
HETATM   37  N4  UNL     1      -2.595   3.807   2.415  1.00  0.00    -0.115 N 
ATOM     38  H3  UNL     1      -1.096   4.277   1.033  1.00  0.00     0.210 HD
ATOM     39  H4  UNL     1      -3.448   3.899   1.862  1.00  0.00     0.207 HD
ENDBRANCH  29  31
ENDBRANCH  28  29
BRANCH  28  40
HETATM   40  O1  UNL     1      -3.815   1.151   3.578  1.00  0.00    -0.374 OA
ATOM     41  H1  UNL     1      -4.462   0.471   3.434  1.00  0.00     0.212 HD
ENDBRANCH  28  40
ENDBRANCH  27  28
BRANCH  27  42
HETATM   42  C5  UNL     1      -6.316   3.742   4.570  1.00  0.00     0.129 C 
BRANCH  42  43
HETATM   43  C6  UNL     1      -6.263   5.009   3.854  1.00  0.00     0.233 C 
HETATM   44  N6  UNL     1      -5.060   5.756   3.917  1.00  0.00    -0.062 NA
HETATM   45  O2  UNL     1      -7.193   5.513   3.179  1.00  0.00    -0.277 OA
ENDBRANCH  42  43
ENDBRANCH  27  42
ENDBRANCH   1  27
TORSDOF 13
ENDMDL
MODEL 3
REMARK VINA RESULT: -7.441181572      2.191      6.534
REMARK  13 active torsions:
REMARK  status: ('A' for Active; 'I' for Inactive)
REMARK    1  A    between atoms: C2_9  and  N5_10 
REMARK    2  A    between atoms: N5_10  and  C3_12 
REMARK    3  A    between atoms: C3_12  and  O1_13 
REMARK    4  A    between atoms: C3_12  and  C4_15 
REMARK    5  A    between atoms: C4_15  and  C5_16 
REMARK    6  A    between atoms: C4_15  and  N7_20 
REMARK    7  A    between atoms: C5_16  and  C6_17 
REMARK       I    between atoms: N7_20  and  C7_22 
REMARK    8  A    between atoms: C7_22  and  C8_24 
REMARK    9  A    between atoms: C8_24  and  C9_25 
REMARK   10  A    between atoms: C9_25  and  C10_26 
REMARK   11  A    between atoms: C10_26  and  N8_27 
REMARK   12  A    between atoms: C10_26  and  C16_43 
REMARK   13  A    between atoms: N8_27  and  C11_29 
ROOT
HETATM    1  N7  UNL     1      -8.880   3.220   0.021  1.00  0.00    -0.352 N 
ATOM      2  H7  UNL     1      -9.648   3.440   0.655  1.00  0.00     0.163 HD
HETATM    3  C7  UNL     1      -7.781   4.082   0.021  1.00  0.00     0.218 C 
HETATM    4  O3  UNL     1      -6.821   3.850  -0.740  1.00  0.00    -0.274 OA
ENDROOT
BRANCH   3   5
HETATM    5  C8  UNL     1      -7.751   5.255   0.907  1.00  0.00     0.105 C 
BRANCH   5   6
HETATM    6  C9  UNL     1      -6.505   5.492   1.669  1.00  0.00     0.046 C 
BRANCH   6   7
HETATM    7  C10 UNL     1      -6.255   4.708   2.900  1.00  0.00     0.201 C 
BRANCH   7   8
HETATM    8  N8  UNL     1      -5.358   3.633   2.695  1.00  0.00    -0.209 N 
ATOM      9  H8  UNL     1      -4.648   3.856   1.997  1.00  0.00     0.178 HD
BRANCH   8  10
HETATM   10  C11 UNL     1      -5.213   2.475   3.155  1.00  0.00     0.719 A 
HETATM   11  N9  UNL     1      -5.957   1.424   2.820  1.00  0.00    -0.138 N 
HETATM   12  C12 UNL     1      -5.707   0.203   3.392  1.00  0.00     0.354 A 
ATOM     13  H9  UNL     1      -6.710   1.526   2.139  1.00  0.00     0.189 HD
HETATM   14  O4  UNL     1      -6.454  -0.754   3.027  1.00  0.00    -0.245 OA
HETATM   15  N10 UNL     1      -4.717   0.063   4.287  1.00  0.00    -0.134 N 
HETATM   16  C13 UNL     1      -4.469  -1.228   4.878  1.00  0.00     0.180 C 
HETATM   17  C14 UNL     1      -3.975   1.135   4.614  1.00  0.00     0.725 A 
HETATM   18  N11 UNL     1      -2.934   1.268   5.475  1.00  0.00    -0.184 N 
HETATM   19  N13 UNL     1      -4.194   2.329   4.077  1.00  0.00     0.091 N 
HETATM   20  C15 UNL     1      -2.523   2.559   5.455  1.00  0.00     0.216 A 
ATOM     21  H11 UNL     1      -2.531   0.522   6.042  1.00  0.00     0.185 HD
HETATM   22  N12 UNL     1      -3.327   3.183   4.578  1.00  0.00    -0.260 N 
ATOM     23  H12 UNL     1      -3.274   4.173   4.336  1.00  0.00     0.189 HD
ENDBRANCH   8  10
ENDBRANCH   7   8
BRANCH   7  24
HETATM   24  C16 UNL     1      -5.918   5.560   4.056  1.00  0.00     0.197 C 
HETATM   25  O5  UNL     1      -6.727   6.045   4.875  1.00  0.00    -0.646 OA
HETATM   26  O6  UNL     1      -4.566   5.864   4.278  1.00  0.00    -0.646 OA
ENDBRANCH   7  24
ENDBRANCH   6   7
ENDBRANCH   5   6
ENDBRANCH   3   5
BRANCH   1  27
HETATM   27  C4  UNL     1      -9.018   2.040  -0.803  1.00  0.00     0.141 C 
BRANCH  27  28
HETATM   28  C3  UNL     1      -8.908   0.763  -0.032  1.00  0.00     0.258 C 
BRANCH  28  29
HETATM   29  N5  UNL     1      -9.835   0.723   1.073  1.00  0.00    -0.195 N 
ATOM     30  H5  UNL     1     -10.769   1.100   0.915  1.00  0.00     0.180 HD
BRANCH  29  31
HETATM   31  C2  UNL     1      -9.579   0.249   2.250  1.00  0.00     0.713 A 
HETATM   32  N1  UNL     1      -9.465   1.050   3.358  1.00  0.00    -0.111 N 
HETATM   33  C1  UNL     1      -9.617   2.511   3.367  1.00  0.00     0.199 C 
HETATM   34  N2  UNL     1      -9.204   0.256   4.372  1.00  0.00    -0.211 N 
HETATM   35  N3  UNL     1      -9.146  -0.994   3.960  1.00  0.00    -0.213 N 
ATOM     36  H2  UNL     1      -9.066   0.562   5.335  1.00  0.00     0.210 HD
HETATM   37  N4  UNL     1      -9.375  -1.015   2.655  1.00  0.00    -0.115 N 
ATOM     38  H3  UNL     1      -8.956  -1.808   4.545  1.00  0.00     0.210 HD
ATOM     39  H4  UNL     1      -9.395  -1.845   2.062  1.00  0.00     0.207 HD
ENDBRANCH  29  31
ENDBRANCH  28  29
BRANCH  28  40
HETATM   40  O1  UNL     1      -7.630   0.616   0.512  1.00  0.00    -0.374 OA
ATOM     41  H1  UNL     1      -7.369  -0.283   0.355  1.00  0.00     0.212 HD
ENDBRANCH  28  40
ENDBRANCH  27  28
BRANCH  27  42
HETATM   42  C5  UNL     1     -10.196   2.120  -1.727  1.00  0.00     0.129 C 
BRANCH  42  43
HETATM   43  C6  UNL     1     -11.285   2.994  -1.311  1.00  0.00     0.233 C 
HETATM   44  N6  UNL     1     -12.159   2.528  -0.298  1.00  0.00    -0.062 NA
HETATM   45  O2  UNL     1     -11.530   4.136  -1.771  1.00  0.00    -0.277 OA
ENDBRANCH  42  43
ENDBRANCH  27  42
ENDBRANCH   1  27
TORSDOF 13
ENDMDL
MODEL 4
REMARK VINA RESULT: -7.398658228      2.147      6.440
REMARK  13 active torsions:
REMARK  status: ('A' for Active; 'I' for Inactive)
REMARK    1  A    between atoms: C2_9  and  N5_10 
REMARK    2  A    between atoms: N5_10  and  C3_12 
REMARK    3  A    between atoms: C3_12  and  O1_13 
REMARK    4  A    between atoms: C3_12  and  C4_15 
REMARK    5  A    between atoms: C4_15  and  C5_16 
REMARK    6  A    between atoms: C4_15  and  N7_20 
REMARK    7  A    between atoms: C5_16  and  C6_17 
REMARK       I    between atoms: N7_20  and  C7_22 
REMARK    8  A    between atoms: C7_22  and  C8_24 
REMARK    9  A    between atoms: C8_24  and  C9_25 
REMARK   10  A    between atoms: C9_25  and  C10_26 
REMARK   11  A    between atoms: C10_26  and  N8_27 
REMARK   12  A    between atoms: C10_26  and  C16_43 
REMARK   13  A    between atoms: N8_27  and  C11_29 
ROOT
HETATM    1  N7  UNL     1      -8.301   2.803   0.304  1.00  0.00    -0.352 N 
ATOM      2  H7  UNL     1      -8.886   3.610   0.521  1.00  0.00     0.163 HD
HETATM    3  C7  UNL     1      -6.923   3.014   0.220  1.00  0.00     0.218 C 
HETATM    4  O3  UNL     1      -6.172   2.054  -0.044  1.00  0.00    -0.274 OA
ENDROOT
BRANCH   3   5
HETATM    5  C8  UNL     1      -6.357   4.353   0.438  1.00  0.00     0.105 C 
BRANCH   5   6
HETATM    6  C9  UNL     1      -6.501   4.933   1.793  1.00  0.00     0.046 C 
BRANCH   6   7
HETATM    7  C10 UNL     1      -6.267   4.069   2.973  1.00  0.00     0.201 C 
BRANCH   7   8
HETATM    8  N8  UNL     1      -5.145   3.219   2.819  1.00  0.00    -0.209 N 
ATOM      9  H8  UNL     1      -5.384   2.359   2.324  1.00  0.00     0.178 HD
BRANCH   8  10
HETATM   10  C11 UNL     1      -3.932   3.256   3.135  1.00  0.00     0.719 A 
HETATM   11  N9  UNL     1      -2.978   3.851   2.427  1.00  0.00    -0.138 N 
HETATM   12  C12 UNL     1      -1.680   3.825   2.872  1.00  0.00     0.354 A 
ATOM     13  H9  UNL     1      -3.209   4.327   1.554  1.00  0.00     0.189 HD
HETATM   14  O4  UNL     1      -0.823   4.411   2.147  1.00  0.00    -0.245 OA
HETATM   15  N10 UNL     1      -1.371   3.201   4.020  1.00  0.00    -0.134 N 
HETATM   16  C13 UNL     1      -0.003   3.183   4.473  1.00  0.00     0.180 C 
HETATM   17  C14 UNL     1      -2.348   2.604   4.724  1.00  0.00     0.725 A 
HETATM   18  N11 UNL     1      -2.310   1.916   5.893  1.00  0.00    -0.184 N 
HETATM   19  N13 UNL     1      -3.611   2.614   4.317  1.00  0.00     0.091 N 
HETATM   20  C15 UNL     1      -3.566   1.507   6.192  1.00  0.00     0.216 A 
ATOM     21  H11 UNL     1      -1.475   1.737   6.452  1.00  0.00     0.185 HD
HETATM   22  N12 UNL     1      -4.343   1.959   5.193  1.00  0.00    -0.260 N 
ATOM     23  H12 UNL     1      -5.351   1.814   5.123  1.00  0.00     0.189 HD
ENDBRANCH   8  10
ENDBRANCH   7   8
BRANCH   7  24
HETATM   24  C16 UNL     1      -6.279   4.824   4.239  1.00  0.00     0.197 C 
HETATM   25  O5  UNL     1      -6.104   6.055   4.365  1.00  0.00    -0.646 OA
HETATM   26  O6  UNL     1      -6.511   4.114   5.427  1.00  0.00    -0.646 OA
ENDBRANCH   7  24
ENDBRANCH   6   7
ENDBRANCH   5   6
ENDBRANCH   3   5
BRANCH   1  27
HETATM   27  C4  UNL     1      -8.967   1.535   0.111  1.00  0.00     0.141 C 
BRANCH  27  28
HETATM   28  C3  UNL     1      -9.449   0.917   1.385  1.00  0.00     0.258 C 
BRANCH  28  29
HETATM   29  N5  UNL     1      -8.571   1.215   2.490  1.00  0.00    -0.195 N 
ATOM     30  H5  UNL     1      -8.690   2.117   2.953  1.00  0.00     0.180 HD
BRANCH  29  31
HETATM   31  C2  UNL     1      -7.644   0.435   2.944  1.00  0.00     0.713 A 
HETATM   32  N1  UNL     1      -7.753  -0.218   4.146  1.00  0.00    -0.111 N 
HETATM   33  C1  UNL     1      -8.902  -0.129   5.058  1.00  0.00     0.199 C 
HETATM   34  N2  UNL     1      -6.650  -0.915   4.298  1.00  0.00    -0.211 N 
HETATM   35  N3  UNL     1      -5.858  -0.734   3.261  1.00  0.00    -0.213 N 
ATOM     36  H2  UNL     1      -6.438  -1.509   5.100  1.00  0.00     0.210 HD
HETATM   37  N4  UNL     1      -6.456   0.095   2.417  1.00  0.00    -0.115 N 
ATOM     38  H3  UNL     1      -4.940  -1.159   3.129  1.00  0.00     0.210 HD
ATOM     39  H4  UNL     1      -6.082   0.417   1.525  1.00  0.00     0.207 HD
ENDBRANCH  29  31
ENDBRANCH  28  29
BRANCH  28  40
HETATM   40  O1  UNL     1      -9.497  -0.475   1.278  1.00  0.00    -0.374 OA
ATOM     41  H1  UNL     1     -10.098  -0.672   0.569  1.00  0.00     0.212 HD
ENDBRANCH  28  40
ENDBRANCH  27  28
BRANCH  27  42
HETATM   42  C5  UNL     1      -9.984   1.582  -0.991  1.00  0.00     0.129 C 
BRANCH  42  43
HETATM   43  C6  UNL     1      -9.889   2.709  -1.909  1.00  0.00     0.233 C 
HETATM   44  N6  UNL     1     -10.811   3.773  -1.750  1.00  0.00    -0.062 NA
HETATM   45  O2  UNL     1      -9.059   2.831  -2.842  1.00  0.00    -0.277 OA
ENDBRANCH  42  43
ENDBRANCH  27  42
ENDBRANCH   1  27
TORSDOF 13
ENDMDL
MODEL 5
REMARK VINA RESULT: -7.375690113      1.940      3.992
REMARK  13 active torsions:
REMARK  status: ('A' for Active; 'I' for Inactive)
REMARK    1  A    between atoms: C2_9  and  N5_10 
REMARK    2  A    between atoms: N5_10  and  C3_12 
REMARK    3  A    between atoms: C3_12  and  O1_13 
REMARK    4  A    between atoms: C3_12  and  C4_15 
REMARK    5  A    between atoms: C4_15  and  C5_16 
REMARK    6  A    between atoms: C4_15  and  N7_20 
REMARK    7  A    between atoms: C5_16  and  C6_17 
REMARK       I    between atoms: N7_20  and  C7_22 
REMARK    8  A    between atoms: C7_22  and  C8_24 
REMARK    9  A    between atoms: C8_24  and  C9_25 
REMARK   10  A    between atoms: C9_25  and  C10_26 
REMARK   11  A    between atoms: C10_26  and  N8_27 
REMARK   12  A    between atoms: C10_26  and  C16_43 
REMARK   13  A    between atoms: N8_27  and  C11_29 
ROOT
HETATM    1  N7  UNL     1      -5.719   2.738   2.493  1.00  0.00    -0.352 N 
ATOM      2  H7  UNL     1      -5.411   3.638   2.122  1.00  0.00     0.163 HD
HETATM    3  C7  UNL     1      -6.127   1.770   1.572  1.00  0.00     0.218 C 
HETATM    4  O3  UNL     1      -6.511   0.658   1.984  1.00  0.00    -0.274 OA
ENDROOT
BRANCH   3   5
HETATM    5  C8  UNL     1      -6.106   2.055   0.130  1.00  0.00     0.105 C 
BRANCH   5   6
HETATM    6  C9  UNL     1      -6.936   3.185  -0.345  1.00  0.00     0.046 C 
BRANCH   6   7
HETATM    7  C10 UNL     1      -8.379   2.964  -0.591  1.00  0.00     0.201 C 
BRANCH   7   8
HETATM    8  N8  UNL     1      -9.136   2.899   0.604  1.00  0.00    -0.209 N 
ATOM      9  H8  UNL     1      -9.109   3.778   1.121  1.00  0.00     0.178 HD
BRANCH   8  10
HETATM   10  C11 UNL     1      -9.833   2.034   1.188  1.00  0.00     0.719 A 
HETATM   11  N9  UNL     1      -9.420   0.810   1.503  1.00  0.00    -0.138 N 
HETATM   12  C12 UNL     1     -10.274  -0.054   2.141  1.00  0.00     0.354 A 
ATOM     13  H9  UNL     1      -8.471   0.514   1.271  1.00  0.00     0.189 HD
HETATM   14  O4  UNL     1      -9.815  -1.204   2.410  1.00  0.00    -0.245 OA
HETATM   15  N10 UNL     1     -11.522   0.331   2.449  1.00  0.00    -0.134 N 
HETATM   16  C13 UNL     1     -12.405  -0.589   3.119  1.00  0.00     0.180 C 
HETATM   17  C14 UNL     1     -11.923   1.573   2.123  1.00  0.00     0.725 A 
HETATM   18  N11 UNL     1     -13.109   2.203   2.314  1.00  0.00    -0.184 N 
HETATM   19  N13 UNL     1     -11.119   2.429   1.506  1.00  0.00     0.091 N 
HETATM   20  C15 UNL     1     -13.017   3.455   1.804  1.00  0.00     0.216 A 
ATOM     21  H11 UNL     1     -13.932   1.802   2.765  1.00  0.00     0.185 HD
HETATM   22  N12 UNL     1     -11.770   3.556   1.313  1.00  0.00    -0.260 N 
ATOM     23  H12 UNL     1     -11.385   4.384   0.857  1.00  0.00     0.189 HD
ENDBRANCH   8  10
ENDBRANCH   7   8
BRANCH   7  24
HETATM   24  C16 UNL     1      -8.930   3.886  -1.602  1.00  0.00     0.197 C 
HETATM   25  O5  UNL     1      -8.348   4.280  -2.634  1.00  0.00    -0.646 OA
HETATM   26  O6  UNL     1     -10.231   4.375  -1.407  1.00  0.00    -0.646 OA
ENDBRANCH   7  24
ENDBRANCH   6   7
ENDBRANCH   5   6
ENDBRANCH   3   5
BRANCH   1  27
HETATM   27  C4  UNL     1      -5.696   2.571   3.928  1.00  0.00     0.141 C 
BRANCH  27  28
HETATM   28  C3  UNL     1      -4.382   2.078   4.447  1.00  0.00     0.258 C 
BRANCH  28  29
HETATM   29  N5  UNL     1      -3.422   3.148   4.579  1.00  0.00    -0.195 N 
ATOM     30  H5  UNL     1      -3.465   3.713   5.426  1.00  0.00     0.180 HD
BRANCH  29  31
HETATM   31  C2  UNL     1      -2.512   3.450   3.710  1.00  0.00     0.713 A 
HETATM   32  N1  UNL     1      -1.177   3.481   4.023  1.00  0.00    -0.111 N 
HETATM   33  C1  UNL     1      -0.608   3.183   5.345  1.00  0.00     0.199 C 
HETATM   34  N2  UNL     1      -0.540   3.822   2.925  1.00  0.00    -0.211 N 
HETATM   35  N3  UNL     1      -1.401   4.006   1.946  1.00  0.00    -0.213 N 
ATOM     36  H2  UNL     1       0.472   3.927   2.844  1.00  0.00     0.210 HD
HETATM   37  N4  UNL     1      -2.621   3.780   2.413  1.00  0.00    -0.115 N 
ATOM     38  H3  UNL     1      -1.169   4.277   0.990  1.00  0.00     0.210 HD
ATOM     39  H4  UNL     1      -3.489   3.845   1.882  1.00  0.00     0.207 HD
ENDBRANCH  29  31
ENDBRANCH  28  29
BRANCH  28  40
HETATM   40  O1  UNL     1      -3.820   1.143   3.574  1.00  0.00    -0.374 OA
ATOM     41  H1  UNL     1      -3.131   0.701   4.056  1.00  0.00     0.212 HD
ENDBRANCH  28  40
ENDBRANCH  27  28
BRANCH  27  42
HETATM   42  C5  UNL     1      -6.255   3.758   4.655  1.00  0.00     0.129 C 
BRANCH  42  43
HETATM   43  C6  UNL     1      -6.249   5.021   3.927  1.00  0.00     0.233 C 
HETATM   44  N6  UNL     1      -5.051   5.777   3.922  1.00  0.00    -0.062 NA
HETATM   45  O2  UNL     1      -7.217   5.512   3.297  1.00  0.00    -0.277 OA
ENDBRANCH  42  43
ENDBRANCH  27  42
ENDBRANCH   1  27
TORSDOF 13
ENDMDL
