MODEL 1
REMARK VINA RESULT: -7.068918865      0.000      0.000
REMARK  4 active torsions:
REMARK  status: ('A' for Active; 'I' for Inactive)
REMARK    1  A    between atoms: O1_2  and  C2_3 
REMARK       I    between atoms: C2_3  and  N1_5 
REMARK    2  A    between atoms: N1_5  and  C3_7 
REMARK    3  A    between atoms: C3_7  and  C4_8 
REMARK    4  A    between atoms: C4_8  and  N2_9 
ROOT
HETATM    1  N2  UNL     1      -3.428   2.844  11.865  1.00  0.00    -0.381 N 
HETATM    2  C5  UNL     1      -2.058   3.139  12.066  1.00  0.00     0.146 C 
HETATM    3  C6  UNL     1      -1.927   4.461  12.766  1.00  0.00     0.153 C 
HETATM    4 CL1  UNL     1      -2.238   4.177  14.500  1.00  0.00    -0.117 Cl
HETATM    5  C7  UNL     1      -2.858   5.438  12.192  1.00  0.00     0.074 A 
HETATM    6  C8  UNL     1      -2.927   6.819  12.411  1.00  0.00     0.130 A 
HETATM    7 CL2  UNL     1      -1.943   7.830  13.426  1.00  0.00    -0.062 Cl
HETATM    8  N3  UNL     1      -3.948   7.245  11.654  1.00  0.00    -0.321 N 
ATOM      9  H3  UNL     1      -4.267   8.212  11.586  1.00  0.00     0.169 HD
HETATM   10  C9  UNL     1      -4.494   6.191  10.993  1.00  0.00     0.184 A 
HETATM   11 CL3  UNL     1      -5.865   6.374   9.897  1.00  0.00    -0.044 Cl
HETATM   12  N4  UNL     1      -3.817   5.090  11.331  1.00  0.00    -0.306 N 
HETATM   13  C10 UNL     1      -4.006   3.703  10.900  1.00  0.00     0.253 C 
ENDROOT
BRANCH   1  14
HETATM   14  C4  UNL     1      -3.866   1.517  11.983  1.00  0.00     0.079 A 
HETATM   15  C11 UNL     1      -4.849   1.057  10.901  1.00  0.00     0.075 A 
HETATM   16  C12 UNL     1      -3.458   0.604  10.812  1.00  0.00     0.202 A 
HETATM   17  F1  UNL     1      -3.248  -0.735  11.064  1.00  0.00    -0.247 F 
BRANCH  14  18
HETATM   18  C3  UNL     1      -3.940   0.763  13.280  1.00  0.00     0.158 C 
BRANCH  18  19
HETATM   19  N1  UNL     1      -4.535   1.574  14.306  1.00  0.00    -0.334 N 
HETATM   20  C2  UNL     1      -4.372   1.230  15.701  1.00  0.00     0.360 C 
HETATM   21  O2  UNL     1      -3.700   0.208  15.985  1.00  0.00    -0.239 OA
ATOM     22  H1  UNL     1      -5.077   2.400  14.048  1.00  0.00     0.164 HD
BRANCH  20  23
HETATM   23  O1  UNL     1      -4.921   1.975  16.713  1.00  0.00    -0.309 OA
HETATM   24  C1  UNL     1      -6.023   1.519  17.490  1.00  0.00     0.215 C 
ENDBRANCH  20  23
ENDBRANCH  18  19
ENDBRANCH  14  18
ENDBRANCH   1  14
TORSDOF 4
ENDMDL
MODEL 2
REMARK VINA RESULT: -6.987974540      1.802      1.896
REMARK  4 active torsions:
REMARK  status: ('A' for Active; 'I' for Inactive)
REMARK    1  A    between atoms: O1_2  and  C2_3 
REMARK       I    between atoms: C2_3  and  N1_5 
REMARK    2  A    between atoms: N1_5  and  C3_7 
REMARK    3  A    between atoms: C3_7  and  C4_8 
REMARK    4  A    between atoms: C4_8  and  N2_9 
ROOT
HETATM    1  N2  UNL     1      -3.468   2.250  11.839  1.00  0.00    -0.381 N 
HETATM    2  C5  UNL     1      -2.861   2.800  10.685  1.00  0.00     0.146 C 
HETATM    3  C6  UNL     1      -1.877   3.859  11.090  1.00  0.00     0.153 C 
HETATM    4 CL1  UNL     1      -0.389   3.028  11.617  1.00  0.00    -0.117 Cl
HETATM    5  C7  UNL     1      -2.442   4.701  12.150  1.00  0.00     0.074 A 
HETATM    6  C8  UNL     1      -1.949   5.903  12.672  1.00  0.00     0.130 A 
HETATM    7 CL2  UNL     1      -0.518   6.792  12.245  1.00  0.00    -0.062 Cl
HETATM    8  N3  UNL     1      -2.829   6.265  13.616  1.00  0.00    -0.321 N 
ATOM      9  H3  UNL     1      -2.763   7.104  14.192  1.00  0.00     0.169 HD
HETATM   10  C9  UNL     1      -3.824   5.342  13.686  1.00  0.00     0.184 A 
HETATM   11 CL3  UNL     1      -5.168   5.490  14.820  1.00  0.00    -0.044 Cl
HETATM   12  N4  UNL     1      -3.575   4.389  12.783  1.00  0.00    -0.306 N 
HETATM   13  C10 UNL     1      -4.335   3.180  12.461  1.00  0.00     0.253 C 
ENDROOT
BRANCH   1  14
HETATM   14  C4  UNL     1      -3.762   0.879  11.870  1.00  0.00     0.079 A 
HETATM   15  C11 UNL     1      -4.383   0.317  10.586  1.00  0.00     0.075 A 
HETATM   16  C12 UNL     1      -2.971   0.034  10.854  1.00  0.00     0.202 A 
HETATM   17  F1  UNL     1      -2.673  -1.273  11.175  1.00  0.00    -0.247 F 
BRANCH  14  18
HETATM   18  C3  UNL     1      -4.067   0.106  13.121  1.00  0.00     0.158 C 
BRANCH  18  19
HETATM   19  N1  UNL     1      -4.059   0.973  14.268  1.00  0.00    -0.334 N 
HETATM   20  C2  UNL     1      -4.486   0.485  15.560  1.00  0.00     0.360 C 
HETATM   21  O2  UNL     1      -4.860  -0.711  15.649  1.00  0.00    -0.239 OA
ATOM     22  H1  UNL     1      -3.750   1.940  14.169  1.00  0.00     0.164 HD
BRANCH  20  23
HETATM   23  O1  UNL     1      -4.494   1.275  16.681  1.00  0.00    -0.309 OA
HETATM   24  C1  UNL     1      -5.631   1.391  17.528  1.00  0.00     0.215 C 
ENDBRANCH  20  23
ENDBRANCH  18  19
ENDBRANCH  14  18
ENDBRANCH   1  14
TORSDOF 4
ENDMDL
MODEL 3
REMARK VINA RESULT: -6.772752717      1.792      2.595
REMARK  4 active torsions:
REMARK  status: ('A' for Active; 'I' for Inactive)
REMARK    1  A    between atoms: O1_2  and  C2_3 
REMARK       I    between atoms: C2_3  and  N1_5 
REMARK    2  A    between atoms: N1_5  and  C3_7 
REMARK    3  A    between atoms: C3_7  and  C4_8 
REMARK    4  A    between atoms: C4_8  and  N2_9 
ROOT
HETATM    1  N2  UNL     1      -3.326   3.098  12.121  1.00  0.00    -0.381 N 
HETATM    2  C5  UNL     1      -3.915   4.122  12.902  1.00  0.00     0.146 C 
HETATM    3  C6  UNL     1      -3.686   5.451  12.242  1.00  0.00     0.153 C 
HETATM    4 CL1  UNL     1      -4.886   5.604  10.929  1.00  0.00    -0.117 Cl
HETATM    5  C7  UNL     1      -2.310   5.544  11.743  1.00  0.00     0.074 A 
HETATM    6  C8  UNL     1      -1.631   6.662  11.245  1.00  0.00     0.130 A 
HETATM    7 CL2  UNL     1      -2.183   8.299  11.053  1.00  0.00    -0.062 Cl
HETATM    8  N3  UNL     1      -0.407   6.218  10.925  1.00  0.00    -0.321 N 
ATOM      9  H3  UNL     1       0.341   6.788  10.531  1.00  0.00     0.169 HD
HETATM   10  C9  UNL     1      -0.319   4.891  11.204  1.00  0.00     0.184 A 
HETATM   11 CL3  UNL     1       1.153   3.963  10.912  1.00  0.00    -0.044 Cl
HETATM   12  N4  UNL     1      -1.491   4.491  11.705  1.00  0.00    -0.306 N 
HETATM   13  C10 UNL     1      -1.914   3.164  12.160  1.00  0.00     0.253 C 
ENDROOT
BRANCH   1  14
HETATM   14  C4  UNL     1      -3.974   1.858  12.020  1.00  0.00     0.079 A 
HETATM   15  C11 UNL     1      -5.166   1.822  11.058  1.00  0.00     0.075 A 
HETATM   16  C12 UNL     1      -3.906   1.215  10.623  1.00  0.00     0.202 A 
HETATM   17  F1  UNL     1      -3.905  -0.161  10.531  1.00  0.00    -0.247 F 
BRANCH  14  18
HETATM   18  C3  UNL     1      -4.000   0.825  13.110  1.00  0.00     0.158 C 
BRANCH  18  19
HETATM   19  N1  UNL     1      -4.110   1.450  14.400  1.00  0.00    -0.334 N 
HETATM   20  C2  UNL     1      -4.459   0.670  15.567  1.00  0.00     0.360 C 
HETATM   21  O2  UNL     1      -4.662  -0.561  15.418  1.00  0.00    -0.239 OA
ATOM     22  H1  UNL     1      -3.940   2.451  14.493  1.00  0.00     0.164 HD
BRANCH  20  23
HETATM   23  O1  UNL     1      -4.575   1.223  16.815  1.00  0.00    -0.309 OA
HETATM   24  C1  UNL     1      -5.812   1.282  17.516  1.00  0.00     0.215 C 
ENDBRANCH  20  23
ENDBRANCH  18  19
ENDBRANCH  14  18
ENDBRANCH   1  14
TORSDOF 4
ENDMDL
MODEL 4
REMARK VINA RESULT: -6.683431153      3.585      5.949
REMARK  4 active torsions:
REMARK  status: ('A' for Active; 'I' for Inactive)
REMARK    1  A    between atoms: O1_2  and  C2_3 
REMARK       I    between atoms: C2_3  and  N1_5 
REMARK    2  A    between atoms: N1_5  and  C3_7 
REMARK    3  A    between atoms: C3_7  and  C4_8 
REMARK    4  A    between atoms: C4_8  and  N2_9 
ROOT
HETATM    1  N2  UNL     1      -3.380   3.784  11.762  1.00  0.00    -0.381 N 
HETATM    2  C5  UNL     1      -4.264   4.444  12.649  1.00  0.00     0.146 C 
HETATM    3  C6  UNL     1      -4.213   3.781  13.995  1.00  0.00     0.153 C 
HETATM    4 CL1  UNL     1      -2.751   4.379  14.826  1.00  0.00    -0.117 Cl
HETATM    5  C7  UNL     1      -4.204   2.323  13.847  1.00  0.00     0.074 A 
HETATM    6  C8  UNL     1      -4.356   1.339  14.831  1.00  0.00     0.130 A 
HETATM    7 CL2  UNL     1      -4.602   1.514  16.543  1.00  0.00    -0.062 Cl
HETATM    8  N3  UNL     1      -4.270   0.171  14.179  1.00  0.00    -0.321 N 
ATOM      9  H3  UNL     1      -4.340  -0.751  14.611  1.00  0.00     0.169 HD
HETATM   10  C9  UNL     1      -4.076   0.404  12.855  1.00  0.00     0.184 A 
HETATM   11 CL3  UNL     1      -3.917  -0.904  11.681  1.00  0.00    -0.044 Cl
HETATM   12  N4  UNL     1      -4.037   1.726  12.664  1.00  0.00    -0.306 N 
HETATM   13  C10 UNL     1      -3.850   2.491  11.430  1.00  0.00     0.253 C 
ENDROOT
BRANCH   1  14
HETATM   14  C4  UNL     1      -2.663   4.539  10.823  1.00  0.00     0.079 A 
HETATM   15  C11 UNL     1      -1.598   5.470  11.412  1.00  0.00     0.075 A 
HETATM   16  C12 UNL     1      -1.156   4.229  10.772  1.00  0.00     0.202 A 
HETATM   17  F1  UNL     1      -0.494   4.378   9.572  1.00  0.00    -0.247 F 
BRANCH  14  18
HETATM   18  C3  UNL     1      -3.196   4.945   9.479  1.00  0.00     0.158 C 
BRANCH  18  19
HETATM   19  N1  UNL     1      -3.678   6.299   9.511  1.00  0.00    -0.334 N 
HETATM   20  C2  UNL     1      -5.083   6.574   9.713  1.00  0.00     0.360 C 
HETATM   21  O2  UNL     1      -5.863   5.600   9.859  1.00  0.00    -0.239 OA
ATOM     22  H1  UNL     1      -3.023   7.072   9.390  1.00  0.00     0.164 HD
BRANCH  20  23
HETATM   23  O1  UNL     1      -5.587   7.848   9.751  1.00  0.00    -0.309 OA
HETATM   24  C1  UNL     1      -6.423   8.311  10.805  1.00  0.00     0.215 C 
ENDBRANCH  20  23
ENDBRANCH  18  19
ENDBRANCH  14  18
ENDBRANCH   1  14
TORSDOF 4
ENDMDL
MODEL 5
REMARK VINA RESULT: -6.627150899      2.647      3.573
REMARK  4 active torsions:
REMARK  status: ('A' for Active; 'I' for Inactive)
REMARK    1  A    between atoms: O1_2  and  C2_3 
REMARK       I    between atoms: C2_3  and  N1_5 
REMARK    2  A    between atoms: N1_5  and  C3_7 
REMARK    3  A    between atoms: C3_7  and  C4_8 
REMARK    4  A    between atoms: C4_8  and  N2_9 
ROOT
HETATM    1  N2  UNL     1      -3.699   4.410  12.722  1.00  0.00    -0.381 N 
HETATM    2  C5  UNL     1      -2.309   4.627  12.868  1.00  0.00     0.146 C 
HETATM    3  C6  UNL     1      -2.027   6.103  12.865  1.00  0.00     0.153 C 
HETATM    4 CL1  UNL     1      -2.411   6.719  14.495  1.00  0.00    -0.117 Cl
HETATM    5  C7  UNL     1      -2.815   6.771  11.824  1.00  0.00     0.074 A 
HETATM    6  C8  UNL     1      -2.715   8.086  11.355  1.00  0.00     0.130 A 
HETATM    7 CL2  UNL     1      -1.634   9.357  11.845  1.00  0.00    -0.062 Cl
HETATM    8  N3  UNL     1      -3.656   8.196  10.408  1.00  0.00    -0.321 N 
ATOM      9  H3  UNL     1      -3.849   9.037   9.864  1.00  0.00     0.169 HD
HETATM   10  C9  UNL     1      -4.316   7.014  10.284  1.00  0.00     0.184 A 
HETATM   11 CL3  UNL     1      -5.627   6.784   9.127  1.00  0.00    -0.044 Cl
HETATM   12  N4  UNL     1      -3.791   6.150  11.158  1.00  0.00    -0.306 N 
HETATM   13  C10 UNL     1      -4.143   4.753  11.422  1.00  0.00     0.253 C 
ENDROOT
BRANCH   1  14
HETATM   14  C4  UNL     1      -4.304   3.354  13.420  1.00  0.00     0.079 A 
HETATM   15  C11 UNL     1      -3.899   3.232  14.893  1.00  0.00     0.075 A 
HETATM   16  C12 UNL     1      -5.215   3.796  14.580  1.00  0.00     0.202 A 
HETATM   17  F1  UNL     1      -6.297   3.006  14.905  1.00  0.00    -0.247 F 
BRANCH  14  18
HETATM   18  C3  UNL     1      -4.788   2.085  12.781  1.00  0.00     0.158 C 
BRANCH  18  19
HETATM   19  N1  UNL     1      -3.699   1.170  12.578  1.00  0.00    -0.334 N 
HETATM   20  C2  UNL     1      -3.752   0.187  11.519  1.00  0.00     0.360 C 
HETATM   21  O2  UNL     1      -4.773   0.159  10.787  1.00  0.00    -0.239 OA
ATOM     22  H1  UNL     1      -2.881   1.214  13.186  1.00  0.00     0.164 HD
BRANCH  20  23
HETATM   23  O1  UNL     1      -2.737  -0.705  11.288  1.00  0.00    -0.309 OA
HETATM   24  C1  UNL     1      -2.934  -2.114  11.310  1.00  0.00     0.215 C 
ENDBRANCH  20  23
ENDBRANCH  18  19
ENDBRANCH  14  18
ENDBRANCH   1  14
TORSDOF 4
ENDMDL
