MODEL 1
REMARK VINA RESULT: -7.613691619      0.000      0.000
REMARK  5 active torsions:
REMARK  status: ('A' for Active; 'I' for Inactive)
REMARK    1  A    between atoms: O1_1  and  C1_3 
REMARK    2  A    between atoms: C1_3  and  C2_4 
REMARK    3  A    between atoms: N1_6  and  C4_7 
REMARK    4  A    between atoms: C9_16  and  C10_17 
REMARK    5  A    between atoms: N4_20  and  C11_21 
ROOT
HETATM    1  C2  UNL     1      -3.656   4.091  13.979  1.00  0.00     0.122 C 
HETATM    2  C3  UNL     1      -3.290   4.940  12.749  1.00  0.00     0.168 C 
HETATM    3  N1  UNL     1      -4.165   4.728  11.641  1.00  0.00    -0.213 N 
HETATM    4  C8  UNL     1      -4.490   3.389  11.263  1.00  0.00     0.171 C 
HETATM    5  C9  UNL     1      -3.747   2.482  12.247  1.00  0.00     0.163 C 
HETATM    6  N4  UNL     1      -3.978   2.775  13.597  1.00  0.00    -0.389 N 
ENDROOT
BRANCH   3   7
HETATM    7  C4  UNL     1      -4.704   5.823  10.927  1.00  0.00     0.679 A 
HETATM    8  N2  UNL     1      -5.458   6.771  11.544  1.00  0.00    -0.202 N 
HETATM    9  C5  UNL     1      -5.973   7.813  10.879  1.00  0.00     0.107 A 
ATOM     10  H2  UNL     1      -5.638   6.685  12.544  1.00  0.00     0.183 HD
HETATM   11  C6  UNL     1      -5.756   7.967   9.521  1.00  0.00     0.035 A 
HETATM   12  C7  UNL     1      -4.998   7.009   8.916  1.00  0.00     0.107 A 
HETATM   13  N3  UNL     1      -4.502   5.988   9.605  1.00  0.00    -0.202 N 
ATOM     14  H3  UNL     1      -3.942   5.295   9.110  1.00  0.00     0.183 HD
ENDBRANCH   3   7
BRANCH   1  15
HETATM   15  C1  UNL     1      -2.466   4.252  14.896  1.00  0.00     0.190 C 
BRANCH  15  16
HETATM   16  O1  UNL     1      -1.303   4.181  14.143  1.00  0.00    -0.399 OA
ATOM     17  H1  UNL     1      -0.601   3.848  14.689  1.00  0.00     0.209 HD
ENDBRANCH  15  16
ENDBRANCH   1  15
BRANCH   5  18
HETATM   18  C10 UNL     1      -3.998   1.070  11.812  1.00  0.00     0.377 C 
HETATM   19  F1  UNL     1      -5.215   1.076  11.115  1.00  0.00    -0.212 F 
HETATM   20  F2  UNL     1      -3.060   0.632  10.887  1.00  0.00    -0.212 F 
ENDBRANCH   5  18
BRANCH   6  21
HETATM   21  C11 UNL     1      -4.970   2.075  14.316  1.00  0.00     0.080 C 
HETATM   22  C12 UNL     1      -5.797   2.971  15.250  1.00  0.00     0.030 C 
HETATM   23  C13 UNL     1      -6.668   2.041  16.074  1.00  0.00     0.081 C 
HETATM   24  C14 UNL     1      -5.797   1.356  17.106  1.00  0.00     0.243 C 
HETATM   25  F3  UNL     1      -5.689   2.126  18.247  1.00  0.00    -0.206 F 
HETATM   26  F4  UNL     1      -6.334   0.144  17.469  1.00  0.00    -0.206 F 
HETATM   27  C15 UNL     1      -4.399   1.119  16.578  1.00  0.00     0.081 C 
HETATM   28  C16 UNL     1      -4.471   0.862  15.072  1.00  0.00     0.030 C 
ENDBRANCH   6  21
TORSDOF 5
ENDMDL
MODEL 2
REMARK VINA RESULT: -7.540364811      3.346      7.055
REMARK  5 active torsions:
REMARK  status: ('A' for Active; 'I' for Inactive)
REMARK    1  A    between atoms: O1_1  and  C1_3 
REMARK    2  A    between atoms: C1_3  and  C2_4 
REMARK    3  A    between atoms: N1_6  and  C4_7 
REMARK    4  A    between atoms: C9_16  and  C10_17 
REMARK    5  A    between atoms: N4_20  and  C11_21 
ROOT
HETATM    1  C2  UNL     1      -4.137   4.444  11.624  1.00  0.00     0.122 C 
HETATM    2  C3  UNL     1      -3.751   3.387  12.673  1.00  0.00     0.168 C 
HETATM    3  N1  UNL     1      -3.980   3.818  14.014  1.00  0.00    -0.213 N 
HETATM    4  C8  UNL     1      -3.536   5.118  14.408  1.00  0.00     0.171 C 
HETATM    5  C9  UNL     1      -2.891   5.736  13.166  1.00  0.00     0.163 C 
HETATM    6  N4  UNL     1      -3.699   5.722  12.022  1.00  0.00    -0.389 N 
ENDROOT
BRANCH   3   7
HETATM    7  C4  UNL     1      -4.635   2.976  14.942  1.00  0.00     0.679 A 
HETATM    8  N2  UNL     1      -4.036   1.857  15.431  1.00  0.00    -0.202 N 
HETATM    9  C5  UNL     1      -4.645   1.052  16.310  1.00  0.00     0.107 A 
ATOM     10  H2  UNL     1      -3.093   1.625  15.119  1.00  0.00     0.183 HD
HETATM   11  C6  UNL     1      -5.924   1.329  16.760  1.00  0.00     0.035 A 
HETATM   12  C7  UNL     1      -6.513   2.452  16.260  1.00  0.00     0.107 A 
HETATM   13  N3  UNL     1      -5.880   3.230  15.389  1.00  0.00    -0.202 N 
ATOM     14  H3  UNL     1      -6.360   4.060  15.042  1.00  0.00     0.183 HD
ENDBRANCH   3   7
BRANCH   1  15
HETATM   15  C1  UNL     1      -3.557   3.906  10.337  1.00  0.00     0.190 C 
BRANCH  15  16
HETATM   16  O1  UNL     1      -4.240   2.752   9.982  1.00  0.00    -0.399 OA
ATOM     17  H1  UNL     1      -4.017   2.060  10.594  1.00  0.00     0.209 HD
ENDBRANCH  15  16
ENDBRANCH   1  15
BRANCH   5  18
HETATM   18  C10 UNL     1      -2.333   7.064  13.579  1.00  0.00     0.377 C 
HETATM   19  F1  UNL     1      -2.602   7.202  14.949  1.00  0.00    -0.212 F 
HETATM   20  F2  UNL     1      -0.949   7.105  13.483  1.00  0.00    -0.212 F 
ENDBRANCH   5  18
BRANCH   6  21
HETATM   21  C11 UNL     1      -4.479   6.849  11.690  1.00  0.00     0.080 C 
HETATM   22  C12 UNL     1      -5.992   6.585  11.742  1.00  0.00     0.030 C 
HETATM   23  C13 UNL     1      -6.662   7.823  11.177  1.00  0.00     0.081 C 
HETATM   24  C14 UNL     1      -6.471   7.831   9.677  1.00  0.00     0.243 C 
HETATM   25  F3  UNL     1      -7.469   7.110   9.050  1.00  0.00    -0.206 F 
HETATM   26  F4  UNL     1      -6.513   9.115   9.187  1.00  0.00    -0.206 F 
HETATM   27  C15 UNL     1      -5.145   7.215   9.286  1.00  0.00     0.081 C 
HETATM   28  C16 UNL     1      -4.117   7.512  10.378  1.00  0.00     0.030 C 
ENDBRANCH   6  21
TORSDOF 5
ENDMDL
MODEL 3
REMARK VINA RESULT: -7.251905035      2.909      5.291
REMARK  5 active torsions:
REMARK  status: ('A' for Active; 'I' for Inactive)
REMARK    1  A    between atoms: O1_1  and  C1_3 
REMARK    2  A    between atoms: C1_3  and  C2_4 
REMARK    3  A    between atoms: N1_6  and  C4_7 
REMARK    4  A    between atoms: C9_16  and  C10_17 
REMARK    5  A    between atoms: N4_20  and  C11_21 
ROOT
HETATM    1  C2  UNL     1      -3.476   4.582  11.383  1.00  0.00     0.122 C 
HETATM    2  C3  UNL     1      -3.556   5.998  11.980  1.00  0.00     0.168 C 
HETATM    3  N1  UNL     1      -3.075   6.069  13.322  1.00  0.00    -0.213 N 
HETATM    4  C8  UNL     1      -3.511   5.088  14.265  1.00  0.00     0.171 C 
HETATM    5  C9  UNL     1      -4.447   4.153  13.497  1.00  0.00     0.163 C 
HETATM    6  N4  UNL     1      -3.904   3.623  12.320  1.00  0.00    -0.389 N 
ENDROOT
BRANCH   3   7
HETATM    7  C4  UNL     1      -2.181   7.091  13.715  1.00  0.00     0.679 A 
HETATM    8  N2  UNL     1      -1.248   7.587  12.859  1.00  0.00    -0.202 N 
HETATM    9  C5  UNL     1      -0.397   8.555  13.219  1.00  0.00     0.107 A 
ATOM     10  H2  UNL     1      -1.195   7.209  11.913  1.00  0.00     0.183 HD
HETATM   11  C6  UNL     1      -0.432   9.095  14.493  1.00  0.00     0.035 A 
HETATM   12  C7  UNL     1      -1.371   8.588  15.341  1.00  0.00     0.107 A 
HETATM   13  N3  UNL     1      -2.201   7.627  14.951  1.00  0.00    -0.202 N 
ATOM     14  H3  UNL     1      -2.888   7.278  15.620  1.00  0.00     0.183 HD
ENDBRANCH   3   7
BRANCH   1  15
HETATM   15  C1  UNL     1      -4.281   4.682  10.108  1.00  0.00     0.190 C 
BRANCH  15  16
HETATM   16  O1  UNL     1      -5.436   5.409  10.359  1.00  0.00    -0.399 OA
ATOM     17  H1  UNL     1      -5.551   5.492  11.298  1.00  0.00     0.209 HD
ENDBRANCH  15  16
ENDBRANCH   1  15
BRANCH   5  18
HETATM   18  C10 UNL     1      -4.992   3.171  14.489  1.00  0.00     0.377 C 
HETATM   19  F1  UNL     1      -4.047   3.079  15.521  1.00  0.00    -0.212 F 
HETATM   20  F2  UNL     1      -6.147   3.632  15.104  1.00  0.00    -0.212 F 
ENDBRANCH   5  18
BRANCH   6  21
HETATM   21  C11 UNL     1      -3.290   2.353  12.330  1.00  0.00     0.080 C 
HETATM   22  C12 UNL     1      -2.375   2.103  11.122  1.00  0.00     0.030 C 
HETATM   23  C13 UNL     1      -1.962   0.645  11.192  1.00  0.00     0.081 C 
HETATM   24  C14 UNL     1      -3.141  -0.209  10.780  1.00  0.00     0.243 C 
HETATM   25  F3  UNL     1      -3.175  -0.373   9.409  1.00  0.00    -0.206 F 
HETATM   26  F4  UNL     1      -3.060  -1.458  11.349  1.00  0.00    -0.206 F 
HETATM   27  C15 UNL     1      -4.452   0.421  11.200  1.00  0.00     0.081 C 
HETATM   28  C16 UNL     1      -4.241   1.187  12.506  1.00  0.00     0.030 C 
ENDBRANCH   6  21
TORSDOF 5
ENDMDL
MODEL 4
REMARK VINA RESULT: -7.238337251      3.479      5.666
REMARK  5 active torsions:
REMARK  status: ('A' for Active; 'I' for Inactive)
REMARK    1  A    between atoms: O1_1  and  C1_3 
REMARK    2  A    between atoms: C1_3  and  C2_4 
REMARK    3  A    between atoms: N1_6  and  C4_7 
REMARK    4  A    between atoms: C9_16  and  C10_17 
REMARK    5  A    between atoms: N4_20  and  C11_21 
ROOT
HETATM    1  C2  UNL     1      -2.728   4.351  10.802  1.00  0.00     0.122 C 
HETATM    2  C3  UNL     1      -2.023   5.696  11.052  1.00  0.00     0.168 C 
HETATM    3  N1  UNL     1      -1.187   5.684  12.208  1.00  0.00    -0.213 N 
HETATM    4  C8  UNL     1      -1.698   5.138  13.426  1.00  0.00     0.171 C 
HETATM    5  C9  UNL     1      -3.122   4.672  13.113  1.00  0.00     0.163 C 
HETATM    6  N4  UNL     1      -3.225   3.819  12.006  1.00  0.00    -0.389 N 
ENDROOT
BRANCH   3   7
HETATM    7  C4  UNL     1       0.126   6.204  12.154  1.00  0.00     0.679 A 
HETATM    8  N2  UNL     1       0.374   7.529  12.331  1.00  0.00    -0.202 N 
HETATM    9  C5  UNL     1       1.613   8.033  12.284  1.00  0.00     0.107 A 
ATOM     10  H2  UNL     1      -0.409   8.159  12.505  1.00  0.00     0.183 HD
HETATM   11  C6  UNL     1       2.704   7.215  12.048  1.00  0.00     0.035 A 
HETATM   12  C7  UNL     1       2.442   5.890  11.871  1.00  0.00     0.107 A 
HETATM   13  N3  UNL     1       1.200   5.422  11.925  1.00  0.00    -0.202 N 
ATOM     14  H3  UNL     1       1.051   4.423  11.786  1.00  0.00     0.183 HD
ENDBRANCH   3   7
BRANCH   1  15
HETATM   15  C1  UNL     1      -3.750   4.671   9.736  1.00  0.00     0.190 C 
BRANCH  15  16
HETATM   16  O1  UNL     1      -4.989   4.844  10.337  1.00  0.00    -0.399 OA
ATOM     17  H1  UNL     1      -4.933   5.558  10.961  1.00  0.00     0.209 HD
ENDBRANCH  15  16
ENDBRANCH   1  15
BRANCH   5  18
HETATM   18  C10 UNL     1      -3.712   4.181  14.399  1.00  0.00     0.377 C 
HETATM   19  F1  UNL     1      -2.638   3.959  15.273  1.00  0.00    -0.212 F 
HETATM   20  F2  UNL     1      -4.486   5.148  15.025  1.00  0.00    -0.212 F 
ENDBRANCH   5  18
BRANCH   6  21
HETATM   21  C11 UNL     1      -3.232   2.420  12.188  1.00  0.00     0.080 C 
HETATM   22  C12 UNL     1      -2.226   1.680  11.293  1.00  0.00     0.030 C 
HETATM   23  C13 UNL     1      -2.501   0.199  11.472  1.00  0.00     0.081 C 
HETATM   24  C14 UNL     1      -3.777  -0.145  10.735  1.00  0.00     0.243 C 
HETATM   25  F3  UNL     1      -3.515  -0.442   9.412  1.00  0.00    -0.206 F 
HETATM   26  F4  UNL     1      -4.383  -1.243  11.298  1.00  0.00    -0.206 F 
HETATM   27  C15 UNL     1      -4.758   1.007  10.762  1.00  0.00     0.081 C 
HETATM   28  C16 UNL     1      -4.595   1.770  12.077  1.00  0.00     0.030 C 
ENDBRANCH   6  21
TORSDOF 5
ENDMDL
MODEL 5
REMARK VINA RESULT: -7.204253969      3.300      6.633
REMARK  5 active torsions:
REMARK  status: ('A' for Active; 'I' for Inactive)
REMARK    1  A    between atoms: O1_1  and  C1_3 
REMARK    2  A    between atoms: C1_3  and  C2_4 
REMARK    3  A    between atoms: N1_6  and  C4_7 
REMARK    4  A    between atoms: C9_16  and  C10_17 
REMARK    5  A    between atoms: N4_20  and  C11_21 
ROOT
HETATM    1  C2  UNL     1      -3.696   3.366  11.867  1.00  0.00     0.122 C 
HETATM    2  C3  UNL     1      -4.941   2.905  12.644  1.00  0.00     0.168 C 
HETATM    3  N1  UNL     1      -4.687   1.789  13.498  1.00  0.00    -0.213 N 
HETATM    4  C8  UNL     1      -3.963   0.672  12.979  1.00  0.00     0.171 C 
HETATM    5  C9  UNL     1      -3.628   1.025  11.528  1.00  0.00     0.163 C 
HETATM    6  N4  UNL     1      -2.986   2.260  11.363  1.00  0.00    -0.389 N 
ENDROOT
BRANCH   3   7
HETATM    7  C4  UNL     1      -5.144   1.786  14.836  1.00  0.00     0.679 A 
HETATM    8  N2  UNL     1      -6.010   2.729  15.294  1.00  0.00    -0.202 N 
HETATM    9  C5  UNL     1      -6.450   2.736  16.557  1.00  0.00     0.107 A 
ATOM     10  H2  UNL     1      -6.333   3.455  14.653  1.00  0.00     0.183 HD
HETATM   11  C6  UNL     1      -6.036   1.772  17.460  1.00  0.00     0.035 A 
HETATM   12  C7  UNL     1      -5.168   0.833  16.988  1.00  0.00     0.107 A 
HETATM   13  N3  UNL     1      -4.751   0.855  15.727  1.00  0.00    -0.202 N 
ATOM     14  H3  UNL     1      -4.100   0.132  15.419  1.00  0.00     0.183 HD
ENDBRANCH   3   7
BRANCH   1  15
HETATM   15  C1  UNL     1      -4.246   4.334  10.845  1.00  0.00     0.190 C 
BRANCH  15  16
HETATM   16  O1  UNL     1      -4.013   3.829   9.574  1.00  0.00    -0.399 OA
ATOM     17  H1  UNL     1      -3.081   3.866   9.392  1.00  0.00     0.209 HD
ENDBRANCH  15  16
ENDBRANCH   1  15
BRANCH   5  18
HETATM   18  C10 UNL     1      -2.950  -0.171  10.934  1.00  0.00     0.377 C 
HETATM   19  F1  UNL     1      -3.393  -1.285  11.661  1.00  0.00    -0.212 F 
HETATM   20  F2  UNL     1      -3.358  -0.412   9.630  1.00  0.00    -0.212 F 
ENDBRANCH   5  18
BRANCH   6  21
HETATM   21  C11 UNL     1      -1.579   2.323  11.286  1.00  0.00     0.080 C 
HETATM   22  C12 UNL     1      -0.993   3.627  11.848  1.00  0.00     0.030 C 
HETATM   23  C13 UNL     1       0.487   3.610  11.512  1.00  0.00     0.081 C 
HETATM   24  C14 UNL     1       0.647   3.892  10.034  1.00  0.00     0.243 C 
HETATM   25  F3  UNL     1       0.696   5.252   9.795  1.00  0.00    -0.206 F 
HETATM   26  F4  UNL     1       1.813   3.342   9.557  1.00  0.00    -0.206 F 
HETATM   27  C15 UNL     1      -0.508   3.327   9.236  1.00  0.00     0.081 C 
HETATM   28  C16 UNL     1      -1.003   2.049   9.913  1.00  0.00     0.030 C 
ENDBRANCH   6  21
TORSDOF 5
ENDMDL
