MODEL 1
REMARK VINA RESULT: -8.157633306      0.000      0.000
REMARK  4 active torsions:
REMARK  status: ('A' for Active; 'I' for Inactive)
REMARK       I    between atoms: C1_2  and  N1_3 
REMARK    1  A    between atoms: C1_2  and  C11_16 
REMARK    2  A    between atoms: N1_3  and  C2_5 
REMARK    3  A    between atoms: C6_9  and  N2_10 
REMARK    4  A    between atoms: C12_19  and  C13_20 
ROOT
HETATM    1  O1  UNL     1      -1.099 -10.591  18.556  1.00  0.00    -0.266 OA
HETATM    2  C1  UNL     1       0.037 -10.150  18.258  1.00  0.00     0.272 C 
HETATM    3  N1  UNL     1       1.120  -9.917  19.095  1.00  0.00    -0.349 N 
ATOM      4  H1  UNL     1       1.847  -9.465  18.542  1.00  0.00     0.163 HD
ENDROOT
BRANCH   2   5
HETATM    5  C11 UNL     1       0.198  -9.888  16.786  1.00  0.00     0.148 A 
HETATM    6  N3  UNL     1       1.468 -10.031  16.295  1.00  0.00    -0.325 N 
HETATM    7  C12 UNL     1       1.356  -9.730  14.972  1.00  0.00     0.235 A 
ATOM      8  H3  UNL     1       2.309 -10.302  16.805  1.00  0.00     0.168 HD
HETATM    9  O3  UNL     1       0.149  -9.427  14.681  1.00  0.00    -0.275 OA
HETATM   10  C14 UNL     1      -0.605  -9.513  15.783  1.00  0.00     0.179 A 
HETATM   11 CL1  UNL     1      -2.327  -9.182  15.811  1.00  0.00    -0.054 Cl
BRANCH   7  12
HETATM   12  C13 UNL     1       2.533  -9.786  14.085  1.00  0.00     0.456 C 
HETATM   13  F1  UNL     1       2.269  -9.183  12.912  1.00  0.00    -0.163 F 
HETATM   14  F2  UNL     1       3.663  -9.266  14.735  1.00  0.00    -0.163 F 
HETATM   15  F3  UNL     1       2.869 -11.115  13.784  1.00  0.00    -0.163 F 
ENDBRANCH   7  12
ENDBRANCH   2   5
BRANCH   3  16
HETATM   16  C2  UNL     1       1.602 -10.060  20.394  1.00  0.00     0.107 C 
HETATM   17  C3  UNL     1       2.475 -11.371  20.370  1.00  0.00     0.027 C 
HETATM   18  C4  UNL     1       3.695 -11.105  21.190  1.00  0.00     0.004 C 
HETATM   19  C5  UNL     1       3.406  -9.875  21.977  1.00  0.00     0.027 C 
HETATM   20  C6  UNL     1       2.494  -9.052  20.989  1.00  0.00     0.106 C 
BRANCH  20  21
HETATM   21  N2  UNL     1       1.889  -8.105  21.845  1.00  0.00    -0.383 N 
HETATM   22  C7  UNL     1       1.456  -6.863  21.370  1.00  0.00     0.148 C 
HETATM   23  C8  UNL     1       1.874  -5.767  22.369  1.00  0.00     0.187 C 
HETATM   24  O2  UNL     1       1.194  -6.012  23.533  1.00  0.00    -0.385 OA
HETATM   25  C9  UNL     1       1.474  -7.242  24.089  1.00  0.00     0.212 C 
HETATM   26  C10 UNL     1       1.471  -8.395  23.131  1.00  0.00     0.084 C 
ENDBRANCH  20  21
ENDBRANCH   3  16
TORSDOF 4
ENDMDL
MODEL 2
REMARK VINA RESULT: -8.118721692      2.259      2.910
REMARK  4 active torsions:
REMARK  status: ('A' for Active; 'I' for Inactive)
REMARK       I    between atoms: C1_2  and  N1_3 
REMARK    1  A    between atoms: C1_2  and  C11_16 
REMARK    2  A    between atoms: N1_3  and  C2_5 
REMARK    3  A    between atoms: C6_9  and  N2_10 
REMARK    4  A    between atoms: C12_19  and  C13_20 
ROOT
HETATM    1  O1  UNL     1      -0.846 -10.269  18.653  1.00  0.00    -0.266 OA
HETATM    2  C1  UNL     1       0.329 -10.263  18.214  1.00  0.00     0.272 C 
HETATM    3  N1  UNL     1       1.508 -10.530  18.896  1.00  0.00    -0.349 N 
ATOM      4  H1  UNL     1       2.283 -10.336  18.263  1.00  0.00     0.163 HD
ENDROOT
BRANCH   2   5
HETATM    5  C11 UNL     1       0.404  -9.949  16.745  1.00  0.00     0.148 A 
HETATM    6  N3  UNL     1       1.648 -10.052  16.181  1.00  0.00    -0.325 N 
HETATM    7  C12 UNL     1       1.459  -9.711  14.877  1.00  0.00     0.235 A 
ATOM      8  H3  UNL     1       2.520 -10.323  16.636  1.00  0.00     0.168 HD
HETATM    9  O3  UNL     1       0.233  -9.421  14.662  1.00  0.00    -0.275 OA
HETATM   10  C14 UNL     1      -0.458  -9.558  15.799  1.00  0.00     0.179 A 
HETATM   11 CL1  UNL     1      -2.182  -9.262  15.931  1.00  0.00    -0.054 Cl
BRANCH   7  12
HETATM   12  C13 UNL     1       2.587  -9.715  13.927  1.00  0.00     0.456 C 
HETATM   13  F1  UNL     1       2.214  -9.181  12.750  1.00  0.00    -0.163 F 
HETATM   14  F2  UNL     1       3.708  -9.088  14.492  1.00  0.00    -0.163 F 
HETATM   15  F3  UNL     1       3.006 -11.027  13.655  1.00  0.00    -0.163 F 
ENDBRANCH   7  12
ENDBRANCH   2   5
BRANCH   3  16
HETATM   16  C2  UNL     1       2.047 -10.958  20.107  1.00  0.00     0.107 C 
HETATM   17  C3  UNL     1       3.511 -10.375  20.138  1.00  0.00     0.027 C 
HETATM   18  C4  UNL     1       3.765  -9.895  21.529  1.00  0.00     0.004 C 
HETATM   19  C5  UNL     1       2.698 -10.493  22.377  1.00  0.00     0.027 C 
HETATM   20  C6  UNL     1       1.469 -10.531  21.391  1.00  0.00     0.106 C 
BRANCH  20  21
HETATM   21  N2  UNL     1       0.596 -11.445  22.021  1.00  0.00    -0.383 N 
HETATM   22  C7  UNL     1      -0.778 -11.201  22.111  1.00  0.00     0.148 C 
HETATM   23  C8  UNL     1      -1.262 -11.553  23.531  1.00  0.00     0.187 C 
HETATM   24  O2  UNL     1      -1.082 -12.903  23.686  1.00  0.00    -0.385 OA
HETATM   25  C9  UNL     1       0.230 -13.304  23.559  1.00  0.00     0.212 C 
HETATM   26  C10 UNL     1       0.967 -12.727  22.388  1.00  0.00     0.084 C 
ENDBRANCH  20  21
ENDBRANCH   3  16
TORSDOF 4
ENDMDL
MODEL 3
REMARK VINA RESULT: -8.047227206      3.446      4.519
REMARK  4 active torsions:
REMARK  status: ('A' for Active; 'I' for Inactive)
REMARK       I    between atoms: C1_2  and  N1_3 
REMARK    1  A    between atoms: C1_2  and  C11_16 
REMARK    2  A    between atoms: N1_3  and  C2_5 
REMARK    3  A    between atoms: C6_9  and  N2_10 
REMARK    4  A    between atoms: C12_19  and  C13_20 
ROOT
HETATM    1  O1  UNL     1       0.647  -6.617  16.489  1.00  0.00    -0.266 OA
HETATM    2  C1  UNL     1       0.324  -7.757  16.901  1.00  0.00     0.272 C 
HETATM    3  N1  UNL     1       0.540  -8.317  18.152  1.00  0.00    -0.349 N 
ATOM      4  H1  UNL     1       0.241  -9.291  18.112  1.00  0.00     0.163 HD
ENDROOT
BRANCH   2   5
HETATM    5  C11 UNL     1      -0.418  -8.564  15.872  1.00  0.00     0.148 A 
HETATM    6  N3  UNL     1      -1.723  -8.852  16.173  1.00  0.00    -0.325 N 
HETATM    7  C12 UNL     1      -2.161  -9.588  15.115  1.00  0.00     0.235 A 
ATOM      8  H3  UNL     1      -2.248  -8.576  17.003  1.00  0.00     0.168 HD
HETATM    9  O3  UNL     1      -1.226  -9.744  14.258  1.00  0.00    -0.275 OA
HETATM   10  C14 UNL     1      -0.124  -9.121  14.691  1.00  0.00     0.179 A 
HETATM   11 CL1  UNL     1       1.387  -9.089  13.801  1.00  0.00    -0.054 Cl
BRANCH   7  12
HETATM   12  C13 UNL     1      -3.550 -10.081  15.066  1.00  0.00     0.456 C 
HETATM   13  F1  UNL     1      -4.004 -10.087  13.800  1.00  0.00    -0.163 F 
HETATM   14  F2  UNL     1      -3.650 -11.330  15.698  1.00  0.00    -0.163 F 
HETATM   15  F3  UNL     1      -4.406  -9.240  15.793  1.00  0.00    -0.163 F 
ENDBRANCH   7  12
ENDBRANCH   2   5
BRANCH   3  16
HETATM   16  C2  UNL     1       1.006  -8.070  19.442  1.00  0.00     0.107 C 
HETATM   17  C3  UNL     1       0.217  -6.796  19.930  1.00  0.00     0.027 C 
HETATM   18  C4  UNL     1      -0.150  -7.026  21.359  1.00  0.00     0.004 C 
HETATM   19  C5  UNL     1       0.684  -8.167  21.825  1.00  0.00     0.027 C 
HETATM   20  C6  UNL     1       0.804  -9.047  20.524  1.00  0.00     0.106 C 
BRANCH  20  21
HETATM   21  N2  UNL     1       1.899  -9.889  20.820  1.00  0.00    -0.383 N 
HETATM   22  C7  UNL     1       1.801 -11.280  20.715  1.00  0.00     0.148 C 
HETATM   23  C8  UNL     1       2.467 -11.928  21.944  1.00  0.00     0.187 C 
HETATM   24  O2  UNL     1       3.799 -11.613  21.883  1.00  0.00    -0.385 OA
HETATM   25  C9  UNL     1       4.049 -10.258  21.913  1.00  0.00     0.212 C 
HETATM   26  C10 UNL     1       3.189  -9.427  21.010  1.00  0.00     0.084 C 
ENDBRANCH  20  21
ENDBRANCH   3  16
TORSDOF 4
ENDMDL
MODEL 4
REMARK VINA RESULT: -8.027290517      3.064      3.565
REMARK  4 active torsions:
REMARK  status: ('A' for Active; 'I' for Inactive)
REMARK       I    between atoms: C1_2  and  N1_3 
REMARK    1  A    between atoms: C1_2  and  C11_16 
REMARK    2  A    between atoms: N1_3  and  C2_5 
REMARK    3  A    between atoms: C6_9  and  N2_10 
REMARK    4  A    between atoms: C12_19  and  C13_20 
ROOT
HETATM    1  O1  UNL     1       0.414  -6.958  17.296  1.00  0.00    -0.266 OA
HETATM    2  C1  UNL     1       0.250  -8.199  17.373  1.00  0.00     0.272 C 
HETATM    3  N1  UNL     1       0.620  -9.058  18.400  1.00  0.00    -0.349 N 
ATOM      4  H1  UNL     1       0.427 -10.010  18.092  1.00  0.00     0.163 HD
ENDROOT
BRANCH   2   5
HETATM    5  C11 UNL     1      -0.473  -8.771  16.185  1.00  0.00     0.148 A 
HETATM    6  N3  UNL     1      -1.803  -9.036  16.373  1.00  0.00    -0.325 N 
HETATM    7  C12 UNL     1      -2.219  -9.549  15.183  1.00  0.00     0.235 A 
ATOM      8  H3  UNL     1      -2.358  -8.884  17.216  1.00  0.00     0.168 HD
HETATM    9  O3  UNL     1      -1.249  -9.602  14.353  1.00  0.00    -0.275 OA
HETATM   10  C14 UNL     1      -0.143  -9.126  14.938  1.00  0.00     0.179 A 
HETATM   11 CL1  UNL     1       1.412  -9.019  14.134  1.00  0.00    -0.054 Cl
BRANCH   7  12
HETATM   12  C13 UNL     1      -3.624  -9.951  14.986  1.00  0.00     0.456 C 
HETATM   13  F1  UNL     1      -3.829 -10.343  13.716  1.00  0.00    -0.163 F 
HETATM   14  F2  UNL     1      -3.996 -10.917  15.933  1.00  0.00    -0.163 F 
HETATM   15  F3  UNL     1      -4.490  -8.870  15.215  1.00  0.00    -0.163 F 
ENDBRANCH   7  12
ENDBRANCH   2   5
BRANCH   3  16
HETATM   16  C2  UNL     1       1.150  -9.128  19.686  1.00  0.00     0.107 C 
HETATM   17  C3  UNL     1       2.170 -10.327  19.648  1.00  0.00     0.027 C 
HETATM   18  C4  UNL     1       3.371  -9.910  20.432  1.00  0.00     0.004 C 
HETATM   19  C5  UNL     1       2.961  -8.714  21.217  1.00  0.00     0.027 C 
HETATM   20  C6  UNL     1       1.932  -8.015  20.248  1.00  0.00     0.106 C 
BRANCH  20  21
HETATM   21  N2  UNL     1       1.242  -7.136  21.112  1.00  0.00    -0.383 N 
HETATM   22  C7  UNL     1       1.925  -6.255  21.957  1.00  0.00     0.148 C 
HETATM   23  C8  UNL     1       1.265  -6.277  23.349  1.00  0.00     0.187 C 
HETATM   24  O2  UNL     1      -0.003  -5.783  23.193  1.00  0.00    -0.385 OA
HETATM   25  C9  UNL     1      -0.782  -6.521  22.328  1.00  0.00     0.212 C 
HETATM   26  C10 UNL     1      -0.120  -6.907  21.040  1.00  0.00     0.084 C 
ENDBRANCH  20  21
ENDBRANCH   3  16
TORSDOF 4
ENDMDL
MODEL 5
REMARK VINA RESULT: -7.990142687      1.942      3.097
REMARK  4 active torsions:
REMARK  status: ('A' for Active; 'I' for Inactive)
REMARK       I    between atoms: C1_2  and  N1_3 
REMARK    1  A    between atoms: C1_2  and  C11_16 
REMARK    2  A    between atoms: N1_3  and  C2_5 
REMARK    3  A    between atoms: C6_9  and  N2_10 
REMARK    4  A    between atoms: C12_19  and  C13_20 
ROOT
HETATM    1  O1  UNL     1      -1.711  -8.057  17.730  1.00  0.00    -0.266 OA
HETATM    2  C1  UNL     1      -0.501  -8.338  17.553  1.00  0.00     0.272 C 
HETATM    3  N1  UNL     1       0.544  -8.269  18.463  1.00  0.00    -0.349 N 
ATOM      4  H1  UNL     1       1.407  -8.472  17.960  1.00  0.00     0.163 HD
ENDROOT
BRANCH   2   5
HETATM    5  C11 UNL     1      -0.213  -8.840  16.165  1.00  0.00     0.148 A 
HETATM    6  N3  UNL     1       1.098  -8.782  15.775  1.00  0.00    -0.325 N 
HETATM    7  C12 UNL     1       1.097  -9.267  14.504  1.00  0.00     0.235 A 
ATOM      8  H3  UNL     1       1.897  -8.449  16.315  1.00  0.00     0.168 HD
HETATM    9  O3  UNL     1      -0.088  -9.584  14.145  1.00  0.00    -0.275 OA
HETATM   10  C14 UNL     1      -0.934  -9.334  15.151  1.00  0.00     0.179 A 
HETATM   11 CL1  UNL     1      -2.660  -9.636  15.068  1.00  0.00    -0.054 Cl
BRANCH   7  12
HETATM   12  C13 UNL     1       2.352  -9.377  13.738  1.00  0.00     0.456 C 
HETATM   13  F1  UNL     1       2.144  -9.073  12.444  1.00  0.00    -0.163 F 
HETATM   14  F2  UNL     1       3.360  -8.603  14.334  1.00  0.00    -0.163 F 
HETATM   15  F3  UNL     1       2.842 -10.692  13.766  1.00  0.00    -0.163 F 
ENDBRANCH   7  12
ENDBRANCH   2   5
BRANCH   3  16
HETATM   16  C2  UNL     1       0.877  -8.030  19.795  1.00  0.00     0.107 C 
HETATM   17  C3  UNL     1       0.245  -6.627  20.134  1.00  0.00     0.027 C 
HETATM   18  C4  UNL     1      -0.331  -6.724  21.508  1.00  0.00     0.004 C 
HETATM   19  C5  UNL     1       0.246  -7.954  22.116  1.00  0.00     0.027 C 
HETATM   20  C6  UNL     1       0.388  -8.908  20.870  1.00  0.00     0.106 C 
BRANCH  20  21
HETATM   21  N2  UNL     1       1.288  -9.892  21.335  1.00  0.00    -0.383 N 
HETATM   22  C7  UNL     1       2.411  -9.555  22.098  1.00  0.00     0.148 C 
HETATM   23  C8  UNL     1       3.627 -10.350  21.585  1.00  0.00     0.187 C 
HETATM   24  O2  UNL     1       3.363 -11.673  21.822  1.00  0.00    -0.385 OA
HETATM   25  C9  UNL     1       2.235 -12.136  21.180  1.00  0.00     0.212 C 
HETATM   26  C10 UNL     1       1.030 -11.250  21.282  1.00  0.00     0.084 C 
ENDBRANCH  20  21
ENDBRANCH   3  16
TORSDOF 4
ENDMDL
