MODEL 1
REMARK VINA RESULT: -6.877267715      0.000      0.000
REMARK  5 active torsions:
REMARK  status: ('A' for Active; 'I' for Inactive)
REMARK    1  A    between atoms: C1_2  and  C2_3 
REMARK       I    between atoms: C1_2  and  N2_14 
REMARK    2  A    between atoms: C2_3  and  O2_4 
REMARK    3  A    between atoms: O2_4  and  C3_5 
REMARK    4  A    between atoms: C3_5  and  C4_7 
REMARK       I    between atoms: N2_14  and  C7_16 
REMARK    5  A    between atoms: C7_16  and  C8_18 
ROOT
HETATM    1  C2  UNL     1     -38.704 -34.837  22.263  1.00  0.00     0.281 C 
ENDROOT
BRANCH   1   2
HETATM    2  C1  UNL     1     -37.312 -35.364  22.380  1.00  0.00     0.248 C 
HETATM    3  O1  UNL     1     -36.454 -34.768  21.698  1.00  0.00    -0.271 OA
HETATM    4  N2  UNL     1     -36.962 -36.448  23.188  1.00  0.00    -0.292 N 
HETATM    5  C7  UNL     1     -35.739 -37.065  23.417  1.00  0.00     0.279 C 
ATOM      6  H2  UNL     1     -37.742 -36.859  23.701  1.00  0.00     0.172 HD
HETATM    7  O4  UNL     1     -35.765 -38.069  24.239  1.00  0.00    -0.268 OA
BRANCH   5   8
HETATM    8  C8  UNL     1     -34.414 -36.765  22.880  1.00  0.00     0.269 C 
HETATM    9 CL2  UNL     1     -33.615 -35.562  23.933  1.00  0.00    -0.073 Cl
HETATM   10 CL3  UNL     1     -34.420 -36.197  21.196  1.00  0.00    -0.073 Cl
HETATM   11 CL4  UNL     1     -33.417 -38.251  22.936  1.00  0.00    -0.073 Cl
ENDBRANCH   5   8
ENDBRANCH   1   2
BRANCH   1  12
HETATM   12  O2  UNL     1     -39.517 -35.257  23.333  1.00  0.00    -0.310 OA
BRANCH  12  13
HETATM   13  C3  UNL     1     -40.203 -34.305  24.062  1.00  0.00     0.291 C 
HETATM   14  O3  UNL     1     -40.187 -33.123  23.645  1.00  0.00    -0.263 OA
BRANCH  13  15
HETATM   15  C4  UNL     1     -40.931 -34.636  25.283  1.00  0.00     0.304 C 
HETATM   16  N1  UNL     1     -41.378 -33.537  26.089  1.00  0.00    -0.059 N 
HETATM   17  C5  UNL     1     -40.310 -33.703  27.048  1.00  0.00     0.256 C 
ATOM     18  H12 UNL     1     -41.503 -32.626  25.648  1.00  0.00     0.278 HD
ATOM     19  H11 UNL     1     -42.342 -33.537  26.425  1.00  0.00     0.278 HD
HETATM   20  C6  UNL     1     -40.068 -35.086  26.431  1.00  0.00     0.148 C 
HETATM   21 CL1  UNL     1     -38.357 -35.290  26.083  1.00  0.00    -0.121 Cl
ENDBRANCH  13  15
ENDBRANCH  12  13
ENDBRANCH   1  12
TORSDOF 5
ENDMDL
MODEL 2
REMARK VINA RESULT: -6.872800342      1.156      1.187
REMARK  5 active torsions:
REMARK  status: ('A' for Active; 'I' for Inactive)
REMARK    1  A    between atoms: C1_2  and  C2_3 
REMARK       I    between atoms: C1_2  and  N2_14 
REMARK    2  A    between atoms: C2_3  and  O2_4 
REMARK    3  A    between atoms: O2_4  and  C3_5 
REMARK    4  A    between atoms: C3_5  and  C4_7 
REMARK       I    between atoms: N2_14  and  C7_16 
REMARK    5  A    between atoms: C7_16  and  C8_18 
ROOT
HETATM    1  C2  UNL     1     -38.784 -34.890  23.025  1.00  0.00     0.281 C 
ENDROOT
BRANCH   1   2
HETATM    2  C1  UNL     1     -37.377 -35.386  22.949  1.00  0.00     0.248 C 
HETATM    3  O1  UNL     1     -36.625 -34.751  22.183  1.00  0.00    -0.271 OA
HETATM    4  N2  UNL     1     -36.905 -36.484  23.673  1.00  0.00    -0.292 N 
HETATM    5  C7  UNL     1     -35.651 -37.077  23.727  1.00  0.00     0.279 C 
ATOM      6  H2  UNL     1     -37.606 -36.927  24.267  1.00  0.00     0.172 HD
HETATM    7  O4  UNL     1     -35.552 -38.103  24.514  1.00  0.00    -0.268 OA
BRANCH   5   8
HETATM    8  C8  UNL     1     -34.411 -36.730  23.036  1.00  0.00     0.269 C 
HETATM    9 CL2  UNL     1     -33.511 -35.535  24.015  1.00  0.00    -0.073 Cl
HETATM   10 CL3  UNL     1     -34.643 -36.119  21.383  1.00  0.00    -0.073 Cl
HETATM   11 CL4  UNL     1     -33.384 -38.192  22.923  1.00  0.00    -0.073 Cl
ENDBRANCH   5   8
ENDBRANCH   1   2
BRANCH   1  12
HETATM   12  O2  UNL     1     -38.939 -33.899  24.013  1.00  0.00    -0.310 OA
BRANCH  12  13
HETATM   13  C3  UNL     1     -40.214 -33.550  24.412  1.00  0.00     0.291 C 
HETATM   14  O3  UNL     1     -41.060 -33.300  23.520  1.00  0.00    -0.263 OA
BRANCH  13  15
HETATM   15  C4  UNL     1     -40.594 -33.465  25.818  1.00  0.00     0.304 C 
HETATM   16  N1  UNL     1     -39.534 -33.544  26.782  1.00  0.00    -0.059 N 
HETATM   17  C5  UNL     1     -39.824 -34.922  27.105  1.00  0.00     0.256 C 
ATOM     18  H12 UNL     1     -38.588 -33.298  26.490  1.00  0.00     0.278 HD
ATOM     19  H11 UNL     1     -39.508 -32.858  27.538  1.00  0.00     0.278 HD
HETATM   20  C6  UNL     1     -41.169 -34.731  26.395  1.00  0.00     0.148 C 
HETATM   21 CL1  UNL     1     -41.437 -36.048  25.263  1.00  0.00    -0.121 Cl
ENDBRANCH  13  15
ENDBRANCH  12  13
ENDBRANCH   1  12
TORSDOF 5
ENDMDL
MODEL 3
REMARK VINA RESULT: -6.512579085      1.688      2.186
REMARK  5 active torsions:
REMARK  status: ('A' for Active; 'I' for Inactive)
REMARK    1  A    between atoms: C1_2  and  C2_3 
REMARK       I    between atoms: C1_2  and  N2_14 
REMARK    2  A    between atoms: C2_3  and  O2_4 
REMARK    3  A    between atoms: O2_4  and  C3_5 
REMARK    4  A    between atoms: C3_5  and  C4_7 
REMARK       I    between atoms: N2_14  and  C7_16 
REMARK    5  A    between atoms: C7_16  and  C8_18 
ROOT
HETATM    1  C2  UNL     1     -38.420 -34.393  22.436  1.00  0.00     0.281 C 
ENDROOT
BRANCH   1   2
HETATM    2  C1  UNL     1     -37.212 -35.209  22.762  1.00  0.00     0.248 C 
HETATM    3  O1  UNL     1     -37.171 -35.666  23.922  1.00  0.00    -0.271 OA
HETATM    4  N2  UNL     1     -36.182 -35.461  21.853  1.00  0.00    -0.292 N 
HETATM    5  C7  UNL     1     -35.004 -36.185  21.978  1.00  0.00     0.279 C 
ATOM      6  H2  UNL     1     -36.320 -35.038  20.935  1.00  0.00     0.172 HD
HETATM    7  O4  UNL     1     -34.253 -36.216  20.922  1.00  0.00    -0.268 OA
BRANCH   5   8
HETATM    8  C8  UNL     1     -34.467 -36.926  23.118  1.00  0.00     0.269 C 
HETATM    9 CL2  UNL     1     -33.250 -38.097  22.532  1.00  0.00    -0.073 Cl
HETATM   10 CL3  UNL     1     -35.698 -37.757  24.093  1.00  0.00    -0.073 Cl
HETATM   11 CL4  UNL     1     -33.613 -35.784  24.200  1.00  0.00    -0.073 Cl
ENDBRANCH   5   8
ENDBRANCH   1   2
BRANCH   1  12
HETATM   12  O2  UNL     1     -39.533 -34.766  23.214  1.00  0.00    -0.310 OA
BRANCH  12  13
HETATM   13  C3  UNL     1     -40.250 -33.783  23.866  1.00  0.00     0.291 C 
HETATM   14  O3  UNL     1     -40.900 -32.970  23.167  1.00  0.00    -0.263 OA
BRANCH  13  15
HETATM   15  C4  UNL     1     -40.270 -33.669  25.320  1.00  0.00     0.304 C 
HETATM   16  N1  UNL     1     -39.086 -34.081  26.019  1.00  0.00    -0.059 N 
HETATM   17  C5  UNL     1     -39.665 -35.343  26.418  1.00  0.00     0.256 C 
ATOM     18  H12 UNL     1     -38.198 -34.087  25.516  1.00  0.00     0.278 HD
ATOM     19  H11 UNL     1     -38.705 -33.467  26.740  1.00  0.00     0.278 HD
HETATM   20  C6  UNL     1     -41.028 -34.759  26.030  1.00  0.00     0.148 C 
HETATM   21 CL1  UNL     1     -41.893 -35.895  25.005  1.00  0.00    -0.121 Cl
ENDBRANCH  13  15
ENDBRANCH  12  13
ENDBRANCH   1  12
TORSDOF 5
ENDMDL
MODEL 4
REMARK VINA RESULT: -6.508547209      1.407      1.627
REMARK  5 active torsions:
REMARK  status: ('A' for Active; 'I' for Inactive)
REMARK    1  A    between atoms: C1_2  and  C2_3 
REMARK       I    between atoms: C1_2  and  N2_14 
REMARK    2  A    between atoms: C2_3  and  O2_4 
REMARK    3  A    between atoms: O2_4  and  C3_5 
REMARK    4  A    between atoms: C3_5  and  C4_7 
REMARK       I    between atoms: N2_14  and  C7_16 
REMARK    5  A    between atoms: C7_16  and  C8_18 
ROOT
HETATM    1  C2  UNL     1     -38.469 -34.450  22.941  1.00  0.00     0.281 C 
ENDROOT
BRANCH   1   2
HETATM    2  C1  UNL     1     -37.123 -35.092  22.859  1.00  0.00     0.248 C 
HETATM    3  O1  UNL     1     -36.277 -34.478  22.178  1.00  0.00    -0.271 OA
HETATM    4  N2  UNL     1     -36.802 -36.296  23.490  1.00  0.00    -0.292 N 
HETATM    5  C7  UNL     1     -35.623 -37.029  23.523  1.00  0.00     0.279 C 
ATOM      6  H2  UNL     1     -37.569 -36.710  24.019  1.00  0.00     0.172 HD
HETATM    7  O4  UNL     1     -35.667 -38.126  24.213  1.00  0.00    -0.268 OA
BRANCH   5   8
HETATM    8  C8  UNL     1     -34.327 -36.762  22.903  1.00  0.00     0.269 C 
HETATM    9 CL2  UNL     1     -33.433 -35.581  23.904  1.00  0.00    -0.073 Cl
HETATM   10 CL3  UNL     1     -34.425 -36.193  21.223  1.00  0.00    -0.073 Cl
HETATM   11 CL4  UNL     1     -33.367 -38.273  22.898  1.00  0.00    -0.073 Cl
ENDBRANCH   5   8
ENDBRANCH   1   2
BRANCH   1  12
HETATM   12  O2  UNL     1     -38.745 -33.969  24.235  1.00  0.00    -0.310 OA
BRANCH  12  13
HETATM   13  C3  UNL     1     -39.076 -34.874  25.225  1.00  0.00     0.291 C 
HETATM   14  O3  UNL     1     -38.171 -35.240  26.011  1.00  0.00    -0.263 OA
BRANCH  13  15
HETATM   15  C4  UNL     1     -40.428 -35.403  25.374  1.00  0.00     0.304 C 
HETATM   16  N1  UNL     1     -41.343 -35.159  24.296  1.00  0.00    -0.059 N 
HETATM   17  C5  UNL     1     -42.014 -34.092  25.003  1.00  0.00     0.256 C 
ATOM     18  H12 UNL     1     -40.965 -34.969  23.367  1.00  0.00     0.278 HD
ATOM     19  H11 UNL     1     -41.899 -35.937  23.940  1.00  0.00     0.278 HD
HETATM   20  C6  UNL     1     -41.326 -34.599  26.276  1.00  0.00     0.148 C 
HETATM   21 CL1  UNL     1     -40.573 -33.254  27.121  1.00  0.00    -0.121 Cl
ENDBRANCH  13  15
ENDBRANCH  12  13
ENDBRANCH   1  12
TORSDOF 5
ENDMDL
MODEL 5
REMARK VINA RESULT: -6.466419634      1.689      2.070
REMARK  5 active torsions:
REMARK  status: ('A' for Active; 'I' for Inactive)
REMARK    1  A    between atoms: C1_2  and  C2_3 
REMARK       I    between atoms: C1_2  and  N2_14 
REMARK    2  A    between atoms: C2_3  and  O2_4 
REMARK    3  A    between atoms: O2_4  and  C3_5 
REMARK    4  A    between atoms: C3_5  and  C4_7 
REMARK       I    between atoms: N2_14  and  C7_16 
REMARK    5  A    between atoms: C7_16  and  C8_18 
ROOT
HETATM    1  C2  UNL     1     -38.441 -34.383  22.371  1.00  0.00     0.281 C 
ENDROOT
BRANCH   1   2
HETATM    2  C1  UNL     1     -37.215 -35.168  22.705  1.00  0.00     0.248 C 
HETATM    3  O1  UNL     1     -37.139 -35.566  23.885  1.00  0.00    -0.271 OA
HETATM    4  N2  UNL     1     -36.206 -35.453  21.783  1.00  0.00    -0.292 N 
HETATM    5  C7  UNL     1     -35.016 -36.157  21.913  1.00  0.00     0.279 C 
ATOM      6  H2  UNL     1     -36.372 -35.079  20.849  1.00  0.00     0.172 HD
HETATM    7  O4  UNL     1     -34.291 -36.232  20.840  1.00  0.00    -0.268 OA
BRANCH   5   8
HETATM    8  C8  UNL     1     -34.440 -36.834  23.073  1.00  0.00     0.269 C 
HETATM    9 CL2  UNL     1     -35.729 -37.738  23.921  1.00  0.00    -0.073 Cl
HETATM   10 CL3  UNL     1     -33.602 -35.753  24.208  1.00  0.00    -0.073 Cl
HETATM   11 CL4  UNL     1     -33.245 -38.039  22.505  1.00  0.00    -0.073 Cl
ENDBRANCH   5   8
ENDBRANCH   1   2
BRANCH   1  12
HETATM   12  O2  UNL     1     -39.536 -34.751  23.176  1.00  0.00    -0.310 OA
BRANCH  12  13
HETATM   13  C3  UNL     1     -40.249 -33.761  23.824  1.00  0.00     0.291 C 
HETATM   14  O3  UNL     1     -40.888 -32.942  23.121  1.00  0.00    -0.263 OA
BRANCH  13  15
HETATM   15  C4  UNL     1     -40.275 -33.647  25.278  1.00  0.00     0.304 C 
HETATM   16  N1  UNL     1     -39.092 -34.051  25.982  1.00  0.00    -0.059 N 
HETATM   17  C5  UNL     1     -39.664 -35.317  26.379  1.00  0.00     0.256 C 
ATOM     18  H12 UNL     1     -38.202 -34.051  25.483  1.00  0.00     0.278 HD
ATOM     19  H11 UNL     1     -38.718 -33.434  26.704  1.00  0.00     0.278 HD
HETATM   20  C6  UNL     1     -41.030 -34.741  25.985  1.00  0.00     0.148 C 
HETATM   21 CL1  UNL     1     -41.883 -35.884  24.957  1.00  0.00    -0.121 Cl
ENDBRANCH  13  15
ENDBRANCH  12  13
ENDBRANCH   1  12
TORSDOF 5
ENDMDL
