MODEL 1
REMARK VINA RESULT: -5.918132329      0.000      0.000
REMARK  10 active torsions:
REMARK  status: ('A' for Active; 'I' for Inactive)
REMARK    1  A    between atoms: C2_2  and  O1_3 
REMARK    2  A    between atoms: O1_3  and  C3_4 
REMARK    3  A    between atoms: C3_4  and  S1_6 
REMARK    4  A    between atoms: S1_6  and  C4_7 
REMARK    5  A    between atoms: C4_7  and  C5_8 
REMARK    6  A    between atoms: C5_8  and  C6_9 
REMARK       I    between atoms: C6_9  and  N1_11 
REMARK       I    between atoms: N1_11  and  C7_13 
REMARK       I    between atoms: C7_13  and  N3_17 
REMARK    7  A    between atoms: N3_17  and  C8_18 
REMARK    8  A    between atoms: N3_17  and  C15_26 
REMARK    9  A    between atoms: C8_18  and  C9_19 
REMARK   10  A    between atoms: C9_19  and  N4_20 
ROOT
HETATM    1  C6  UNL     1      -6.147 -32.037  17.260  1.00  0.00     0.236 C 
HETATM    2  O3  UNL     1      -6.863 -32.544  18.156  1.00  0.00    -0.273 OA
HETATM    3  N1  UNL     1      -6.468 -32.110  15.895  1.00  0.00    -0.160 N 
ATOM      4  H1  UNL     1      -5.818 -31.665  15.249  1.00  0.00     0.187 HD
HETATM    5  C7  UNL     1      -7.600 -32.736  15.324  1.00  0.00     0.681 C 
HETATM    6  N2  UNL     1      -7.726 -32.702  14.044  1.00  0.00    -0.234 N 
ATOM      7  H21 UNL     1      -8.542 -33.153  13.632  1.00  0.00     0.174 HD
ATOM      8  H22 UNL     1      -7.023 -32.235  13.471  1.00  0.00     0.174 HD
HETATM    9  N3  UNL     1      -8.590 -33.395  16.131  1.00  0.00    -0.178 N 
ENDROOT
BRANCH   9  10
HETATM   10  C8  UNL     1      -9.742 -32.626  16.492  1.00  0.00     0.192 C 
BRANCH  10  11
HETATM   11  C9  UNL     1     -10.925 -32.676  15.615  1.00  0.00     0.079 C 
BRANCH  11  12
HETATM   12  N4  UNL     1     -11.529 -31.530  15.154  1.00  0.00    -0.392 N 
HETATM   13  C10 UNL     1     -11.453 -31.384  13.706  1.00  0.00     0.122 C 
HETATM   14  C11 UNL     1     -10.964 -29.961  13.434  1.00  0.00     0.020 C 
HETATM   15  C12 UNL     1     -11.880 -28.987  14.161  1.00  0.00     0.003 C 
HETATM   16  C13 UNL     1     -13.037 -29.717  14.793  1.00  0.00     0.020 C 
HETATM   17  C14 UNL     1     -12.549 -30.812  15.755  1.00  0.00     0.122 C 
ENDBRANCH  11  12
ENDBRANCH  10  11
ENDBRANCH   9  10
BRANCH   9  18
HETATM   18  C15 UNL     1      -8.343 -34.752  16.597  1.00  0.00     0.059 A 
HETATM   19  C16 UNL     1      -7.502 -35.609  15.999  1.00  0.00     0.038 A 
HETATM   20  C17 UNL     1      -7.361 -36.852  16.548  1.00  0.00     0.052 A 
HETATM   21  S2  UNL     1      -8.406 -36.800  17.887  1.00  0.00    -0.111 SA
HETATM   22  C18 UNL     1      -8.994 -35.210  17.720  1.00  0.00     0.079 A 
ENDBRANCH   9  18
BRANCH   1  23
HETATM   23  C5  UNL     1      -4.919 -31.343  17.725  1.00  0.00     0.114 C 
BRANCH  23  24
HETATM   24  C4  UNL     1      -4.160 -32.153  18.740  1.00  0.00     0.094 C 
BRANCH  24  25
HETATM   25  S1  UNL     1      -3.368 -31.145  20.006  1.00  0.00    -0.061 SA
BRANCH  25  26
HETATM   26  C3  UNL     1      -3.575 -29.415  19.520  1.00  0.00     0.322 C 
HETATM   27  O2  UNL     1      -2.736 -28.850  18.766  1.00  0.00    -0.252 OA
BRANCH  26  28
HETATM   28  O1  UNL     1      -4.651 -28.666  19.954  1.00  0.00    -0.313 OA
BRANCH  28  29
HETATM   29  C2  UNL     1      -5.602 -29.061  20.905  1.00  0.00     0.175 C 
HETATM   30  C1  UNL     1      -6.890 -29.377  20.133  1.00  0.00     0.034 C 
ENDBRANCH  28  29
ENDBRANCH  26  28
ENDBRANCH  25  26
ENDBRANCH  24  25
ENDBRANCH  23  24
ENDBRANCH   1  23
TORSDOF 10
ENDMDL
MODEL 2
REMARK VINA RESULT: -5.871618626      1.565      2.005
REMARK  10 active torsions:
REMARK  status: ('A' for Active; 'I' for Inactive)
REMARK    1  A    between atoms: C2_2  and  O1_3 
REMARK    2  A    between atoms: O1_3  and  C3_4 
REMARK    3  A    between atoms: C3_4  and  S1_6 
REMARK    4  A    between atoms: S1_6  and  C4_7 
REMARK    5  A    between atoms: C4_7  and  C5_8 
REMARK    6  A    between atoms: C5_8  and  C6_9 
REMARK       I    between atoms: C6_9  and  N1_11 
REMARK       I    between atoms: N1_11  and  C7_13 
REMARK       I    between atoms: C7_13  and  N3_17 
REMARK    7  A    between atoms: N3_17  and  C8_18 
REMARK    8  A    between atoms: N3_17  and  C15_26 
REMARK    9  A    between atoms: C8_18  and  C9_19 
REMARK   10  A    between atoms: C9_19  and  N4_20 
ROOT
HETATM    1  C6  UNL     1      -7.065 -32.372  17.076  1.00  0.00     0.236 C 
HETATM    2  O3  UNL     1      -8.215 -32.848  17.229  1.00  0.00    -0.273 OA
HETATM    3  N1  UNL     1      -6.410 -32.348  15.835  1.00  0.00    -0.160 N 
ATOM      4  H1  UNL     1      -5.476 -31.940  15.820  1.00  0.00     0.187 HD
HETATM    5  C7  UNL     1      -6.909 -32.831  14.604  1.00  0.00     0.681 C 
HETATM    6  N2  UNL     1      -6.159 -32.723  13.564  1.00  0.00    -0.234 N 
ATOM      7  H21 UNL     1      -6.519 -33.072  12.676  1.00  0.00     0.174 HD
ATOM      8  H22 UNL     1      -5.233 -32.302  13.640  1.00  0.00     0.174 HD
HETATM    9  N3  UNL     1      -8.213 -33.426  14.496  1.00  0.00    -0.178 N 
ENDROOT
BRANCH   9  10
HETATM   10  C8  UNL     1      -9.282 -32.565  14.092  1.00  0.00     0.192 C 
BRANCH  10  11
HETATM   11  C9  UNL     1     -10.285 -32.167  15.096  1.00  0.00     0.079 C 
BRANCH  11  12
HETATM   12  N4  UNL     1     -11.132 -31.103  14.886  1.00  0.00    -0.392 N 
HETATM   13  C10 UNL     1     -11.385 -30.842  13.475  1.00  0.00     0.122 C 
HETATM   14  C11 UNL     1     -11.175 -29.342  13.263  1.00  0.00     0.020 C 
HETATM   15  C12 UNL     1     -12.048 -28.587  14.255  1.00  0.00     0.003 C 
HETATM   16  C13 UNL     1     -12.927 -29.539  15.023  1.00  0.00     0.020 C 
HETATM   17  C14 UNL     1     -12.094 -30.607  15.749  1.00  0.00     0.122 C 
ENDBRANCH  11  12
ENDBRANCH  10  11
ENDBRANCH   9  10
BRANCH   9  18
HETATM   18  C15 UNL     1      -8.394 -34.821  14.870  1.00  0.00     0.059 A 
HETATM   19  C16 UNL     1      -7.424 -35.592  15.385  1.00  0.00     0.038 A 
HETATM   20  C17 UNL     1      -7.734 -36.885  15.696  1.00  0.00     0.052 A 
HETATM   21  S2  UNL     1      -9.374 -37.001  15.263  1.00  0.00    -0.111 SA
HETATM   22  C18 UNL     1      -9.625 -35.413  14.700  1.00  0.00     0.079 A 
ENDBRANCH   9  18
BRANCH   1  23
HETATM   23  C5  UNL     1      -6.420 -31.826  18.297  1.00  0.00     0.114 C 
BRANCH  23  24
HETATM   24  C4  UNL     1      -5.582 -30.612  18.002  1.00  0.00     0.094 C 
BRANCH  24  25
HETATM   25  S1  UNL     1      -5.098 -29.706  19.482  1.00  0.00    -0.061 SA
BRANCH  25  26
HETATM   26  C3  UNL     1      -3.291 -29.630  19.496  1.00  0.00     0.322 C 
HETATM   27  O2  UNL     1      -2.674 -28.780  18.797  1.00  0.00    -0.252 OA
BRANCH  26  28
HETATM   28  O1  UNL     1      -2.537 -30.493  20.266  1.00  0.00    -0.313 OA
BRANCH  28  29
HETATM   29  C2  UNL     1      -1.654 -30.127  21.292  1.00  0.00     0.175 C 
HETATM   30  C1  UNL     1      -2.204 -30.745  22.585  1.00  0.00     0.034 C 
ENDBRANCH  28  29
ENDBRANCH  26  28
ENDBRANCH  25  26
ENDBRANCH  24  25
ENDBRANCH  23  24
ENDBRANCH   1  23
TORSDOF 10
ENDMDL
MODEL 3
REMARK VINA RESULT: -5.788951097      1.242      1.601
REMARK  10 active torsions:
REMARK  status: ('A' for Active; 'I' for Inactive)
REMARK    1  A    between atoms: C2_2  and  O1_3 
REMARK    2  A    between atoms: O1_3  and  C3_4 
REMARK    3  A    between atoms: C3_4  and  S1_6 
REMARK    4  A    between atoms: S1_6  and  C4_7 
REMARK    5  A    between atoms: C4_7  and  C5_8 
REMARK    6  A    between atoms: C5_8  and  C6_9 
REMARK       I    between atoms: C6_9  and  N1_11 
REMARK       I    between atoms: N1_11  and  C7_13 
REMARK       I    between atoms: C7_13  and  N3_17 
REMARK    7  A    between atoms: N3_17  and  C8_18 
REMARK    8  A    between atoms: N3_17  and  C15_26 
REMARK    9  A    between atoms: C8_18  and  C9_19 
REMARK   10  A    between atoms: C9_19  and  N4_20 
ROOT
HETATM    1  C6  UNL     1      -6.302 -32.373  17.001  1.00  0.00     0.236 C 
HETATM    2  O3  UNL     1      -6.958 -33.012  17.857  1.00  0.00    -0.273 OA
HETATM    3  N1  UNL     1      -6.707 -32.256  15.662  1.00  0.00    -0.160 N 
ATOM      4  H1  UNL     1      -6.100 -31.714  15.047  1.00  0.00     0.187 HD
HETATM    5  C7  UNL     1      -7.868 -32.811  15.077  1.00  0.00     0.681 C 
HETATM    6  N2  UNL     1      -8.074 -32.597  13.825  1.00  0.00    -0.234 N 
ATOM      7  H21 UNL     1      -8.912 -32.997  13.403  1.00  0.00     0.174 HD
ATOM      8  H22 UNL     1      -7.411 -32.043  13.283  1.00  0.00     0.174 HD
HETATM    9  N3  UNL     1      -8.803 -33.592  15.841  1.00  0.00    -0.178 N 
ENDROOT
BRANCH   9  10
HETATM   10  C8  UNL     1      -9.934 -32.899  16.377  1.00  0.00     0.192 C 
BRANCH  10  11
HETATM   11  C9  UNL     1     -11.147 -32.783  15.548  1.00  0.00     0.079 C 
BRANCH  11  12
HETATM   12  N4  UNL     1     -11.664 -31.559  15.195  1.00  0.00    -0.392 N 
HETATM   13  C10 UNL     1     -11.693 -31.342  13.755  1.00  0.00     0.122 C 
HETATM   14  C11 UNL     1     -11.083 -29.962  13.507  1.00  0.00     0.020 C 
HETATM   15  C12 UNL     1     -11.830 -28.943  14.356  1.00  0.00     0.003 C 
HETATM   16  C13 UNL     1     -13.000 -29.588  15.052  1.00  0.00     0.020 C 
HETATM   17  C14 UNL     1     -12.551 -30.777  15.916  1.00  0.00     0.122 C 
ENDBRANCH  11  12
ENDBRANCH  10  11
ENDBRANCH   9  10
BRANCH   9  18
HETATM   18  C15 UNL     1      -8.519 -34.997  16.092  1.00  0.00     0.059 A 
HETATM   19  C16 UNL     1      -7.665 -35.733  15.365  1.00  0.00     0.038 A 
HETATM   20  C17 UNL     1      -7.490 -37.041  15.716  1.00  0.00     0.052 A 
HETATM   21  S2  UNL     1      -8.522 -37.220  17.055  1.00  0.00    -0.111 SA
HETATM   22  C18 UNL     1      -9.148 -35.638  17.137  1.00  0.00     0.079 A 
ENDBRANCH   9  18
BRANCH   1  23
HETATM   23  C5  UNL     1      -5.052 -31.734  17.486  1.00  0.00     0.114 C 
BRANCH  23  24
HETATM   24  C4  UNL     1      -5.305 -30.383  18.097  1.00  0.00     0.094 C 
BRANCH  24  25
HETATM   25  S1  UNL     1      -4.804 -30.280  19.824  1.00  0.00    -0.061 SA
BRANCH  25  26
HETATM   26  C3  UNL     1      -3.084 -29.721  19.850  1.00  0.00     0.322 C 
HETATM   27  O2  UNL     1      -2.638 -28.958  18.950  1.00  0.00    -0.252 OA
BRANCH  26  28
HETATM   28  O1  UNL     1      -2.213 -30.109  20.850  1.00  0.00    -0.313 OA
BRANCH  28  29
HETATM   29  C2  UNL     1      -2.386 -29.896  22.224  1.00  0.00     0.175 C 
HETATM   30  C1  UNL     1      -2.050 -31.223  22.919  1.00  0.00     0.034 C 
ENDBRANCH  28  29
ENDBRANCH  26  28
ENDBRANCH  25  26
ENDBRANCH  24  25
ENDBRANCH  23  24
ENDBRANCH   1  23
TORSDOF 10
ENDMDL
MODEL 4
REMARK VINA RESULT: -5.786576029      2.490      3.207
REMARK  10 active torsions:
REMARK  status: ('A' for Active; 'I' for Inactive)
REMARK    1  A    between atoms: C2_2  and  O1_3 
REMARK    2  A    between atoms: O1_3  and  C3_4 
REMARK    3  A    between atoms: C3_4  and  S1_6 
REMARK    4  A    between atoms: S1_6  and  C4_7 
REMARK    5  A    between atoms: C4_7  and  C5_8 
REMARK    6  A    between atoms: C5_8  and  C6_9 
REMARK       I    between atoms: C6_9  and  N1_11 
REMARK       I    between atoms: N1_11  and  C7_13 
REMARK       I    between atoms: C7_13  and  N3_17 
REMARK    7  A    between atoms: N3_17  and  C8_18 
REMARK    8  A    between atoms: N3_17  and  C15_26 
REMARK    9  A    between atoms: C8_18  and  C9_19 
REMARK   10  A    between atoms: C9_19  and  N4_20 
ROOT
HETATM    1  C6  UNL     1      -7.723 -34.469  16.305  1.00  0.00     0.236 C 
HETATM    2  O3  UNL     1      -8.712 -35.023  15.769  1.00  0.00    -0.273 OA
HETATM    3  N1  UNL     1      -6.903 -33.554  15.628  1.00  0.00    -0.160 N 
ATOM      4  H1  UNL     1      -6.123 -33.162  16.156  1.00  0.00     0.187 HD
HETATM    5  C7  UNL     1      -7.044 -33.118  14.291  1.00  0.00     0.681 C 
HETATM    6  N2  UNL     1      -6.189 -32.269  13.839  1.00  0.00    -0.234 N 
ATOM      7  H21 UNL     1      -6.291 -31.954  12.875  1.00  0.00     0.174 HD
ATOM      8  H22 UNL     1      -5.436 -31.929  14.439  1.00  0.00     0.174 HD
HETATM    9  N3  UNL     1      -8.104 -33.596  13.446  1.00  0.00    -0.178 N 
ENDROOT
BRANCH   9  10
HETATM   10  C8  UNL     1      -9.283 -32.789  13.373  1.00  0.00     0.192 C 
BRANCH  10  11
HETATM   11  C9  UNL     1      -9.814 -32.202  14.616  1.00  0.00     0.079 C 
BRANCH  11  12
HETATM   12  N4  UNL     1     -10.797 -31.240  14.596  1.00  0.00    -0.392 N 
HETATM   13  C10 UNL     1     -11.178 -30.838  13.249  1.00  0.00     0.122 C 
HETATM   14  C11 UNL     1     -11.168 -29.308  13.229  1.00  0.00     0.020 C 
HETATM   15  C12 UNL     1     -12.055 -28.805  14.358  1.00  0.00     0.003 C 
HETATM   16  C13 UNL     1     -12.756 -29.953  15.036  1.00  0.00     0.020 C 
HETATM   17  C14 UNL     1     -11.750 -30.987  15.568  1.00  0.00     0.122 C 
ENDBRANCH  11  12
ENDBRANCH  10  11
ENDBRANCH   9  10
BRANCH   9  18
HETATM   18  C15 UNL     1      -7.962 -34.884  12.784  1.00  0.00     0.059 A 
HETATM   19  C16 UNL     1      -6.808 -35.565  12.706  1.00  0.00     0.038 A 
HETATM   20  C17 UNL     1      -6.820 -36.768  12.058  1.00  0.00     0.052 A 
HETATM   21  S2  UNL     1      -8.441 -36.925  11.570  1.00  0.00    -0.111 SA
HETATM   22  C18 UNL     1      -9.062 -35.468  12.197  1.00  0.00     0.079 A 
ENDBRANCH   9  18
BRANCH   1  23
HETATM   23  C5  UNL     1      -7.459 -34.840  17.719  1.00  0.00     0.114 C 
BRANCH  23  24
HETATM   24  C4  UNL     1      -7.286 -33.632  18.599  1.00  0.00     0.094 C 
BRANCH  24  25
HETATM   25  S1  UNL     1      -5.622 -33.474  19.270  1.00  0.00    -0.061 SA
BRANCH  25  26
HETATM   26  C3  UNL     1      -4.804 -32.139  18.365  1.00  0.00     0.322 C 
HETATM   27  O2  UNL     1      -5.258 -31.733  17.260  1.00  0.00    -0.252 OA
BRANCH  26  28
HETATM   28  O1  UNL     1      -3.666 -31.526  18.853  1.00  0.00    -0.313 OA
BRANCH  28  29
HETATM   29  C2  UNL     1      -3.606 -30.267  19.467  1.00  0.00     0.175 C 
HETATM   30  C1  UNL     1      -2.559 -30.375  20.585  1.00  0.00     0.034 C 
ENDBRANCH  28  29
ENDBRANCH  26  28
ENDBRANCH  25  26
ENDBRANCH  24  25
ENDBRANCH  23  24
ENDBRANCH   1  23
TORSDOF 10
ENDMDL
MODEL 5
REMARK VINA RESULT: -5.769130220      1.256      1.363
REMARK  10 active torsions:
REMARK  status: ('A' for Active; 'I' for Inactive)
REMARK    1  A    between atoms: C2_2  and  O1_3 
REMARK    2  A    between atoms: O1_3  and  C3_4 
REMARK    3  A    between atoms: C3_4  and  S1_6 
REMARK    4  A    between atoms: S1_6  and  C4_7 
REMARK    5  A    between atoms: C4_7  and  C5_8 
REMARK    6  A    between atoms: C5_8  and  C6_9 
REMARK       I    between atoms: C6_9  and  N1_11 
REMARK       I    between atoms: N1_11  and  C7_13 
REMARK       I    between atoms: C7_13  and  N3_17 
REMARK    7  A    between atoms: N3_17  and  C8_18 
REMARK    8  A    between atoms: N3_17  and  C15_26 
REMARK    9  A    between atoms: C8_18  and  C9_19 
REMARK   10  A    between atoms: C9_19  and  N4_20 
ROOT
HETATM    1  C6  UNL     1      -6.946 -32.340  17.078  1.00  0.00     0.236 C 
HETATM    2  O3  UNL     1      -8.100 -32.786  17.277  1.00  0.00    -0.273 OA
HETATM    3  N1  UNL     1      -6.332 -32.351  15.816  1.00  0.00    -0.160 N 
ATOM      4  H1  UNL     1      -5.390 -31.964  15.763  1.00  0.00     0.187 HD
HETATM    5  C7  UNL     1      -6.883 -32.843  14.610  1.00  0.00     0.681 C 
HETATM    6  N2  UNL     1      -6.165 -32.770  13.545  1.00  0.00    -0.234 N 
ATOM      7  H21 UNL     1      -6.562 -33.124  12.675  1.00  0.00     0.174 HD
ATOM      8  H22 UNL     1      -5.228 -32.368  13.583  1.00  0.00     0.174 HD
HETATM    9  N3  UNL     1      -8.202 -33.410  14.556  1.00  0.00    -0.178 N 
ENDROOT
BRANCH   9  10
HETATM   10  C8  UNL     1      -9.265 -32.532  14.173  1.00  0.00     0.192 C 
BRANCH  10  11
HETATM   11  C9  UNL     1     -10.246 -32.123  15.194  1.00  0.00     0.079 C 
BRANCH  11  12
HETATM   12  N4  UNL     1     -11.118 -31.081  14.980  1.00  0.00    -0.392 N 
HETATM   13  C10 UNL     1     -11.409 -30.859  13.570  1.00  0.00     0.122 C 
HETATM   14  C11 UNL     1     -11.234 -29.360  13.317  1.00  0.00     0.020 C 
HETATM   15  C12 UNL     1     -12.098 -28.598  14.312  1.00  0.00     0.003 C 
HETATM   16  C13 UNL     1     -12.940 -29.548  15.122  1.00  0.00     0.020 C 
HETATM   17  C14 UNL     1     -12.069 -30.583  15.853  1.00  0.00     0.122 C 
ENDBRANCH  11  12
ENDBRANCH  10  11
ENDBRANCH   9  10
BRANCH   9  18
HETATM   18  C15 UNL     1      -8.401 -34.794  14.960  1.00  0.00     0.059 A 
HETATM   19  C16 UNL     1      -7.420 -35.595  15.402  1.00  0.00     0.038 A 
HETATM   20  C17 UNL     1      -7.750 -36.873  15.754  1.00  0.00     0.052 A 
HETATM   21  S2  UNL     1      -9.423 -36.933  15.458  1.00  0.00    -0.111 SA
HETATM   22  C18 UNL     1      -9.663 -35.342  14.898  1.00  0.00     0.079 A 
ENDBRANCH   9  18
BRANCH   1  23
HETATM   23  C5  UNL     1      -6.248 -31.788  18.268  1.00  0.00     0.114 C 
BRANCH  23  24
HETATM   24  C4  UNL     1      -4.764 -31.675  18.054  1.00  0.00     0.094 C 
BRANCH  24  25
HETATM   25  S1  UNL     1      -3.858 -31.268  19.557  1.00  0.00    -0.061 SA
BRANCH  25  26
HETATM   26  C3  UNL     1      -3.658 -29.471  19.590  1.00  0.00     0.322 C 
HETATM   27  O2  UNL     1      -2.796 -28.902  18.865  1.00  0.00    -0.252 OA
BRANCH  26  28
HETATM   28  O1  UNL     1      -4.437 -28.671  20.404  1.00  0.00    -0.313 OA
BRANCH  28  29
HETATM   29  C2  UNL     1      -4.726 -28.902  21.755  1.00  0.00     0.175 C 
HETATM   30  C1  UNL     1      -5.807 -27.888  22.153  1.00  0.00     0.034 C 
ENDBRANCH  28  29
ENDBRANCH  26  28
ENDBRANCH  25  26
ENDBRANCH  24  25
ENDBRANCH  23  24
ENDBRANCH   1  23
TORSDOF 10
ENDMDL
