MODEL 1
REMARK VINA RESULT: -6.188233504      0.000      0.000
REMARK  13 active torsions:
REMARK  status: ('A' for Active; 'I' for Inactive)
REMARK    1  A    between atoms: C2_2  and  C4_4 
REMARK    2  A    between atoms: C4_4  and  O1_5 
REMARK    3  A    between atoms: C4_4  and  C5_7 
REMARK    4  A    between atoms: C5_7  and  C6_8 
REMARK    5  A    between atoms: C6_8  and  C7_9 
REMARK    6  A    between atoms: C12_14  and  C13_15 
REMARK    7  A    between atoms: C13_15  and  O2_16 
REMARK    8  A    between atoms: C13_15  and  C14_18 
REMARK    9  A    between atoms: C16_21  and  C17_22 
REMARK   10  A    between atoms: C17_22  and  O4_23 
REMARK   11  A    between atoms: C17_22  and  C18_25 
REMARK   12  A    between atoms: C18_25  and  O5_26 
REMARK   13  A    between atoms: O5_26  and  C19_27 
ROOT
HETATM    1  C7  UNL     1      -8.658 -32.694  16.397  1.00  0.00    -0.028 C 
HETATM    2  C8  UNL     1      -7.874 -32.771  15.294  1.00  0.00    -0.073 C 
HETATM    3  C9  UNL     1      -8.561 -32.961  13.970  1.00  0.00     0.044 C 
HETATM    4  C10 UNL     1      -6.419 -32.658  15.304  1.00  0.00     0.035 C 
HETATM    5  C11 UNL     1      -5.772 -32.360  16.605  1.00  0.00     0.016 C 
HETATM    6  C12 UNL     1      -6.727 -31.675  17.556  1.00  0.00     0.052 C 
HETATM    7  C21 UNL     1      -7.893 -32.591  17.626  1.00  0.00    -0.050 C 
HETATM    8  C22 UNL     1      -8.193 -33.328  18.667  1.00  0.00     0.020 C 
ENDROOT
BRANCH   6   9
HETATM    9  C13 UNL     1      -6.097 -31.453  18.914  1.00  0.00     0.181 C 
BRANCH   9  10
HETATM   10  O2  UNL     1      -6.665 -30.294  19.447  1.00  0.00    -0.390 OA
ATOM     11  H2  UNL     1      -6.020 -29.602  19.363  1.00  0.00     0.210 HD
ENDBRANCH   9  10
BRANCH   9  12
HETATM   12  C14 UNL     1      -4.628 -31.150  18.671  1.00  0.00     0.289 C 
HETATM   13  O3  UNL     1      -4.403 -29.834  18.370  1.00  0.00    -0.356 OA
HETATM   14  C15 UNL     1      -3.295 -29.376  19.030  1.00  0.00     0.205 C 
HETATM   15  C16 UNL     1      -2.929 -30.493  19.952  1.00  0.00     0.179 C 
HETATM   16  O7  UNL     1      -3.957 -31.426  19.863  1.00  0.00    -0.349 OA
BRANCH  15  17
HETATM   17  C17 UNL     1      -2.800 -30.023  21.388  1.00  0.00     0.173 C 
BRANCH  17  18
HETATM   18  O4  UNL     1      -1.971 -30.898  22.094  1.00  0.00    -0.391 OA
ATOM     19  H4  UNL     1      -1.460 -30.410  22.729  1.00  0.00     0.210 HD
ENDBRANCH  17  18
BRANCH  17  20
HETATM   20  C18 UNL     1      -4.168 -29.979  22.035  1.00  0.00     0.213 C 
BRANCH  20  21
HETATM   21  O5  UNL     1      -4.516 -28.602  22.186  1.00  0.00    -0.319 OA
BRANCH  21  22
HETATM   22  C19 UNL     1      -5.796 -28.154  21.885  1.00  0.00     0.254 C 
HETATM   23  C20 UNL     1      -6.873 -28.185  22.903  1.00  0.00     0.126 C 
HETATM   24  O6  UNL     1      -6.005 -27.721  20.714  1.00  0.00    -0.266 OA
ENDBRANCH  21  22
ENDBRANCH  20  21
ENDBRANCH  17  20
ENDBRANCH  15  17
ENDBRANCH   9  12
ENDBRANCH   6   9
BRANCH   1  25
HETATM   25  C6  UNL     1     -10.107 -32.787  16.305  1.00  0.00     0.015 C 
BRANCH  25  26
HETATM   26  C5  UNL     1     -10.962 -31.882  16.649  1.00  0.00     0.038 C 
BRANCH  26  27
HETATM   27  C4  UNL     1     -11.807 -31.062  15.853  1.00  0.00     0.070 C 
BRANCH  27  28
HETATM   28  C2  UNL     1     -11.578 -30.161  14.766  1.00  0.00    -0.038 C 
HETATM   29  C1  UNL     1     -11.007 -30.308  13.608  1.00  0.00     0.021 C 
HETATM   30  C3  UNL     1     -12.101 -28.731  14.980  1.00  0.00     0.050 C 
ENDBRANCH  27  28
BRANCH  27  31
HETATM   31  O1  UNL     1     -13.090 -31.178  16.221  1.00  0.00    -0.360 OA
ATOM     32  H1  UNL     1     -13.220 -31.496  17.106  1.00  0.00     0.217 HD
ENDBRANCH  27  31
ENDBRANCH  26  27
ENDBRANCH  25  26
ENDBRANCH   1  25
TORSDOF 13
ENDMDL
MODEL 2
REMARK VINA RESULT: -6.014168618      1.392      2.527
REMARK  13 active torsions:
REMARK  status: ('A' for Active; 'I' for Inactive)
REMARK    1  A    between atoms: C2_2  and  C4_4 
REMARK    2  A    between atoms: C4_4  and  O1_5 
REMARK    3  A    between atoms: C4_4  and  C5_7 
REMARK    4  A    between atoms: C5_7  and  C6_8 
REMARK    5  A    between atoms: C6_8  and  C7_9 
REMARK    6  A    between atoms: C12_14  and  C13_15 
REMARK    7  A    between atoms: C13_15  and  O2_16 
REMARK    8  A    between atoms: C13_15  and  C14_18 
REMARK    9  A    between atoms: C16_21  and  C17_22 
REMARK   10  A    between atoms: C17_22  and  O4_23 
REMARK   11  A    between atoms: C17_22  and  C18_25 
REMARK   12  A    between atoms: C18_25  and  O5_26 
REMARK   13  A    between atoms: O5_26  and  C19_27 
ROOT
HETATM    1  C7  UNL     1      -8.699 -32.672  16.467  1.00  0.00    -0.028 C 
HETATM    2  C8  UNL     1      -7.825 -32.701  15.432  1.00  0.00    -0.073 C 
HETATM    3  C9  UNL     1      -8.398 -32.850  14.049  1.00  0.00     0.044 C 
HETATM    4  C10 UNL     1      -6.377 -32.575  15.566  1.00  0.00     0.035 C 
HETATM    5  C11 UNL     1      -5.844 -32.317  16.927  1.00  0.00     0.016 C 
HETATM    6  C12 UNL     1      -6.883 -31.675  17.818  1.00  0.00     0.052 C 
HETATM    7  C21 UNL     1      -8.039 -32.605  17.759  1.00  0.00    -0.050 C 
HETATM    8  C22 UNL     1      -8.415 -33.382  18.744  1.00  0.00     0.020 C 
ENDROOT
BRANCH   6   9
HETATM    9  C13 UNL     1      -6.370 -31.497  19.231  1.00  0.00     0.181 C 
BRANCH   9  10
HETATM   10  O2  UNL     1      -6.971 -30.344  19.743  1.00  0.00    -0.390 OA
ATOM     11  H2  UNL     1      -6.629 -30.218  20.621  1.00  0.00     0.210 HD
ENDBRANCH   9  10
BRANCH   9  12
HETATM   12  C14 UNL     1      -4.883 -31.206  19.123  1.00  0.00     0.289 C 
HETATM   13  O3  UNL     1      -4.613 -29.869  19.000  1.00  0.00    -0.356 OA
HETATM   14  C15 UNL     1      -3.545 -29.525  19.783  1.00  0.00     0.205 C 
HETATM   15  C16 UNL     1      -3.263 -30.754  20.582  1.00  0.00     0.179 C 
HETATM   16  O7  UNL     1      -4.300 -31.642  20.313  1.00  0.00    -0.349 OA
BRANCH  15  17
HETATM   17  C17 UNL     1      -3.223 -30.465  22.071  1.00  0.00     0.173 C 
BRANCH  17  18
HETATM   18  O4  UNL     1      -3.489 -29.111  22.292  1.00  0.00    -0.391 OA
ATOM     19  H4  UNL     1      -3.192 -28.866  23.161  1.00  0.00     0.210 HD
ENDBRANCH  17  18
BRANCH  17  20
HETATM   20  C18 UNL     1      -1.857 -30.815  22.622  1.00  0.00     0.213 C 
BRANCH  20  21
HETATM   21  O5  UNL     1      -2.062 -31.416  23.901  1.00  0.00    -0.319 OA
BRANCH  21  22
HETATM   22  C19 UNL     1      -2.079 -32.797  24.045  1.00  0.00     0.254 C 
HETATM   23  C20 UNL     1      -3.344 -33.560  23.917  1.00  0.00     0.126 C 
HETATM   24  O6  UNL     1      -0.980 -33.375  24.289  1.00  0.00    -0.266 OA
ENDBRANCH  21  22
ENDBRANCH  20  21
ENDBRANCH  17  20
ENDBRANCH  15  17
ENDBRANCH   9  12
ENDBRANCH   6   9
BRANCH   1  25
HETATM   25  C6  UNL     1     -10.134 -32.775  16.252  1.00  0.00     0.015 C 
BRANCH  25  26
HETATM   26  C5  UNL     1     -11.033 -31.925  16.623  1.00  0.00     0.038 C 
BRANCH  26  27
HETATM   27  C4  UNL     1     -11.844 -31.046  15.854  1.00  0.00     0.070 C 
BRANCH  27  28
HETATM   28  C2  UNL     1     -11.586 -30.161  14.760  1.00  0.00    -0.038 C 
HETATM   29  C1  UNL     1     -10.989 -30.326  13.618  1.00  0.00     0.021 C 
HETATM   30  C3  UNL     1     -12.109 -28.727  14.943  1.00  0.00     0.050 C 
ENDBRANCH  27  28
BRANCH  27  31
HETATM   31  O1  UNL     1     -13.119 -31.072  16.262  1.00  0.00    -0.360 OA
ATOM     32  H1  UNL     1     -13.536 -31.923  16.201  1.00  0.00     0.217 HD
ENDBRANCH  27  31
ENDBRANCH  26  27
ENDBRANCH  25  26
ENDBRANCH   1  25
TORSDOF 13
ENDMDL
MODEL 3
REMARK VINA RESULT: -5.984071647      1.306      1.539
REMARK  13 active torsions:
REMARK  status: ('A' for Active; 'I' for Inactive)
REMARK    1  A    between atoms: C2_2  and  C4_4 
REMARK    2  A    between atoms: C4_4  and  O1_5 
REMARK    3  A    between atoms: C4_4  and  C5_7 
REMARK    4  A    between atoms: C5_7  and  C6_8 
REMARK    5  A    between atoms: C6_8  and  C7_9 
REMARK    6  A    between atoms: C12_14  and  C13_15 
REMARK    7  A    between atoms: C13_15  and  O2_16 
REMARK    8  A    between atoms: C13_15  and  C14_18 
REMARK    9  A    between atoms: C16_21  and  C17_22 
REMARK   10  A    between atoms: C17_22  and  O4_23 
REMARK   11  A    between atoms: C17_22  and  C18_25 
REMARK   12  A    between atoms: C18_25  and  O5_26 
REMARK   13  A    between atoms: O5_26  and  C19_27 
ROOT
HETATM    1  C7  UNL     1      -9.557 -33.218  15.243  1.00  0.00    -0.028 C 
HETATM    2  C8  UNL     1      -8.832 -32.959  14.128  1.00  0.00    -0.073 C 
HETATM    3  C9  UNL     1      -9.574 -32.884  12.823  1.00  0.00     0.044 C 
HETATM    4  C10 UNL     1      -7.391 -32.724  14.114  1.00  0.00     0.035 C 
HETATM    5  C11 UNL     1      -6.698 -32.692  15.426  1.00  0.00     0.016 C 
HETATM    6  C12 UNL     1      -7.649 -32.342  16.548  1.00  0.00     0.052 C 
HETATM    7  C21 UNL     1      -8.735 -33.348  16.433  1.00  0.00    -0.050 C 
HETATM    8  C22 UNL     1      -8.920 -34.337  17.271  1.00  0.00     0.020 C 
ENDROOT
BRANCH   6   9
HETATM    9  C13 UNL     1      -6.963 -32.399  17.896  1.00  0.00     0.181 C 
BRANCH   9  10
HETATM   10  O2  UNL     1      -7.661 -31.540  18.749  1.00  0.00    -0.390 OA
ATOM     11  H2  UNL     1      -7.083 -30.812  18.945  1.00  0.00     0.210 HD
ENDBRANCH   9  10
BRANCH   9  12
HETATM   12  C14 UNL     1      -5.579 -31.803  17.709  1.00  0.00     0.289 C 
HETATM   13  O3  UNL     1      -5.569 -30.439  17.830  1.00  0.00    -0.356 OA
HETATM   14  C15 UNL     1      -4.487 -30.033  18.561  1.00  0.00     0.205 C 
HETATM   15  C16 UNL     1      -3.889 -31.303  19.070  1.00  0.00     0.179 C 
HETATM   16  O7  UNL     1      -4.777 -32.318  18.728  1.00  0.00    -0.349 OA
BRANCH  15  17
HETATM   17  C17 UNL     1      -3.707 -31.281  20.576  1.00  0.00     0.173 C 
BRANCH  17  18
HETATM   18  O4  UNL     1      -4.669 -32.098  21.175  1.00  0.00    -0.391 OA
ATOM     19  H4  UNL     1      -4.431 -32.258  22.081  1.00  0.00     0.210 HD
ENDBRANCH  17  18
BRANCH  17  20
HETATM   20  C18 UNL     1      -3.850 -29.863  21.086  1.00  0.00     0.213 C 
BRANCH  20  21
HETATM   21  O5  UNL     1      -4.853 -29.882  22.102  1.00  0.00    -0.319 OA
BRANCH  21  22
HETATM   22  C19 UNL     1      -6.092 -29.292  21.891  1.00  0.00     0.254 C 
HETATM   23  C20 UNL     1      -6.442 -28.003  22.535  1.00  0.00     0.126 C 
HETATM   24  O6  UNL     1      -6.907 -29.894  21.132  1.00  0.00    -0.266 OA
ENDBRANCH  21  22
ENDBRANCH  20  21
ENDBRANCH  17  20
ENDBRANCH  15  17
ENDBRANCH   9  12
ENDBRANCH   6   9
BRANCH   1  25
HETATM   25  C6  UNL     1     -10.998 -33.414  15.182  1.00  0.00     0.015 C 
BRANCH  25  26
HETATM   26  C5  UNL     1     -11.905 -32.604  15.617  1.00  0.00     0.038 C 
BRANCH  26  27
HETATM   27  C4  UNL     1     -11.855 -31.202  15.849  1.00  0.00     0.070 C 
BRANCH  27  28
HETATM   28  C2  UNL     1     -11.815 -30.056  14.993  1.00  0.00    -0.038 C 
HETATM   29  C1  UNL     1     -11.294 -29.852  13.821  1.00  0.00     0.021 C 
HETATM   30  C3  UNL     1     -12.520 -28.805  15.544  1.00  0.00     0.050 C 
ENDBRANCH  27  28
BRANCH  27  31
HETATM   31  O1  UNL     1     -11.845 -30.921  17.158  1.00  0.00    -0.360 OA
ATOM     32  H1  UNL     1     -12.077 -31.651  17.721  1.00  0.00     0.217 HD
ENDBRANCH  27  31
ENDBRANCH  26  27
ENDBRANCH  25  26
ENDBRANCH   1  25
TORSDOF 13
ENDMDL
MODEL 4
REMARK VINA RESULT: -5.949747214      2.325      7.785
REMARK  13 active torsions:
REMARK  status: ('A' for Active; 'I' for Inactive)
REMARK    1  A    between atoms: C2_2  and  C4_4 
REMARK    2  A    between atoms: C4_4  and  O1_5 
REMARK    3  A    between atoms: C4_4  and  C5_7 
REMARK    4  A    between atoms: C5_7  and  C6_8 
REMARK    5  A    between atoms: C6_8  and  C7_9 
REMARK    6  A    between atoms: C12_14  and  C13_15 
REMARK    7  A    between atoms: C13_15  and  O2_16 
REMARK    8  A    between atoms: C13_15  and  C14_18 
REMARK    9  A    between atoms: C16_21  and  C17_22 
REMARK   10  A    between atoms: C17_22  and  O4_23 
REMARK   11  A    between atoms: C17_22  and  C18_25 
REMARK   12  A    between atoms: C18_25  and  O5_26 
REMARK   13  A    between atoms: O5_26  and  C19_27 
ROOT
HETATM    1  C7  UNL     1      -4.595 -31.680  21.255  1.00  0.00    -0.028 C 
HETATM    2  C8  UNL     1      -5.465 -32.410  21.993  1.00  0.00    -0.073 C 
HETATM    3  C9  UNL     1      -5.480 -32.174  23.478  1.00  0.00     0.044 C 
HETATM    4  C10 UNL     1      -6.400 -33.386  21.443  1.00  0.00     0.035 C 
HETATM    5  C11 UNL     1      -6.446 -33.522  19.966  1.00  0.00     0.016 C 
HETATM    6  C12 UNL     1      -5.958 -32.268  19.278  1.00  0.00     0.052 C 
HETATM    7  C21 UNL     1      -4.606 -32.041  19.849  1.00  0.00    -0.050 C 
HETATM    8  C22 UNL     1      -3.486 -32.222  19.194  1.00  0.00     0.020 C 
ENDROOT
BRANCH   6   9
HETATM    9  C13 UNL     1      -5.917 -32.438  17.774  1.00  0.00     0.181 C 
BRANCH   9  10
HETATM   10  O2  UNL     1      -6.016 -31.162  17.213  1.00  0.00    -0.390 OA
ATOM     11  H2  UNL     1      -5.943 -31.265  16.272  1.00  0.00     0.210 HD
ENDBRANCH   9  10
BRANCH   9  12
HETATM   12  C14 UNL     1      -7.179 -33.189  17.385  1.00  0.00     0.289 C 
HETATM   13  O3  UNL     1      -8.292 -32.391  17.392  1.00  0.00    -0.356 OA
HETATM   14  C15 UNL     1      -9.071 -32.651  16.297  1.00  0.00     0.205 C 
HETATM   15  C16 UNL     1      -8.244 -33.577  15.468  1.00  0.00     0.179 C 
HETATM   16  O7  UNL     1      -6.994 -33.635  16.076  1.00  0.00    -0.349 OA
BRANCH  15  17
HETATM   17  C17 UNL     1      -8.088 -33.078  14.045  1.00  0.00     0.173 C 
BRANCH  17  18
HETATM   18  O4  UNL     1      -7.316 -31.913  14.040  1.00  0.00    -0.391 OA
ATOM     19  H4  UNL     1      -6.865 -31.834  13.207  1.00  0.00     0.210 HD
ENDBRANCH  17  18
BRANCH  17  20
HETATM   20  C18 UNL     1      -9.451 -32.791  13.453  1.00  0.00     0.213 C 
BRANCH  20  21
HETATM   21  O5  UNL     1      -9.589 -31.371  13.384  1.00  0.00    -0.319 OA
BRANCH  21  22
HETATM   22  C19 UNL     1     -10.826 -30.765  13.557  1.00  0.00     0.254 C 
HETATM   23  C20 UNL     1     -11.047 -29.354  13.159  1.00  0.00     0.126 C 
HETATM   24  O6  UNL     1     -11.754 -31.461  14.066  1.00  0.00    -0.266 OA
ENDBRANCH  21  22
ENDBRANCH  20  21
ENDBRANCH  17  20
ENDBRANCH  15  17
ENDBRANCH   9  12
ENDBRANCH   6   9
BRANCH   1  25
HETATM   25  C6  UNL     1      -3.711 -30.702  21.872  1.00  0.00     0.015 C 
BRANCH  25  26
HETATM   26  C5  UNL     1      -3.814 -29.416  21.801  1.00  0.00     0.038 C 
BRANCH  26  27
HETATM   27  C4  UNL     1      -4.964 -28.588  21.685  1.00  0.00     0.070 C 
BRANCH  27  28
HETATM   28  C2  UNL     1      -6.322 -28.824  21.303  1.00  0.00    -0.038 C 
HETATM   29  C1  UNL     1      -7.394 -29.090  21.986  1.00  0.00     0.021 C 
HETATM   30  C3  UNL     1      -6.596 -28.755  19.791  1.00  0.00     0.050 C 
ENDBRANCH  27  28
BRANCH  27  31
HETATM   31  O1  UNL     1      -4.689 -27.319  22.012  1.00  0.00    -0.360 OA
ATOM     32  H1  UNL     1      -4.331 -27.204  22.884  1.00  0.00     0.217 HD
ENDBRANCH  27  31
ENDBRANCH  26  27
ENDBRANCH  25  26
ENDBRANCH   1  25
TORSDOF 13
ENDMDL
MODEL 5
REMARK VINA RESULT: -5.921317484      1.626      2.494
REMARK  13 active torsions:
REMARK  status: ('A' for Active; 'I' for Inactive)
REMARK    1  A    between atoms: C2_2  and  C4_4 
REMARK    2  A    between atoms: C4_4  and  O1_5 
REMARK    3  A    between atoms: C4_4  and  C5_7 
REMARK    4  A    between atoms: C5_7  and  C6_8 
REMARK    5  A    between atoms: C6_8  and  C7_9 
REMARK    6  A    between atoms: C12_14  and  C13_15 
REMARK    7  A    between atoms: C13_15  and  O2_16 
REMARK    8  A    between atoms: C13_15  and  C14_18 
REMARK    9  A    between atoms: C16_21  and  C17_22 
REMARK   10  A    between atoms: C17_22  and  O4_23 
REMARK   11  A    between atoms: C17_22  and  C18_25 
REMARK   12  A    between atoms: C18_25  and  O5_26 
REMARK   13  A    between atoms: O5_26  and  C19_27 
ROOT
HETATM    1  C7  UNL     1      -9.945 -33.344  14.872  1.00  0.00    -0.028 C 
HETATM    2  C8  UNL     1      -9.185 -33.189  13.762  1.00  0.00    -0.073 C 
HETATM    3  C9  UNL     1      -9.902 -33.046  12.448  1.00  0.00     0.044 C 
HETATM    4  C10 UNL     1      -7.727 -33.127  13.759  1.00  0.00     0.035 C 
HETATM    5  C11 UNL     1      -7.046 -33.158  15.077  1.00  0.00     0.016 C 
HETATM    6  C12 UNL     1      -7.957 -32.681  16.185  1.00  0.00     0.052 C 
HETATM    7  C21 UNL     1      -9.154 -33.552  16.072  1.00  0.00    -0.050 C 
HETATM    8  C22 UNL     1      -9.463 -34.500  16.923  1.00  0.00     0.020 C 
ENDROOT
BRANCH   6   9
HETATM    9  C13 UNL     1      -7.295 -32.800  17.541  1.00  0.00     0.181 C 
BRANCH   9  10
HETATM   10  O2  UNL     1      -7.990 -31.959  18.413  1.00  0.00    -0.390 OA
ATOM     11  H2  UNL     1      -8.434 -32.515  19.042  1.00  0.00     0.210 HD
ENDBRANCH   9  10
BRANCH   9  12
HETATM   12  C14 UNL     1      -5.897 -32.224  17.396  1.00  0.00     0.289 C 
HETATM   13  O3  UNL     1      -5.891 -30.856  17.337  1.00  0.00    -0.356 OA
HETATM   14  C15 UNL     1      -4.874 -30.350  18.099  1.00  0.00     0.205 C 
HETATM   15  C16 UNL     1      -4.328 -31.538  18.820  1.00  0.00     0.179 C 
HETATM   16  O7  UNL     1      -5.188 -32.594  18.539  1.00  0.00    -0.349 OA
BRANCH  15  17
HETATM   17  C17 UNL     1      -4.277 -31.316  20.320  1.00  0.00     0.173 C 
BRANCH  17  18
HETATM   18  O4  UNL     1      -5.420 -31.857  20.912  1.00  0.00    -0.391 OA
ATOM     19  H4  UNL     1      -5.184 -32.286  21.727  1.00  0.00     0.210 HD
ENDBRANCH  17  18
BRANCH  17  20
HETATM   20  C18 UNL     1      -4.201 -29.833  20.614  1.00  0.00     0.213 C 
BRANCH  20  21
HETATM   21  O5  UNL     1      -3.505 -29.686  21.852  1.00  0.00    -0.319 OA
BRANCH  21  22
HETATM   22  C19 UNL     1      -2.245 -30.242  22.031  1.00  0.00     0.254 C 
HETATM   23  C20 UNL     1      -1.974 -31.168  23.156  1.00  0.00     0.126 C 
HETATM   24  O6  UNL     1      -1.342 -29.928  21.201  1.00  0.00    -0.266 OA
ENDBRANCH  21  22
ENDBRANCH  20  21
ENDBRANCH  17  20
ENDBRANCH  15  17
ENDBRANCH   9  12
ENDBRANCH   6   9
BRANCH   1  25
HETATM   25  C6  UNL     1     -11.398 -33.368  14.800  1.00  0.00     0.015 C 
BRANCH  25  26
HETATM   26  C5  UNL     1     -12.207 -32.461  15.237  1.00  0.00     0.038 C 
BRANCH  26  27
HETATM   27  C4  UNL     1     -11.990 -31.080  15.498  1.00  0.00     0.070 C 
BRANCH  27  28
HETATM   28  C2  UNL     1     -11.699 -29.948  14.673  1.00  0.00    -0.038 C 
HETATM   29  C1  UNL     1     -11.078 -29.824  13.539  1.00  0.00     0.021 C 
HETATM   30  C3  UNL     1     -12.211 -28.601  15.209  1.00  0.00     0.050 C 
ENDBRANCH  27  28
BRANCH  27  31
HETATM   31  O1  UNL     1     -12.084 -30.808  16.806  1.00  0.00    -0.360 OA
ATOM     32  H1  UNL     1     -12.250 -31.564  17.356  1.00  0.00     0.217 HD
ENDBRANCH  27  31
ENDBRANCH  26  27
ENDBRANCH  25  26
ENDBRANCH   1  25
TORSDOF 13
ENDMDL
