MODEL 1
REMARK VINA RESULT: -7.581740583      0.000      0.000
REMARK  9 active torsions:
REMARK  status: ('A' for Active; 'I' for Inactive)
REMARK    1  A    between atoms: C2_5  and  C3_6 
REMARK    2  A    between atoms: C3_6  and  C4_7 
REMARK    3  A    between atoms: C4_7  and  C5_8 
REMARK    4  A    between atoms: C7_14  and  C8_15 
REMARK    5  A    between atoms: C8_15  and  O2_16 
REMARK    6  A    between atoms: C9_18  and  C10_19 
REMARK    7  A    between atoms: C15_24  and  O3_25 
REMARK    8  A    between atoms: O3_25  and  C16_26 
REMARK    9  A    between atoms: C16_26  and  C17_27 
ROOT
HETATM    1  C5  UNL     1      -6.822 -32.024  17.630  1.00  0.00     0.104 A 
HETATM    2  N2  UNL     1      -5.536 -31.984  17.140  1.00  0.00    -0.287 N 
ATOM      3  H2  UNL     1      -4.696 -31.749  17.668  1.00  0.00     0.188 HD
HETATM    4  N3  UNL     1      -5.588 -32.304  15.866  1.00  0.00    -0.283 N 
ATOM      5  H3  UNL     1      -4.784 -32.363  15.241  1.00  0.00     0.188 HD
HETATM    6  C6  UNL     1      -6.884 -32.545  15.507  1.00  0.00     0.140 A 
HETATM    7  C7  UNL     1      -7.346 -32.925  14.242  1.00  0.00     0.041 A 
HETATM    8  C9  UNL     1      -8.716 -33.112  14.131  1.00  0.00    -0.003 A 
HETATM    9  C15 UNL     1      -9.500 -32.901  15.278  1.00  0.00     0.092 A 
HETATM   10  C20 UNL     1      -8.949 -32.516  16.494  1.00  0.00     0.137 A 
HETATM   11  N4  UNL     1      -7.605 -32.354  16.597  1.00  0.00    -0.292 N 
ENDROOT
BRANCH   1  12
HETATM   12  C4  UNL     1      -7.074 -31.999  19.078  1.00  0.00     0.084 C 
BRANCH  12  13
HETATM   13  C3  UNL     1      -6.764 -30.691  19.686  1.00  0.00     0.060 C 
BRANCH  13  14
HETATM   14  C2  UNL     1      -5.394 -30.223  19.840  1.00  0.00    -0.007 C 
HETATM   15  N1  UNL     1      -4.668 -29.556  19.052  1.00  0.00    -0.316 N 
HETATM   16  C1  UNL     1      -3.289 -29.188  19.383  1.00  0.00     0.320 C 
ATOM     17  H1  UNL     1      -5.055 -29.264  18.154  1.00  0.00     0.170 HD
HETATM   18  O1  UNL     1      -2.578 -28.520  18.637  1.00  0.00    -0.247 OA
HETATM   19  N5  UNL     1      -2.761 -29.634  20.635  1.00  0.00    -0.343 N 
HETATM   20  C22 UNL     1      -3.417 -30.829  21.152  1.00  0.00     0.130 C 
ATOM     21  H5  UNL     1      -1.998 -29.161  21.120  1.00  0.00     0.164 HD
HETATM   22  C21 UNL     1      -4.857 -30.442  21.259  1.00  0.00     0.072 C 
ENDBRANCH  13  14
ENDBRANCH  12  13
ENDBRANCH   1  12
BRANCH   7  23
HETATM   23  C8  UNL     1      -6.295 -33.432  13.347  1.00  0.00     0.147 C 
BRANCH  23  24
HETATM   24  O2  UNL     1      -5.194 -32.709  13.001  1.00  0.00    -0.372 OA
ATOM     25  H2  UNL     1      -4.494 -32.502  13.609  1.00  0.00     0.216 HD
ENDBRANCH  23  24
ENDBRANCH   7  23
BRANCH   9  26
HETATM   26  O3  UNL     1     -10.861 -33.126  15.293  1.00  0.00    -0.349 OA
BRANCH  26  27
HETATM   27  C16 UNL     1     -11.836 -32.423  15.945  1.00  0.00     0.180 C 
BRANCH  27  28
HETATM   28  C17 UNL     1     -12.458 -31.333  15.048  1.00  0.00     0.010 A 
HETATM   29  C18 UNL     1     -11.663 -30.102  14.821  1.00  0.00     0.007 A 
HETATM   30  C19 UNL     1     -12.691 -30.053  15.854  1.00  0.00     0.007 A 
ENDBRANCH  27  28
ENDBRANCH  26  27
ENDBRANCH   9  26
BRANCH   8  31
HETATM   31  C10 UNL     1      -9.278 -33.507  12.833  1.00  0.00     0.022 C 
HETATM   32  C11 UNL     1      -9.736 -34.959  12.769  1.00  0.00     0.009 C 
HETATM   33  C12 UNL     1     -10.639 -35.000  11.533  1.00  0.00     0.001 C 
HETATM   34  C13 UNL     1     -10.761 -33.581  11.054  1.00  0.00     0.001 C 
HETATM   35  C14 UNL     1     -10.576 -32.876  12.435  1.00  0.00     0.009 C 
ENDBRANCH   8  31
TORSDOF 9
ENDMDL
MODEL 2
REMARK VINA RESULT: -7.565964282      1.194      1.383
REMARK  9 active torsions:
REMARK  status: ('A' for Active; 'I' for Inactive)
REMARK    1  A    between atoms: C2_5  and  C3_6 
REMARK    2  A    between atoms: C3_6  and  C4_7 
REMARK    3  A    between atoms: C4_7  and  C5_8 
REMARK    4  A    between atoms: C7_14  and  C8_15 
REMARK    5  A    between atoms: C8_15  and  O2_16 
REMARK    6  A    between atoms: C9_18  and  C10_19 
REMARK    7  A    between atoms: C15_24  and  O3_25 
REMARK    8  A    between atoms: O3_25  and  C16_26 
REMARK    9  A    between atoms: C16_26  and  C17_27 
ROOT
HETATM    1  C5  UNL     1      -6.880 -31.995  17.841  1.00  0.00     0.104 A 
HETATM    2  N2  UNL     1      -5.589 -31.934  17.365  1.00  0.00    -0.287 N 
ATOM      3  H2  UNL     1      -4.757 -31.696  17.905  1.00  0.00     0.188 HD
HETATM    4  N3  UNL     1      -5.624 -32.240  16.087  1.00  0.00    -0.283 N 
ATOM      5  H3  UNL     1      -4.813 -32.283  15.470  1.00  0.00     0.188 HD
HETATM    6  C6  UNL     1      -6.913 -32.491  15.712  1.00  0.00     0.140 A 
HETATM    7  C7  UNL     1      -7.358 -32.862  14.437  1.00  0.00     0.041 A 
HETATM    8  C9  UNL     1      -8.724 -33.063  14.310  1.00  0.00    -0.003 A 
HETATM    9  C15 UNL     1      -9.523 -32.874  15.451  1.00  0.00     0.092 A 
HETATM   10  C20 UNL     1      -8.989 -32.497  16.676  1.00  0.00     0.137 A 
HETATM   11  N4  UNL     1      -7.648 -32.322  16.796  1.00  0.00    -0.292 N 
ENDROOT
BRANCH   1  12
HETATM   12  C4  UNL     1      -7.147 -31.989  19.286  1.00  0.00     0.084 C 
BRANCH  12  13
HETATM   13  C3  UNL     1      -7.294 -30.627  19.833  1.00  0.00     0.060 C 
BRANCH  13  14
HETATM   14  C2  UNL     1      -6.204 -29.959  20.530  1.00  0.00    -0.007 C 
HETATM   15  N1  UNL     1      -5.156 -30.435  21.047  1.00  0.00    -0.316 N 
HETATM   16  C1  UNL     1      -4.170 -29.593  21.729  1.00  0.00     0.320 C 
ATOM     17  H1  UNL     1      -4.990 -31.440  20.988  1.00  0.00     0.170 HD
HETATM   18  O1  UNL     1      -3.134 -30.037  22.216  1.00  0.00    -0.247 OA
HETATM   19  N5  UNL     1      -4.440 -28.192  21.824  1.00  0.00    -0.343 N 
HETATM   20  C22 UNL     1      -5.859 -27.864  21.751  1.00  0.00     0.130 C 
ATOM     21  H5  UNL     1      -3.709 -27.488  21.931  1.00  0.00     0.164 HD
HETATM   22  C21 UNL     1      -6.302 -28.432  20.441  1.00  0.00     0.072 C 
ENDBRANCH  13  14
ENDBRANCH  12  13
ENDBRANCH   1  12
BRANCH   7  23
HETATM   23  C8  UNL     1      -6.292 -33.346  13.547  1.00  0.00     0.147 C 
BRANCH  23  24
HETATM   24  O2  UNL     1      -5.251 -32.571  13.135  1.00  0.00    -0.372 OA
ATOM     25  H2  UNL     1      -4.748 -32.748  12.349  1.00  0.00     0.216 HD
ENDBRANCH  23  24
ENDBRANCH   7  23
BRANCH   9  26
HETATM   26  O3  UNL     1     -10.881 -33.114  15.449  1.00  0.00    -0.349 OA
BRANCH  26  27
HETATM   27  C16 UNL     1     -11.870 -32.433  16.103  1.00  0.00     0.180 C 
BRANCH  27  28
HETATM   28  C17 UNL     1     -12.510 -31.349  15.211  1.00  0.00     0.010 A 
HETATM   29  C18 UNL     1     -11.725 -30.115  14.968  1.00  0.00     0.007 A 
HETATM   30  C19 UNL     1     -12.738 -30.067  16.016  1.00  0.00     0.007 A 
ENDBRANCH  27  28
ENDBRANCH  26  27
ENDBRANCH   9  26
BRANCH   8  31
HETATM   31  C10 UNL     1      -9.268 -33.449  13.001  1.00  0.00     0.022 C 
HETATM   32  C11 UNL     1      -9.771 -34.885  12.935  1.00  0.00     0.009 C 
HETATM   33  C12 UNL     1     -10.646 -34.906  11.679  1.00  0.00     0.001 C 
HETATM   34  C13 UNL     1     -10.710 -33.487  11.188  1.00  0.00     0.001 C 
HETATM   35  C14 UNL     1     -10.536 -32.778  12.569  1.00  0.00     0.009 C 
ENDBRANCH   8  31
TORSDOF 9
ENDMDL
MODEL 3
REMARK VINA RESULT: -7.505537346      1.182      1.246
REMARK  9 active torsions:
REMARK  status: ('A' for Active; 'I' for Inactive)
REMARK    1  A    between atoms: C2_5  and  C3_6 
REMARK    2  A    between atoms: C3_6  and  C4_7 
REMARK    3  A    between atoms: C4_7  and  C5_8 
REMARK    4  A    between atoms: C7_14  and  C8_15 
REMARK    5  A    between atoms: C8_15  and  O2_16 
REMARK    6  A    between atoms: C9_18  and  C10_19 
REMARK    7  A    between atoms: C15_24  and  O3_25 
REMARK    8  A    between atoms: O3_25  and  C16_26 
REMARK    9  A    between atoms: C16_26  and  C17_27 
ROOT
HETATM    1  C5  UNL     1      -6.781 -31.967  17.858  1.00  0.00     0.104 A 
HETATM    2  N2  UNL     1      -5.501 -31.908  17.353  1.00  0.00    -0.287 N 
ATOM      3  H2  UNL     1      -4.658 -31.664  17.873  1.00  0.00     0.188 HD
HETATM    4  N3  UNL     1      -5.563 -32.224  16.079  1.00  0.00    -0.283 N 
ATOM      5  H3  UNL     1      -4.766 -32.270  15.445  1.00  0.00     0.188 HD
HETATM    6  C6  UNL     1      -6.860 -32.481  15.735  1.00  0.00     0.140 A 
HETATM    7  C7  UNL     1      -7.333 -32.863  14.473  1.00  0.00     0.041 A 
HETATM    8  C9  UNL     1      -8.701 -33.067  14.378  1.00  0.00    -0.003 A 
HETATM    9  C15 UNL     1      -9.474 -32.871  15.535  1.00  0.00     0.092 A 
HETATM   10  C20 UNL     1      -8.914 -32.483  16.745  1.00  0.00     0.137 A 
HETATM   11  N4  UNL     1      -7.571 -32.304  16.834  1.00  0.00    -0.292 N 
ENDROOT
BRANCH   1  12
HETATM   12  C4  UNL     1      -7.016 -31.950  19.309  1.00  0.00     0.084 C 
BRANCH  12  13
HETATM   13  C3  UNL     1      -7.246 -30.591  19.833  1.00  0.00     0.060 C 
BRANCH  13  14
HETATM   14  C2  UNL     1      -6.243 -29.896  20.629  1.00  0.00    -0.007 C 
HETATM   15  N1  UNL     1      -6.205 -28.700  21.027  1.00  0.00    -0.316 N 
HETATM   16  C1  UNL     1      -5.088 -28.174  21.816  1.00  0.00     0.320 C 
ATOM     17  H1  UNL     1      -6.979 -28.077  20.791  1.00  0.00     0.170 HD
HETATM   18  O1  UNL     1      -5.048 -27.019  22.232  1.00  0.00    -0.247 OA
HETATM   19  N5  UNL     1      -4.003 -29.058  22.109  1.00  0.00    -0.343 N 
HETATM   20  C22 UNL     1      -3.863 -30.147  21.150  1.00  0.00     0.130 C 
ATOM     21  H5  UNL     1      -3.386 -28.938  22.912  1.00  0.00     0.164 HD
HETATM   22  C21 UNL     1      -5.182 -30.849  21.193  1.00  0.00     0.072 C 
ENDBRANCH  13  14
ENDBRANCH  12  13
ENDBRANCH   1  12
BRANCH   7  23
HETATM   23  C8  UNL     1      -6.286 -33.352  13.564  1.00  0.00     0.147 C 
BRANCH  23  24
HETATM   24  O2  UNL     1      -5.250 -32.581  13.130  1.00  0.00    -0.372 OA
ATOM     25  H2  UNL     1      -5.098 -32.379  12.214  1.00  0.00     0.216 HD
ENDBRANCH  23  24
ENDBRANCH   7  23
BRANCH   9  26
HETATM   26  O3  UNL     1     -10.831 -33.114  15.565  1.00  0.00    -0.349 OA
BRANCH  26  27
HETATM   27  C16 UNL     1     -11.808 -32.427  16.231  1.00  0.00     0.180 C 
BRANCH  27  28
HETATM   28  C17 UNL     1     -12.492 -31.378  15.330  1.00  0.00     0.010 A 
HETATM   29  C18 UNL     1     -11.732 -30.143  15.023  1.00  0.00     0.007 A 
HETATM   30  C19 UNL     1     -12.710 -30.075  16.103  1.00  0.00     0.007 A 
ENDBRANCH  27  28
ENDBRANCH  26  27
ENDBRANCH   9  26
BRANCH   8  31
HETATM   31  C10 UNL     1      -9.273 -33.465  13.085  1.00  0.00     0.022 C 
HETATM   32  C11 UNL     1      -9.825 -34.885  13.058  1.00  0.00     0.009 C 
HETATM   33  C12 UNL     1     -10.715 -34.905  11.813  1.00  0.00     0.001 C 
HETATM   34  C13 UNL     1     -10.736 -33.497  11.289  1.00  0.00     0.001 C 
HETATM   35  C14 UNL     1     -10.522 -32.762  12.650  1.00  0.00     0.009 C 
ENDBRANCH   8  31
TORSDOF 9
ENDMDL
MODEL 4
REMARK VINA RESULT: -7.309419949      1.249      1.608
REMARK  9 active torsions:
REMARK  status: ('A' for Active; 'I' for Inactive)
REMARK    1  A    between atoms: C2_5  and  C3_6 
REMARK    2  A    between atoms: C3_6  and  C4_7 
REMARK    3  A    between atoms: C4_7  and  C5_8 
REMARK    4  A    between atoms: C7_14  and  C8_15 
REMARK    5  A    between atoms: C8_15  and  O2_16 
REMARK    6  A    between atoms: C9_18  and  C10_19 
REMARK    7  A    between atoms: C15_24  and  O3_25 
REMARK    8  A    between atoms: O3_25  and  C16_26 
REMARK    9  A    between atoms: C16_26  and  C17_27 
ROOT
HETATM    1  C5  UNL     1      -6.936 -32.055  17.489  1.00  0.00     0.104 A 
HETATM    2  N2  UNL     1      -5.638 -31.977  17.033  1.00  0.00    -0.287 N 
ATOM      3  H2  UNL     1      -4.821 -31.709  17.581  1.00  0.00     0.188 HD
HETATM    4  N3  UNL     1      -5.646 -32.311  15.762  1.00  0.00    -0.283 N 
ATOM      5  H3  UNL     1      -4.824 -32.349  15.159  1.00  0.00     0.188 HD
HETATM    6  C6  UNL     1      -6.923 -32.599  15.371  1.00  0.00     0.140 A 
HETATM    7  C7  UNL     1      -7.338 -33.007  14.098  1.00  0.00     0.041 A 
HETATM    8  C9  UNL     1      -8.698 -33.240  13.953  1.00  0.00    -0.003 A 
HETATM    9  C15 UNL     1      -9.519 -33.044  15.077  1.00  0.00     0.092 A 
HETATM   10  C20 UNL     1      -9.013 -32.629  16.302  1.00  0.00     0.137 A 
HETATM   11  N4  UNL     1      -7.679 -32.422  16.440  1.00  0.00    -0.292 N 
ENDROOT
BRANCH   1  12
HETATM   12  C4  UNL     1      -7.227 -32.024  18.930  1.00  0.00     0.084 C 
BRANCH  12  13
HETATM   13  C3  UNL     1      -6.946 -30.710  19.538  1.00  0.00     0.060 C 
BRANCH  13  14
HETATM   14  C2  UNL     1      -5.584 -30.251  19.777  1.00  0.00    -0.007 C 
HETATM   15  N1  UNL     1      -4.787 -29.638  19.015  1.00  0.00    -0.316 N 
HETATM   16  C1  UNL     1      -3.433 -29.270  19.436  1.00  0.00     0.320 C 
ATOM     17  H1  UNL     1      -5.096 -29.390  18.075  1.00  0.00     0.170 HD
HETATM   18  O1  UNL     1      -2.654 -28.652  18.715  1.00  0.00    -0.247 OA
HETATM   19  N5  UNL     1      -3.014 -29.654  20.748  1.00  0.00    -0.343 N 
HETATM   20  C22 UNL     1      -3.728 -30.810  21.274  1.00  0.00     0.130 C 
ATOM     21  H5  UNL     1      -2.284 -29.165  21.267  1.00  0.00     0.164 HD
HETATM   22  C21 UNL     1      -5.166 -30.400  21.244  1.00  0.00     0.072 C 
ENDBRANCH  13  14
ENDBRANCH  12  13
ENDBRANCH   1  12
BRANCH   7  23
HETATM   23  C8  UNL     1      -6.247 -33.487  13.237  1.00  0.00     0.147 C 
BRANCH  23  24
HETATM   24  O2  UNL     1      -5.101 -32.785  13.020  1.00  0.00    -0.372 OA
ATOM     25  H2  UNL     1      -4.694 -32.233  13.678  1.00  0.00     0.216 HD
ENDBRANCH  23  24
ENDBRANCH   7  23
BRANCH   9  26
HETATM   26  O3  UNL     1     -10.871 -33.314  15.058  1.00  0.00    -0.349 OA
BRANCH  26  27
HETATM   27  C16 UNL     1     -11.568 -34.239  15.784  1.00  0.00     0.180 C 
BRANCH  27  28
HETATM   28  C17 UNL     1     -12.208 -35.316  14.884  1.00  0.00     0.010 A 
HETATM   29  C18 UNL     1     -13.259 -34.874  13.935  1.00  0.00     0.007 A 
HETATM   30  C19 UNL     1     -13.701 -35.452  15.199  1.00  0.00     0.007 A 
ENDBRANCH  27  28
ENDBRANCH  26  27
ENDBRANCH   9  26
BRANCH   8  31
HETATM   31  C10 UNL     1      -9.211 -33.667  12.645  1.00  0.00     0.022 C 
HETATM   32  C11 UNL     1      -9.564 -35.147  12.567  1.00  0.00     0.009 C 
HETATM   33  C12 UNL     1     -10.443 -35.244  11.317  1.00  0.00     0.001 C 
HETATM   34  C13 UNL     1     -10.659 -33.835  10.843  1.00  0.00     0.001 C 
HETATM   35  C14 UNL     1     -10.545 -33.126  12.231  1.00  0.00     0.009 C 
ENDBRANCH   8  31
TORSDOF 9
ENDMDL
MODEL 5
REMARK VINA RESULT: -7.279633744      1.698      2.162
REMARK  9 active torsions:
REMARK  status: ('A' for Active; 'I' for Inactive)
REMARK    1  A    between atoms: C2_5  and  C3_6 
REMARK    2  A    between atoms: C3_6  and  C4_7 
REMARK    3  A    between atoms: C4_7  and  C5_8 
REMARK    4  A    between atoms: C7_14  and  C8_15 
REMARK    5  A    between atoms: C8_15  and  O2_16 
REMARK    6  A    between atoms: C9_18  and  C10_19 
REMARK    7  A    between atoms: C15_24  and  O3_25 
REMARK    8  A    between atoms: O3_25  and  C16_26 
REMARK    9  A    between atoms: C16_26  and  C17_27 
ROOT
HETATM    1  C5  UNL     1      -7.196 -32.170  17.794  1.00  0.00     0.104 A 
HETATM    2  N2  UNL     1      -5.888 -32.038  17.384  1.00  0.00    -0.287 N 
ATOM      3  H2  UNL     1      -5.094 -31.786  17.973  1.00  0.00     0.188 HD
HETATM    4  N3  UNL     1      -5.849 -32.295  16.096  1.00  0.00    -0.283 N 
ATOM      5  H3  UNL     1      -5.009 -32.280  15.518  1.00  0.00     0.188 HD
HETATM    6  C6  UNL     1      -7.107 -32.585  15.649  1.00  0.00     0.140 A 
HETATM    7  C7  UNL     1      -7.475 -32.924  14.342  1.00  0.00     0.041 A 
HETATM    8  C9  UNL     1      -8.824 -33.176  14.140  1.00  0.00    -0.003 A 
HETATM    9  C15 UNL     1      -9.683 -33.065  15.247  1.00  0.00     0.092 A 
HETATM   10  C20 UNL     1      -9.224 -32.714  16.510  1.00  0.00     0.137 A 
HETATM   11  N4  UNL     1      -7.899 -32.488  16.702  1.00  0.00    -0.292 N 
ENDROOT
BRANCH   1  12
HETATM   12  C4  UNL     1      -7.531 -32.232  19.224  1.00  0.00     0.084 C 
BRANCH  12  13
HETATM   13  C3  UNL     1      -7.682 -30.896  19.831  1.00  0.00     0.060 C 
BRANCH  13  14
HETATM   14  C2  UNL     1      -6.542 -30.167  20.370  1.00  0.00    -0.007 C 
HETATM   15  N1  UNL     1      -5.572 -30.572  21.067  1.00  0.00    -0.316 N 
HETATM   16  C1  UNL     1      -4.516 -29.671  21.534  1.00  0.00     0.320 C 
ATOM     17  H1  UNL     1      -5.521 -31.561  21.313  1.00  0.00     0.170 HD
HETATM   18  O1  UNL     1      -3.552 -30.054  22.192  1.00  0.00    -0.247 OA
HETATM   19  N5  UNL     1      -4.624 -28.285  21.199  1.00  0.00    -0.343 N 
HETATM   20  C22 UNL     1      -5.993 -27.851  20.947  1.00  0.00     0.130 C 
ATOM     21  H5  UNL     1      -3.821 -27.659  21.142  1.00  0.00     0.164 HD
HETATM   22  C21 UNL     1      -6.460 -28.733  19.834  1.00  0.00     0.072 C 
ENDBRANCH  13  14
ENDBRANCH  12  13
ENDBRANCH   1  12
BRANCH   7  23
HETATM   23  C8  UNL     1      -6.348 -33.328  13.487  1.00  0.00     0.147 C 
BRANCH  23  24
HETATM   24  O2  UNL     1      -5.358 -32.477  13.102  1.00  0.00    -0.372 OA
ATOM     25  H2  UNL     1      -4.512 -32.431  13.532  1.00  0.00     0.216 HD
ENDBRANCH  23  24
ENDBRANCH   7  23
BRANCH   9  26
HETATM   26  O3  UNL     1     -11.027 -33.362  15.170  1.00  0.00    -0.349 OA
BRANCH  26  27
HETATM   27  C16 UNL     1     -11.726 -34.339  15.823  1.00  0.00     0.180 C 
BRANCH  27  28
HETATM   28  C17 UNL     1     -12.309 -35.381  14.846  1.00  0.00     0.010 A 
HETATM   29  C18 UNL     1     -13.339 -34.914  13.886  1.00  0.00     0.007 A 
HETATM   30  C19 UNL     1     -13.807 -35.568  15.103  1.00  0.00     0.007 A 
ENDBRANCH  27  28
ENDBRANCH  26  27
ENDBRANCH   9  26
BRANCH   8  31
HETATM   31  C10 UNL     1      -9.288 -33.534  12.794  1.00  0.00     0.022 C 
HETATM   32  C11 UNL     1      -9.596 -35.015  12.613  1.00  0.00     0.009 C 
HETATM   33  C12 UNL     1     -10.437 -35.057  11.335  1.00  0.00     0.001 C 
HETATM   34  C13 UNL     1     -10.679 -33.628  10.943  1.00  0.00     0.001 C 
HETATM   35  C14 UNL     1     -10.625 -33.004  12.374  1.00  0.00     0.009 C 
ENDBRANCH   8  31
TORSDOF 9
ENDMDL
