MODEL 1
REMARK VINA RESULT: -7.497085850      0.000      0.000
REMARK  10 active torsions:
REMARK  status: ('A' for Active; 'I' for Inactive)
REMARK    1  A    between atoms: S1_2  and  C2_3 
REMARK    2  A    between atoms: C2_3  and  C3_4 
REMARK    3  A    between atoms: C4_5  and  C5_6 
REMARK    4  A    between atoms: C5_6  and  C8_9 
REMARK    5  A    between atoms: C10_11  and  C11_12 
REMARK    6  A    between atoms: C11_12  and  C12_13 
REMARK    7  A    between atoms: C11_12  and  C13_15 
REMARK    8  A    between atoms: C13_15  and  C14_16 
REMARK    9  A    between atoms: C18_20  and  C19_21 
REMARK   10  A    between atoms: C22_24  and  O1_25 
ROOT
HETATM    1  C8  UNL     1      37.048  -9.312  24.630  1.00  0.00    -0.004 A 
HETATM    2  C9  UNL     1      37.140  -8.883  23.309  1.00  0.00     0.019 A 
HETATM    3  C10 UNL     1      36.279  -7.946  22.788  1.00  0.00    -0.052 A 
HETATM    4  C17 UNL     1      35.281  -7.386  23.558  1.00  0.00     0.018 A 
HETATM    5  C18 UNL     1      35.166  -7.790  24.867  1.00  0.00    -0.020 A 
HETATM    6  C22 UNL     1      36.037  -8.728  25.369  1.00  0.00     0.080 A 
ENDROOT
BRANCH   1   7
HETATM    7  C5  UNL     1      37.984 -10.298  25.127  1.00  0.00     0.046 C 
HETATM    8  C6  UNL     1      37.248 -11.280  26.026  1.00  0.00     0.034 C 
HETATM    9  C7  UNL     1      38.454 -11.151  23.938  1.00  0.00     0.034 C 
BRANCH   7  10
HETATM   10  C4  UNL     1      39.092  -9.666  25.799  1.00  0.00    -0.091 C 
HETATM   11  C3  UNL     1      40.023  -9.158  26.359  1.00  0.00    -0.095 C 
BRANCH  11  12
HETATM   12  C2  UNL     1      41.186  -8.545  27.038  1.00  0.00     0.167 C 
BRANCH  12  13
HETATM   13  S1  UNL     1      41.243  -9.298  28.705  1.00  0.00    -0.161 SA
HETATM   14  C1  UNL     1      39.743 -10.332  28.859  1.00  0.00     0.090 C 
ENDBRANCH  12  13
ENDBRANCH  11  12
ENDBRANCH   7  10
ENDBRANCH   1   7
BRANCH   6  15
HETATM   15  O1  UNL     1      35.923  -9.134  26.679  1.00  0.00    -0.360 OA
ATOM     16  H1  UNL     1      35.452  -9.946  26.831  1.00  0.00     0.217 HD
ENDBRANCH   6  15
BRANCH   3  17
HETATM   17  C11 UNL     1      36.419  -7.512  21.339  1.00  0.00     0.033 C 
BRANCH  17  18
HETATM   18  C12 UNL     1      37.619  -8.280  20.846  1.00  0.00     0.124 C 
HETATM   19 CL1  UNL     1      36.991  -9.641  19.832  1.00  0.00    -0.130 Cl
ENDBRANCH  17  18
BRANCH  17  20
HETATM   20  C13 UNL     1      35.135  -7.872  20.699  1.00  0.00     0.014 C 
BRANCH  20  21
HETATM   21  C14 UNL     1      34.481  -6.894  19.807  1.00  0.00    -0.022 C 
HETATM   22  C15 UNL     1      35.301  -6.278  18.736  1.00  0.00     0.009 C 
HETATM   23  C16 UNL     1      33.793  -5.767  20.558  1.00  0.00     0.009 C 
ENDBRANCH  20  21
ENDBRANCH  17  20
ENDBRANCH   3  17
BRANCH   5  24
HETATM   24  C19 UNL     1      34.090  -7.180  25.699  1.00  0.00     0.013 C 
HETATM   25  C20 UNL     1      32.999  -6.590  24.835  1.00  0.00     0.015 C 
HETATM   26  C21 UNL     1      34.700  -6.016  26.477  1.00  0.00     0.015 C 
ENDBRANCH   5  24
TORSDOF 10
ENDMDL
MODEL 2
REMARK VINA RESULT: -7.210317127      2.177      3.768
REMARK  10 active torsions:
REMARK  status: ('A' for Active; 'I' for Inactive)
REMARK    1  A    between atoms: S1_2  and  C2_3 
REMARK    2  A    between atoms: C2_3  and  C3_4 
REMARK    3  A    between atoms: C4_5  and  C5_6 
REMARK    4  A    between atoms: C5_6  and  C8_9 
REMARK    5  A    between atoms: C10_11  and  C11_12 
REMARK    6  A    between atoms: C11_12  and  C12_13 
REMARK    7  A    between atoms: C11_12  and  C13_15 
REMARK    8  A    between atoms: C13_15  and  C14_16 
REMARK    9  A    between atoms: C18_20  and  C19_21 
REMARK   10  A    between atoms: C22_24  and  O1_25 
ROOT
HETATM    1  C8  UNL     1      37.058  -9.346  24.734  1.00  0.00    -0.004 A 
HETATM    2  C9  UNL     1      35.959  -8.504  24.881  1.00  0.00     0.019 A 
HETATM    3  C10 UNL     1      35.443  -7.792  23.824  1.00  0.00    -0.052 A 
HETATM    4  C17 UNL     1      35.997  -7.882  22.564  1.00  0.00     0.018 A 
HETATM    5  C18 UNL     1      37.083  -8.706  22.388  1.00  0.00    -0.020 A 
HETATM    6  C22 UNL     1      37.584  -9.410  23.458  1.00  0.00     0.080 A 
ENDROOT
BRANCH   1   7
HETATM    7  C5  UNL     1      37.556 -10.076  25.881  1.00  0.00     0.046 C 
HETATM    8  C6  UNL     1      36.618  -9.860  27.059  1.00  0.00     0.034 C 
HETATM    9  C7  UNL     1      37.445 -11.578  25.576  1.00  0.00     0.034 C 
BRANCH   7  10
HETATM   10  C4  UNL     1      38.913  -9.694  26.186  1.00  0.00    -0.091 C 
HETATM   11  C3  UNL     1      40.042  -9.389  26.455  1.00  0.00    -0.095 C 
BRANCH  11  12
HETATM   12  C2  UNL     1      41.439  -9.036  26.791  1.00  0.00     0.167 C 
BRANCH  12  13
HETATM   13  S1  UNL     1      41.470  -8.799  28.604  1.00  0.00    -0.161 SA
HETATM   14  C1  UNL     1      40.346 -10.055  29.313  1.00  0.00     0.090 C 
ENDBRANCH  12  13
ENDBRANCH  11  12
ENDBRANCH   7  10
ENDBRANCH   1   7
BRANCH   6  15
HETATM   15  O1  UNL     1      38.672 -10.234  23.284  1.00  0.00    -0.360 OA
ATOM     16  H1  UNL     1      38.867 -10.494  22.391  1.00  0.00     0.217 HD
ENDBRANCH   6  15
BRANCH   3  17
HETATM   17  C11 UNL     1      34.244  -6.884  24.036  1.00  0.00     0.033 C 
BRANCH  17  18
HETATM   18  C12 UNL     1      34.306  -6.540  25.503  1.00  0.00     0.124 C 
HETATM   19 CL1  UNL     1      32.597  -6.447  26.092  1.00  0.00    -0.130 Cl
ENDBRANCH  17  18
BRANCH  17  20
HETATM   20  C13 UNL     1      34.447  -5.747  23.112  1.00  0.00     0.014 C 
BRANCH  20  21
HETATM   21  C14 UNL     1      33.355  -5.365  22.196  1.00  0.00    -0.022 C 
HETATM   22  C15 UNL     1      31.992  -5.864  22.499  1.00  0.00     0.009 C 
HETATM   23  C16 UNL     1      33.649  -5.699  20.743  1.00  0.00     0.009 C 
ENDBRANCH  20  21
ENDBRANCH  17  20
ENDBRANCH   3  17
BRANCH   5  24
HETATM   24  C19 UNL     1      37.677  -8.806  21.024  1.00  0.00     0.013 C 
HETATM   25  C20 UNL     1      37.554  -7.497  20.277  1.00  0.00     0.015 C 
HETATM   26  C21 UNL     1      36.867  -9.831  20.233  1.00  0.00     0.015 C 
ENDBRANCH   5  24
TORSDOF 10
ENDMDL
MODEL 3
REMARK VINA RESULT: -7.209234466      2.170      4.056
REMARK  10 active torsions:
REMARK  status: ('A' for Active; 'I' for Inactive)
REMARK    1  A    between atoms: S1_2  and  C2_3 
REMARK    2  A    between atoms: C2_3  and  C3_4 
REMARK    3  A    between atoms: C4_5  and  C5_6 
REMARK    4  A    between atoms: C5_6  and  C8_9 
REMARK    5  A    between atoms: C10_11  and  C11_12 
REMARK    6  A    between atoms: C11_12  and  C12_13 
REMARK    7  A    between atoms: C11_12  and  C13_15 
REMARK    8  A    between atoms: C13_15  and  C14_16 
REMARK    9  A    between atoms: C18_20  and  C19_21 
REMARK   10  A    between atoms: C22_24  and  O1_25 
ROOT
HETATM    1  C8  UNL     1      37.105  -9.324  24.807  1.00  0.00    -0.004 A 
HETATM    2  C9  UNL     1      36.181  -8.297  24.983  1.00  0.00     0.019 A 
HETATM    3  C10 UNL     1      35.710  -7.555  23.926  1.00  0.00    -0.052 A 
HETATM    4  C17 UNL     1      36.136  -7.797  22.636  1.00  0.00     0.018 A 
HETATM    5  C18 UNL     1      37.047  -8.805  22.431  1.00  0.00    -0.020 A 
HETATM    6  C22 UNL     1      37.506  -9.537  23.502  1.00  0.00     0.080 A 
ENDROOT
BRANCH   1   7
HETATM    7  C5  UNL     1      37.563 -10.077  25.956  1.00  0.00     0.046 C 
HETATM    8  C6  UNL     1      36.619  -9.834  27.124  1.00  0.00     0.034 C 
HETATM    9  C7  UNL     1      37.402 -11.573  25.642  1.00  0.00     0.034 C 
BRANCH   7  10
HETATM   10  C4  UNL     1      38.928  -9.745  26.279  1.00  0.00    -0.091 C 
HETATM   11  C3  UNL     1      40.061  -9.475  26.566  1.00  0.00    -0.095 C 
BRANCH  11  12
HETATM   12  C2  UNL     1      41.460  -9.161  26.934  1.00  0.00     0.167 C 
BRANCH  12  13
HETATM   13  S1  UNL     1      41.423  -8.737  28.714  1.00  0.00    -0.161 SA
HETATM   14  C1  UNL     1      40.432 -10.036  29.537  1.00  0.00     0.090 C 
ENDBRANCH  12  13
ENDBRANCH  11  12
ENDBRANCH   7  10
ENDBRANCH   1   7
BRANCH   6  15
HETATM   15  O1  UNL     1      38.419 -10.546  23.298  1.00  0.00    -0.360 OA
ATOM     16  H1  UNL     1      38.746 -10.649  22.412  1.00  0.00     0.217 HD
ENDBRANCH   6  15
BRANCH   3  17
HETATM   17  C11 UNL     1      34.704  -6.443  24.170  1.00  0.00     0.033 C 
BRANCH  17  18
HETATM   18  C12 UNL     1      34.187  -6.114  22.793  1.00  0.00     0.124 C 
HETATM   19 CL1  UNL     1      33.177  -4.621  22.955  1.00  0.00    -0.130 Cl
ENDBRANCH  17  18
BRANCH  17  20
HETATM   20  C13 UNL     1      33.705  -7.018  25.098  1.00  0.00     0.014 C 
BRANCH  20  21
HETATM   21  C14 UNL     1      32.315  -7.193  24.634  1.00  0.00    -0.022 C 
HETATM   22  C15 UNL     1      31.224  -6.911  25.597  1.00  0.00     0.009 C 
HETATM   23  C16 UNL     1      32.052  -8.565  24.037  1.00  0.00     0.009 C 
ENDBRANCH  20  21
ENDBRANCH  17  20
ENDBRANCH   3  17
BRANCH   5  24
HETATM   24  C19 UNL     1      37.502  -9.070  21.036  1.00  0.00     0.013 C 
HETATM   25  C20 UNL     1      37.911  -7.790  20.343  1.00  0.00     0.015 C 
HETATM   26  C21 UNL     1      36.315  -9.624  20.252  1.00  0.00     0.015 C 
ENDBRANCH   5  24
TORSDOF 10
ENDMDL
MODEL 4
REMARK VINA RESULT: -7.175123250      3.727      7.047
REMARK  10 active torsions:
REMARK  status: ('A' for Active; 'I' for Inactive)
REMARK    1  A    between atoms: S1_2  and  C2_3 
REMARK    2  A    between atoms: C2_3  and  C3_4 
REMARK    3  A    between atoms: C4_5  and  C5_6 
REMARK    4  A    between atoms: C5_6  and  C8_9 
REMARK    5  A    between atoms: C10_11  and  C11_12 
REMARK    6  A    between atoms: C11_12  and  C12_13 
REMARK    7  A    between atoms: C11_12  and  C13_15 
REMARK    8  A    between atoms: C13_15  and  C14_16 
REMARK    9  A    between atoms: C18_20  and  C19_21 
REMARK   10  A    between atoms: C22_24  and  O1_25 
ROOT
HETATM    1  C8  UNL     1      36.334  -8.367  21.747  1.00  0.00    -0.004 A 
HETATM    2  C9  UNL     1      37.338  -9.011  22.465  1.00  0.00     0.019 A 
HETATM    3  C10 UNL     1      37.452  -8.883  23.829  1.00  0.00    -0.052 A 
HETATM    4  C17 UNL     1      36.569  -8.106  24.550  1.00  0.00     0.018 A 
HETATM    5  C18 UNL     1      35.567  -7.459  23.868  1.00  0.00    -0.020 A 
HETATM    6  C22 UNL     1      35.470  -7.599  22.504  1.00  0.00     0.080 A 
ENDROOT
BRANCH   1   7
HETATM    7  C5  UNL     1      36.260  -8.541  20.312  1.00  0.00     0.046 C 
HETATM    8  C6  UNL     1      36.626  -7.232  19.628  1.00  0.00     0.034 C 
HETATM    9  C7  UNL     1      37.372  -9.514  19.890  1.00  0.00     0.034 C 
BRANCH   7  10
HETATM   10  C4  UNL     1      34.958  -9.018  19.916  1.00  0.00    -0.091 C 
HETATM   11  C3  UNL     1      33.883  -9.423  19.571  1.00  0.00    -0.095 C 
BRANCH  11  12
HETATM   12  C2  UNL     1      32.567  -9.942  19.137  1.00  0.00     0.167 C 
BRANCH  12  13
HETATM   13  S1  UNL     1      32.603  -9.922  17.307  1.00  0.00    -0.161 SA
HETATM   14  C1  UNL     1      33.031  -8.213  16.815  1.00  0.00     0.090 C 
ENDBRANCH  12  13
ENDBRANCH  11  12
ENDBRANCH   7  10
ENDBRANCH   1   7
BRANCH   6  15
HETATM   15  O1  UNL     1      34.467  -6.951  21.820  1.00  0.00    -0.360 OA
ATOM     16  H1  UNL     1      34.738  -6.399  21.095  1.00  0.00     0.217 HD
ENDBRANCH   6  15
BRANCH   3  17
HETATM   17  C11 UNL     1      38.567  -9.604  24.567  1.00  0.00     0.033 C 
BRANCH  17  18
HETATM   18  C12 UNL     1      39.170  -8.536  25.444  1.00  0.00     0.124 C 
HETATM   19 CL1  UNL     1      40.686  -9.231  26.149  1.00  0.00    -0.130 Cl
ENDBRANCH  17  18
BRANCH  17  20
HETATM   20  C13 UNL     1      37.904 -10.712  25.289  1.00  0.00     0.014 C 
BRANCH  20  21
HETATM   21  C14 UNL     1      37.474 -10.501  26.685  1.00  0.00    -0.022 C 
HETATM   22  C15 UNL     1      38.214 -11.216  27.753  1.00  0.00     0.009 C 
HETATM   23  C16 UNL     1      35.994 -10.766  26.901  1.00  0.00     0.009 C 
ENDBRANCH  20  21
ENDBRANCH  17  20
ENDBRANCH   3  17
BRANCH   5  24
HETATM   24  C19 UNL     1      34.610  -6.624  24.650  1.00  0.00     0.013 C 
HETATM   25  C20 UNL     1      35.008  -6.556  26.107  1.00  0.00     0.015 C 
HETATM   26  C21 UNL     1      33.245  -7.308  24.607  1.00  0.00     0.015 C 
ENDBRANCH   5  24
TORSDOF 10
ENDMDL
MODEL 5
REMARK VINA RESULT: -7.172918477      1.137      1.869
REMARK  10 active torsions:
REMARK  status: ('A' for Active; 'I' for Inactive)
REMARK    1  A    between atoms: S1_2  and  C2_3 
REMARK    2  A    between atoms: C2_3  and  C3_4 
REMARK    3  A    between atoms: C4_5  and  C5_6 
REMARK    4  A    between atoms: C5_6  and  C8_9 
REMARK    5  A    between atoms: C10_11  and  C11_12 
REMARK    6  A    between atoms: C11_12  and  C12_13 
REMARK    7  A    between atoms: C11_12  and  C13_15 
REMARK    8  A    between atoms: C13_15  and  C14_16 
REMARK    9  A    between atoms: C18_20  and  C19_21 
REMARK   10  A    between atoms: C22_24  and  O1_25 
ROOT
HETATM    1  C8  UNL     1      37.066  -9.051  24.634  1.00  0.00    -0.004 A 
HETATM    2  C9  UNL     1      37.152  -8.690  23.292  1.00  0.00     0.019 A 
HETATM    3  C10 UNL     1      36.234  -7.851  22.705  1.00  0.00    -0.052 A 
HETATM    4  C17 UNL     1      35.182  -7.327  23.426  1.00  0.00     0.018 A 
HETATM    5  C18 UNL     1      35.071  -7.665  24.754  1.00  0.00    -0.020 A 
HETATM    6  C22 UNL     1      36.000  -8.505  25.322  1.00  0.00     0.080 A 
ENDROOT
BRANCH   1   7
HETATM    7  C5  UNL     1      38.063  -9.934  25.200  1.00  0.00     0.046 C 
HETATM    8  C6  UNL     1      38.562 -10.885  24.121  1.00  0.00     0.034 C 
HETATM    9  C7  UNL     1      39.296  -9.092  25.564  1.00  0.00     0.034 C 
BRANCH   7  10
HETATM   10  C4  UNL     1      37.541 -10.635  26.346  1.00  0.00    -0.091 C 
HETATM   11  C3  UNL     1      37.124 -11.223  27.305  1.00  0.00    -0.095 C 
BRANCH  11  12
HETATM   12  C2  UNL     1      36.629 -11.941  28.500  1.00  0.00     0.167 C 
BRANCH  12  13
HETATM   13  S1  UNL     1      38.113 -12.337  29.494  1.00  0.00    -0.161 SA
HETATM   14  C1  UNL     1      38.865 -10.737  29.965  1.00  0.00     0.090 C 
ENDBRANCH  12  13
ENDBRANCH  11  12
ENDBRANCH   7  10
ENDBRANCH   1   7
BRANCH   6  15
HETATM   15  O1  UNL     1      35.890  -8.846  26.651  1.00  0.00    -0.360 OA
ATOM     16  H1  UNL     1      35.247  -8.365  27.159  1.00  0.00     0.217 HD
ENDBRANCH   6  15
BRANCH   3  17
HETATM   17  C11 UNL     1      36.370  -7.489  21.236  1.00  0.00     0.033 C 
BRANCH  17  18
HETATM   18  C12 UNL     1      37.544  -8.311  20.768  1.00  0.00     0.124 C 
HETATM   19 CL1  UNL     1      36.867  -9.704  19.830  1.00  0.00    -0.130 Cl
ENDBRANCH  17  18
BRANCH  17  20
HETATM   20  C13 UNL     1      35.069  -7.843  20.626  1.00  0.00     0.014 C 
BRANCH  20  21
HETATM   21  C14 UNL     1      34.414  -6.874  19.725  1.00  0.00    -0.022 C 
HETATM   22  C15 UNL     1      35.237  -6.258  18.656  1.00  0.00     0.009 C 
HETATM   23  C16 UNL     1      33.714  -5.748  20.466  1.00  0.00     0.009 C 
ENDBRANCH  20  21
ENDBRANCH  17  20
ENDBRANCH   3  17
BRANCH   5  24
HETATM   24  C19 UNL     1      33.936  -7.093  25.534  1.00  0.00     0.013 C 
HETATM   25  C20 UNL     1      32.933  -6.420  24.625  1.00  0.00     0.015 C 
HETATM   26  C21 UNL     1      34.494  -6.000  26.443  1.00  0.00     0.015 C 
ENDBRANCH   5  24
TORSDOF 10
ENDMDL
