MODEL 1
REMARK VINA RESULT: -8.552622328      0.000      0.000
REMARK  6 active torsions:
REMARK  status: ('A' for Active; 'I' for Inactive)
REMARK    1  A    between atoms: C5_5  and  N1_6 
REMARK    2  A    between atoms: N1_6  and  C6_7 
REMARK    3  A    between atoms: N1_6  and  C13_16 
REMARK    4  A    between atoms: C6_7  and  C7_8 
REMARK    5  A    between atoms: C10_11  and  O1_12 
REMARK    6  A    between atoms: N2_19  and  C16_20 
ROOT
HETATM    1  N1  UNL     1      37.834  -9.326  24.995  1.00  0.00    -0.372 N 
ENDROOT
BRANCH   1   2
HETATM    2  C5  UNL     1      38.846  -9.429  26.000  1.00  0.00     0.030 A 
HETATM    3  C4  UNL     1      38.740 -10.171  27.149  1.00  0.00     0.030 A 
HETATM    4  C3  UNL     1      39.753 -10.203  28.079  1.00  0.00     0.009 A 
HETATM    5  C2  UNL     1      40.927  -9.499  27.915  1.00  0.00    -0.062 A 
HETATM    6  C1  UNL     1      42.027  -9.539  28.921  1.00  0.00     0.048 C 
HETATM    7  C24 UNL     1      41.018  -8.759  26.758  1.00  0.00     0.009 A 
HETATM    8  C23 UNL     1      40.010  -8.713  25.811  1.00  0.00     0.030 A 
ENDBRANCH   1   2
BRANCH   1   9
HETATM    9  C6  UNL     1      36.500  -9.688  25.448  1.00  0.00     0.162 C 
BRANCH   9  10
HETATM   10  C7  UNL     1      35.539  -8.591  25.534  1.00  0.00    -0.040 A 
HETATM   11  C8  UNL     1      34.364  -8.690  24.769  1.00  0.00     0.011 A 
HETATM   12  C9  UNL     1      33.393  -7.727  24.749  1.00  0.00     0.037 A 
HETATM   13  C10 UNL     1      33.577  -6.596  25.521  1.00  0.00     0.065 A 
HETATM   14  C11 UNL     1      34.710  -6.439  26.294  1.00  0.00     0.037 A 
HETATM   15  C12 UNL     1      35.656  -7.441  26.277  1.00  0.00     0.011 A 
BRANCH  13  16
HETATM   16  O1  UNL     1      32.607  -5.590  25.525  1.00  0.00    -0.361 OA
ATOM     17  H1  UNL     1      32.838  -4.708  25.259  1.00  0.00     0.217 HD
ENDBRANCH  13  16
ENDBRANCH   9  10
ENDBRANCH   1   9
BRANCH   1  18
HETATM   18  C13 UNL     1      37.992  -8.920  23.647  1.00  0.00     0.088 C 
HETATM   19  C14 UNL     1      37.494 -10.036  22.729  1.00  0.00     0.055 C 
HETATM   20  C15 UNL     1      37.644  -9.624  21.272  1.00  0.00     0.275 C 
HETATM   21  N2  UNL     1      37.175  -8.311  20.984  1.00  0.00     0.093 N 
HETATM   22  C21 UNL     1      36.553  -7.687  22.103  1.00  0.00     0.275 C 
HETATM   23  C22 UNL     1      37.532  -7.580  23.241  1.00  0.00     0.055 C 
BRANCH  21  24
HETATM   24  C16 UNL     1      36.327  -8.215  19.818  1.00  0.00     0.223 C 
HETATM   25  C17 UNL     1      35.653  -6.886  19.664  1.00  0.00     0.036 C 
HETATM   26  C18 UNL     1      34.661  -7.178  18.547  1.00  0.00     0.002 C 
HETATM   27  C19 UNL     1      34.171  -8.559  18.871  1.00  0.00     0.002 C 
HETATM   28  C20 UNL     1      35.212  -9.189  19.810  1.00  0.00     0.036 C 
ENDBRANCH  21  24
ENDBRANCH   1  18
TORSDOF 6
ENDMDL
MODEL 2
REMARK VINA RESULT: -8.363618300      2.126      7.414
REMARK  6 active torsions:
REMARK  status: ('A' for Active; 'I' for Inactive)
REMARK    1  A    between atoms: C5_5  and  N1_6 
REMARK    2  A    between atoms: N1_6  and  C6_7 
REMARK    3  A    between atoms: N1_6  and  C13_16 
REMARK    4  A    between atoms: C6_7  and  C7_8 
REMARK    5  A    between atoms: C10_11  and  O1_12 
REMARK    6  A    between atoms: N2_19  and  C16_20 
ROOT
HETATM    1  N1  UNL     1      36.042  -8.165  24.318  1.00  0.00    -0.372 N 
ENDROOT
BRANCH   1   2
HETATM    2  C5  UNL     1      34.746  -7.720  24.727  1.00  0.00     0.030 A 
HETATM    3  C4  UNL     1      34.510  -6.733  25.651  1.00  0.00     0.030 A 
HETATM    4  C3  UNL     1      33.230  -6.374  26.006  1.00  0.00     0.009 A 
HETATM    5  C2  UNL     1      32.116  -6.978  25.461  1.00  0.00    -0.062 A 
HETATM    6  C1  UNL     1      30.729  -6.585  25.844  1.00  0.00     0.048 C 
HETATM    7  C24 UNL     1      32.371  -7.967  24.538  1.00  0.00     0.009 A 
HETATM    8  C23 UNL     1      33.650  -8.342  24.167  1.00  0.00     0.030 A 
ENDBRANCH   1   2
BRANCH   1   9
HETATM    9  C6  UNL     1      36.599  -7.432  23.191  1.00  0.00     0.162 C 
BRANCH   9  10
HETATM   10  C7  UNL     1      36.108  -7.824  21.872  1.00  0.00    -0.040 A 
HETATM   11  C8  UNL     1      35.035  -7.096  21.332  1.00  0.00     0.011 A 
HETATM   12  C9  UNL     1      34.473  -7.371  20.116  1.00  0.00     0.037 A 
HETATM   13  C10 UNL     1      34.988  -8.421  19.379  1.00  0.00     0.065 A 
HETATM   14  C11 UNL     1      36.041  -9.175  19.855  1.00  0.00     0.037 A 
HETATM   15  C12 UNL     1      36.570  -8.854  21.087  1.00  0.00     0.011 A 
BRANCH  13  16
HETATM   16  O1  UNL     1      34.439  -8.732  18.132  1.00  0.00    -0.361 OA
ATOM     17  H1  UNL     1      33.506  -8.891  18.051  1.00  0.00     0.217 HD
ENDBRANCH  13  16
ENDBRANCH   9  10
ENDBRANCH   1   9
BRANCH   1  18
HETATM   18  C13 UNL     1      36.814  -9.212  24.878  1.00  0.00     0.088 C 
HETATM   19  C14 UNL     1      38.188  -8.664  25.267  1.00  0.00     0.055 C 
HETATM   20  C15 UNL     1      39.038  -9.767  25.880  1.00  0.00     0.275 C 
HETATM   21  N2  UNL     1      38.366 -10.547  26.862  1.00  0.00     0.093 N 
HETATM   22  C21 UNL     1      37.059 -10.063  27.156  1.00  0.00     0.275 C 
HETATM   23  C22 UNL     1      36.214 -10.076  25.910  1.00  0.00     0.055 C 
BRANCH  21  24
HETATM   24  C16 UNL     1      39.112 -10.755  28.082  1.00  0.00     0.223 C 
HETATM   25  C17 UNL     1      38.297 -10.591  29.329  1.00  0.00     0.036 C 
HETATM   26  C18 UNL     1      39.379 -10.601  30.400  1.00  0.00     0.002 C 
HETATM   27  C19 UNL     1      40.492  -9.811  29.776  1.00  0.00     0.002 C 
HETATM   28  C20 UNL     1      40.239  -9.811  28.260  1.00  0.00     0.036 C 
ENDBRANCH  21  24
ENDBRANCH   1  18
TORSDOF 6
ENDMDL
MODEL 3
REMARK VINA RESULT: -8.306174643      1.994      7.323
REMARK  6 active torsions:
REMARK  status: ('A' for Active; 'I' for Inactive)
REMARK    1  A    between atoms: C5_5  and  N1_6 
REMARK    2  A    between atoms: N1_6  and  C6_7 
REMARK    3  A    between atoms: N1_6  and  C13_16 
REMARK    4  A    between atoms: C6_7  and  C7_8 
REMARK    5  A    between atoms: C10_11  and  O1_12 
REMARK    6  A    between atoms: N2_19  and  C16_20 
ROOT
HETATM    1  N1  UNL     1      37.004  -8.307  24.117  1.00  0.00    -0.372 N 
ENDROOT
BRANCH   1   2
HETATM    2  C5  UNL     1      35.694  -7.897  24.517  1.00  0.00     0.030 A 
HETATM    3  C4  UNL     1      34.523  -8.391  24.001  1.00  0.00     0.030 A 
HETATM    4  C3  UNL     1      33.299  -7.929  24.427  1.00  0.00     0.009 A 
HETATM    5  C2  UNL     1      33.174  -6.950  25.390  1.00  0.00    -0.062 A 
HETATM    6  C1  UNL     1      31.847  -6.454  25.855  1.00  0.00     0.048 C 
HETATM    7  C24 UNL     1      34.358  -6.464  25.898  1.00  0.00     0.009 A 
HETATM    8  C23 UNL     1      35.599  -6.916  25.483  1.00  0.00     0.030 A 
ENDBRANCH   1   2
BRANCH   1   9
HETATM    9  C6  UNL     1      37.465  -7.711  22.873  1.00  0.00     0.162 C 
BRANCH   9  10
HETATM   10  C7  UNL     1      36.727  -8.096  21.672  1.00  0.00    -0.040 A 
HETATM   11  C8  UNL     1      35.765  -7.196  21.181  1.00  0.00     0.011 A 
HETATM   12  C9  UNL     1      34.997  -7.442  20.077  1.00  0.00     0.037 A 
HETATM   13  C10 UNL     1      35.175  -8.639  19.408  1.00  0.00     0.065 A 
HETATM   14  C11 UNL     1      36.103  -9.564  19.842  1.00  0.00     0.037 A 
HETATM   15  C12 UNL     1      36.851  -9.265  20.960  1.00  0.00     0.011 A 
BRANCH  13  16
HETATM   16  O1  UNL     1      34.407  -8.925  18.276  1.00  0.00    -0.361 OA
ATOM     17  H1  UNL     1      34.402  -9.805  17.917  1.00  0.00     0.217 HD
ENDBRANCH  13  16
ENDBRANCH   9  10
ENDBRANCH   1   9
BRANCH   1  18
HETATM   18  C13 UNL     1      37.871  -9.205  24.786  1.00  0.00     0.088 C 
HETATM   19  C14 UNL     1      38.998  -8.410  25.447  1.00  0.00     0.055 C 
HETATM   20  C15 UNL     1      39.944  -9.350  26.181  1.00  0.00     0.275 C 
HETATM   21  N2  UNL     1      39.290 -10.318  26.995  1.00  0.00     0.093 N 
HETATM   22  C21 UNL     1      37.878 -10.139  27.045  1.00  0.00     0.275 C 
HETATM   23  C22 UNL     1      37.297 -10.243  25.660  1.00  0.00     0.055 C 
BRANCH  21  24
HETATM   24  C16 UNL     1      39.829 -10.448  28.328  1.00  0.00     0.223 C 
HETATM   25  C17 UNL     1      38.794 -10.401  29.411  1.00  0.00     0.036 C 
HETATM   26  C18 UNL     1      39.663 -10.292  30.656  1.00  0.00     0.002 C 
HETATM   27  C19 UNL     1      40.763  -9.363  30.231  1.00  0.00     0.002 C 
HETATM   28  C20 UNL     1      40.783  -9.375  28.694  1.00  0.00     0.036 C 
ENDBRANCH  21  24
ENDBRANCH   1  18
TORSDOF 6
ENDMDL
MODEL 4
REMARK VINA RESULT: -8.073229821      2.773      4.764
REMARK  6 active torsions:
REMARK  status: ('A' for Active; 'I' for Inactive)
REMARK    1  A    between atoms: C5_5  and  N1_6 
REMARK    2  A    between atoms: N1_6  and  C6_7 
REMARK    3  A    between atoms: N1_6  and  C13_16 
REMARK    4  A    between atoms: C6_7  and  C7_8 
REMARK    5  A    between atoms: C10_11  and  O1_12 
REMARK    6  A    between atoms: N2_19  and  C16_20 
ROOT
HETATM    1  N1  UNL     1      36.590  -8.714  25.888  1.00  0.00    -0.372 N 
ENDROOT
BRANCH   1   2
HETATM    2  C5  UNL     1      37.085  -9.699  26.799  1.00  0.00     0.030 A 
HETATM    3  C4  UNL     1      38.411  -9.989  26.998  1.00  0.00     0.030 A 
HETATM    4  C3  UNL     1      38.807 -10.967  27.881  1.00  0.00     0.009 A 
HETATM    5  C2  UNL     1      37.904 -11.708  28.615  1.00  0.00    -0.062 A 
HETATM    6  C1  UNL     1      38.335 -12.764  29.576  1.00  0.00     0.048 C 
HETATM    7  C24 UNL     1      36.578 -11.405  28.403  1.00  0.00     0.009 A 
HETATM    8  C23 UNL     1      36.160 -10.426  27.519  1.00  0.00     0.030 A 
ENDBRANCH   1   2
BRANCH   1   9
HETATM    9  C6  UNL     1      37.605  -8.135  25.021  1.00  0.00     0.162 C 
BRANCH   9  10
HETATM   10  C7  UNL     1      37.554  -8.546  23.620  1.00  0.00    -0.040 A 
HETATM   11  C8  UNL     1      37.221  -7.571  22.664  1.00  0.00     0.011 A 
HETATM   12  C9  UNL     1      37.124  -7.829  21.325  1.00  0.00     0.037 A 
HETATM   13  C10 UNL     1      37.366  -9.117  20.887  1.00  0.00     0.065 A 
HETATM   14  C11 UNL     1      37.696 -10.120  21.776  1.00  0.00     0.037 A 
HETATM   15  C12 UNL     1      37.780  -9.805  23.115  1.00  0.00     0.011 A 
BRANCH  13  16
HETATM   16  O1  UNL     1      37.275  -9.419  19.526  1.00  0.00    -0.361 OA
ATOM     17  H1  UNL     1      36.892  -8.790  18.926  1.00  0.00     0.217 HD
ENDBRANCH  13  16
ENDBRANCH   9  10
ENDBRANCH   1   9
BRANCH   1  18
HETATM   18  C13 UNL     1      35.256  -8.260  25.746  1.00  0.00     0.088 C 
HETATM   19  C14 UNL     1      35.243  -6.731  25.791  1.00  0.00     0.055 C 
HETATM   20  C15 UNL     1      33.821  -6.214  25.633  1.00  0.00     0.275 C 
HETATM   21  N2  UNL     1      33.091  -6.822  24.573  1.00  0.00     0.093 N 
HETATM   22  C21 UNL     1      33.882  -7.719  23.798  1.00  0.00     0.275 C 
HETATM   23  C22 UNL     1      34.415  -8.821  24.674  1.00  0.00     0.055 C 
BRANCH  21  24
HETATM   24  C16 UNL     1      32.391  -5.897  23.713  1.00  0.00     0.223 C 
HETATM   25  C17 UNL     1      31.129  -6.449  23.123  1.00  0.00     0.036 C 
HETATM   26  C18 UNL     1      30.783  -5.381  22.095  1.00  0.00     0.002 C 
HETATM   27  C19 UNL     1      32.118  -5.006  21.522  1.00  0.00     0.002 C 
HETATM   28  C20 UNL     1      33.179  -5.463  22.536  1.00  0.00     0.036 C 
ENDBRANCH  21  24
ENDBRANCH   1  18
TORSDOF 6
ENDMDL
MODEL 5
REMARK VINA RESULT: -8.029048325      1.330      6.876
REMARK  6 active torsions:
REMARK  status: ('A' for Active; 'I' for Inactive)
REMARK    1  A    between atoms: C5_5  and  N1_6 
REMARK    2  A    between atoms: N1_6  and  C6_7 
REMARK    3  A    between atoms: N1_6  and  C13_16 
REMARK    4  A    between atoms: C6_7  and  C7_8 
REMARK    5  A    between atoms: C10_11  and  O1_12 
REMARK    6  A    between atoms: N2_19  and  C16_20 
ROOT
HETATM    1  N1  UNL     1      37.330  -8.203  23.355  1.00  0.00    -0.372 N 
ENDROOT
BRANCH   1   2
HETATM    2  C5  UNL     1      36.654  -8.460  22.122  1.00  0.00     0.030 A 
HETATM    3  C4  UNL     1      37.139  -9.247  21.108  1.00  0.00     0.030 A 
HETATM    4  C3  UNL     1      36.433  -9.430  19.941  1.00  0.00     0.009 A 
HETATM    5  C2  UNL     1      35.206  -8.841  19.721  1.00  0.00    -0.062 A 
HETATM    6  C1  UNL     1      34.440  -9.044  18.458  1.00  0.00     0.048 C 
HETATM    7  C24 UNL     1      34.733  -8.055  20.748  1.00  0.00     0.009 A 
HETATM    8  C23 UNL     1      35.427  -7.858  21.928  1.00  0.00     0.030 A 
ENDBRANCH   1   2
BRANCH   1   9
HETATM    9  C6  UNL     1      37.092  -6.877  23.904  1.00  0.00     0.162 C 
BRANCH   9  10
HETATM   10  C7  UNL     1      35.769  -6.658  24.483  1.00  0.00    -0.040 A 
HETATM   11  C8  UNL     1      35.516  -7.194  25.757  1.00  0.00     0.011 A 
HETATM   12  C9  UNL     1      34.317  -7.072  26.402  1.00  0.00     0.037 A 
HETATM   13  C10 UNL     1      33.298  -6.387  25.767  1.00  0.00     0.065 A 
HETATM   14  C11 UNL     1      33.484  -5.838  24.515  1.00  0.00     0.037 A 
HETATM   15  C12 UNL     1      34.713  -5.989  23.910  1.00  0.00     0.011 A 
BRANCH  13  16
HETATM   16  O1  UNL     1      32.058  -6.243  26.395  1.00  0.00    -0.361 OA
ATOM     17  H1  UNL     1      31.466  -5.552  26.123  1.00  0.00     0.217 HD
ENDBRANCH  13  16
ENDBRANCH   9  10
ENDBRANCH   1   9
BRANCH   1  18
HETATM   18  C13 UNL     1      38.181  -9.078  24.074  1.00  0.00     0.088 C 
HETATM   19  C14 UNL     1      38.991  -8.266  25.085  1.00  0.00     0.055 C 
HETATM   20  C15 UNL     1      39.910  -9.183  25.879  1.00  0.00     0.275 C 
HETATM   21  N2  UNL     1      39.279 -10.360  26.372  1.00  0.00     0.093 N 
HETATM   22  C21 UNL     1      37.878 -10.386  26.116  1.00  0.00     0.275 C 
HETATM   23  C22 UNL     1      37.625 -10.323  24.634  1.00  0.00     0.055 C 
BRANCH  21  24
HETATM   24  C16 UNL     1      39.542 -10.648  27.763  1.00  0.00     0.223 C 
HETATM   25  C17 UNL     1      38.316 -10.662  28.625  1.00  0.00     0.036 C 
HETATM   26  C18 UNL     1      38.927 -10.719  30.017  1.00  0.00     0.002 C 
HETATM   27  C19 UNL     1      40.113  -9.805  29.915  1.00  0.00     0.002 C 
HETATM   28  C20 UNL     1      40.433  -9.663  28.418  1.00  0.00     0.036 C 
ENDBRANCH  21  24
ENDBRANCH   1  18
TORSDOF 6
ENDMDL
