MODEL 1
REMARK VINA RESULT: -6.410192370      0.000      0.000
REMARK  9 active torsions:
REMARK  status: ('A' for Active; 'I' for Inactive)
REMARK    1  A    between atoms: O1_2  and  C2_3 
REMARK    2  A    between atoms: C4_8  and  N2_9 
REMARK    3  A    between atoms: C8_13  and  C9_14 
REMARK    4  A    between atoms: C9_14  and  N3_15 
REMARK    5  A    between atoms: C14_20  and  C15_21 
REMARK    6  A    between atoms: C16_22  and  C17_23 
REMARK    7  A    between atoms: C17_23  and  O3_25 
REMARK    8  A    between atoms: C19_27  and  O4_28 
REMARK    9  A    between atoms: C20_30  and  O5_31 
ROOT
HETATM    1  C2  UNL     1     -15.012 -37.995  17.325  1.00  0.00     0.254 C 
HETATM    2  N1  UNL     1     -15.029 -39.011  16.300  1.00  0.00    -0.327 N 
ATOM      3  H1  UNL     1     -14.191 -39.010  15.719  1.00  0.00     0.165 HD
HETATM    4  C3  UNL     1     -15.955 -39.998  15.934  1.00  0.00     0.270 C 
HETATM    5  O2  UNL     1     -15.455 -40.991  15.361  1.00  0.00    -0.266 OA
HETATM    6  C4  UNL     1     -17.407 -40.055  16.110  1.00  0.00     0.108 C 
HETATM    7  C14 UNL     1     -18.106 -38.887  16.714  1.00  0.00     0.005 C 
HETATM    8  C19 UNL     1     -17.378 -37.598  16.765  1.00  0.00     0.186 C 
HETATM    9  C20 UNL     1     -16.362 -37.710  17.902  1.00  0.00     0.200 C 
ENDROOT
BRANCH   6  10
HETATM   10  N2  UNL     1     -18.157 -40.872  15.234  1.00  0.00    -0.369 N 
HETATM   11  C5  UNL     1     -18.271 -42.241  15.704  1.00  0.00     0.123 C 
HETATM   12  C6  UNL     1     -17.831 -43.139  14.622  1.00  0.00     0.022 C 
HETATM   13  C7  UNL     1     -17.510 -42.246  13.486  1.00  0.00     0.028 C 
HETATM   14  C8  UNL     1     -18.047 -40.881  13.878  1.00  0.00     0.113 C 
BRANCH  14  15
HETATM   15  C9  UNL     1     -17.291 -39.908  13.069  1.00  0.00     0.297 C 
BRANCH  15  16
HETATM   16  N3  UNL     1     -16.825 -40.569  11.865  1.00  0.00     0.090 N 
HETATM   17  C10 UNL     1     -17.176 -39.868  10.648  1.00  0.00     0.272 C 
HETATM   18  C11 UNL     1     -16.298 -40.540   9.586  1.00  0.00     0.032 C 
HETATM   19  C12 UNL     1     -15.036 -40.851  10.350  1.00  0.00     0.032 C 
HETATM   20  C13 UNL     1     -15.378 -40.549  11.794  1.00  0.00     0.272 C 
ENDBRANCH  15  16
ENDBRANCH  14  15
ENDBRANCH   6  10
BRANCH   7  21
HETATM   21  C15 UNL     1     -19.498 -38.749  16.280  1.00  0.00     0.011 C 
HETATM   22  C16 UNL     1     -20.381 -37.955  16.770  1.00  0.00     0.005 C 
BRANCH  22  23
HETATM   23  C17 UNL     1     -21.802 -37.917  16.218  1.00  0.00     0.137 C 
HETATM   24  C18 UNL     1     -22.699 -37.508  17.359  1.00  0.00     0.043 C 
BRANCH  23  25
HETATM   25  O3  UNL     1     -22.177 -39.209  15.831  1.00  0.00    -0.392 OA
ATOM     26  H3  UNL     1     -21.728 -39.840  16.381  1.00  0.00     0.210 HD
ENDBRANCH  23  25
ENDBRANCH  22  23
ENDBRANCH   7  21
BRANCH   8  27
HETATM   27  O4  UNL     1     -16.820 -37.110  15.627  1.00  0.00    -0.388 OA
ATOM     28  H4  UNL     1     -16.989 -37.552  14.803  1.00  0.00     0.210 HD
ENDBRANCH   8  27
BRANCH   1  29
HETATM   29  O1  UNL     1     -14.573 -36.817  16.704  1.00  0.00    -0.369 OA
HETATM   30  C1  UNL     1     -13.209 -36.762  16.584  1.00  0.00     0.204 C 
ENDBRANCH   1  29
BRANCH   9  31
HETATM   31  O5  UNL     1     -16.348 -36.512  18.616  1.00  0.00    -0.388 OA
ATOM     32  H5  UNL     1     -15.857 -35.848  18.146  1.00  0.00     0.210 HD
ENDBRANCH   9  31
TORSDOF 9
ENDMDL
MODEL 2
REMARK VINA RESULT: -6.334618587      1.198      1.350
REMARK  9 active torsions:
REMARK  status: ('A' for Active; 'I' for Inactive)
REMARK    1  A    between atoms: O1_2  and  C2_3 
REMARK    2  A    between atoms: C4_8  and  N2_9 
REMARK    3  A    between atoms: C8_13  and  C9_14 
REMARK    4  A    between atoms: C9_14  and  N3_15 
REMARK    5  A    between atoms: C14_20  and  C15_21 
REMARK    6  A    between atoms: C16_22  and  C17_23 
REMARK    7  A    between atoms: C17_23  and  O3_25 
REMARK    8  A    between atoms: C19_27  and  O4_28 
REMARK    9  A    between atoms: C20_30  and  O5_31 
ROOT
HETATM    1  C2  UNL     1     -14.728 -37.735  18.205  1.00  0.00     0.254 C 
HETATM    2  N1  UNL     1     -14.475 -38.742  17.202  1.00  0.00    -0.327 N 
ATOM      3  H1  UNL     1     -13.536 -38.691  16.809  1.00  0.00     0.165 HD
HETATM    4  C3  UNL     1     -15.249 -39.776  16.655  1.00  0.00     0.270 C 
HETATM    5  O2  UNL     1     -14.586 -40.735  16.203  1.00  0.00    -0.266 OA
HETATM    6  C4  UNL     1     -16.700 -39.914  16.525  1.00  0.00     0.108 C 
HETATM    7  C14 UNL     1     -17.573 -38.791  16.966  1.00  0.00     0.005 C 
HETATM    8  C19 UNL     1     -16.944 -37.464  17.163  1.00  0.00     0.186 C 
HETATM    9  C20 UNL     1     -16.182 -37.529  18.487  1.00  0.00     0.200 C 
ENDROOT
BRANCH   6  10
HETATM   10  N2  UNL     1     -17.205 -40.764  15.516  1.00  0.00    -0.369 N 
HETATM   11  C5  UNL     1     -17.495 -42.101  16.001  1.00  0.00     0.123 C 
HETATM   12  C6  UNL     1     -16.804 -43.068  15.132  1.00  0.00     0.022 C 
HETATM   13  C7  UNL     1     -16.146 -42.250  14.089  1.00  0.00     0.028 C 
HETATM   14  C8  UNL     1     -16.721 -40.853  14.247  1.00  0.00     0.113 C 
BRANCH  14  15
HETATM   15  C9  UNL     1     -15.734 -39.945  13.636  1.00  0.00     0.297 C 
BRANCH  15  16
HETATM   16  N3  UNL     1     -14.858 -40.720  12.779  1.00  0.00     0.090 N 
HETATM   17  C10 UNL     1     -15.205 -40.642  11.375  1.00  0.00     0.272 C 
HETATM   18  C11 UNL     1     -13.972 -41.221  10.672  1.00  0.00     0.032 C 
HETATM   19  C12 UNL     1     -12.841 -40.754  11.553  1.00  0.00     0.032 C 
HETATM   20  C13 UNL     1     -13.521 -40.163  12.770  1.00  0.00     0.272 C 
ENDBRANCH  15  16
ENDBRANCH  14  15
ENDBRANCH   6  10
BRANCH   7  21
HETATM   21  C15 UNL     1     -18.849 -38.726  16.252  1.00  0.00     0.011 C 
HETATM   22  C16 UNL     1     -19.857 -37.984  16.542  1.00  0.00     0.005 C 
BRANCH  22  23
HETATM   23  C17 UNL     1     -21.131 -38.019  15.706  1.00  0.00     0.137 C 
HETATM   24  C18 UNL     1     -22.285 -37.910  16.672  1.00  0.00     0.043 C 
BRANCH  23  25
HETATM   25  O3  UNL     1     -21.230 -39.265  15.075  1.00  0.00    -0.392 OA
ATOM     26  H3  UNL     1     -22.038 -39.685  15.343  1.00  0.00     0.210 HD
ENDBRANCH  23  25
ENDBRANCH  22  23
ENDBRANCH   7  21
BRANCH   8  27
HETATM   27  O4  UNL     1     -16.189 -36.937  16.165  1.00  0.00    -0.388 OA
ATOM     28  H4  UNL     1     -16.054 -35.997  16.135  1.00  0.00     0.210 HD
ENDBRANCH   8  27
BRANCH   1  29
HETATM   29  O1  UNL     1     -14.236 -36.530  17.685  1.00  0.00    -0.369 OA
HETATM   30  C1  UNL     1     -12.878 -36.553  17.499  1.00  0.00     0.204 C 
ENDBRANCH   1  29
BRANCH   9  31
HETATM   31  O5  UNL     1     -16.383 -36.338  19.184  1.00  0.00    -0.388 OA
ATOM     32  H5  UNL     1     -17.123 -35.862  18.825  1.00  0.00     0.210 HD
ENDBRANCH   9  31
TORSDOF 9
ENDMDL
MODEL 3
REMARK VINA RESULT: -6.231124121      2.883      6.110
REMARK  9 active torsions:
REMARK  status: ('A' for Active; 'I' for Inactive)
REMARK    1  A    between atoms: O1_2  and  C2_3 
REMARK    2  A    between atoms: C4_8  and  N2_9 
REMARK    3  A    between atoms: C8_13  and  C9_14 
REMARK    4  A    between atoms: C9_14  and  N3_15 
REMARK    5  A    between atoms: C14_20  and  C15_21 
REMARK    6  A    between atoms: C16_22  and  C17_23 
REMARK    7  A    between atoms: C17_23  and  O3_25 
REMARK    8  A    between atoms: C19_27  and  O4_28 
REMARK    9  A    between atoms: C20_30  and  O5_31 
ROOT
HETATM    1  C2  UNL     1     -12.897 -35.788  18.206  1.00  0.00     0.254 C 
HETATM    2  N1  UNL     1     -13.907 -36.656  18.761  1.00  0.00    -0.327 N 
ATOM      3  H1  UNL     1     -13.896 -36.685  19.781  1.00  0.00     0.165 HD
HETATM    4  C3  UNL     1     -14.900 -37.468  18.195  1.00  0.00     0.270 C 
HETATM    5  O2  UNL     1     -15.886 -37.674  18.938  1.00  0.00    -0.266 OA
HETATM    6  C4  UNL     1     -14.971 -38.113  16.884  1.00  0.00     0.108 C 
HETATM    7  C14 UNL     1     -13.813 -37.989  15.957  1.00  0.00     0.005 C 
HETATM    8  C19 UNL     1     -12.517 -37.550  16.525  1.00  0.00     0.186 C 
HETATM    9  C20 UNL     1     -12.626 -36.043  16.757  1.00  0.00     0.200 C 
ENDROOT
BRANCH   6  10
HETATM   10  N2  UNL     1     -15.790 -39.256  16.742  1.00  0.00    -0.369 N 
HETATM   11  C5  UNL     1     -15.092 -40.377  16.140  1.00  0.00     0.123 C 
HETATM   12  C6  UNL     1     -15.882 -40.850  14.991  1.00  0.00     0.022 C 
HETATM   13  C7  UNL     1     -17.094 -40.001  14.980  1.00  0.00     0.028 C 
HETATM   14  C8  UNL     1     -17.077 -39.252  16.300  1.00  0.00     0.113 C 
BRANCH  14  15
HETATM   15  C9  UNL     1     -17.912 -38.056  16.091  1.00  0.00     0.297 C 
BRANCH  15  16
HETATM   16  N3  UNL     1     -19.266 -38.355  16.515  1.00  0.00     0.090 N 
HETATM   17  C10 UNL     1     -19.784 -37.423  17.494  1.00  0.00     0.272 C 
HETATM   18  C11 UNL     1     -21.288 -37.724  17.509  1.00  0.00     0.032 C 
HETATM   19  C12 UNL     1     -21.568 -38.075  16.070  1.00  0.00     0.032 C 
HETATM   20  C13 UNL     1     -20.201 -38.167  15.425  1.00  0.00     0.272 C 
ENDBRANCH  15  16
ENDBRANCH  14  15
ENDBRANCH   6  10
BRANCH   7  21
HETATM   21  C15 UNL     1     -13.684 -39.113  15.026  1.00  0.00     0.011 C 
HETATM   22  C16 UNL     1     -12.835 -39.226  14.069  1.00  0.00     0.005 C 
BRANCH  22  23
HETATM   23  C17 UNL     1     -12.816 -40.458  13.171  1.00  0.00     0.137 C 
HETATM   24  C18 UNL     1     -11.367 -40.749  12.867  1.00  0.00     0.043 C 
BRANCH  23  25
HETATM   25  O3  UNL     1     -13.444 -40.151  11.958  1.00  0.00    -0.392 OA
ATOM     26  H3  UNL     1     -12.918 -40.486  11.243  1.00  0.00     0.210 HD
ENDBRANCH  23  25
ENDBRANCH  22  23
ENDBRANCH   7  21
BRANCH   8  27
HETATM   27  O4  UNL     1     -12.018 -38.198  17.609  1.00  0.00    -0.388 OA
ATOM     28  H4  UNL     1     -11.161 -37.955  17.938  1.00  0.00     0.210 HD
ENDBRANCH   8  27
BRANCH   1  29
HETATM   29  O1  UNL     1     -11.712 -36.069  18.900  1.00  0.00    -0.369 OA
HETATM   30  C1  UNL     1     -11.320 -35.037  19.712  1.00  0.00     0.204 C 
ENDBRANCH   1  29
BRANCH   9  31
HETATM   31  O5  UNL     1     -11.432 -35.437  16.366  1.00  0.00    -0.388 OA
ATOM     32  H5  UNL     1     -11.184 -35.719  15.494  1.00  0.00     0.210 HD
ENDBRANCH   9  31
TORSDOF 9
ENDMDL
MODEL 4
REMARK VINA RESULT: -6.123465096      2.531      5.769
REMARK  9 active torsions:
REMARK  status: ('A' for Active; 'I' for Inactive)
REMARK    1  A    between atoms: O1_2  and  C2_3 
REMARK    2  A    between atoms: C4_8  and  N2_9 
REMARK    3  A    between atoms: C8_13  and  C9_14 
REMARK    4  A    between atoms: C9_14  and  N3_15 
REMARK    5  A    between atoms: C14_20  and  C15_21 
REMARK    6  A    between atoms: C16_22  and  C17_23 
REMARK    7  A    between atoms: C17_23  and  O3_25 
REMARK    8  A    between atoms: C19_27  and  O4_28 
REMARK    9  A    between atoms: C20_30  and  O5_31 
ROOT
HETATM    1  C2  UNL     1     -13.221 -41.656  11.852  1.00  0.00     0.254 C 
HETATM    2  N1  UNL     1     -14.464 -42.235  12.304  1.00  0.00    -0.327 N 
ATOM      3  H1  UNL     1     -15.048 -42.579  11.541  1.00  0.00     0.165 HD
HETATM    4  C3  UNL     1     -15.037 -42.425  13.569  1.00  0.00     0.270 C 
HETATM    5  O2  UNL     1     -15.849 -43.375  13.633  1.00  0.00    -0.266 OA
HETATM    6  C4  UNL     1     -14.844 -41.694  14.822  1.00  0.00     0.108 C 
HETATM    7  C14 UNL     1     -13.955 -40.500  14.830  1.00  0.00     0.005 C 
HETATM    8  C19 UNL     1     -13.607 -39.889  13.525  1.00  0.00     0.186 C 
HETATM    9  C20 UNL     1     -12.559 -40.795  12.880  1.00  0.00     0.200 C 
ENDROOT
BRANCH   6  10
HETATM   10  N2  UNL     1     -15.875 -41.736  15.788  1.00  0.00    -0.369 N 
HETATM   11  C5  UNL     1     -15.933 -43.005  16.491  1.00  0.00     0.123 C 
HETATM   12  C6  UNL     1     -17.309 -43.521  16.399  1.00  0.00     0.022 C 
HETATM   13  C7  UNL     1     -18.064 -42.480  15.666  1.00  0.00     0.028 C 
HETATM   14  C8  UNL     1     -17.142 -41.275  15.608  1.00  0.00     0.113 C 
BRANCH  14  15
HETATM   15  C9  UNL     1     -17.611 -40.468  14.468  1.00  0.00     0.297 C 
BRANCH  15  16
HETATM   16  N3  UNL     1     -18.195 -39.242  14.975  1.00  0.00     0.090 N 
HETATM   17  C10 UNL     1     -19.642 -39.263  15.014  1.00  0.00     0.272 C 
HETATM   18  C11 UNL     1     -19.991 -38.053  15.888  1.00  0.00     0.032 C 
HETATM   19  C12 UNL     1     -18.864 -38.034  16.891  1.00  0.00     0.032 C 
HETATM   20  C13 UNL     1     -17.878 -39.062  16.377  1.00  0.00     0.272 C 
ENDBRANCH  15  16
ENDBRANCH  14  15
ENDBRANCH   6  10
BRANCH   7  21
HETATM   21  C15 UNL     1     -14.306 -39.515  15.854  1.00  0.00     0.011 C 
HETATM   22  C16 UNL     1     -13.739 -38.380  16.057  1.00  0.00     0.005 C 
BRANCH  22  23
HETATM   23  C17 UNL     1     -14.211 -37.448  17.168  1.00  0.00     0.137 C 
HETATM   24  C18 UNL     1     -12.973 -36.964  17.882  1.00  0.00     0.043 C 
BRANCH  23  25
HETATM   25  O3  UNL     1     -14.967 -38.182  18.090  1.00  0.00    -0.392 OA
ATOM     26  H3  UNL     1     -14.448 -38.913  18.404  1.00  0.00     0.210 HD
ENDBRANCH  23  25
ENDBRANCH  22  23
ENDBRANCH   7  21
BRANCH   8  27
HETATM   27  O4  UNL     1     -14.604 -39.566  12.662  1.00  0.00    -0.388 OA
ATOM     28  H4  UNL     1     -14.653 -38.679  12.325  1.00  0.00     0.210 HD
ENDBRANCH   8  27
BRANCH   1  29
HETATM   29  O1  UNL     1     -13.545 -40.826  10.769  1.00  0.00    -0.369 OA
HETATM   30  C1  UNL     1     -13.334 -41.434   9.559  1.00  0.00     0.204 C 
ENDBRANCH   1  29
BRANCH   9  31
HETATM   31  O5  UNL     1     -11.573 -40.002  12.294  1.00  0.00    -0.388 OA
ATOM     32  H5  UNL     1     -11.653 -40.013  11.347  1.00  0.00     0.210 HD
ENDBRANCH   9  31
TORSDOF 9
ENDMDL
MODEL 5
REMARK VINA RESULT: -6.117961653      2.956      5.810
REMARK  9 active torsions:
REMARK  status: ('A' for Active; 'I' for Inactive)
REMARK    1  A    between atoms: O1_2  and  C2_3 
REMARK    2  A    between atoms: C4_8  and  N2_9 
REMARK    3  A    between atoms: C8_13  and  C9_14 
REMARK    4  A    between atoms: C9_14  and  N3_15 
REMARK    5  A    between atoms: C14_20  and  C15_21 
REMARK    6  A    between atoms: C16_22  and  C17_23 
REMARK    7  A    between atoms: C17_23  and  O3_25 
REMARK    8  A    between atoms: C19_27  and  O4_28 
REMARK    9  A    between atoms: C20_30  and  O5_31 
ROOT
HETATM    1  C2  UNL     1     -17.817 -41.122  15.656  1.00  0.00     0.254 C 
HETATM    2  N1  UNL     1     -16.385 -41.287  15.580  1.00  0.00    -0.327 N 
ATOM      3  H1  UNL     1     -15.881 -40.761  16.294  1.00  0.00     0.165 HD
HETATM    4  C3  UNL     1     -15.540 -42.017  14.732  1.00  0.00     0.270 C 
HETATM    5  O2  UNL     1     -14.441 -42.330  15.240  1.00  0.00    -0.266 OA
HETATM    6  C4  UNL     1     -15.733 -42.468  13.353  1.00  0.00     0.108 C 
HETATM    7  C14 UNL     1     -16.979 -42.080  12.636  1.00  0.00     0.005 C 
HETATM    8  C19 UNL     1     -17.781 -40.969  13.197  1.00  0.00     0.186 C 
HETATM    9  C20 UNL     1     -18.529 -41.531  14.406  1.00  0.00     0.200 C 
ENDROOT
BRANCH   6  10
HETATM   10  N2  UNL     1     -14.588 -42.723  12.565  1.00  0.00    -0.369 N 
HETATM   11  C5  UNL     1     -13.948 -43.982  12.896  1.00  0.00     0.123 C 
HETATM   12  C6  UNL     1     -12.524 -43.720  13.165  1.00  0.00     0.022 C 
HETATM   13  C7  UNL     1     -12.346 -42.270  12.923  1.00  0.00     0.028 C 
HETATM   14  C8  UNL     1     -13.628 -41.810  12.253  1.00  0.00     0.113 C 
BRANCH  14  15
HETATM   15  C9  UNL     1     -13.707 -40.359  12.498  1.00  0.00     0.297 C 
BRANCH  15  16
HETATM   16  N3  UNL     1     -12.627 -39.978  13.387  1.00  0.00     0.090 N 
HETATM   17  C10 UNL     1     -11.727 -38.999  12.816  1.00  0.00     0.272 C 
HETATM   18  C11 UNL     1     -10.921 -38.511  14.026  1.00  0.00     0.032 C 
HETATM   19  C12 UNL     1     -11.938 -38.552  15.138  1.00  0.00     0.032 C 
HETATM   20  C13 UNL     1     -13.135 -39.258  14.536  1.00  0.00     0.272 C 
ENDBRANCH  15  16
ENDBRANCH  14  15
ENDBRANCH   6  10
BRANCH   7  21
HETATM   21  C15 UNL     1     -16.817 -42.000  11.182  1.00  0.00     0.011 C 
HETATM   22  C16 UNL     1     -17.230 -41.058  10.413  1.00  0.00     0.005 C 
BRANCH  22  23
HETATM   23  C17 UNL     1     -16.992 -41.105   8.908  1.00  0.00     0.137 C 
HETATM   24  C18 UNL     1     -15.987 -40.025   8.595  1.00  0.00     0.043 C 
BRANCH  23  25
HETATM   25  O3  UNL     1     -18.181 -40.775   8.246  1.00  0.00    -0.392 OA
ATOM     26  H3  UNL     1     -18.211 -41.233   7.415  1.00  0.00     0.210 HD
ENDBRANCH  23  25
ENDBRANCH  22  23
ENDBRANCH   7  21
BRANCH   8  27
HETATM   27  O4  UNL     1     -17.169 -39.790  13.479  1.00  0.00    -0.388 OA
ATOM     28  H4  UNL     1     -17.690 -38.995  13.513  1.00  0.00     0.210 HD
ENDBRANCH   8  27
BRANCH   1  29
HETATM   29  O1  UNL     1     -18.046 -39.750  15.829  1.00  0.00    -0.369 OA
HETATM   30  C1  UNL     1     -17.345 -39.228  16.884  1.00  0.00     0.204 C 
ENDBRANCH   1  29
BRANCH   9  31
HETATM   31  O5  UNL     1     -19.834 -41.039  14.401  1.00  0.00    -0.388 OA
ATOM     32  H5  UNL     1     -20.460 -41.754  14.417  1.00  0.00     0.210 HD
ENDBRANCH   9  31
TORSDOF 9
ENDMDL
