MODEL 1
REMARK VINA RESULT: -6.584102560      0.000      0.000
REMARK  7 active torsions:
REMARK  status: ('A' for Active; 'I' for Inactive)
REMARK    1  A    between atoms: O1_2  and  C2_3 
REMARK    2  A    between atoms: C2_3  and  C3_4 
REMARK    3  A    between atoms: C5_8  and  C6_9 
REMARK    4  A    between atoms: C7_12  and  C8_13 
REMARK    5  A    between atoms: C9_16  and  N1_17 
REMARK    6  A    between atoms: C16_24  and  C17_25 
REMARK    7  A    between atoms: C17_25  and  O8_26 
ROOT
HETATM    1  C2  UNL     1     -17.301 -38.231  18.537  1.00  0.00     0.176 C 
HETATM    2  C4  UNL     1     -16.908 -37.075  17.625  1.00  0.00     0.069 C 
HETATM    3  C5  UNL     1     -16.155 -37.784  16.496  1.00  0.00     0.114 C 
HETATM    4  C7  UNL     1     -16.742 -39.158  16.384  1.00  0.00     0.124 C 
HETATM    5  C9  UNL     1     -17.667 -39.243  15.185  1.00  0.00     0.276 C 
HETATM    6  C16 UNL     1     -19.041 -39.155  15.783  1.00  0.00     0.180 C 
HETATM    7  O9  UNL     1     -18.949 -39.080  17.133  1.00  0.00    -0.371 OA
HETATM    8  C18 UNL     1     -17.663 -39.341  17.535  1.00  0.00     0.190 C 
ENDROOT
BRANCH   5   9
HETATM    9  N1  UNL     1     -17.487 -40.402  14.370  1.00  0.00     0.097 N 
HETATM   10  C10 UNL     1     -18.447 -41.445  14.519  1.00  0.00     0.273 C 
HETATM   11  C11 UNL     1     -18.953 -41.929  13.144  1.00  0.00     0.034 C 
HETATM   12  C12 UNL     1     -17.714 -42.298  12.385  1.00  0.00    -0.015 C 
HETATM   13  C13 UNL     1     -17.948 -43.181  11.201  1.00  0.00     0.010 C 
HETATM   14  C14 UNL     1     -16.929 -41.064  12.072  1.00  0.00     0.034 C 
HETATM   15  C15 UNL     1     -17.382 -39.959  12.995  1.00  0.00     0.273 C 
ENDBRANCH   5   9
BRANCH   4  16
HETATM   16  C8  UNL     1     -15.683 -40.163  16.318  1.00  0.00     0.188 C 
HETATM   17  O6  UNL     1     -15.689 -41.173  17.070  1.00  0.00    -0.647 OA
HETATM   18  O7  UNL     1     -14.622 -40.006  15.393  1.00  0.00    -0.647 OA
ENDBRANCH   4  16
BRANCH   6  19
HETATM   19  C17 UNL     1     -19.860 -38.029  15.238  1.00  0.00     0.198 C 
BRANCH  19  20
HETATM   20  O8  UNL     1     -20.650 -37.553  16.303  1.00  0.00    -0.398 OA
ATOM     21  H8  UNL     1     -21.556 -37.664  16.041  1.00  0.00     0.209 HD
ENDBRANCH  19  20
ENDBRANCH   6  19
BRANCH   3  22
HETATM   22  C6  UNL     1     -14.737 -37.681  16.830  1.00  0.00     0.178 C 
HETATM   23  O4  UNL     1     -14.052 -38.363  17.604  1.00  0.00    -0.648 OA
HETATM   24  O5  UNL     1     -14.033 -36.642  16.176  1.00  0.00    -0.648 OA
ENDBRANCH   3  22
BRANCH   1  25
HETATM   25  O1  UNL     1     -16.287 -38.706  19.297  1.00  0.00    -0.371 OA
HETATM   26  C1  UNL     1     -15.745 -37.922  20.264  1.00  0.00     0.203 C 
ENDBRANCH   1  25
BRANCH   1  27
HETATM   27  C3  UNL     1     -18.502 -37.893  19.317  1.00  0.00     0.212 C 
HETATM   28  O2  UNL     1     -19.186 -36.862  19.005  1.00  0.00    -0.646 OA
HETATM   29  O3  UNL     1     -18.880 -38.695  20.375  1.00  0.00    -0.646 OA
ENDBRANCH   1  27
TORSDOF 7
ENDMDL
MODEL 2
REMARK VINA RESULT: -6.201980555      3.296      5.003
REMARK  7 active torsions:
REMARK  status: ('A' for Active; 'I' for Inactive)
REMARK    1  A    between atoms: O1_2  and  C2_3 
REMARK    2  A    between atoms: C2_3  and  C3_4 
REMARK    3  A    between atoms: C5_8  and  C6_9 
REMARK    4  A    between atoms: C7_12  and  C8_13 
REMARK    5  A    between atoms: C9_16  and  N1_17 
REMARK    6  A    between atoms: C16_24  and  C17_25 
REMARK    7  A    between atoms: C17_25  and  O8_26 
ROOT
HETATM    1  C2  UNL     1     -18.013 -41.558  15.159  1.00  0.00     0.176 C 
HETATM    2  C4  UNL     1     -18.003 -40.036  15.239  1.00  0.00     0.069 C 
HETATM    3  C5  UNL     1     -16.513 -39.722  15.393  1.00  0.00     0.114 C 
HETATM    4  C7  UNL     1     -15.766 -40.817  14.695  1.00  0.00     0.124 C 
HETATM    5  C9  UNL     1     -15.248 -40.335  13.354  1.00  0.00     0.276 C 
HETATM    6  C16 UNL     1     -16.210 -40.923  12.364  1.00  0.00     0.180 C 
HETATM    7  O9  UNL     1     -17.129 -41.679  13.011  1.00  0.00    -0.371 OA
HETATM    8  C18 UNL     1     -16.758 -41.858  14.320  1.00  0.00     0.190 C 
ENDROOT
BRANCH   5   9
HETATM    9  N1  UNL     1     -13.888 -40.675  13.080  1.00  0.00     0.097 N 
HETATM   10  C10 UNL     1     -13.665 -41.675  12.090  1.00  0.00     0.273 C 
HETATM   11  C11 UNL     1     -12.586 -41.224  11.084  1.00  0.00     0.034 C 
HETATM   12  C12 UNL     1     -11.396 -40.875  11.926  1.00  0.00    -0.015 C 
HETATM   13  C13 UNL     1     -10.099 -40.817  11.180  1.00  0.00     0.010 C 
HETATM   14  C14 UNL     1     -11.687 -39.645  12.725  1.00  0.00     0.034 C 
HETATM   15  C15 UNL     1     -13.182 -39.447  12.775  1.00  0.00     0.273 C 
ENDBRANCH   5   9
BRANCH   4  16
HETATM   16  C8  UNL     1     -14.685 -41.320  15.541  1.00  0.00     0.188 C 
HETATM   17  O6  UNL     1     -14.554 -42.549  15.779  1.00  0.00    -0.647 OA
HETATM   18  O7  UNL     1     -13.760 -40.411  16.111  1.00  0.00    -0.647 OA
ENDBRANCH   4  16
BRANCH   6  19
HETATM   19  C17 UNL     1     -16.872 -39.903  11.494  1.00  0.00     0.198 C 
BRANCH  19  20
HETATM   20  O8  UNL     1     -17.904 -40.569  10.804  1.00  0.00    -0.398 OA
ATOM     21  H8  UNL     1     -18.139 -40.017  10.067  1.00  0.00     0.209 HD
ENDBRANCH  19  20
ENDBRANCH   6  19
BRANCH   3  22
HETATM   22  C6  UNL     1     -16.283 -39.554  16.826  1.00  0.00     0.178 C 
HETATM   23  O4  UNL     1     -16.626 -40.272  17.774  1.00  0.00    -0.648 OA
HETATM   24  O5  UNL     1     -15.560 -38.394  17.194  1.00  0.00    -0.648 OA
ENDBRANCH   3  22
BRANCH   1  25
HETATM   25  O1  UNL     1     -17.843 -42.176  16.351  1.00  0.00    -0.371 OA
HETATM   26  C1  UNL     1     -17.731 -43.529  16.399  1.00  0.00     0.203 C 
ENDBRANCH   1  25
BRANCH   1  27
HETATM   27  C3  UNL     1     -19.194 -42.032  14.421  1.00  0.00     0.212 C 
HETATM   28  O2  UNL     1     -20.229 -41.290  14.345  1.00  0.00    -0.646 OA
HETATM   29  O3  UNL     1     -19.171 -43.273  13.816  1.00  0.00    -0.646 OA
ENDBRANCH   1  27
TORSDOF 7
ENDMDL
MODEL 3
REMARK VINA RESULT: -6.125073012      2.537      5.221
REMARK  7 active torsions:
REMARK  status: ('A' for Active; 'I' for Inactive)
REMARK    1  A    between atoms: O1_2  and  C2_3 
REMARK    2  A    between atoms: C2_3  and  C3_4 
REMARK    3  A    between atoms: C5_8  and  C6_9 
REMARK    4  A    between atoms: C7_12  and  C8_13 
REMARK    5  A    between atoms: C9_16  and  N1_17 
REMARK    6  A    between atoms: C16_24  and  C17_25 
REMARK    7  A    between atoms: C17_25  and  O8_26 
ROOT
HETATM    1  C2  UNL     1     -16.114 -40.663  15.917  1.00  0.00     0.176 C 
HETATM    2  C4  UNL     1     -15.502 -42.055  16.024  1.00  0.00     0.069 C 
HETATM    3  C5  UNL     1     -16.423 -42.892  15.133  1.00  0.00     0.114 C 
HETATM    4  C7  UNL     1     -16.951 -41.973  14.074  1.00  0.00     0.124 C 
HETATM    5  C9  UNL     1     -16.238 -42.214  12.758  1.00  0.00     0.276 C 
HETATM    6  C16 UNL     1     -15.256 -41.082  12.668  1.00  0.00     0.180 C 
HETATM    7  O9  UNL     1     -15.398 -40.267  13.740  1.00  0.00    -0.371 OA
HETATM    8  C18 UNL     1     -16.533 -40.594  14.438  1.00  0.00     0.190 C 
ENDROOT
BRANCH   5   9
HETATM    9  N1  UNL     1     -17.095 -42.301  11.619  1.00  0.00     0.097 N 
HETATM   10  C10 UNL     1     -17.156 -41.154  10.775  1.00  0.00     0.273 C 
HETATM   11  C11 UNL     1     -17.001 -41.553   9.292  1.00  0.00     0.034 C 
HETATM   12  C12 UNL     1     -18.064 -42.584   9.057  1.00  0.00    -0.015 C 
HETATM   13  C13 UNL     1     -18.399 -42.816   7.617  1.00  0.00     0.010 C 
HETATM   14  C14 UNL     1     -17.730 -43.833   9.807  1.00  0.00     0.034 C 
HETATM   15  C15 UNL     1     -16.727 -43.494  10.884  1.00  0.00     0.273 C 
ENDBRANCH   5   9
BRANCH   4  16
HETATM   16  C8  UNL     1     -18.399 -42.127  13.939  1.00  0.00     0.188 C 
HETATM   17  O6  UNL     1     -19.181 -41.156  14.111  1.00  0.00    -0.647 OA
HETATM   18  O7  UNL     1     -18.942 -43.391  13.606  1.00  0.00    -0.647 OA
ENDBRANCH   4  16
BRANCH   6  19
HETATM   19  C17 UNL     1     -13.838 -41.531  12.520  1.00  0.00     0.198 C 
BRANCH  19  20
HETATM   20  O8  UNL     1     -13.158 -41.112  13.681  1.00  0.00    -0.398 OA
ATOM     21  H8  UNL     1     -13.582 -40.311  13.969  1.00  0.00     0.209 HD
ENDBRANCH  19  20
ENDBRANCH   6  19
BRANCH   3  22
HETATM   22  C6  UNL     1     -17.392 -43.517  16.030  1.00  0.00     0.178 C 
HETATM   23  O4  UNL     1     -18.204 -42.997  16.807  1.00  0.00    -0.648 OA
HETATM   24  O5  UNL     1     -17.409 -44.932  16.016  1.00  0.00    -0.648 OA
ENDBRANCH   3  22
BRANCH   1  25
HETATM   25  O1  UNL     1     -17.238 -40.495  16.650  1.00  0.00    -0.371 OA
HETATM   26  C1  UNL     1     -17.948 -39.342  16.542  1.00  0.00     0.203 C 
ENDBRANCH   1  25
BRANCH   1  27
HETATM   27  C3  UNL     1     -15.097 -39.628  16.165  1.00  0.00     0.212 C 
HETATM   28  O2  UNL     1     -13.900 -39.973  16.436  1.00  0.00    -0.646 OA
HETATM   29  O3  UNL     1     -15.449 -38.294  16.099  1.00  0.00    -0.646 OA
ENDBRANCH   1  27
TORSDOF 7
ENDMDL
MODEL 4
REMARK VINA RESULT: -6.104317105      2.762      6.370
REMARK  7 active torsions:
REMARK  status: ('A' for Active; 'I' for Inactive)
REMARK    1  A    between atoms: O1_2  and  C2_3 
REMARK    2  A    between atoms: C2_3  and  C3_4 
REMARK    3  A    between atoms: C5_8  and  C6_9 
REMARK    4  A    between atoms: C7_12  and  C8_13 
REMARK    5  A    between atoms: C9_16  and  N1_17 
REMARK    6  A    between atoms: C16_24  and  C17_25 
REMARK    7  A    between atoms: C17_25  and  O8_26 
ROOT
HETATM    1  C2  UNL     1     -15.733 -42.061  12.111  1.00  0.00     0.176 C 
HETATM    2  C4  UNL     1     -15.963 -43.179  13.121  1.00  0.00     0.069 C 
HETATM    3  C5  UNL     1     -15.561 -42.518  14.443  1.00  0.00     0.114 C 
HETATM    4  C7  UNL     1     -15.847 -41.054  14.298  1.00  0.00     0.124 C 
HETATM    5  C9  UNL     1     -17.116 -40.686  15.042  1.00  0.00     0.276 C 
HETATM    6  C16 UNL     1     -18.148 -40.572  13.959  1.00  0.00     0.180 C 
HETATM    7  O9  UNL     1     -17.572 -40.791  12.752  1.00  0.00    -0.371 OA
HETATM    8  C18 UNL     1     -16.206 -40.813  12.876  1.00  0.00     0.190 C 
ENDROOT
BRANCH   5   9
HETATM    9  N1  UNL     1     -17.018 -39.509  15.845  1.00  0.00     0.097 N 
HETATM   10  C10 UNL     1     -17.849 -38.411  15.475  1.00  0.00     0.273 C 
HETATM   11  C11 UNL     1     -18.584 -37.838  16.704  1.00  0.00     0.034 C 
HETATM   12  C12 UNL     1     -17.500 -37.522  17.690  1.00  0.00    -0.015 C 
HETATM   13  C13 UNL     1     -17.903 -36.576  18.778  1.00  0.00     0.010 C 
HETATM   14  C14 UNL     1     -16.888 -38.791  18.190  1.00  0.00     0.034 C 
HETATM   15  C15 UNL     1     -17.226 -39.901  17.224  1.00  0.00     0.273 C 
ENDBRANCH   5   9
BRANCH   4  16
HETATM   16  C8  UNL     1     -14.706 -40.263  14.754  1.00  0.00     0.188 C 
HETATM   17  O6  UNL     1     -14.119 -39.455  13.987  1.00  0.00    -0.647 OA
HETATM   18  O7  UNL     1     -14.242 -40.401  16.085  1.00  0.00    -0.647 OA
ENDBRANCH   4  16
BRANCH   6  19
HETATM   19  C17 UNL     1     -19.328 -41.469  14.160  1.00  0.00     0.198 C 
BRANCH  19  20
HETATM   20  O8  UNL     1     -20.432 -40.632  14.415  1.00  0.00    -0.398 OA
ATOM     21  H8  UNL     1     -21.129 -41.192  14.737  1.00  0.00     0.209 HD
ENDBRANCH  19  20
ENDBRANCH   6  19
BRANCH   3  22
HETATM   22  C6  UNL     1     -14.177 -42.916  14.687  1.00  0.00     0.178 C 
HETATM   23  O4  UNL     1     -13.151 -42.655  14.044  1.00  0.00    -0.648 OA
HETATM   24  O5  UNL     1     -13.970 -43.724  15.830  1.00  0.00    -0.648 OA
ENDBRANCH   3  22
BRANCH   1  25
HETATM   25  O1  UNL     1     -14.432 -41.858  11.797  1.00  0.00    -0.371 OA
HETATM   26  C1  UNL     1     -13.842 -42.622  10.842  1.00  0.00     0.203 C 
ENDBRANCH   1  25
BRANCH   1  27
HETATM   27  C3  UNL     1     -16.594 -42.242  10.931  1.00  0.00     0.212 C 
HETATM   28  O2  UNL     1     -17.281 -43.310  10.810  1.00  0.00    -0.646 OA
HETATM   29  O3  UNL     1     -16.653 -41.253   9.969  1.00  0.00    -0.646 OA
ENDBRANCH   1  27
TORSDOF 7
ENDMDL
MODEL 5
REMARK VINA RESULT: -5.976001879      5.098      7.266
REMARK  7 active torsions:
REMARK  status: ('A' for Active; 'I' for Inactive)
REMARK    1  A    between atoms: O1_2  and  C2_3 
REMARK    2  A    between atoms: C2_3  and  C3_4 
REMARK    3  A    between atoms: C5_8  and  C6_9 
REMARK    4  A    between atoms: C7_12  and  C8_13 
REMARK    5  A    between atoms: C9_16  and  N1_17 
REMARK    6  A    between atoms: C16_24  and  C17_25 
REMARK    7  A    between atoms: C17_25  and  O8_26 
ROOT
HETATM    1  C2  UNL     1     -14.942 -42.145  13.549  1.00  0.00     0.176 C 
HETATM    2  C4  UNL     1     -15.186 -40.758  12.966  1.00  0.00     0.069 C 
HETATM    3  C5  UNL     1     -13.781 -40.327  12.538  1.00  0.00     0.114 C 
HETATM    4  C7  UNL     1     -13.032 -41.578  12.193  1.00  0.00     0.124 C 
HETATM    5  C9  UNL     1     -12.930 -41.737  10.688  1.00  0.00     0.276 C 
HETATM    6  C16 UNL     1     -13.974 -42.766  10.364  1.00  0.00     0.180 C 
HETATM    7  O9  UNL     1     -14.569 -43.190  11.505  1.00  0.00    -0.371 OA
HETATM    8  C18 UNL     1     -13.882 -42.727  12.599  1.00  0.00     0.190 C 
ENDROOT
BRANCH   5   9
HETATM    9  N1  UNL     1     -11.632 -42.089  10.210  1.00  0.00     0.097 N 
HETATM   10  C10 UNL     1     -11.448 -43.439   9.793  1.00  0.00     0.273 C 
HETATM   11  C11 UNL     1     -10.747 -43.502   8.420  1.00  0.00     0.034 C 
HETATM   12  C12 UNL     1      -9.489 -42.703   8.592  1.00  0.00    -0.015 C 
HETATM   13  C13 UNL     1      -8.442 -42.959   7.555  1.00  0.00     0.010 C 
HETATM   14  C14 UNL     1      -9.829 -41.258   8.763  1.00  0.00     0.034 C 
HETATM   15  C15 UNL     1     -11.281 -41.149   9.165  1.00  0.00     0.273 C 
ENDBRANCH   5   9
BRANCH   4  16
HETATM   16  C8  UNL     1     -11.713 -41.575  12.825  1.00  0.00     0.188 C 
HETATM   17  O6  UNL     1     -11.382 -42.459  13.657  1.00  0.00    -0.647 OA
HETATM   18  O7  UNL     1     -10.782 -40.559  12.500  1.00  0.00    -0.647 OA
ENDBRANCH   4  16
BRANCH   6  19
HETATM   19  C17 UNL     1     -14.989 -42.297   9.372  1.00  0.00     0.198 C 
BRANCH  19  20
HETATM   20  O8  UNL     1     -16.245 -42.390  10.005  1.00  0.00    -0.398 OA
ATOM     21  H8  UNL     1     -16.778 -42.964   9.468  1.00  0.00     0.209 HD
ENDBRANCH  19  20
ENDBRANCH   6  19
BRANCH   3  22
HETATM   22  C6  UNL     1     -13.261 -39.507  13.631  1.00  0.00     0.178 C 
HETATM   23  O4  UNL     1     -13.058 -39.801  14.816  1.00  0.00    -0.648 OA
HETATM   24  O5  UNL     1     -12.942 -38.171  13.289  1.00  0.00    -0.648 OA
ENDBRANCH   3  22
BRANCH   1  25
HETATM   25  O1  UNL     1     -14.395 -42.137  14.787  1.00  0.00    -0.371 OA
HETATM   26  C1  UNL     1     -15.191 -41.963  15.874  1.00  0.00     0.203 C 
ENDBRANCH   1  25
BRANCH   1  27
HETATM   27  C3  UNL     1     -16.158 -42.969  13.456  1.00  0.00     0.212 C 
HETATM   28  O2  UNL     1     -17.226 -42.464  12.975  1.00  0.00    -0.646 OA
HETATM   29  O3  UNL     1     -16.130 -44.281  13.887  1.00  0.00    -0.646 OA
ENDBRANCH   1  27
TORSDOF 7
ENDMDL
