MODEL 1
REMARK VINA RESULT: -8.113699662      0.000      0.000
REMARK  9 active torsions:
REMARK  status: ('A' for Active; 'I' for Inactive)
REMARK    1  A    between atoms: O1_2  and  C2_3 
REMARK    2  A    between atoms: C2_3  and  C3_4 
REMARK    3  A    between atoms: N1_8  and  N2_9 
REMARK    4  A    between atoms: N2_9  and  C7_11 
REMARK    5  A    between atoms: C8_14  and  N4_15 
REMARK    6  A    between atoms: N4_15  and  C9_17 
REMARK    7  A    between atoms: C14_24  and  N6_25 
REMARK    8  A    between atoms: N6_25  and  C15_27 
REMARK    9  A    between atoms: C20_32  and  O2_34 
ROOT
HETATM    1  C7  UNL     1     -11.948 -37.649  16.047  1.00  0.00     0.725 A 
HETATM    2  N3  UNL     1     -11.197 -38.203  15.084  1.00  0.00    -0.020 N 
ATOM      3  H3  UNL     1     -10.226 -37.912  14.975  1.00  0.00     0.203 HD
HETATM    4  C8  UNL     1     -11.713 -39.149  14.251  1.00  0.00     0.707 A 
HETATM    5  N5  UNL     1     -12.996 -39.503  14.428  1.00  0.00    -0.021 N 
ATOM      6  H5  UNL     1     -13.394 -40.210  13.810  1.00  0.00     0.203 HD
HETATM    7  C14 UNL     1     -13.789 -38.966  15.391  1.00  0.00     0.707 A 
HETATM    8  N7  UNL     1     -13.225 -38.039  16.181  1.00  0.00    -0.020 N 
ATOM      9  H7  UNL     1     -13.791 -37.613  16.915  1.00  0.00     0.203 HD
ENDROOT
BRANCH   7  10
HETATM   10  N6  UNL     1     -15.015 -39.327  15.531  1.00  0.00    -0.217 N 
ATOM     11  H6  UNL     1     -15.451 -39.830  14.758  1.00  0.00     0.178 HD
BRANCH  10  12
HETATM   12  C15 UNL     1     -15.821 -39.073  16.706  1.00  0.00     0.133 C 
HETATM   13  C16 UNL     1     -16.445 -37.727  16.721  1.00  0.00     0.029 C 
HETATM   14  C17 UNL     1     -17.871 -37.633  16.370  1.00  0.00     0.002 C 
HETATM   15  C18 UNL     1     -18.722 -38.797  16.717  1.00  0.00     0.003 C 
HETATM   16  C19 UNL     1     -18.055 -40.036  16.108  1.00  0.00     0.040 C 
HETATM   17  C20 UNL     1     -16.786 -40.211  16.893  1.00  0.00     0.075 C 
HETATM   18  C21 UNL     1     -16.184 -41.532  16.570  1.00  0.00     0.048 C 
BRANCH  17  19
HETATM   19  O2  UNL     1     -17.141 -40.220  18.249  1.00  0.00    -0.388 OA
ATOM     20  H2  UNL     1     -16.393 -40.560  18.725  1.00  0.00     0.210 HD
ENDBRANCH  17  19
ENDBRANCH  10  12
ENDBRANCH   7  10
BRANCH   4  21
HETATM   21  N4  UNL     1     -10.976 -39.668  13.329  1.00  0.00    -0.220 N 
ATOM     22  H4  UNL     1     -10.138 -40.186  13.591  1.00  0.00     0.178 HD
BRANCH  21  23
HETATM   23  C9  UNL     1     -11.309 -39.533  11.957  1.00  0.00     0.099 C 
HETATM   24  C10 UNL     1     -10.239 -38.905  11.103  1.00  0.00     0.026 C 
HETATM   25  C11 UNL     1      -9.884 -39.861  10.011  1.00  0.00     0.002 C 
HETATM   26  C12 UNL     1     -11.134 -40.744   9.921  1.00  0.00     0.002 C 
HETATM   27  C13 UNL     1     -11.430 -40.945  11.386  1.00  0.00     0.026 C 
ENDBRANCH  21  23
ENDBRANCH   4  21
BRANCH   1  28
HETATM   28  N2  UNL     1     -11.381 -36.777  16.776  1.00  0.00    -0.133 N 
ATOM     29  H2  UNL     1     -10.488 -37.056  17.183  1.00  0.00     0.205 HD
BRANCH  28  30
HETATM   30  N1  UNL     1     -11.810 -35.500  17.090  1.00  0.00    -0.307 N 
HETATM   31  C3  UNL     1     -11.715 -34.868  18.390  1.00  0.00     0.126 C 
HETATM   32  C4  UNL     1     -11.764 -33.372  18.151  1.00  0.00     0.030 C 
HETATM   33  C5  UNL     1     -11.799 -33.236  16.645  1.00  0.00     0.024 C 
HETATM   34  C6  UNL     1     -12.447 -34.530  16.221  1.00  0.00     0.143 C 
BRANCH  31  35
HETATM   35  C2  UNL     1     -12.829 -35.306  19.310  1.00  0.00     0.193 C 
BRANCH  35  36
HETATM   36  O1  UNL     1     -13.644 -36.287  18.781  1.00  0.00    -0.394 OA
HETATM   37  C1  UNL     1     -14.582 -36.789  19.658  1.00  0.00     0.201 C 
ENDBRANCH  35  36
ENDBRANCH  31  35
ENDBRANCH  28  30
ENDBRANCH   1  28
TORSDOF 9
ENDMDL
MODEL 2
REMARK VINA RESULT: -7.957899449      1.324      5.611
REMARK  9 active torsions:
REMARK  status: ('A' for Active; 'I' for Inactive)
REMARK    1  A    between atoms: O1_2  and  C2_3 
REMARK    2  A    between atoms: C2_3  and  C3_4 
REMARK    3  A    between atoms: N1_8  and  N2_9 
REMARK    4  A    between atoms: N2_9  and  C7_11 
REMARK    5  A    between atoms: C8_14  and  N4_15 
REMARK    6  A    between atoms: N4_15  and  C9_17 
REMARK    7  A    between atoms: C14_24  and  N6_25 
REMARK    8  A    between atoms: N6_25  and  C15_27 
REMARK    9  A    between atoms: C20_32  and  O2_34 
ROOT
HETATM    1  C7  UNL     1     -14.090 -38.854  16.077  1.00  0.00     0.725 A 
HETATM    2  N3  UNL     1     -13.748 -39.050  14.795  1.00  0.00    -0.020 N 
ATOM      3  H3  UNL     1     -14.262 -39.730  14.235  1.00  0.00     0.203 HD
HETATM    4  C8  UNL     1     -12.723 -38.352  14.230  1.00  0.00     0.707 A 
HETATM    5  N5  UNL     1     -12.072 -37.467  15.001  1.00  0.00    -0.021 N 
ATOM      6  H5  UNL     1     -11.302 -36.939  14.590  1.00  0.00     0.203 HD
HETATM    7  C14 UNL     1     -12.387 -37.241  16.302  1.00  0.00     0.707 A 
HETATM    8  N7  UNL     1     -13.405 -37.958  16.803  1.00  0.00    -0.020 N 
ATOM      9  H7  UNL     1     -13.670 -37.816  17.778  1.00  0.00     0.203 HD
ENDROOT
BRANCH   7  10
HETATM   10  N6  UNL     1     -11.740 -36.387  17.012  1.00  0.00    -0.217 N 
ATOM     11  H6  UNL     1     -10.721 -36.412  16.970  1.00  0.00     0.178 HD
BRANCH  10  12
HETATM   12  C15 UNL     1     -12.352 -35.392  17.867  1.00  0.00     0.133 C 
HETATM   13  C16 UNL     1     -12.526 -35.838  19.271  1.00  0.00     0.029 C 
HETATM   14  C17 UNL     1     -11.566 -35.340  20.269  1.00  0.00     0.002 C 
HETATM   15  C18 UNL     1     -11.000 -33.989  20.035  1.00  0.00     0.003 C 
HETATM   16  C19 UNL     1     -10.417 -33.988  18.617  1.00  0.00     0.040 C 
HETATM   17  C20 UNL     1     -11.612 -34.092  17.713  1.00  0.00     0.075 C 
HETATM   18  C21 UNL     1     -11.192 -33.835  16.309  1.00  0.00     0.048 C 
BRANCH  17  19
HETATM   19  O2  UNL     1     -12.501 -33.075  18.090  1.00  0.00    -0.388 OA
ATOM     20  H2  UNL     1     -12.149 -32.263  17.744  1.00  0.00     0.210 HD
ENDBRANCH  17  19
ENDBRANCH  10  12
ENDBRANCH   7  10
BRANCH   4  21
HETATM   21  N4  UNL     1     -12.407 -38.555  12.996  1.00  0.00    -0.220 N 
ATOM     22  H4  UNL     1     -12.697 -37.882  12.288  1.00  0.00     0.178 HD
BRANCH  21  23
HETATM   23  C9  UNL     1     -11.662 -39.698  12.606  1.00  0.00     0.099 C 
HETATM   24  C10 UNL     1     -12.426 -40.700  11.781  1.00  0.00     0.026 C 
HETATM   25  C11 UNL     1     -11.711 -40.886  10.482  1.00  0.00     0.002 C 
HETATM   26  C12 UNL     1     -10.284 -40.438  10.819  1.00  0.00     0.002 C 
HETATM   27  C13 UNL     1     -10.572 -39.214  11.650  1.00  0.00     0.026 C 
ENDBRANCH  21  23
ENDBRANCH   4  21
BRANCH   1  28
HETATM   28  N2  UNL     1     -15.058 -39.549  16.516  1.00  0.00    -0.133 N 
ATOM     29  H2  UNL     1     -14.803 -40.431  16.959  1.00  0.00     0.205 HD
BRANCH  28  30
HETATM   30  N1  UNL     1     -16.413 -39.271  16.474  1.00  0.00    -0.307 N 
HETATM   31  C3  UNL     1     -17.011 -37.953  16.508  1.00  0.00     0.126 C 
HETATM   32  C4  UNL     1     -18.390 -38.084  15.891  1.00  0.00     0.030 C 
HETATM   33  C5  UNL     1     -18.462 -39.527  15.443  1.00  0.00     0.024 C 
HETATM   34  C6  UNL     1     -17.517 -40.208  16.401  1.00  0.00     0.143 C 
BRANCH  31  35
HETATM   35  C2  UNL     1     -17.097 -37.410  17.914  1.00  0.00     0.193 C 
BRANCH  35  36
HETATM   36  O1  UNL     1     -15.874 -37.081  18.465  1.00  0.00    -0.394 OA
HETATM   37  C1  UNL     1     -15.844 -37.095  19.844  1.00  0.00     0.201 C 
ENDBRANCH  35  36
ENDBRANCH  31  35
ENDBRANCH  28  30
ENDBRANCH   1  28
TORSDOF 9
ENDMDL
MODEL 3
REMARK VINA RESULT: -7.918638796      2.093      6.128
REMARK  9 active torsions:
REMARK  status: ('A' for Active; 'I' for Inactive)
REMARK    1  A    between atoms: O1_2  and  C2_3 
REMARK    2  A    between atoms: C2_3  and  C3_4 
REMARK    3  A    between atoms: N1_8  and  N2_9 
REMARK    4  A    between atoms: N2_9  and  C7_11 
REMARK    5  A    between atoms: C8_14  and  N4_15 
REMARK    6  A    between atoms: N4_15  and  C9_17 
REMARK    7  A    between atoms: C14_24  and  N6_25 
REMARK    8  A    between atoms: N6_25  and  C15_27 
REMARK    9  A    between atoms: C20_32  and  O2_34 
ROOT
HETATM    1  C7  UNL     1     -13.428 -39.051  14.989  1.00  0.00     0.725 A 
HETATM    2  N3  UNL     1     -12.512 -38.156  15.388  1.00  0.00    -0.020 N 
ATOM      3  H3  UNL     1     -11.633 -38.074  14.878  1.00  0.00     0.203 HD
HETATM    4  C8  UNL     1     -12.740 -37.355  16.467  1.00  0.00     0.707 A 
HETATM    5  N5  UNL     1     -13.909 -37.495  17.112  1.00  0.00    -0.021 N 
ATOM      6  H5  UNL     1     -14.091 -36.902  17.921  1.00  0.00     0.203 HD
HETATM    7  C14 UNL     1     -14.861 -38.389  16.739  1.00  0.00     0.707 A 
HETATM    8  N7  UNL     1     -14.579 -39.150  15.670  1.00  0.00    -0.020 N 
ATOM      9  H7  UNL     1     -15.271 -39.834  15.361  1.00  0.00     0.203 HD
ENDROOT
BRANCH   7  10
HETATM   10  N6  UNL     1     -15.969 -38.499  17.381  1.00  0.00    -0.217 N 
ATOM     11  H6  UNL     1     -16.151 -39.379  17.864  1.00  0.00     0.178 HD
BRANCH  10  12
HETATM   12  C15 UNL     1     -16.977 -37.464  17.471  1.00  0.00     0.133 C 
HETATM   13  C16 UNL     1     -18.118 -37.661  16.544  1.00  0.00     0.029 C 
HETATM   14  C17 UNL     1     -19.370 -38.194  17.107  1.00  0.00     0.002 C 
HETATM   15  C18 UNL     1     -19.672 -37.838  18.515  1.00  0.00     0.003 C 
HETATM   16  C19 UNL     1     -18.447 -38.232  19.349  1.00  0.00     0.040 C 
HETATM   17  C20 UNL     1     -17.367 -37.283  18.912  1.00  0.00     0.075 C 
HETATM   18  C21 UNL     1     -16.208 -37.395  19.837  1.00  0.00     0.048 C 
BRANCH  17  19
HETATM   19  O2  UNL     1     -17.888 -35.987  19.029  1.00  0.00    -0.388 OA
ATOM     20  H2  UNL     1     -18.754 -36.005  18.638  1.00  0.00     0.210 HD
ENDBRANCH  17  19
ENDBRANCH  10  12
ENDBRANCH   7  10
BRANCH   4  21
HETATM   21  N4  UNL     1     -11.847 -36.503  16.838  1.00  0.00    -0.220 N 
ATOM     22  H4  UNL     1     -10.865 -36.682  16.627  1.00  0.00     0.178 HD
BRANCH  21  23
HETATM   23  C9  UNL     1     -12.203 -35.319  17.534  1.00  0.00     0.099 C 
HETATM   24  C10 UNL     1     -11.350 -35.010  18.736  1.00  0.00     0.026 C 
HETATM   25  C11 UNL     1     -10.739 -33.660  18.549  1.00  0.00     0.002 C 
HETATM   26  C12 UNL     1     -11.692 -33.000  17.545  1.00  0.00     0.002 C 
HETATM   27  C13 UNL     1     -11.921 -34.147  16.594  1.00  0.00     0.026 C 
ENDBRANCH  21  23
ENDBRANCH   4  21
BRANCH   1  28
HETATM   28  N2  UNL     1     -13.128 -39.752  13.974  1.00  0.00    -0.133 N 
ATOM     29  H2  UNL     1     -13.843 -40.410  13.664  1.00  0.00     0.205 HD
BRANCH  28  30
HETATM   30  N1  UNL     1     -11.960 -39.744  13.230  1.00  0.00    -0.307 N 
HETATM   31  C3  UNL     1     -11.565 -40.743  12.259  1.00  0.00     0.126 C 
HETATM   32  C4  UNL     1     -10.571 -40.076  11.329  1.00  0.00     0.030 C 
HETATM   33  C5  UNL     1     -10.524 -38.640  11.801  1.00  0.00     0.024 C 
HETATM   34  C6  UNL     1     -10.887 -38.770  13.259  1.00  0.00     0.143 C 
BRANCH  31  35
HETATM   35  C2  UNL     1     -10.959 -41.959  12.917  1.00  0.00     0.193 C 
BRANCH  35  36
HETATM   36  O1  UNL     1     -11.759 -42.531  13.887  1.00  0.00    -0.394 OA
HETATM   37  C1  UNL     1     -12.498 -43.613  13.456  1.00  0.00     0.201 C 
ENDBRANCH  35  36
ENDBRANCH  31  35
ENDBRANCH  28  30
ENDBRANCH   1  28
TORSDOF 9
ENDMDL
MODEL 4
REMARK VINA RESULT: -7.902264388      2.419      7.766
REMARK  9 active torsions:
REMARK  status: ('A' for Active; 'I' for Inactive)
REMARK    1  A    between atoms: O1_2  and  C2_3 
REMARK    2  A    between atoms: C2_3  and  C3_4 
REMARK    3  A    between atoms: N1_8  and  N2_9 
REMARK    4  A    between atoms: N2_9  and  C7_11 
REMARK    5  A    between atoms: C8_14  and  N4_15 
REMARK    6  A    between atoms: N4_15  and  C9_17 
REMARK    7  A    between atoms: C14_24  and  N6_25 
REMARK    8  A    between atoms: N6_25  and  C15_27 
REMARK    9  A    between atoms: C20_32  and  O2_34 
ROOT
HETATM    1  C7  UNL     1     -14.610 -39.306  16.213  1.00  0.00     0.725 A 
HETATM    2  N3  UNL     1     -15.850 -38.903  16.528  1.00  0.00    -0.020 N 
ATOM      3  H3  UNL     1     -16.648 -39.480  16.263  1.00  0.00     0.203 HD
HETATM    4  C8  UNL     1     -16.058 -37.735  17.197  1.00  0.00     0.707 A 
HETATM    5  N5  UNL     1     -14.981 -37.005  17.527  1.00  0.00    -0.021 N 
ATOM      6  H5  UNL     1     -15.123 -36.127  18.027  1.00  0.00     0.203 HD
HETATM    7  C14 UNL     1     -13.710 -37.377  17.226  1.00  0.00     0.707 A 
HETATM    8  N7  UNL     1     -13.568 -38.537  16.566  1.00  0.00    -0.020 N 
ATOM      9  H7  UNL     1     -12.628 -38.849  16.322  1.00  0.00     0.203 HD
ENDROOT
BRANCH   7  10
HETATM   10  N6  UNL     1     -12.701 -36.652  17.555  1.00  0.00    -0.217 N 
ATOM     11  H6  UNL     1     -11.775 -36.970  17.265  1.00  0.00     0.178 HD
BRANCH  10  12
HETATM   12  C15 UNL     1     -12.781 -35.418  18.307  1.00  0.00     0.133 C 
HETATM   13  C16 UNL     1     -12.527 -35.586  19.759  1.00  0.00     0.029 C 
HETATM   14  C17 UNL     1     -11.203 -35.195  20.269  1.00  0.00     0.002 C 
HETATM   15  C18 UNL     1     -10.522 -34.078  19.570  1.00  0.00     0.003 C 
HETATM   16  C19 UNL     1     -10.486 -34.438  18.080  1.00  0.00     0.040 C 
HETATM   17  C20 UNL     1     -11.921 -34.381  17.638  1.00  0.00     0.075 C 
HETATM   18  C21 UNL     1     -11.984 -34.454  16.155  1.00  0.00     0.048 C 
BRANCH  17  19
HETATM   19  O2  UNL     1     -12.421 -33.130  18.030  1.00  0.00    -0.388 OA
ATOM     20  H2  UNL     1     -12.525 -32.618  17.237  1.00  0.00     0.210 HD
ENDBRANCH  17  19
ENDBRANCH  10  12
ENDBRANCH   7  10
BRANCH   4  21
HETATM   21  N4  UNL     1     -17.257 -37.362  17.489  1.00  0.00    -0.220 N 
ATOM     22  H4  UNL     1     -17.413 -36.430  17.871  1.00  0.00     0.178 HD
BRANCH  21  23
HETATM   23  C9  UNL     1     -18.365 -38.225  17.289  1.00  0.00     0.099 C 
HETATM   24  C10 UNL     1     -19.534 -37.980  18.206  1.00  0.00     0.026 C 
HETATM   25  C11 UNL     1     -20.738 -37.690  17.371  1.00  0.00     0.002 C 
HETATM   26  C12 UNL     1     -20.375 -38.332  16.027  1.00  0.00     0.002 C 
HETATM   27  C13 UNL     1     -18.933 -37.909  15.905  1.00  0.00     0.026 C 
ENDBRANCH  21  23
ENDBRANCH   4  21
BRANCH   1  28
HETATM   28  N2  UNL     1     -14.515 -40.408  15.590  1.00  0.00    -0.133 N 
ATOM     29  H2  UNL     1     -14.552 -41.247  16.169  1.00  0.00     0.205 HD
BRANCH  28  30
HETATM   30  N1  UNL     1     -14.368 -40.625  14.231  1.00  0.00    -0.307 N 
HETATM   31  C3  UNL     1     -13.160 -41.069  13.567  1.00  0.00     0.126 C 
HETATM   32  C4  UNL     1     -13.590 -41.691  12.253  1.00  0.00     0.030 C 
HETATM   33  C5  UNL     1     -15.101 -41.638  12.292  1.00  0.00     0.024 C 
HETATM   34  C6  UNL     1     -15.357 -40.450  13.185  1.00  0.00     0.143 C 
BRANCH  31  35
HETATM   35  C2  UNL     1     -12.194 -39.932  13.337  1.00  0.00     0.193 C 
BRANCH  35  36
HETATM   36  O1  UNL     1     -11.567 -39.486  14.483  1.00  0.00    -0.394 OA
HETATM   37  C1  UNL     1     -10.965 -38.250  14.365  1.00  0.00     0.201 C 
ENDBRANCH  35  36
ENDBRANCH  31  35
ENDBRANCH  28  30
ENDBRANCH   1  28
TORSDOF 9
ENDMDL
MODEL 5
REMARK VINA RESULT: -7.900938504      2.236      7.661
REMARK  9 active torsions:
REMARK  status: ('A' for Active; 'I' for Inactive)
REMARK    1  A    between atoms: O1_2  and  C2_3 
REMARK    2  A    between atoms: C2_3  and  C3_4 
REMARK    3  A    between atoms: N1_8  and  N2_9 
REMARK    4  A    between atoms: N2_9  and  C7_11 
REMARK    5  A    between atoms: C8_14  and  N4_15 
REMARK    6  A    between atoms: N4_15  and  C9_17 
REMARK    7  A    between atoms: C14_24  and  N6_25 
REMARK    8  A    between atoms: N6_25  and  C15_27 
REMARK    9  A    between atoms: C20_32  and  O2_34 
ROOT
HETATM    1  C7  UNL     1     -14.352 -38.944  16.302  1.00  0.00     0.725 A 
HETATM    2  N3  UNL     1     -15.614 -38.597  16.592  1.00  0.00    -0.020 N 
ATOM      3  H3  UNL     1     -16.387 -39.110  16.169  1.00  0.00     0.203 HD
HETATM    4  C8  UNL     1     -15.878 -37.569  17.446  1.00  0.00     0.707 A 
HETATM    5  N5  UNL     1     -14.834 -36.919  17.982  1.00  0.00    -0.021 N 
ATOM      6  H5  UNL     1     -15.018 -36.147  18.622  1.00  0.00     0.203 HD
HETATM    7  C14 UNL     1     -13.541 -37.239  17.713  1.00  0.00     0.707 A 
HETATM    8  N7  UNL     1     -13.344 -38.261  16.864  1.00  0.00    -0.020 N 
ATOM      9  H7  UNL     1     -12.386 -38.529  16.638  1.00  0.00     0.203 HD
ENDROOT
BRANCH   7  10
HETATM   10  N6  UNL     1     -12.564 -36.594  18.242  1.00  0.00    -0.217 N 
ATOM     11  H6  UNL     1     -12.455 -36.648  19.255  1.00  0.00     0.178 HD
BRANCH  10  12
HETATM   12  C15 UNL     1     -11.606 -35.796  17.506  1.00  0.00     0.133 C 
HETATM   13  C16 UNL     1     -12.089 -35.368  16.170  1.00  0.00     0.029 C 
HETATM   14  C17 UNL     1     -12.559 -33.980  16.029  1.00  0.00     0.002 C 
HETATM   15  C18 UNL     1     -11.909 -32.964  16.891  1.00  0.00     0.003 C 
HETATM   16  C19 UNL     1     -12.017 -33.468  18.335  1.00  0.00     0.040 C 
HETATM   17  C20 UNL     1     -11.124 -34.675  18.385  1.00  0.00     0.075 C 
HETATM   18  C21 UNL     1     -10.941 -35.095  19.800  1.00  0.00     0.048 C 
BRANCH  17  19
HETATM   19  O2  UNL     1      -9.874 -34.282  17.887  1.00  0.00    -0.388 OA
ATOM     20  H2  UNL     1      -9.872 -34.489  16.960  1.00  0.00     0.210 HD
ENDBRANCH  17  19
ENDBRANCH  10  12
ENDBRANCH   7  10
BRANCH   4  21
HETATM   21  N4  UNL     1     -17.099 -37.248  17.712  1.00  0.00    -0.220 N 
ATOM     22  H4  UNL     1     -17.302 -36.322  18.088  1.00  0.00     0.178 HD
BRANCH  21  23
HETATM   23  C9  UNL     1     -18.164 -38.158  17.491  1.00  0.00     0.099 C 
HETATM   24  C10 UNL     1     -19.344 -37.988  18.411  1.00  0.00     0.026 C 
HETATM   25  C11 UNL     1     -20.560 -37.737  17.580  1.00  0.00     0.002 C 
HETATM   26  C12 UNL     1     -20.165 -38.332  16.223  1.00  0.00     0.002 C 
HETATM   27  C13 UNL     1     -18.745 -37.838  16.113  1.00  0.00     0.026 C 
ENDBRANCH  21  23
ENDBRANCH   4  21
BRANCH   1  28
HETATM   28  N2  UNL     1     -14.204 -39.915  15.497  1.00  0.00    -0.133 N 
ATOM     29  H2  UNL     1     -14.760 -40.745  15.699  1.00  0.00     0.205 HD
BRANCH  28  30
HETATM   30  N1  UNL     1     -13.389 -39.998  14.381  1.00  0.00    -0.307 N 
HETATM   31  C3  UNL     1     -13.657 -40.777  13.190  1.00  0.00     0.126 C 
HETATM   32  C4  UNL     1     -12.846 -40.155  12.071  1.00  0.00     0.030 C 
HETATM   33  C5  UNL     1     -12.200 -38.944  12.708  1.00  0.00     0.024 C 
HETATM   34  C6  UNL     1     -12.110 -39.354  14.156  1.00  0.00     0.143 C 
BRANCH  31  35
HETATM   35  C2  UNL     1     -13.295 -42.231  13.376  1.00  0.00     0.193 C 
BRANCH  35  36
HETATM   36  O1  UNL     1     -13.613 -42.735  14.622  1.00  0.00    -0.394 OA
HETATM   37  C1  UNL     1     -14.746 -43.522  14.651  1.00  0.00     0.201 C 
ENDBRANCH  35  36
ENDBRANCH  31  35
ENDBRANCH  28  30
ENDBRANCH   1  28
TORSDOF 9
ENDMDL
