MODEL 1
REMARK VINA RESULT: -6.654359370      0.000      0.000
REMARK  9 active torsions:
REMARK  status: ('A' for Active; 'I' for Inactive)
REMARK    1  A    between atoms: C3_3  and  C4_4 
REMARK    2  A    between atoms: C4_4  and  C5_5 
REMARK    3  A    between atoms: C5_5  and  C6_6 
REMARK    4  A    between atoms: C6_6  and  O1_7 
REMARK    5  A    between atoms: C9_11  and  C10_12 
REMARK    6  A    between atoms: C15_22  and  C16_23 
REMARK    7  A    between atoms: C16_23  and  C17_24 
REMARK    8  A    between atoms: C18_28  and  C19_29 
REMARK    9  A    between atoms: C19_29  and  C20_30 
ROOT
HETATM    1  C1  UNL     1     -19.234  -0.246  18.860  1.00  0.00     0.025 C 
HETATM    2  C2  UNL     1     -19.197  -0.115  20.161  1.00  0.00    -0.028 A 
HETATM    3  C3  UNL     1     -17.941   0.194  20.721  1.00  0.00    -0.041 A 
HETATM    4  C7  UNL     1     -17.867   0.455  22.072  1.00  0.00    -0.044 A 
HETATM    5  C8  UNL     1     -16.489   0.646  22.646  1.00  0.00     0.049 C 
HETATM    6  C9  UNL     1     -18.950   0.452  22.931  1.00  0.00    -0.018 A 
HETATM    7  C15 UNL     1     -20.220   0.146  22.341  1.00  0.00    -0.009 A 
HETATM    8  C18 UNL     1     -20.307  -0.148  20.970  1.00  0.00    -0.013 A 
ENDROOT
BRANCH   6   9
HETATM    9  C10 UNL     1     -18.939   0.745  24.128  1.00  0.00     0.032 C 
HETATM   10  C11 UNL     1     -18.134   1.137  25.233  1.00  0.00     0.058 A 
HETATM   11  C12 UNL     1     -18.008   2.499  25.656  1.00  0.00     0.037 A 
HETATM   12  C14 UNL     1     -17.282   0.504  26.089  1.00  0.00     0.272 A 
HETATM   13  C13 UNL     1     -18.759   3.605  25.053  1.00  0.00     0.070 C 
HETATM   14  N1  UNL     1     -17.136   2.526  26.668  1.00  0.00    -0.301 N 
HETATM   15  N2  UNL     1     -16.676   1.312  26.952  1.00  0.00    -0.266 N 
ATOM     16  H1  UNL     1     -16.859   3.373  27.162  1.00  0.00     0.186 HD
ATOM     17  H2  UNL     1     -16.004   1.057  27.675  1.00  0.00     0.190 HD
HETATM   18  O2  UNL     1     -17.053  -0.757  26.102  1.00  0.00    -0.266 OA
ENDBRANCH   6   9
BRANCH   7  19
HETATM   19  C16 UNL     1     -21.266   0.531  23.009  1.00  0.00     0.101 C 
BRANCH  19  20
HETATM   20  C17 UNL     1     -22.324   1.458  23.225  1.00  0.00     0.408 C 
HETATM   21  F1  UNL     1     -22.459   2.300  22.019  1.00  0.00    -0.167 F 
HETATM   22  F2  UNL     1     -23.630   1.003  23.300  1.00  0.00    -0.167 F 
HETATM   23  F3  UNL     1     -22.060   2.464  24.161  1.00  0.00    -0.167 F 
ENDBRANCH  19  20
ENDBRANCH   7  19
BRANCH   3  24
HETATM   24  C4  UNL     1     -16.728   0.268  19.851  1.00  0.00     0.042 C 
BRANCH  24  25
HETATM   25  C5  UNL     1     -16.012  -1.030  19.819  1.00  0.00     0.030 C 
BRANCH  25  26
HETATM   26  C6  UNL     1     -14.941  -1.177  18.798  1.00  0.00     0.164 C 
BRANCH  26  27
HETATM   27  O1  UNL     1     -14.012  -2.113  19.282  1.00  0.00    -0.401 OA
ATOM     28  H1  UNL     1     -13.224  -2.038  18.757  1.00  0.00     0.209 HD
ENDBRANCH  26  27
ENDBRANCH  25  26
ENDBRANCH  24  25
ENDBRANCH   3  24
BRANCH   8  29
HETATM   29  C19 UNL     1     -21.417  -0.681  20.571  1.00  0.00     0.045 C 
BRANCH  29  30
HETATM   30  C20 UNL     1     -22.025  -1.971  20.464  1.00  0.00     0.065 A 
HETATM   31  C21 UNL     1     -21.900  -3.176  21.115  1.00  0.00     0.138 A 
HETATM   32  N3  UNL     1     -22.867  -3.658  20.352  1.00  0.00    -0.309 N 
HETATM   33  N4  UNL     1     -22.995  -2.513  19.723  1.00  0.00    -0.300 N 
ATOM     34  H3  UNL     1     -23.331  -4.563  20.281  1.00  0.00     0.186 HD
ATOM     35  H4  UNL     1     -23.593  -2.174  18.971  1.00  0.00     0.187 HD
ENDBRANCH  29  30
ENDBRANCH   8  29
TORSDOF 9
ENDMDL
MODEL 2
REMARK VINA RESULT: -6.480318413      3.390      6.227
REMARK  9 active torsions:
REMARK  status: ('A' for Active; 'I' for Inactive)
REMARK    1  A    between atoms: C3_3  and  C4_4 
REMARK    2  A    between atoms: C4_4  and  C5_5 
REMARK    3  A    between atoms: C5_5  and  C6_6 
REMARK    4  A    between atoms: C6_6  and  O1_7 
REMARK    5  A    between atoms: C9_11  and  C10_12 
REMARK    6  A    between atoms: C15_22  and  C16_23 
REMARK    7  A    between atoms: C16_23  and  C17_24 
REMARK    8  A    between atoms: C18_28  and  C19_29 
REMARK    9  A    between atoms: C19_29  and  C20_30 
ROOT
HETATM    1  C1  UNL     1     -15.841   1.141  23.053  1.00  0.00     0.025 C 
HETATM    2  C2  UNL     1     -17.066   0.773  22.781  1.00  0.00    -0.028 A 
HETATM    3  C3  UNL     1     -18.000   0.890  23.830  1.00  0.00    -0.041 A 
HETATM    4  C7  UNL     1     -19.326   0.625  23.567  1.00  0.00    -0.044 A 
HETATM    5  C8  UNL     1     -20.261   0.632  24.745  1.00  0.00     0.049 C 
HETATM    6  C9  UNL     1     -19.821   0.260  22.329  1.00  0.00    -0.018 A 
HETATM    7  C15 UNL     1     -18.859   0.155  21.272  1.00  0.00    -0.009 A 
HETATM    8  C18 UNL     1     -17.499   0.398  21.532  1.00  0.00    -0.013 A 
ENDROOT
BRANCH   6   9
HETATM    9  C10 UNL     1     -21.004   0.080  22.035  1.00  0.00     0.032 C 
HETATM   10  C11 UNL     1     -21.974   0.116  20.995  1.00  0.00     0.058 A 
HETATM   11  C12 UNL     1     -22.383  -1.051  20.275  1.00  0.00     0.037 A 
HETATM   12  C14 UNL     1     -22.682   1.093  20.360  1.00  0.00     0.272 A 
HETATM   13  C13 UNL     1     -21.913  -2.403  20.594  1.00  0.00     0.070 C 
HETATM   14  N1  UNL     1     -23.248  -0.660  19.335  1.00  0.00    -0.301 N 
HETATM   15  N2  UNL     1     -23.447   0.653  19.367  1.00  0.00    -0.266 N 
ATOM     16  H1  UNL     1     -23.700  -1.291  18.674  1.00  0.00     0.186 HD
ATOM     17  H2  UNL     1     -24.055   1.203  18.761  1.00  0.00     0.190 HD
HETATM   18  O2  UNL     1     -22.650   2.340  20.658  1.00  0.00    -0.266 OA
ENDBRANCH   6   9
BRANCH   7  19
HETATM   19  C16 UNL     1     -19.330   0.224  20.063  1.00  0.00     0.101 C 
BRANCH  19  20
HETATM   20  C17 UNL     1     -19.308   0.787  18.757  1.00  0.00     0.408 C 
HETATM   21  F1  UNL     1     -18.569  -0.132  17.866  1.00  0.00    -0.167 F 
HETATM   22  F2  UNL     1     -20.481   0.874  18.026  1.00  0.00    -0.167 F 
HETATM   23  F3  UNL     1     -18.505   1.923  18.605  1.00  0.00    -0.167 F 
ENDBRANCH  19  20
ENDBRANCH   7  19
BRANCH   3  24
HETATM   24  C4  UNL     1     -17.554   1.328  25.187  1.00  0.00     0.042 C 
BRANCH  24  25
HETATM   25  C5  UNL     1     -17.163   0.168  26.024  1.00  0.00     0.030 C 
BRANCH  25  26
HETATM   26  C6  UNL     1     -15.836   0.242  26.691  1.00  0.00     0.164 C 
BRANCH  26  27
HETATM   27  O1  UNL     1     -15.486  -1.056  27.096  1.00  0.00    -0.401 OA
ATOM     28  H1  UNL     1     -15.231  -1.544  26.322  1.00  0.00     0.209 HD
ENDBRANCH  26  27
ENDBRANCH  25  26
ENDBRANCH  24  25
ENDBRANCH   3  24
BRANCH   8  29
HETATM   29  C19 UNL     1     -16.668   0.017  20.616  1.00  0.00     0.045 C 
BRANCH  29  30
HETATM   30  C20 UNL     1     -16.219  -1.188  19.991  1.00  0.00     0.065 A 
HETATM   31  C21 UNL     1     -15.073  -1.599  19.352  1.00  0.00     0.138 A 
HETATM   32  N3  UNL     1     -15.612  -2.799  19.214  1.00  0.00    -0.309 N 
HETATM   33  N4  UNL     1     -16.710  -2.418  19.822  1.00  0.00    -0.300 N 
ATOM     34  H3  UNL     1     -15.297  -3.675  18.798  1.00  0.00     0.186 HD
ATOM     35  H4  UNL     1     -17.587  -2.877  20.066  1.00  0.00     0.187 HD
ENDBRANCH  29  30
ENDBRANCH   8  29
TORSDOF 9
ENDMDL
MODEL 3
REMARK VINA RESULT: -6.473879764      3.567      6.271
REMARK  9 active torsions:
REMARK  status: ('A' for Active; 'I' for Inactive)
REMARK    1  A    between atoms: C3_3  and  C4_4 
REMARK    2  A    between atoms: C4_4  and  C5_5 
REMARK    3  A    between atoms: C5_5  and  C6_6 
REMARK    4  A    between atoms: C6_6  and  O1_7 
REMARK    5  A    between atoms: C9_11  and  C10_12 
REMARK    6  A    between atoms: C15_22  and  C16_23 
REMARK    7  A    between atoms: C16_23  and  C17_24 
REMARK    8  A    between atoms: C18_28  and  C19_29 
REMARK    9  A    between atoms: C19_29  and  C20_30 
ROOT
HETATM    1  C1  UNL     1     -16.073   1.226  22.861  1.00  0.00     0.025 C 
HETATM    2  C2  UNL     1     -17.180   0.773  22.332  1.00  0.00    -0.028 A 
HETATM    3  C3  UNL     1     -18.348   0.920  23.108  1.00  0.00    -0.041 A 
HETATM    4  C7  UNL     1     -19.558   0.565  22.553  1.00  0.00    -0.044 A 
HETATM    5  C8  UNL     1     -20.756   0.613  23.463  1.00  0.00     0.049 C 
HETATM    6  C9  UNL     1     -19.720   0.081  21.269  1.00  0.00    -0.018 A 
HETATM    7  C15 UNL     1     -18.523  -0.052  20.492  1.00  0.00    -0.009 A 
HETATM    8  C18 UNL     1     -17.279   0.281  21.053  1.00  0.00    -0.013 A 
ENDROOT
BRANCH   6   9
HETATM    9  C10 UNL     1     -20.787  -0.184  20.712  1.00  0.00     0.032 C 
HETATM   10  C11 UNL     1     -22.202  -0.219  20.844  1.00  0.00     0.058 A 
HETATM   11  C12 UNL     1     -23.053   0.821  20.351  1.00  0.00     0.037 A 
HETATM   12  C14 UNL     1     -23.103  -1.050  21.442  1.00  0.00     0.272 A 
HETATM   13  C13 UNL     1     -22.562   1.974  19.589  1.00  0.00     0.070 C 
HETATM   14  N1  UNL     1     -24.307   0.510  20.694  1.00  0.00    -0.301 N 
HETATM   15  N2  UNL     1     -24.362  -0.634  21.365  1.00  0.00    -0.266 N 
ATOM     16  H1  UNL     1     -25.120   1.082  20.468  1.00  0.00     0.186 HD
ATOM     17  H2  UNL     1     -25.192  -1.094  21.740  1.00  0.00     0.190 HD
HETATM   18  O2  UNL     1     -22.811  -2.148  22.036  1.00  0.00    -0.266 OA
ENDBRANCH   6   9
BRANCH   7  19
HETATM   19  C16 UNL     1     -18.683  -0.102  19.203  1.00  0.00     0.101 C 
BRANCH  19  20
HETATM   20  C17 UNL     1     -18.773   0.550  17.941  1.00  0.00     0.408 C 
HETATM   21  F1  UNL     1     -18.180   1.897  18.069  1.00  0.00    -0.167 F 
HETATM   22  F2  UNL     1     -18.012   0.096  16.877  1.00  0.00    -0.167 F 
HETATM   23  F3  UNL     1     -20.063   0.922  17.548  1.00  0.00    -0.167 F 
ENDBRANCH  19  20
ENDBRANCH   7  19
BRANCH   3  24
HETATM   24  C4  UNL     1     -18.266   1.484  24.489  1.00  0.00     0.042 C 
BRANCH  24  25
HETATM   25  C5  UNL     1     -18.273   0.408  25.509  1.00  0.00     0.030 C 
BRANCH  25  26
HETATM   26  C6  UNL     1     -16.982   0.125  26.191  1.00  0.00     0.164 C 
BRANCH  26  27
HETATM   27  O1  UNL     1     -16.932  -1.252  26.463  1.00  0.00    -0.401 OA
ATOM     28  H1  UNL     1     -16.943  -1.712  25.633  1.00  0.00     0.209 HD
ENDBRANCH  26  27
ENDBRANCH  25  26
ENDBRANCH  24  25
ENDBRANCH   3  24
BRANCH   8  29
HETATM   29  C19 UNL     1     -16.235  -0.123  20.403  1.00  0.00     0.045 C 
BRANCH  29  30
HETATM   30  C20 UNL     1     -15.852  -1.170  19.507  1.00  0.00     0.065 A 
HETATM   31  C21 UNL     1     -15.244  -1.240  18.276  1.00  0.00     0.138 A 
HETATM   32  N3  UNL     1     -15.304  -2.559  18.351  1.00  0.00    -0.309 N 
HETATM   33  N4  UNL     1     -15.886  -2.505  19.526  1.00  0.00    -0.300 N 
ATOM     34  H3  UNL     1     -15.012  -3.320  17.737  1.00  0.00     0.186 HD
ATOM     35  H4  UNL     1     -16.227  -3.202  20.187  1.00  0.00     0.187 HD
ENDBRANCH  29  30
ENDBRANCH   8  29
TORSDOF 9
ENDMDL
MODEL 4
REMARK VINA RESULT: -6.459730405      3.721      6.821
REMARK  9 active torsions:
REMARK  status: ('A' for Active; 'I' for Inactive)
REMARK    1  A    between atoms: C3_3  and  C4_4 
REMARK    2  A    between atoms: C4_4  and  C5_5 
REMARK    3  A    between atoms: C5_5  and  C6_6 
REMARK    4  A    between atoms: C6_6  and  O1_7 
REMARK    5  A    between atoms: C9_11  and  C10_12 
REMARK    6  A    between atoms: C15_22  and  C16_23 
REMARK    7  A    between atoms: C16_23  and  C17_24 
REMARK    8  A    between atoms: C18_28  and  C19_29 
REMARK    9  A    between atoms: C19_29  and  C20_30 
ROOT
HETATM    1  C1  UNL     1     -20.980   0.839  23.607  1.00  0.00     0.025 C 
HETATM    2  C2  UNL     1     -19.930   0.589  22.868  1.00  0.00    -0.028 A 
HETATM    3  C3  UNL     1     -20.180   0.020  21.602  1.00  0.00    -0.041 A 
HETATM    4  C7  UNL     1     -19.122  -0.157  20.738  1.00  0.00    -0.044 A 
HETATM    5  C8  UNL     1     -19.415  -0.890  19.457  1.00  0.00     0.049 C 
HETATM    6  C9  UNL     1     -17.816   0.199  21.015  1.00  0.00    -0.018 A 
HETATM    7  C15 UNL     1     -17.583   0.786  22.301  1.00  0.00    -0.009 A 
HETATM    8  C18 UNL     1     -18.648   0.949  23.204  1.00  0.00    -0.013 A 
ENDROOT
BRANCH   6   9
HETATM    9  C10 UNL     1     -16.855   0.121  20.248  1.00  0.00     0.032 C 
HETATM   10  C11 UNL     1     -16.329  -0.508  19.086  1.00  0.00     0.058 A 
HETATM   11  C12 UNL     1     -16.370   0.098  17.790  1.00  0.00     0.037 A 
HETATM   12  C14 UNL     1     -15.770  -1.720  18.804  1.00  0.00     0.272 A 
HETATM   13  C13 UNL     1     -16.875   1.454  17.548  1.00  0.00     0.070 C 
HETATM   14  N1  UNL     1     -15.857  -0.777  16.921  1.00  0.00    -0.301 N 
HETATM   15  N2  UNL     1     -15.482  -1.901  17.520  1.00  0.00    -0.266 N 
ATOM     16  H1  UNL     1     -15.764  -0.603  15.920  1.00  0.00     0.186 HD
ATOM     17  H2  UNL     1     -15.063  -2.725  17.088  1.00  0.00     0.190 HD
HETATM   18  O2  UNL     1     -15.522  -2.635  19.666  1.00  0.00    -0.266 OA
ENDBRANCH   6   9
BRANCH   7  19
HETATM   19  C16 UNL     1     -16.494   1.485  22.421  1.00  0.00     0.101 C 
BRANCH  19  20
HETATM   20  C17 UNL     1     -15.141   1.605  22.845  1.00  0.00     0.408 C 
HETATM   21  F1  UNL     1     -14.825   3.040  22.993  1.00  0.00    -0.167 F 
HETATM   22  F2  UNL     1     -14.780   1.187  24.115  1.00  0.00    -0.167 F 
HETATM   23  F3  UNL     1     -14.179   1.272  21.885  1.00  0.00    -0.167 F 
ENDBRANCH  19  20
ENDBRANCH   7  19
BRANCH   3  24
HETATM   24  C4  UNL     1     -21.573  -0.347  21.206  1.00  0.00     0.042 C 
BRANCH  24  25
HETATM   25  C5  UNL     1     -21.876  -1.757  21.553  1.00  0.00     0.030 C 
BRANCH  25  26
HETATM   26  C6  UNL     1     -22.594  -2.559  20.528  1.00  0.00     0.164 C 
BRANCH  26  27
HETATM   27  O1  UNL     1     -23.004  -1.684  19.508  1.00  0.00    -0.401 OA
ATOM     28  H1  UNL     1     -23.912  -1.878  19.308  1.00  0.00     0.209 HD
ENDBRANCH  26  27
ENDBRANCH  25  26
ENDBRANCH  24  25
ENDBRANCH   3  24
BRANCH   8  29
HETATM   29  C19 UNL     1     -18.321   1.219  24.427  1.00  0.00     0.045 C 
BRANCH  29  30
HETATM   30  C20 UNL     1     -17.955   0.535  25.628  1.00  0.00     0.065 A 
HETATM   31  C21 UNL     1     -16.905  -0.257  26.030  1.00  0.00     0.138 A 
HETATM   32  N3  UNL     1     -17.450  -0.324  27.233  1.00  0.00    -0.309 N 
HETATM   33  N4  UNL     1     -18.457   0.431  26.861  1.00  0.00    -0.300 N 
ATOM     34  H3  UNL     1     -17.190  -0.781  28.106  1.00  0.00     0.186 HD
ATOM     35  H4  UNL     1     -19.290   0.792  27.326  1.00  0.00     0.187 HD
ENDBRANCH  29  30
ENDBRANCH   8  29
TORSDOF 9
ENDMDL
MODEL 5
REMARK VINA RESULT: -6.430775040      3.961      6.614
REMARK  9 active torsions:
REMARK  status: ('A' for Active; 'I' for Inactive)
REMARK    1  A    between atoms: C3_3  and  C4_4 
REMARK    2  A    between atoms: C4_4  and  C5_5 
REMARK    3  A    between atoms: C5_5  and  C6_6 
REMARK    4  A    between atoms: C6_6  and  O1_7 
REMARK    5  A    between atoms: C9_11  and  C10_12 
REMARK    6  A    between atoms: C15_22  and  C16_23 
REMARK    7  A    between atoms: C16_23  and  C17_24 
REMARK    8  A    between atoms: C18_28  and  C19_29 
REMARK    9  A    between atoms: C19_29  and  C20_30 
ROOT
HETATM    1  C1  UNL     1     -22.276   1.690  21.642  1.00  0.00     0.025 C 
HETATM    2  C2  UNL     1     -21.140   1.340  21.095  1.00  0.00    -0.028 A 
HETATM    3  C3  UNL     1     -20.997   1.621  19.721  1.00  0.00    -0.041 A 
HETATM    4  C7  UNL     1     -19.781   1.379  19.121  1.00  0.00    -0.044 A 
HETATM    5  C8  UNL     1     -19.718   1.566  17.629  1.00  0.00     0.049 C 
HETATM    6  C9  UNL     1     -18.668   0.887  19.776  1.00  0.00    -0.018 A 
HETATM    7  C15 UNL     1     -18.830   0.617  21.174  1.00  0.00    -0.009 A 
HETATM    8  C18 UNL     1     -20.071   0.834  21.794  1.00  0.00    -0.013 A 
ENDROOT
BRANCH   6   9
HETATM    9  C10 UNL     1     -17.547   0.719  19.294  1.00  0.00     0.032 C 
HETATM   10  C11 UNL     1     -16.711  -0.149  18.539  1.00  0.00     0.058 A 
HETATM   11  C12 UNL     1     -16.479   0.025  17.137  1.00  0.00     0.037 A 
HETATM   12  C14 UNL     1     -16.017  -1.295  18.792  1.00  0.00     0.272 A 
HETATM   13  C13 UNL     1     -17.004   1.156  16.365  1.00  0.00     0.070 C 
HETATM   14  N1  UNL     1     -15.710  -0.989  16.729  1.00  0.00    -0.301 N 
HETATM   15  N2  UNL     1     -15.414  -1.813  17.728  1.00  0.00    -0.266 N 
ATOM     16  H1  UNL     1     -15.390  -1.115  15.769  1.00  0.00     0.186 HD
ATOM     17  H2  UNL     1     -14.847  -2.659  17.686  1.00  0.00     0.190 HD
HETATM   18  O2  UNL     1     -15.922  -1.861  19.938  1.00  0.00    -0.266 OA
ENDBRANCH   6   9
BRANCH   7  19
HETATM   19  C16 UNL     1     -17.735   0.557  21.873  1.00  0.00     0.101 C 
BRANCH  19  20
HETATM   20  C17 UNL     1     -16.605   1.192  22.458  1.00  0.00     0.408 C 
HETATM   21  F1  UNL     1     -15.384   0.622  21.852  1.00  0.00    -0.167 F 
HETATM   22  F2  UNL     1     -16.355   2.529  22.195  1.00  0.00    -0.167 F 
HETATM   23  F3  UNL     1     -16.355   0.861  23.795  1.00  0.00    -0.167 F 
ENDBRANCH  19  20
ENDBRANCH   7  19
BRANCH   3  24
HETATM   24  C4  UNL     1     -22.138   2.202  18.951  1.00  0.00     0.042 C 
BRANCH  24  25
HETATM   25  C5  UNL     1     -22.963   1.139  18.328  1.00  0.00     0.030 C 
BRANCH  25  26
HETATM   26  C6  UNL     1     -23.603   1.465  17.027  1.00  0.00     0.164 C 
BRANCH  26  27
HETATM   27  O1  UNL     1     -23.081   0.590  16.060  1.00  0.00    -0.401 OA
ATOM     28  H1  UNL     1     -22.637   1.114  15.404  1.00  0.00     0.209 HD
ENDBRANCH  26  27
ENDBRANCH  25  26
ENDBRANCH  24  25
ENDBRANCH   3  24
BRANCH   8  29
HETATM   29  C19 UNL     1     -20.220   0.313  22.970  1.00  0.00     0.045 C 
BRANCH  29  30
HETATM   30  C20 UNL     1     -20.015   0.657  24.343  1.00  0.00     0.065 A 
HETATM   31  C21 UNL     1     -20.698   1.384  25.289  1.00  0.00     0.138 A 
HETATM   32  N3  UNL     1     -19.765   1.064  26.170  1.00  0.00    -0.309 N 
HETATM   33  N4  UNL     1     -19.104   0.368  25.275  1.00  0.00    -0.300 N 
ATOM     34  H3  UNL     1     -19.617   1.276  27.156  1.00  0.00     0.186 HD
ATOM     35  H4  UNL     1     -18.241  -0.175  25.287  1.00  0.00     0.187 HD
ENDBRANCH  29  30
ENDBRANCH   8  29
TORSDOF 9
ENDMDL
