MODEL 1
REMARK VINA RESULT: -7.279699552      0.000      0.000
REMARK  4 active torsions:
REMARK  status: ('A' for Active; 'I' for Inactive)
REMARK    1  A    between atoms: C7_8  and  O2_10 
REMARK    2  A    between atoms: C9_12  and  C10_13 
REMARK    3  A    between atoms: C10_13  and  C12_15 
REMARK    4  A    between atoms: C12_15  and  O4_17 
ROOT
HETATM    1  C1  UNL     1      23.937  14.084   4.719  1.00  0.00     0.023 C 
HETATM    2  C2  UNL     1      23.101  14.983   4.192  1.00  0.00    -0.008 C 
HETATM    3  C3  UNL     1      22.503  15.992   5.053  1.00  0.00     0.156 C 
HETATM    4  O1  UNL     1      23.031  16.262   6.185  1.00  0.00    -0.293 OA
HETATM    5  C4  UNL     1      21.277  16.724   4.641  1.00  0.00     0.090 C 
HETATM    6  C5  UNL     1      20.039  16.042   5.070  1.00  0.00     0.025 C 
HETATM    7  C6  UNL     1      19.048  17.013   5.688  1.00  0.00     0.013 C 
HETATM    8  C7  UNL     1      19.377  15.151   4.042  1.00  0.00     0.085 C 
HETATM    9  C8  UNL     1      19.283  15.850   2.707  1.00  0.00     0.049 C 
HETATM   10  C9  UNL     1      20.036  13.789   3.959  1.00  0.00     0.179 C 
HETATM   11  O5  UNL     1      20.664  13.640   2.714  1.00  0.00    -0.311 OA
HETATM   12  C14 UNL     1      21.957  13.773   2.349  1.00  0.00     0.267 C 
HETATM   13  O6  UNL     1      22.480  12.888   1.600  1.00  0.00    -0.264 OA
HETATM   14  C15 UNL     1      22.845  14.885   2.750  1.00  0.00     0.117 C 
HETATM   15  C16 UNL     1      24.223  14.761   2.095  1.00  0.00     0.025 C 
ENDROOT
BRANCH  10  16
HETATM   16  C10 UNL     1      19.086  12.665   4.276  1.00  0.00     0.114 C 
HETATM   17  C11 UNL     1      18.283  12.828   5.511  1.00  0.00     0.023 C 
BRANCH  16  18
HETATM   18  C12 UNL     1      18.193  12.382   3.149  1.00  0.00     0.264 C 
HETATM   19  O3  UNL     1      16.999  12.710   3.228  1.00  0.00    -0.265 OA
BRANCH  18  20
HETATM   20  O4  UNL     1      18.630  11.764   2.000  1.00  0.00    -0.326 OA
HETATM   21  C13 UNL     1      17.790  10.999   1.156  1.00  0.00     0.213 C 
ENDBRANCH  18  20
ENDBRANCH  16  18
ENDBRANCH  10  16
BRANCH   8  22
HETATM   22  O2  UNL     1      18.050  15.038   4.501  1.00  0.00    -0.387 OA
ATOM     23  H2  UNL     1      17.527  15.176   3.719  1.00  0.00     0.210 HD
ENDBRANCH   8  22
TORSDOF 4
ENDMDL
MODEL 2
REMARK VINA RESULT: -6.455260314      2.115      5.403
REMARK  4 active torsions:
REMARK  status: ('A' for Active; 'I' for Inactive)
REMARK    1  A    between atoms: C7_8  and  O2_10 
REMARK    2  A    between atoms: C9_12  and  C10_13 
REMARK    3  A    between atoms: C10_13  and  C12_15 
REMARK    4  A    between atoms: C12_15  and  O4_17 
ROOT
HETATM    1  C1  UNL     1      14.993  13.367   2.666  1.00  0.00     0.023 C 
HETATM    2  C2  UNL     1      15.617  13.439   3.845  1.00  0.00    -0.008 C 
HETATM    3  C3  UNL     1      15.358  14.571   4.722  1.00  0.00     0.156 C 
HETATM    4  O1  UNL     1      14.303  15.276   4.562  1.00  0.00    -0.293 OA
HETATM    5  C4  UNL     1      16.302  14.931   5.812  1.00  0.00     0.090 C 
HETATM    6  C5  UNL     1      17.340  15.884   5.369  1.00  0.00     0.025 C 
HETATM    7  C6  UNL     1      17.527  17.013   6.368  1.00  0.00     0.013 C 
HETATM    8  C7  UNL     1      18.665  15.283   4.955  1.00  0.00     0.085 C 
HETATM    9  C8  UNL     1      19.133  14.264   5.966  1.00  0.00     0.049 C 
HETATM   10  C9  UNL     1      18.629  14.747   3.538  1.00  0.00     0.179 C 
HETATM   11  O5  UNL     1      18.753  13.351   3.555  1.00  0.00    -0.311 OA
HETATM   12  C14 UNL     1      17.826  12.374   3.453  1.00  0.00     0.267 C 
HETATM   13  O6  UNL     1      18.053  11.387   2.684  1.00  0.00    -0.264 OA
HETATM   14  C15 UNL     1      16.538  12.345   4.177  1.00  0.00     0.117 C 
HETATM   15  C16 UNL     1      15.764  11.055   3.886  1.00  0.00     0.025 C 
ENDROOT
BRANCH  10  16
HETATM   16  C10 UNL     1      19.635  15.416   2.639  1.00  0.00     0.114 C 
HETATM   17  C11 UNL     1      19.756  16.885   2.786  1.00  0.00     0.023 C 
BRANCH  16  18
HETATM   18  C12 UNL     1      20.960  14.803   2.767  1.00  0.00     0.264 C 
HETATM   19  O3  UNL     1      21.767  15.275   3.584  1.00  0.00    -0.265 OA
BRANCH  18  20
HETATM   20  O4  UNL     1      21.347  13.718   2.014  1.00  0.00    -0.326 OA
HETATM   21  C13 UNL     1      22.660  13.189   2.023  1.00  0.00     0.213 C 
ENDBRANCH  18  20
ENDBRANCH  16  18
ENDBRANCH  10  16
BRANCH   8  22
HETATM   22  O2  UNL     1      19.569  16.358   5.060  1.00  0.00    -0.387 OA
ATOM     23  H2  UNL     1      20.127  16.260   4.297  1.00  0.00     0.210 HD
ENDBRANCH   8  22
TORSDOF 4
ENDMDL
MODEL 3
REMARK VINA RESULT: -6.321347065      7.776     10.801
REMARK  4 active torsions:
REMARK  status: ('A' for Active; 'I' for Inactive)
REMARK    1  A    between atoms: C7_8  and  O2_10 
REMARK    2  A    between atoms: C9_12  and  C10_13 
REMARK    3  A    between atoms: C10_13  and  C12_15 
REMARK    4  A    between atoms: C12_15  and  O4_17 
ROOT
HETATM    1  C1  UNL     1      13.007   4.681   2.422  1.00  0.00     0.023 C 
HETATM    2  C2  UNL     1      14.026   5.390   1.929  1.00  0.00    -0.008 C 
HETATM    3  C3  UNL     1      14.721   6.334   2.790  1.00  0.00     0.156 C 
HETATM    4  O1  UNL     1      14.628   6.229   4.061  1.00  0.00    -0.293 OA
HETATM    5  C4  UNL     1      15.548   7.430   2.221  1.00  0.00     0.090 C 
HETATM    6  C5  UNL     1      14.769   8.663   1.988  1.00  0.00     0.025 C 
HETATM    7  C6  UNL     1      15.504   9.894   2.488  1.00  0.00     0.013 C 
HETATM    8  C7  UNL     1      14.241   8.863   0.585  1.00  0.00     0.085 C 
HETATM    9  C8  UNL     1      15.317   8.594  -0.439  1.00  0.00     0.049 C 
HETATM   10  C9  UNL     1      12.969   8.078   0.337  1.00  0.00     0.179 C 
HETATM   11  O5  UNL     1      13.210   7.070  -0.609  1.00  0.00    -0.311 OA
HETATM   12  C14 UNL     1      13.446   5.749  -0.460  1.00  0.00     0.267 C 
HETATM   13  O6  UNL     1      12.835   4.925  -1.211  1.00  0.00    -0.264 OA
HETATM   14  C15 UNL     1      14.379   5.157   0.523  1.00  0.00     0.117 C 
HETATM   15  C16 UNL     1      14.461   3.635   0.367  1.00  0.00     0.025 C 
ENDROOT
BRANCH  10  16
HETATM   16  C10 UNL     1      11.804   8.959  -0.028  1.00  0.00     0.114 C 
HETATM   17  C11 UNL     1      10.821   8.372  -0.968  1.00  0.00     0.023 C 
BRANCH  16  18
HETATM   18  C12 UNL     1      11.106   9.447   1.165  1.00  0.00     0.264 C 
HETATM   19  O3  UNL     1      10.210   8.750   1.667  1.00  0.00    -0.265 OA
BRANCH  18  20
HETATM   20  O4  UNL     1      11.408  10.654   1.753  1.00  0.00    -0.326 OA
HETATM   21  C13 UNL     1      11.042  11.905   1.201  1.00  0.00     0.213 C 
ENDBRANCH  18  20
ENDBRANCH  16  18
ENDBRANCH  10  16
BRANCH   8  22
HETATM   22  O2  UNL     1      13.994  10.249   0.513  1.00  0.00    -0.387 OA
ATOM     23  H2  UNL     1      13.941  10.517   1.424  1.00  0.00     0.210 HD
ENDBRANCH   8  22
TORSDOF 4
ENDMDL
MODEL 4
REMARK VINA RESULT: -6.295519650      2.296      4.727
REMARK  4 active torsions:
REMARK  status: ('A' for Active; 'I' for Inactive)
REMARK    1  A    between atoms: C7_8  and  O2_10 
REMARK    2  A    between atoms: C9_12  and  C10_13 
REMARK    3  A    between atoms: C10_13  and  C12_15 
REMARK    4  A    between atoms: C12_15  and  O4_17 
ROOT
HETATM    1  C1  UNL     1      20.482  15.245   2.112  1.00  0.00     0.023 C 
HETATM    2  C2  UNL     1      20.225  14.127   2.797  1.00  0.00    -0.008 C 
HETATM    3  C3  UNL     1      19.320  13.137   2.232  1.00  0.00     0.156 C 
HETATM    4  O1  UNL     1      19.073  13.138   0.978  1.00  0.00    -0.293 OA
HETATM    5  C4  UNL     1      18.670  12.113   3.090  1.00  0.00     0.090 C 
HETATM    6  C5  UNL     1      17.371  12.567   3.628  1.00  0.00     0.025 C 
HETATM    7  C6  UNL     1      16.302  11.498   3.489  1.00  0.00     0.013 C 
HETATM    8  C7  UNL     1      17.395  13.151   5.023  1.00  0.00     0.085 C 
HETATM    9  C8  UNL     1      18.195  12.278   5.958  1.00  0.00     0.049 C 
HETATM   10  C9  UNL     1      17.842  14.599   5.027  1.00  0.00     0.179 C 
HETATM   11  O5  UNL     1      19.081  14.712   5.674  1.00  0.00    -0.311 OA
HETATM   12  C14 UNL     1      20.335  14.810   5.182  1.00  0.00     0.267 C 
HETATM   13  O6  UNL     1      21.124  15.678   5.674  1.00  0.00    -0.264 OA
HETATM   14  C15 UNL     1      20.891  13.975   4.096  1.00  0.00     0.117 C 
HETATM   15  C16 UNL     1      22.366  14.302   3.842  1.00  0.00     0.025 C 
ENDROOT
BRANCH  10  16
HETATM   16  C10 UNL     1      16.798  15.527   5.590  1.00  0.00     0.114 C 
HETATM   17  C11 UNL     1      17.181  16.957   5.667  1.00  0.00     0.023 C 
BRANCH  16  18
HETATM   18  C12 UNL     1      15.526  15.401   4.875  1.00  0.00     0.264 C 
HETATM   19  O3  UNL     1      15.531  15.369   3.634  1.00  0.00    -0.265 OA
BRANCH  18  20
HETATM   20  O4  UNL     1      14.318  15.316   5.529  1.00  0.00    -0.326 OA
HETATM   21  C13 UNL     1      13.454  16.420   5.721  1.00  0.00     0.213 C 
ENDBRANCH  18  20
ENDBRANCH  16  18
ENDBRANCH  10  16
BRANCH   8  22
HETATM   22  O2  UNL     1      16.059  13.040   5.456  1.00  0.00    -0.387 OA
ATOM     23  H2  UNL     1      16.137  12.757   6.360  1.00  0.00     0.210 HD
ENDBRANCH   8  22
TORSDOF 4
ENDMDL
MODEL 5
REMARK VINA RESULT: -6.279989242     10.723     13.503
REMARK  4 active torsions:
REMARK  status: ('A' for Active; 'I' for Inactive)
REMARK    1  A    between atoms: C7_8  and  O2_10 
REMARK    2  A    between atoms: C9_12  and  C10_13 
REMARK    3  A    between atoms: C10_13  and  C12_15 
REMARK    4  A    between atoms: C12_15  and  O4_17 
ROOT
HETATM    1  C1  UNL     1      12.738   0.662  -0.079  1.00  0.00     0.023 C 
HETATM    2  C2  UNL     1      13.575   1.521  -0.667  1.00  0.00    -0.008 C 
HETATM    3  C3  UNL     1      14.997   1.448  -0.371  1.00  0.00     0.156 C 
HETATM    4  O1  UNL     1      15.493   0.380   0.127  1.00  0.00    -0.293 OA
HETATM    5  C4  UNL     1      15.898   2.600  -0.638  1.00  0.00     0.090 C 
HETATM    6  C5  UNL     1      16.001   3.516   0.516  1.00  0.00     0.025 C 
HETATM    7  C6  UNL     1      17.442   3.905   0.796  1.00  0.00     0.013 C 
HETATM    8  C7  UNL     1      15.094   4.726   0.490  1.00  0.00     0.085 C 
HETATM    9  C8  UNL     1      15.137   5.402  -0.859  1.00  0.00     0.049 C 
HETATM   10  C9  UNL     1      13.688   4.394   0.949  1.00  0.00     0.179 C 
HETATM   11  O5  UNL     1      12.795   4.525  -0.124  1.00  0.00    -0.311 OA
HETATM   12  C14 UNL     1      12.247   3.602  -0.944  1.00  0.00     0.267 C 
HETATM   13  O6  UNL     1      11.003   3.665  -1.199  1.00  0.00    -0.264 OA
HETATM   14  C15 UNL     1      12.984   2.496  -1.592  1.00  0.00     0.117 C 
HETATM   15  C16 UNL     1      12.070   1.684  -2.515  1.00  0.00     0.025 C 
ENDROOT
BRANCH  10  16
HETATM   16  C10 UNL     1      13.271   5.184   2.160  1.00  0.00     0.114 C 
HETATM   17  C11 UNL     1      14.128   5.027   3.359  1.00  0.00     0.023 C 
BRANCH  16  18
HETATM   18  C12 UNL     1      13.125   6.608   1.849  1.00  0.00     0.264 C 
HETATM   19  O3  UNL     1      13.920   7.420   2.349  1.00  0.00    -0.265 OA
BRANCH  18  20
HETATM   20  O4  UNL     1      12.136   7.084   1.018  1.00  0.00    -0.326 OA
HETATM   21  C13 UNL     1      12.299   8.208   0.174  1.00  0.00     0.213 C 
ENDBRANCH  18  20
ENDBRANCH  16  18
ENDBRANCH  10  16
BRANCH   8  22
HETATM   22  O2  UNL     1      15.710   5.627   1.381  1.00  0.00    -0.387 OA
ATOM     23  H2  UNL     1      15.045   6.289   1.531  1.00  0.00     0.210 HD
ENDBRANCH   8  22
TORSDOF 4
ENDMDL
