MODEL 1
REMARK VINA RESULT: -7.598963564      0.000      0.000
REMARK  4 active torsions:
REMARK  status: ('A' for Active; 'I' for Inactive)
REMARK    1  A    between atoms: C2_2  and  C4_4 
REMARK    2  A    between atoms: C4_4  and  C7_7 
REMARK    3  A    between atoms: C11_11  and  O1_12 
REMARK    4  A    between atoms: C12_14  and  C13_15 
ROOT
HETATM    1  C7  UNL     1      14.138   6.147   0.589  1.00  0.00    -0.032 A 
HETATM    2  C8  UNL     1      14.619   4.840   0.326  1.00  0.00     0.039 A 
HETATM    3  C9  UNL     1      13.915   3.898  -0.372  1.00  0.00     0.057 A 
HETATM    4  C10 UNL     1      12.683   4.189  -0.857  1.00  0.00     0.093 A 
HETATM    5  C11 UNL     1      12.149   5.439  -0.644  1.00  0.00     0.097 A 
HETATM    6  C12 UNL     1      12.912   6.403   0.087  1.00  0.00     0.043 A 
HETATM    7  C14 UNL     1      12.016   3.193  -1.554  1.00  0.00     0.266 A 
HETATM    8  O3  UNL     1      10.874   3.400  -2.028  1.00  0.00    -0.267 OA
HETATM    9  N1  UNL     1      12.545   1.957  -1.767  1.00  0.00    -0.270 N 
HETATM   10  C15 UNL     1      11.820   0.933  -2.502  1.00  0.00     0.164 C 
HETATM   11  C16 UNL     1      13.767   1.731  -1.262  1.00  0.00     0.331 A 
HETATM   12  O4  UNL     1      14.262   0.592  -1.453  1.00  0.00    -0.246 OA
HETATM   13  N2  UNL     1      14.439   2.661  -0.587  1.00  0.00    -0.303 N 
HETATM   14  C17 UNL     1      15.749   2.357  -0.069  1.00  0.00     0.161 C 
ENDROOT
BRANCH   1  15
HETATM   15  C4  UNL     1      14.904   6.975   1.482  1.00  0.00    -0.017 C 
HETATM   16  C5  UNL     1      16.358   6.467   1.667  1.00  0.00     0.020 C 
HETATM   17  C6  UNL     1      14.356   6.748   2.921  1.00  0.00     0.020 C 
BRANCH  15  18
HETATM   18  C2  UNL     1      14.960   8.434   1.354  1.00  0.00    -0.010 C 
HETATM   19  C1  UNL     1      15.285   9.372   2.410  1.00  0.00     0.010 C 
HETATM   20  C3  UNL     1      15.808   8.853   0.118  1.00  0.00     0.010 C 
ENDBRANCH  15  18
ENDBRANCH   1  15
BRANCH   6  21
HETATM   21  C13 UNL     1      12.321   7.713   0.141  1.00  0.00     0.273 C 
HETATM   22  O2  UNL     1      11.286   7.947   0.837  1.00  0.00    -0.301 OA
ENDBRANCH   6  21
BRANCH   5  23
HETATM   23  O1  UNL     1      10.937   5.777  -1.100  1.00  0.00    -0.359 OA
ATOM     24  H1  UNL     1      10.168   5.753  -0.543  1.00  0.00     0.217 HD
ENDBRANCH   5  23
TORSDOF 4
ENDMDL
MODEL 2
REMARK VINA RESULT: -7.409424971      3.367      6.273
REMARK  4 active torsions:
REMARK  status: ('A' for Active; 'I' for Inactive)
REMARK    1  A    between atoms: C2_2  and  C4_4 
REMARK    2  A    between atoms: C4_4  and  C7_7 
REMARK    3  A    between atoms: C11_11  and  O1_12 
REMARK    4  A    between atoms: C12_14  and  C13_15 
ROOT
HETATM    1  C7  UNL     1      13.321   6.574   1.499  1.00  0.00    -0.032 A 
HETATM    2  C8  UNL     1      13.543   7.944   1.784  1.00  0.00     0.039 A 
HETATM    3  C9  UNL     1      12.637   8.933   1.512  1.00  0.00     0.057 A 
HETATM    4  C10 UNL     1      11.447   8.628   0.938  1.00  0.00     0.093 A 
HETATM    5  C11 UNL     1      11.158   7.318   0.633  1.00  0.00     0.097 A 
HETATM    6  C12 UNL     1      12.125   6.307   0.933  1.00  0.00     0.043 A 
HETATM    7  C14 UNL     1      10.572   9.673   0.684  1.00  0.00     0.266 A 
HETATM    8  O3  UNL     1       9.456   9.456   0.155  1.00  0.00    -0.267 OA
HETATM    9  N1  UNL     1      10.856  10.968   0.987  1.00  0.00    -0.270 N 
HETATM   10  C15 UNL     1       9.916  12.042   0.708  1.00  0.00     0.164 C 
HETATM   11  C16 UNL     1      12.049  11.205   1.554  1.00  0.00     0.331 A 
HETATM   12  O4  UNL     1      12.321  12.399   1.836  1.00  0.00    -0.246 OA
HETATM   13  N2  UNL     1      12.917  10.230   1.813  1.00  0.00    -0.303 N 
HETATM   14  C17 UNL     1      14.184  10.548   2.424  1.00  0.00     0.161 C 
ENDROOT
BRANCH   1  15
HETATM   15  C4  UNL     1      14.423   5.667   1.674  1.00  0.00    -0.017 C 
HETATM   16  C5  UNL     1      14.436   5.008   3.079  1.00  0.00     0.020 C 
HETATM   17  C6  UNL     1      15.723   6.519   1.765  1.00  0.00     0.020 C 
BRANCH  15  18
HETATM   18  C2  UNL     1      14.754   4.626   0.696  1.00  0.00    -0.010 C 
HETATM   19  C1  UNL     1      14.924   4.818  -0.731  1.00  0.00     0.010 C 
HETATM   20  C3  UNL     1      15.968   3.778   1.173  1.00  0.00     0.010 C 
ENDBRANCH  15  18
ENDBRANCH   1  15
BRANCH   6  21
HETATM   21  C13 UNL     1      11.673   4.963   0.696  1.00  0.00     0.273 C 
HETATM   22  O2  UNL     1      11.402   4.548  -0.473  1.00  0.00    -0.301 OA
ENDBRANCH   6  21
BRANCH   5  23
HETATM   23  O1  UNL     1      10.000   6.964   0.065  1.00  0.00    -0.359 OA
ATOM     24  H1  UNL     1       9.924   6.823  -0.872  1.00  0.00     0.217 HD
ENDBRANCH   5  23
TORSDOF 4
ENDMDL
MODEL 3
REMARK VINA RESULT: -7.300471189      1.531      2.033
REMARK  4 active torsions:
REMARK  status: ('A' for Active; 'I' for Inactive)
REMARK    1  A    between atoms: C2_2  and  C4_4 
REMARK    2  A    between atoms: C4_4  and  C7_7 
REMARK    3  A    between atoms: C11_11  and  O1_12 
REMARK    4  A    between atoms: C12_14  and  C13_15 
ROOT
HETATM    1  C7  UNL     1      13.971   7.003   0.458  1.00  0.00    -0.032 A 
HETATM    2  C8  UNL     1      14.978   6.018   0.617  1.00  0.00     0.039 A 
HETATM    3  C9  UNL     1      14.836   4.716   0.219  1.00  0.00     0.057 A 
HETATM    4  C10 UNL     1      13.684   4.304  -0.365  1.00  0.00     0.093 A 
HETATM    5  C11 UNL     1      12.661   5.204  -0.556  1.00  0.00     0.097 A 
HETATM    6  C12 UNL     1      12.841   6.558  -0.132  1.00  0.00     0.043 A 
HETATM    7  C14 UNL     1      13.599   2.973  -0.745  1.00  0.00     0.266 A 
HETATM    8  O3  UNL     1      12.560   2.531  -1.291  1.00  0.00    -0.267 OA
HETATM    9  N1  UNL     1      14.610   2.083  -0.559  1.00  0.00    -0.270 N 
HETATM   10  C15 UNL     1      14.491   0.693  -0.968  1.00  0.00     0.164 C 
HETATM   11  C16 UNL     1      15.724   2.552   0.024  1.00  0.00     0.331 A 
HETATM   12  O4  UNL     1      16.663   1.737   0.202  1.00  0.00    -0.246 OA
HETATM   13  N2  UNL     1      15.845   3.823   0.404  1.00  0.00    -0.303 N 
HETATM   14  C17 UNL     1      17.067   4.267   1.026  1.00  0.00     0.161 C 
ENDROOT
BRANCH   1  15
HETATM   15  C4  UNL     1      14.184   8.283   1.078  1.00  0.00    -0.017 C 
HETATM   16  C5  UNL     1      15.223   9.149   0.316  1.00  0.00     0.020 C 
HETATM   17  C6  UNL     1      14.960   8.040   2.406  1.00  0.00     0.020 C 
BRANCH  15  18
HETATM   18  C2  UNL     1      13.081   9.164   1.472  1.00  0.00    -0.010 C 
HETATM   19  C1  UNL     1      12.805   9.639   2.814  1.00  0.00     0.010 C 
HETATM   20  C3  UNL     1      13.000  10.407   0.540  1.00  0.00     0.010 C 
ENDBRANCH  15  18
ENDBRANCH   1  15
BRANCH   6  21
HETATM   21  C13 UNL     1      11.768   7.443  -0.494  1.00  0.00     0.273 C 
HETATM   22  O2  UNL     1      10.588   7.270  -0.061  1.00  0.00    -0.301 OA
ENDBRANCH   6  21
BRANCH   5  23
HETATM   23  O1  UNL     1      11.505   4.849  -1.126  1.00  0.00    -0.359 OA
ATOM     24  H1  UNL     1      11.465   4.517  -2.016  1.00  0.00     0.217 HD
ENDBRANCH   5  23
TORSDOF 4
ENDMDL
MODEL 4
REMARK VINA RESULT: -7.277852975      1.485      2.314
REMARK  4 active torsions:
REMARK  status: ('A' for Active; 'I' for Inactive)
REMARK    1  A    between atoms: C2_2  and  C4_4 
REMARK    2  A    between atoms: C4_4  and  C7_7 
REMARK    3  A    between atoms: C11_11  and  O1_12 
REMARK    4  A    between atoms: C12_14  and  C13_15 
ROOT
HETATM    1  C7  UNL     1      13.409   5.056   0.143  1.00  0.00    -0.032 A 
HETATM    2  C8  UNL     1      13.413   3.763  -0.440  1.00  0.00     0.039 A 
HETATM    3  C9  UNL     1      12.432   3.305  -1.276  1.00  0.00     0.057 A 
HETATM    4  C10 UNL     1      11.379   4.099  -1.592  1.00  0.00     0.093 A 
HETATM    5  C11 UNL     1      11.307   5.368  -1.067  1.00  0.00     0.097 A 
HETATM    6  C12 UNL     1      12.350   5.820  -0.198  1.00  0.00     0.043 A 
HETATM    7  C14 UNL     1      10.416   3.578  -2.443  1.00  0.00     0.266 A 
HETATM    8  O3  UNL     1       9.419   4.262  -2.772  1.00  0.00    -0.267 OA
HETATM    9  N1  UNL     1      10.489   2.323  -2.964  1.00  0.00    -0.270 N 
HETATM   10  C15 UNL     1       9.461   1.805  -3.853  1.00  0.00     0.164 C 
HETATM   11  C16 UNL     1      11.554   1.587  -2.614  1.00  0.00     0.331 A 
HETATM   12  O4  UNL     1      11.629   0.427  -3.089  1.00  0.00    -0.246 OA
HETATM   13  N2  UNL     1      12.500   2.051  -1.799  1.00  0.00    -0.303 N 
HETATM   14  C17 UNL     1      13.621   1.211  -1.460  1.00  0.00     0.161 C 
ENDROOT
BRANCH   1  15
HETATM   15  C4  UNL     1      14.406   5.344   1.138  1.00  0.00    -0.017 C 
HETATM   16  C5  UNL     1      15.516   6.294   0.614  1.00  0.00     0.020 C 
HETATM   17  C6  UNL     1      15.243   4.049   1.354  1.00  0.00     0.020 C 
BRANCH  15  18
HETATM   18  C2  UNL     1      14.065   5.772   2.498  1.00  0.00    -0.010 C 
HETATM   19  C1  UNL     1      14.076   4.939   3.684  1.00  0.00     0.010 C 
HETATM   20  C3  UNL     1      14.816   7.082   2.874  1.00  0.00     0.010 C 
ENDBRANCH  15  18
ENDBRANCH   1  15
BRANCH   6  21
HETATM   21  C13 UNL     1      12.246   7.200   0.190  1.00  0.00     0.273 C 
HETATM   22  O2  UNL     1      11.317   7.609   0.953  1.00  0.00    -0.301 OA
ENDBRANCH   6  21
BRANCH   5  23
HETATM   23  O1  UNL     1      10.290   6.191  -1.345  1.00  0.00    -0.359 OA
ATOM     24  H1  UNL     1      10.431   7.097  -1.596  1.00  0.00     0.217 HD
ENDBRANCH   5  23
TORSDOF 4
ENDMDL
MODEL 5
REMARK VINA RESULT: -7.265173805      3.558      6.516
REMARK  4 active torsions:
REMARK  status: ('A' for Active; 'I' for Inactive)
REMARK    1  A    between atoms: C2_2  and  C4_4 
REMARK    2  A    between atoms: C4_4  and  C7_7 
REMARK    3  A    between atoms: C11_11  and  O1_12 
REMARK    4  A    between atoms: C12_14  and  C13_15 
ROOT
HETATM    1  C7  UNL     1      13.300   7.078   1.053  1.00  0.00    -0.032 A 
HETATM    2  C8  UNL     1      13.462   8.452   1.360  1.00  0.00     0.039 A 
HETATM    3  C9  UNL     1      12.447   9.368   1.303  1.00  0.00     0.057 A 
HETATM    4  C10 UNL     1      11.200   8.980   0.937  1.00  0.00     0.093 A 
HETATM    5  C11 UNL     1      10.964   7.661   0.627  1.00  0.00     0.097 A 
HETATM    6  C12 UNL     1      12.046   6.728   0.699  1.00  0.00     0.043 A 
HETATM    7  C14 UNL     1      10.213   9.953   0.896  1.00  0.00     0.266 A 
HETATM    8  O3  UNL     1       9.040   9.658   0.566  1.00  0.00    -0.267 OA
HETATM    9  N1  UNL     1      10.445  11.257   1.204  1.00  0.00    -0.270 N 
HETATM   10  C15 UNL     1       9.388  12.255   1.151  1.00  0.00     0.164 C 
HETATM   11  C16 UNL     1      11.698  11.578   1.558  1.00  0.00     0.331 A 
HETATM   12  O4  UNL     1      11.923  12.781   1.844  1.00  0.00    -0.246 OA
HETATM   13  N2  UNL     1      12.674  10.673   1.610  1.00  0.00    -0.303 N 
HETATM   14  C17 UNL     1      14.001  11.079   1.998  1.00  0.00     0.161 C 
ENDROOT
BRANCH   1  15
HETATM   15  C4  UNL     1      14.484   6.264   0.984  1.00  0.00    -0.017 C 
HETATM   16  C5  UNL     1      15.769   7.047   1.363  1.00  0.00     0.020 C 
HETATM   17  C6  UNL     1      14.775   5.984  -0.520  1.00  0.00     0.020 C 
BRANCH  15  18
HETATM   18  C2  UNL     1      14.573   4.943   1.611  1.00  0.00    -0.010 C 
HETATM   19  C1  UNL     1      15.626   3.967   1.403  1.00  0.00     0.010 C 
HETATM   20  C3  UNL     1      14.361   5.039   3.149  1.00  0.00     0.010 C 
ENDBRANCH  15  18
ENDBRANCH   1  15
BRANCH   6  21
HETATM   21  C13 UNL     1      11.666   5.358   0.483  1.00  0.00     0.273 C 
HETATM   22  O2  UNL     1      11.395   4.918  -0.676  1.00  0.00    -0.301 OA
ENDBRANCH   6  21
BRANCH   5  23
HETATM   23  O1  UNL     1       9.753   7.227   0.260  1.00  0.00    -0.359 OA
ATOM     24  H1  UNL     1       9.038   7.826   0.081  1.00  0.00     0.217 HD
ENDBRANCH   5  23
TORSDOF 4
ENDMDL
