MODEL 1
REMARK VINA RESULT: -7.839142383      0.000      0.000
REMARK  6 active torsions:
REMARK  status: ('A' for Active; 'I' for Inactive)
REMARK    1  A    between atoms: S1_2  and  N1_5 
REMARK       I    between atoms: N1_5  and  C2_7 
REMARK    2  A    between atoms: C2_7  and  C3_9 
REMARK    3  A    between atoms: C5_16  and  N4_17 
REMARK    4  A    between atoms: C6_19  and  O5_20 
REMARK    5  A    between atoms: C6_19  and  N5_22 
REMARK    6  A    between atoms: N5_22  and  N6_24 
ROOT
HETATM    1  C3  UNL     1       3.101  21.807  22.095  1.00  0.00     0.150 A 
HETATM    2  N2  UNL     1       3.397  21.207  23.266  1.00  0.00    -0.301 N 
ATOM      3  H2  UNL     1       4.286  20.767  23.505  1.00  0.00     0.171 HD
HETATM    4  C4  UNL     1       2.332  21.287  24.050  1.00  0.00     0.326 A 
HETATM    5  O4  UNL     1       2.256  20.829  25.219  1.00  0.00    -0.247 OA
HETATM    6  N3  UNL     1       1.347  21.932  23.405  1.00  0.00    -0.292 N 
ATOM      7  H3  UNL     1       0.422  22.128  23.788  1.00  0.00     0.172 HD
HETATM    8  C5  UNL     1       1.774  22.283  22.164  1.00  0.00     0.145 A 
ENDROOT
BRANCH   8   9
HETATM    9  N4  UNL     1       1.087  22.964  21.143  1.00  0.00    -0.305 N 
HETATM   10  C6  UNL     1       0.515  24.200  21.124  1.00  0.00     0.237 C 
ATOM     11  H4  UNL     1       1.004  22.445  20.269  1.00  0.00     0.171 HD
BRANCH  10  12
HETATM   12  O5  UNL     1      -0.059  24.531  20.002  1.00  0.00    -0.331 OA
ATOM     13  H5  UNL     1      -0.427  25.407  19.977  1.00  0.00     0.221 HD
ENDBRANCH  10  12
BRANCH  10  14
HETATM   14  N5  UNL     1       0.441  25.170  22.112  1.00  0.00    -0.272 N 
ATOM     15  H5  UNL     1       0.449  24.916  23.100  1.00  0.00     0.190 HD
BRANCH  14  16
HETATM   16  N6  UNL     1       0.353  26.539  21.702  1.00  0.00    -0.342 N 
ATOM     17  H62 UNL     1      -0.501  26.889  21.268  1.00  0.00     0.176 HD
ATOM     18  H61 UNL     1       1.163  27.138  21.859  1.00  0.00     0.176 HD
ENDBRANCH  14  16
ENDBRANCH  10  14
ENDBRANCH   8   9
BRANCH   1  19
HETATM   19  C2  UNL     1       4.014  21.925  20.986  1.00  0.00     0.285 C 
HETATM   20  N1  UNL     1       4.731  20.764  20.532  1.00  0.00    -0.249 N 
ATOM     21  H1  UNL     1       4.577  19.875  21.009  1.00  0.00     0.182 HD
HETATM   22  O3  UNL     1       4.268  22.963  20.349  1.00  0.00    -0.265 OA
BRANCH  20  23
HETATM   23  S1  UNL     1       5.843  20.813  19.211  1.00  0.00     0.229 S 
HETATM   24  C1  UNL     1       6.377  19.157  18.876  1.00  0.00     0.186 C 
HETATM   25  O1  UNL     1       5.056  21.354  18.023  1.00  0.00    -0.206 OA
HETATM   26  O2  UNL     1       7.037  21.653  19.526  1.00  0.00    -0.206 OA
ENDBRANCH  20  23
ENDBRANCH   1  19
TORSDOF 6
ENDMDL
MODEL 2
REMARK VINA RESULT: -7.453226839      1.850      4.098
REMARK  6 active torsions:
REMARK  status: ('A' for Active; 'I' for Inactive)
REMARK    1  A    between atoms: S1_2  and  N1_5 
REMARK       I    between atoms: N1_5  and  C2_7 
REMARK    2  A    between atoms: C2_7  and  C3_9 
REMARK    3  A    between atoms: C5_16  and  N4_17 
REMARK    4  A    between atoms: C6_19  and  O5_20 
REMARK    5  A    between atoms: C6_19  and  N5_22 
REMARK    6  A    between atoms: N5_22  and  N6_24 
ROOT
HETATM    1  C3  UNL     1       3.482  21.990  21.658  1.00  0.00     0.150 A 
HETATM    2  N2  UNL     1       2.519  22.728  21.069  1.00  0.00    -0.301 N 
ATOM      3  H2  UNL     1       2.584  23.178  20.156  1.00  0.00     0.171 HD
HETATM    4  C4  UNL     1       1.474  22.764  21.883  1.00  0.00     0.326 A 
HETATM    5  O4  UNL     1       0.395  23.367  21.650  1.00  0.00    -0.247 OA
HETATM    6  N3  UNL     1       1.744  22.061  22.994  1.00  0.00    -0.292 N 
ATOM      7  H3  UNL     1       1.106  21.931  23.779  1.00  0.00     0.172 HD
HETATM    8  C5  UNL     1       3.000  21.550  22.909  1.00  0.00     0.145 A 
ENDROOT
BRANCH   8   9
HETATM    9  N4  UNL     1       3.706  20.758  23.833  1.00  0.00    -0.305 N 
HETATM   10  C6  UNL     1       3.345  20.282  25.057  1.00  0.00     0.237 C 
ATOM     11  H4  UNL     1       4.646  20.497  23.537  1.00  0.00     0.171 HD
BRANCH  10  12
HETATM   12  O5  UNL     1       4.252  19.574  25.669  1.00  0.00    -0.331 OA
ATOM     13  H5  UNL     1       3.919  18.881  26.228  1.00  0.00     0.221 HD
ENDBRANCH  10  12
BRANCH  10  14
HETATM   14  N5  UNL     1       2.162  20.429  25.765  1.00  0.00    -0.272 N 
ATOM     15  H5  UNL     1       1.390  20.980  25.390  1.00  0.00     0.190 HD
BRANCH  14  16
HETATM   16  N6  UNL     1       2.059  19.784  27.039  1.00  0.00    -0.342 N 
ATOM     17  H62 UNL     1       2.739  19.986  27.771  1.00  0.00     0.176 HD
ATOM     18  H61 UNL     1       1.291  19.128  27.181  1.00  0.00     0.176 HD
ENDBRANCH  14  16
ENDBRANCH  10  14
ENDBRANCH   8   9
BRANCH   1  19
HETATM   19  C2  UNL     1       4.771  21.719  21.074  1.00  0.00     0.285 C 
HETATM   20  N1  UNL     1       5.012  20.444  20.451  1.00  0.00    -0.249 N 
ATOM     21  H1  UNL     1       4.260  19.755  20.437  1.00  0.00     0.182 HD
HETATM   22  O3  UNL     1       5.745  22.493  21.046  1.00  0.00    -0.265 OA
BRANCH  20  23
HETATM   23  S1  UNL     1       6.525  20.035  19.724  1.00  0.00     0.229 S 
HETATM   24  C1  UNL     1       6.569  18.278  19.492  1.00  0.00     0.186 C 
HETATM   25  O1  UNL     1       6.543  20.737  18.371  1.00  0.00    -0.206 OA
HETATM   26  O2  UNL     1       7.677  20.438  20.584  1.00  0.00    -0.206 OA
ENDBRANCH  20  23
ENDBRANCH   1  19
TORSDOF 6
ENDMDL
MODEL 3
REMARK VINA RESULT: -7.402536666      2.355      5.815
REMARK  6 active torsions:
REMARK  status: ('A' for Active; 'I' for Inactive)
REMARK    1  A    between atoms: S1_2  and  N1_5 
REMARK       I    between atoms: N1_5  and  C2_7 
REMARK    2  A    between atoms: C2_7  and  C3_9 
REMARK    3  A    between atoms: C5_16  and  N4_17 
REMARK    4  A    between atoms: C6_19  and  O5_20 
REMARK    5  A    between atoms: C6_19  and  N5_22 
REMARK    6  A    between atoms: N5_22  and  N6_24 
ROOT
HETATM    1  C3  UNL     1       3.428  21.342  22.786  1.00  0.00     0.150 A 
HETATM    2  N2  UNL     1       2.975  21.118  24.036  1.00  0.00    -0.301 N 
ATOM      3  H2  UNL     1       2.150  21.542  24.459  1.00  0.00     0.171 HD
HETATM    4  C4  UNL     1       3.790  20.249  24.618  1.00  0.00     0.326 A 
HETATM    5  O4  UNL     1       3.667  19.815  25.792  1.00  0.00    -0.247 OA
HETATM    6  N3  UNL     1       4.766  19.906  23.764  1.00  0.00    -0.292 N 
ATOM      7  H3  UNL     1       5.522  19.251  23.965  1.00  0.00     0.172 HD
HETATM    8  C5  UNL     1       4.591  20.566  22.589  1.00  0.00     0.145 A 
ENDROOT
BRANCH   8   9
HETATM    9  N4  UNL     1       5.366  20.524  21.417  1.00  0.00    -0.305 N 
HETATM   10  C6  UNL     1       6.015  19.489  20.814  1.00  0.00     0.237 C 
ATOM     11  H4  UNL     1       5.458  21.419  20.936  1.00  0.00     0.171 HD
BRANCH  10  12
HETATM   12  O5  UNL     1       6.660  19.795  19.724  1.00  0.00    -0.331 OA
ATOM     13  H5  UNL     1       6.815  19.072  19.127  1.00  0.00     0.221 HD
ENDBRANCH  10  12
BRANCH  10  14
HETATM   14  N5  UNL     1       6.103  18.153  21.175  1.00  0.00    -0.272 N 
ATOM     15  H5  UNL     1       5.915  17.853  22.131  1.00  0.00     0.190 HD
BRANCH  14  16
HETATM   16  N6  UNL     1       6.467  17.208  20.162  1.00  0.00    -0.342 N 
ATOM     17  H62 UNL     1       5.757  16.838  19.529  1.00  0.00     0.176 HD
ATOM     18  H61 UNL     1       7.445  16.926  20.101  1.00  0.00     0.176 HD
ENDBRANCH  14  16
ENDBRANCH  10  14
ENDBRANCH   8   9
BRANCH   1  19
HETATM   19  C2  UNL     1       2.800  22.229  21.839  1.00  0.00     0.285 C 
HETATM   20  N1  UNL     1       1.397  22.522  21.966  1.00  0.00    -0.249 N 
ATOM     21  H1  UNL     1       0.874  22.091  22.729  1.00  0.00     0.182 HD
HETATM   22  O3  UNL     1       3.355  22.795  20.880  1.00  0.00    -0.265 OA
BRANCH  20  23
HETATM   23  S1  UNL     1       0.564  23.574  20.880  1.00  0.00     0.229 S 
HETATM   24  C1  UNL     1       1.021  25.243  21.266  1.00  0.00     0.186 C 
HETATM   25  O1  UNL     1       1.060  23.213  19.484  1.00  0.00    -0.206 OA
HETATM   26  O2  UNL     1      -0.918  23.436  21.004  1.00  0.00    -0.206 OA
ENDBRANCH  20  23
ENDBRANCH   1  19
TORSDOF 6
ENDMDL
MODEL 4
REMARK VINA RESULT: -7.394158647      2.357      4.488
REMARK  6 active torsions:
REMARK  status: ('A' for Active; 'I' for Inactive)
REMARK    1  A    between atoms: S1_2  and  N1_5 
REMARK       I    between atoms: N1_5  and  C2_7 
REMARK    2  A    between atoms: C2_7  and  C3_9 
REMARK    3  A    between atoms: C5_16  and  N4_17 
REMARK    4  A    between atoms: C6_19  and  O5_20 
REMARK    5  A    between atoms: C6_19  and  N5_22 
REMARK    6  A    between atoms: N5_22  and  N6_24 
ROOT
HETATM    1  C3  UNL     1       4.580  21.574  21.027  1.00  0.00     0.150 A 
HETATM    2  N2  UNL     1       3.887  22.424  20.243  1.00  0.00    -0.301 N 
ATOM      3  H2  UNL     1       4.112  22.668  19.278  1.00  0.00     0.171 HD
HETATM    4  C4  UNL     1       2.862  22.887  20.945  1.00  0.00     0.326 A 
HETATM    5  O4  UNL     1       2.006  23.705  20.523  1.00  0.00    -0.247 OA
HETATM    6  N3  UNL     1       2.880  22.349  22.175  1.00  0.00    -0.292 N 
ATOM      7  H3  UNL     1       2.200  22.540  22.911  1.00  0.00     0.172 HD
HETATM    8  C5  UNL     1       3.945  21.512  22.286  1.00  0.00     0.145 A 
ENDROOT
BRANCH   8   9
HETATM    9  N4  UNL     1       4.363  20.741  23.385  1.00  0.00    -0.305 N 
HETATM   10  C6  UNL     1       3.720  20.412  24.539  1.00  0.00     0.237 C 
ATOM     11  H4  UNL     1       5.307  20.364  23.303  1.00  0.00     0.171 HD
BRANCH  10  12
HETATM   12  O5  UNL     1       4.404  19.675  25.369  1.00  0.00    -0.331 OA
ATOM     13  H5  UNL     1       4.009  19.552  26.224  1.00  0.00     0.221 HD
ENDBRANCH  10  12
BRANCH  10  14
HETATM   14  N5  UNL     1       2.446  20.736  24.981  1.00  0.00    -0.272 N 
ATOM     15  H5  UNL     1       1.835  21.337  24.428  1.00  0.00     0.190 HD
BRANCH  14  16
HETATM   16  N6  UNL     1       2.015  20.200  26.237  1.00  0.00    -0.342 N 
ATOM     17  H62 UNL     1       1.333  20.706  26.802  1.00  0.00     0.176 HD
ATOM     18  H61 UNL     1       2.411  19.310  26.538  1.00  0.00     0.176 HD
ENDBRANCH  14  16
ENDBRANCH  10  14
ENDBRANCH   8   9
BRANCH   1  19
HETATM   19  C2  UNL     1       5.764  20.864  20.611  1.00  0.00     0.285 C 
HETATM   20  N1  UNL     1       5.789  19.427  20.677  1.00  0.00    -0.249 N 
ATOM     21  H1  UNL     1       4.962  18.938  21.021  1.00  0.00     0.182 HD
HETATM   22  O3  UNL     1       6.815  21.374  20.183  1.00  0.00    -0.265 OA
BRANCH  20  23
HETATM   23  S1  UNL     1       7.162  18.497  20.197  1.00  0.00     0.229 S 
HETATM   24  C1  UNL     1       7.264  18.535  18.427  1.00  0.00     0.186 C 
HETATM   25  O1  UNL     1       8.374  19.198  20.800  1.00  0.00    -0.206 OA
HETATM   26  O2  UNL     1       7.052  17.077  20.646  1.00  0.00    -0.206 OA
ENDBRANCH  20  23
ENDBRANCH   1  19
TORSDOF 6
ENDMDL
MODEL 5
REMARK VINA RESULT: -7.383101029      2.358      4.429
REMARK  6 active torsions:
REMARK  status: ('A' for Active; 'I' for Inactive)
REMARK    1  A    between atoms: S1_2  and  N1_5 
REMARK       I    between atoms: N1_5  and  C2_7 
REMARK    2  A    between atoms: C2_7  and  C3_9 
REMARK    3  A    between atoms: C5_16  and  N4_17 
REMARK    4  A    between atoms: C6_19  and  O5_20 
REMARK    5  A    between atoms: C6_19  and  N5_22 
REMARK    6  A    between atoms: N5_22  and  N6_24 
ROOT
HETATM    1  C3  UNL     1       4.527  21.712  20.865  1.00  0.00     0.150 A 
HETATM    2  N2  UNL     1       3.786  22.558  20.120  1.00  0.00    -0.301 N 
ATOM      3  H2  UNL     1       3.983  22.839  19.159  1.00  0.00     0.171 HD
HETATM    4  C4  UNL     1       2.759  22.960  20.854  1.00  0.00     0.326 A 
HETATM    5  O4  UNL     1       1.864  23.758  20.474  1.00  0.00    -0.247 OA
HETATM    6  N3  UNL     1       2.821  22.387  22.067  1.00  0.00    -0.292 N 
ATOM      7  H3  UNL     1       2.149  22.529  22.821  1.00  0.00     0.172 HD
HETATM    8  C5  UNL     1       3.918  21.588  22.133  1.00  0.00     0.145 A 
ENDROOT
BRANCH   8   9
HETATM    9  N4  UNL     1       4.387  20.801  23.199  1.00  0.00    -0.305 N 
HETATM   10  C6  UNL     1       3.800  20.460  24.380  1.00  0.00     0.237 C 
ATOM     11  H4  UNL     1       5.324  20.420  23.066  1.00  0.00     0.171 HD
BRANCH  10  12
HETATM   12  O5  UNL     1       4.522  19.710  25.165  1.00  0.00    -0.331 OA
ATOM     13  H5  UNL     1       4.411  19.870  26.095  1.00  0.00     0.221 HD
ENDBRANCH  10  12
BRANCH  10  14
HETATM   14  N5  UNL     1       2.552  20.784  24.889  1.00  0.00    -0.272 N 
ATOM     15  H5  UNL     1       1.944  21.446  24.407  1.00  0.00     0.190 HD
BRANCH  14  16
HETATM   16  N6  UNL     1       2.144  20.162  26.112  1.00  0.00    -0.342 N 
ATOM     17  H62 UNL     1       2.374  19.184  26.290  1.00  0.00     0.176 HD
ATOM     18  H61 UNL     1       1.626  20.725  26.786  1.00  0.00     0.176 HD
ENDBRANCH  14  16
ENDBRANCH  10  14
ENDBRANCH   8   9
BRANCH   1  19
HETATM   19  C2  UNL     1       5.728  21.061  20.405  1.00  0.00     0.285 C 
HETATM   20  N1  UNL     1       5.779  19.624  20.351  1.00  0.00    -0.249 N 
ATOM     21  H1  UNL     1       4.958  19.093  20.643  1.00  0.00     0.182 HD
HETATM   22  O3  UNL     1       6.774  21.623  20.034  1.00  0.00    -0.265 OA
BRANCH  20  23
HETATM   23  S1  UNL     1       7.175  18.762  19.812  1.00  0.00     0.229 S 
HETATM   24  C1  UNL     1       8.594  19.441  20.629  1.00  0.00     0.186 C 
HETATM   25  O1  UNL     1       6.969  17.316  20.250  1.00  0.00    -0.206 OA
HETATM   26  O2  UNL     1       7.362  18.883  18.336  1.00  0.00    -0.206 OA
ENDBRANCH  20  23
ENDBRANCH   1  19
TORSDOF 6
ENDMDL
