MODEL 1
REMARK VINA RESULT: -6.369966718      0.000      0.000
REMARK  3 active torsions:
REMARK  status: ('A' for Active; 'I' for Inactive)
REMARK       I    between atoms: C1_4  and  N2_5 
REMARK       I    between atoms: C1_4  and  N5_21 
REMARK       I    between atoms: N2_5  and  C2_7 
REMARK    1  A    between atoms: C2_7  and  C3_9 
REMARK    2  A    between atoms: C3_9  and  O2_10 
REMARK    3  A    between atoms: C3_9  and  C4_12 
ROOT
HETATM    1  N1  UNL     1      18.949  34.930  13.407  1.00  0.00    -0.234 N 
ATOM      2  H11 UNL     1      19.280  34.060  13.825  1.00  0.00     0.174 HD
ATOM      3  H12 UNL     1      18.299  34.940  12.621  1.00  0.00     0.174 HD
HETATM    4  C1  UNL     1      19.344  36.065  13.865  1.00  0.00     0.676 C 
HETATM    5  N2  UNL     1      18.893  37.250  13.295  1.00  0.00    -0.158 N 
ATOM      6  H2  UNL     1      18.246  37.158  12.511  1.00  0.00     0.187 HD
HETATM    7  C2  UNL     1      19.231  38.572  13.680  1.00  0.00     0.268 C 
HETATM    8  O1  UNL     1      20.027  38.719  14.641  1.00  0.00    -0.270 OA
HETATM    9  N5  UNL     1      20.244  36.050  14.954  1.00  0.00    -0.215 N 
HETATM   10  C7  UNL     1      21.672  36.035  14.601  1.00  0.00     0.168 C 
HETATM   11  C8  UNL     1      22.565  36.369  15.747  1.00  0.00     0.252 C 
HETATM   12  N6  UNL     1      22.100  35.719  16.976  1.00  0.00    -0.072 N 
ATOM     13  H61 UNL     1      22.786  35.726  17.730  1.00  0.00     0.277 HD
ATOM     14  H62 UNL     1      22.018  34.705  16.900  1.00  0.00     0.277 HD
HETATM   15  C9  UNL     1      20.849  36.387  17.312  1.00  0.00     0.252 C 
HETATM   16  C10 UNL     1      19.791  36.037  16.313  1.00  0.00     0.168 C 
ENDROOT
BRANCH   7  17
HETATM   17  C3  UNL     1      18.709  39.797  13.024  1.00  0.00     0.269 C 
BRANCH  17  18
HETATM   18  O2  UNL     1      18.551  39.458  11.646  1.00  0.00    -0.382 OA
ATOM     19  H2  UNL     1      18.320  40.268  11.208  1.00  0.00     0.210 HD
ENDBRANCH  17  18
BRANCH  17  20
HETATM   20  C4  UNL     1      19.768  40.864  13.056  1.00  0.00     0.420 C 
HETATM   21  N3  UNL     1      20.039  41.430  14.339  1.00  0.00    -0.042 N 
HETATM   22  C5  UNL     1      20.537  42.773  14.116  1.00  0.00     0.262 C 
ATOM     23  H32 UNL     1      19.235  41.400  14.967  1.00  0.00     0.279 HD
ATOM     24  H31 UNL     1      20.668  40.859  14.903  1.00  0.00     0.279 HD
HETATM   25  C6  UNL     1      20.399  43.006  12.651  1.00  0.00     0.262 C 
HETATM   26  N4  UNL     1      19.417  42.025  12.222  1.00  0.00    -0.042 N 
ATOM     27  H42 UNL     1      19.394  41.846  11.218  1.00  0.00     0.279 HD
ATOM     28  H41 UNL     1      18.445  42.328  12.287  1.00  0.00     0.279 HD
ENDBRANCH  17  20
ENDBRANCH   7  17
TORSDOF 3
ENDMDL
MODEL 2
REMARK VINA RESULT: -6.251969125      0.956      1.054
REMARK  3 active torsions:
REMARK  status: ('A' for Active; 'I' for Inactive)
REMARK       I    between atoms: C1_4  and  N2_5 
REMARK       I    between atoms: C1_4  and  N5_21 
REMARK       I    between atoms: N2_5  and  C2_7 
REMARK    1  A    between atoms: C2_7  and  C3_9 
REMARK    2  A    between atoms: C3_9  and  O2_10 
REMARK    3  A    between atoms: C3_9  and  C4_12 
ROOT
HETATM    1  N1  UNL     1      18.369  35.436  15.721  1.00  0.00    -0.234 N 
ATOM      2  H11 UNL     1      18.756  34.700  16.312  1.00  0.00     0.174 HD
ATOM      3  H12 UNL     1      17.395  35.434  15.419  1.00  0.00     0.174 HD
HETATM    4  C1  UNL     1      19.109  36.414  15.331  1.00  0.00     0.676 C 
HETATM    5  N2  UNL     1      18.582  37.418  14.526  1.00  0.00    -0.158 N 
ATOM      6  H2  UNL     1      17.598  37.326  14.274  1.00  0.00     0.187 HD
HETATM    7  C2  UNL     1      19.260  38.554  14.016  1.00  0.00     0.268 C 
HETATM    8  O1  UNL     1      20.475  38.694  14.306  1.00  0.00    -0.270 OA
HETATM    9  N5  UNL     1      20.458  36.417  15.750  1.00  0.00    -0.215 N 
HETATM   10  C7  UNL     1      21.406  35.737  14.854  1.00  0.00     0.168 C 
HETATM   11  C8  UNL     1      22.831  36.062  15.148  1.00  0.00     0.252 C 
HETATM   12  N6  UNL     1      23.070  36.090  16.594  1.00  0.00    -0.072 N 
ATOM     13  H61 UNL     1      24.058  36.083  16.848  1.00  0.00     0.277 HD
ATOM     14  H62 UNL     1      22.820  35.224  17.070  1.00  0.00     0.277 HD
HETATM   15  C9  UNL     1      22.346  37.259  17.079  1.00  0.00     0.252 C 
HETATM   16  C10 UNL     1      20.871  37.033  16.976  1.00  0.00     0.168 C 
ENDROOT
BRANCH   7  17
HETATM   17  C3  UNL     1      18.633  39.591  13.159  1.00  0.00     0.269 C 
BRANCH  17  18
HETATM   18  O2  UNL     1      18.466  38.982  11.878  1.00  0.00    -0.382 OA
ATOM     19  H2  UNL     1      18.827  39.599  11.253  1.00  0.00     0.210 HD
ENDBRANCH  17  18
BRANCH  17  20
HETATM   20  C4  UNL     1      19.610  40.713  12.946  1.00  0.00     0.420 C 
HETATM   21  N3  UNL     1      19.993  41.433  14.118  1.00  0.00    -0.042 N 
HETATM   22  C5  UNL     1      20.365  42.769  13.696  1.00  0.00     0.262 C 
ATOM     23  H32 UNL     1      19.275  41.428  14.843  1.00  0.00     0.279 HD
ATOM     24  H31 UNL     1      20.724  40.966  14.655  1.00  0.00     0.279 HD
HETATM   25  C6  UNL     1      20.037  42.830  12.244  1.00  0.00     0.262 C 
HETATM   26  N4  UNL     1      19.082  41.752  12.047  1.00  0.00    -0.042 N 
ATOM     27  H42 UNL     1      18.951  41.461  11.079  1.00  0.00     0.279 HD
ATOM     28  H41 UNL     1      18.106  42.005  12.203  1.00  0.00     0.279 HD
ENDBRANCH  17  20
ENDBRANCH   7  17
TORSDOF 3
ENDMDL
MODEL 3
REMARK VINA RESULT: -5.384483061      3.315      5.789
REMARK  3 active torsions:
REMARK  status: ('A' for Active; 'I' for Inactive)
REMARK       I    between atoms: C1_4  and  N2_5 
REMARK       I    between atoms: C1_4  and  N5_21 
REMARK       I    between atoms: N2_5  and  C2_7 
REMARK    1  A    between atoms: C2_7  and  C3_9 
REMARK    2  A    between atoms: C3_9  and  O2_10 
REMARK    3  A    between atoms: C3_9  and  C4_12 
ROOT
HETATM    1  N1  UNL     1      25.113  34.929  17.692  1.00  0.00    -0.234 N 
ATOM      2  H11 UNL     1      26.121  34.791  17.759  1.00  0.00     0.174 HD
ATOM      3  H12 UNL     1      24.447  34.195  17.935  1.00  0.00     0.174 HD
HETATM    4  C1  UNL     1      24.635  36.055  17.293  1.00  0.00     0.676 C 
HETATM    5  N2  UNL     1      23.260  36.243  17.202  1.00  0.00    -0.158 N 
ATOM      6  H2  UNL     1      22.676  35.449  17.464  1.00  0.00     0.187 HD
HETATM    7  C2  UNL     1      22.580  37.415  16.784  1.00  0.00     0.268 C 
HETATM    8  O1  UNL     1      23.272  38.411  16.451  1.00  0.00    -0.270 OA
HETATM    9  N5  UNL     1      25.556  37.072  16.957  1.00  0.00    -0.215 N 
HETATM   10  C7  UNL     1      25.990  37.101  15.552  1.00  0.00     0.168 C 
HETATM   11  C8  UNL     1      26.670  38.372  15.172  1.00  0.00     0.252 C 
HETATM   12  N6  UNL     1      27.577  38.815  16.236  1.00  0.00    -0.072 N 
ATOM     13  H61 UNL     1      28.229  39.543  15.944  1.00  0.00     0.277 HD
ATOM     14  H62 UNL     1      28.281  38.122  16.492  1.00  0.00     0.277 HD
HETATM   15  C9  UNL     1      26.710  39.208  17.339  1.00  0.00     0.252 C 
HETATM   16  C10 UNL     1      26.046  38.004  17.930  1.00  0.00     0.168 C 
ENDROOT
BRANCH   7  17
HETATM   17  C3  UNL     1      21.103  37.547  16.710  1.00  0.00     0.269 C 
BRANCH  17  18
HETATM   18  O2  UNL     1      20.584  36.549  17.590  1.00  0.00    -0.382 OA
ATOM     19  H2  UNL     1      21.232  36.451  18.278  1.00  0.00     0.210 HD
ENDBRANCH  17  18
BRANCH  17  20
HETATM   20  C4  UNL     1      20.640  37.150  15.336  1.00  0.00     0.420 C 
HETATM   21  N3  UNL     1      19.911  38.143  14.616  1.00  0.00    -0.042 N 
HETATM   22  C5  UNL     1      19.041  37.446  13.689  1.00  0.00     0.262 C 
ATOM     23  H32 UNL     1      19.411  38.791  15.225  1.00  0.00     0.279 HD
ATOM     24  H31 UNL     1      20.513  38.830  14.160  1.00  0.00     0.279 HD
HETATM   25  C6  UNL     1      19.196  36.001  14.014  1.00  0.00     0.262 C 
HETATM   26  N4  UNL     1      19.731  35.992  15.365  1.00  0.00    -0.042 N 
ATOM     27  H42 UNL     1      20.157  35.113  15.656  1.00  0.00     0.279 HD
ATOM     28  H41 UNL     1      19.032  36.009  16.108  1.00  0.00     0.279 HD
ENDBRANCH  17  20
ENDBRANCH   7  17
TORSDOF 3
ENDMDL
MODEL 4
REMARK VINA RESULT: -5.200657879      3.134      4.978
REMARK  3 active torsions:
REMARK  status: ('A' for Active; 'I' for Inactive)
REMARK       I    between atoms: C1_4  and  N2_5 
REMARK       I    between atoms: C1_4  and  N5_21 
REMARK       I    between atoms: N2_5  and  C2_7 
REMARK    1  A    between atoms: C2_7  and  C3_9 
REMARK    2  A    between atoms: C3_9  and  O2_10 
REMARK    3  A    between atoms: C3_9  and  C4_12 
ROOT
HETATM    1  N1  UNL     1      21.059  38.854  15.721  1.00  0.00    -0.234 N 
ATOM      2  H11 UNL     1      21.744  39.134  16.423  1.00  0.00     0.174 HD
ATOM      3  H12 UNL     1      20.487  39.532  15.219  1.00  0.00     0.174 HD
HETATM    4  C1  UNL     1      20.892  37.610  15.435  1.00  0.00     0.676 C 
HETATM    5  N2  UNL     1      19.959  37.228  14.478  1.00  0.00    -0.158 N 
ATOM      6  H2  UNL     1      19.432  37.979  14.033  1.00  0.00     0.187 HD
HETATM    7  C2  UNL     1      19.657  35.909  14.052  1.00  0.00     0.268 C 
HETATM    8  O1  UNL     1      20.287  34.960  14.584  1.00  0.00    -0.270 OA
HETATM    9  N5  UNL     1      21.685  36.670  16.130  1.00  0.00    -0.215 N 
HETATM   10  C7  UNL     1      21.110  36.150  17.380  1.00  0.00     0.168 C 
HETATM   11  C8  UNL     1      21.802  34.929  17.884  1.00  0.00     0.252 C 
HETATM   12  N6  UNL     1      23.255  35.057  17.734  1.00  0.00    -0.072 N 
ATOM     13  H61 UNL     1      23.785  34.362  18.260  1.00  0.00     0.277 HD
ATOM     14  H62 UNL     1      23.646  35.878  18.196  1.00  0.00     0.277 HD
HETATM   15  C9  UNL     1      23.497  35.019  16.298  1.00  0.00     0.252 C 
HETATM   16  C10 UNL     1      22.972  36.261  15.651  1.00  0.00     0.168 C 
ENDROOT
BRANCH   7  17
HETATM   17  C3  UNL     1      18.645  35.572  13.020  1.00  0.00     0.269 C 
BRANCH  17  18
HETATM   18  O2  UNL     1      18.248  36.819  12.449  1.00  0.00    -0.382 OA
ATOM     19  H2  UNL     1      19.055  37.282  12.257  1.00  0.00     0.210 HD
ENDBRANCH  17  18
BRANCH  17  20
HETATM   20  C4  UNL     1      17.415  35.029  13.694  1.00  0.00     0.420 C 
HETATM   21  N3  UNL     1      16.177  35.609  13.284  1.00  0.00    -0.042 N 
HETATM   22  C5  UNL     1      15.256  35.478  14.396  1.00  0.00     0.262 C 
ATOM     23  H32 UNL     1      16.274  36.570  12.956  1.00  0.00     0.279 HD
ATOM     24  H31 UNL     1      15.816  35.211  12.417  1.00  0.00     0.279 HD
HETATM   25  C6  UNL     1      16.067  34.929  15.518  1.00  0.00     0.262 C 
HETATM   26  N4  UNL     1      17.439  35.236  15.152  1.00  0.00    -0.042 N 
ATOM     27  H42 UNL     1      18.150  34.704  15.653  1.00  0.00     0.279 HD
ATOM     28  H41 UNL     1      17.774  36.151  15.454  1.00  0.00     0.279 HD
ENDBRANCH  17  20
ENDBRANCH   7  17
TORSDOF 3
ENDMDL
MODEL 5
REMARK VINA RESULT: -4.881631487      2.810      5.660
REMARK  3 active torsions:
REMARK  status: ('A' for Active; 'I' for Inactive)
REMARK       I    between atoms: C1_4  and  N2_5 
REMARK       I    between atoms: C1_4  and  N5_21 
REMARK       I    between atoms: N2_5  and  C2_7 
REMARK    1  A    between atoms: C2_7  and  C3_9 
REMARK    2  A    between atoms: C3_9  and  O2_10 
REMARK    3  A    between atoms: C3_9  and  C4_12 
ROOT
HETATM    1  N1  UNL     1      19.015  39.309  13.771  1.00  0.00    -0.234 N 
ATOM      2  H11 UNL     1      18.215  39.355  13.139  1.00  0.00     0.174 HD
ATOM      3  H12 UNL     1      19.570  40.132  14.006  1.00  0.00     0.174 HD
HETATM    4  C1  UNL     1      19.358  38.190  14.306  1.00  0.00     0.676 C 
HETATM    5  N2  UNL     1      20.448  38.126  15.166  1.00  0.00    -0.158 N 
ATOM      6  H2  UNL     1      20.942  39.003  15.338  1.00  0.00     0.187 HD
HETATM    7  C2  UNL     1      20.951  36.980  15.832  1.00  0.00     0.268 C 
HETATM    8  O1  UNL     1      20.367  35.884  15.640  1.00  0.00    -0.270 OA
HETATM    9  N5  UNL     1      18.590  37.049  13.980  1.00  0.00    -0.215 N 
HETATM   10  C7  UNL     1      19.047  36.285  12.810  1.00  0.00     0.168 C 
HETATM   11  C8  UNL     1      18.436  34.929  12.717  1.00  0.00     0.252 C 
HETATM   12  N6  UNL     1      17.010  34.977  13.059  1.00  0.00    -0.072 N 
ATOM     13  H61 UNL     1      16.496  34.136  12.798  1.00  0.00     0.277 HD
ATOM     14  H62 UNL     1      16.471  35.627  12.488  1.00  0.00     0.277 HD
HETATM   15  C9  UNL     1      16.970  35.273  14.486  1.00  0.00     0.252 C 
HETATM   16  C10 UNL     1      17.433  36.673  14.737  1.00  0.00     0.168 C 
ENDROOT
BRANCH   7  17
HETATM   17  C3  UNL     1      22.124  36.985  16.742  1.00  0.00     0.269 C 
BRANCH  17  18
HETATM   18  O2  UNL     1      22.501  38.356  16.877  1.00  0.00    -0.382 OA
ATOM     19  H2  UNL     1      22.645  38.491  17.806  1.00  0.00     0.210 HD
ENDBRANCH  17  18
BRANCH  17  20
HETATM   20  C4  UNL     1      23.283  36.316  16.056  1.00  0.00     0.420 C 
HETATM   21  N3  UNL     1      23.767  35.125  16.676  1.00  0.00    -0.042 N 
HETATM   22  C5  UNL     1      25.166  34.996  16.319  1.00  0.00     0.262 C 
ATOM     23  H32 UNL     1      23.608  35.106  17.684  1.00  0.00     0.279 HD
ATOM     24  H31 UNL     1      23.217  34.299  16.441  1.00  0.00     0.279 HD
HETATM   25  C6  UNL     1      25.503  36.248  15.585  1.00  0.00     0.262 C 
HETATM   26  N4  UNL     1      24.468  37.187  15.984  1.00  0.00    -0.042 N 
ATOM     27  H42 UNL     1      24.370  38.004  15.382  1.00  0.00     0.279 HD
ATOM     28  H41 UNL     1      24.669  37.717  16.832  1.00  0.00     0.279 HD
ENDBRANCH  17  20
ENDBRANCH   7  17
TORSDOF 3
ENDMDL
