MODEL 1
REMARK VINA RESULT: -7.126824693      0.000      0.000
REMARK  5 active torsions:
REMARK  status: ('A' for Active; 'I' for Inactive)
REMARK    1  A    between atoms: C2_2  and  N2_6 
REMARK       I    between atoms: N2_6  and  C3_8 
REMARK       I    between atoms: C3_8  and  N5_17 
REMARK    2  A    between atoms: N3_9  and  S1_11 
REMARK    3  A    between atoms: S1_11  and  N4_12 
REMARK    4  A    between atoms: N5_17  and  N6_19 
REMARK    5  A    between atoms: N6_19  and  C4_21 
ROOT
HETATM    1  N2  UNL     1      20.694  45.045  13.014  1.00  0.00    -0.179 N 
ATOM      2  H2  UNL     1      20.218  45.254  13.891  1.00  0.00     0.185 HD
HETATM    3  C3  UNL     1      21.732  45.862  12.557  1.00  0.00     0.709 C 
HETATM    4  N3  UNL     1      22.671  46.337  13.302  1.00  0.00    -0.098 N 
ATOM      5  H3  UNL     1      23.386  46.925  12.873  1.00  0.00     0.199 HD
HETATM    6  N5  UNL     1      21.764  46.197  11.175  1.00  0.00    -0.129 N 
ATOM      7  H5  UNL     1      22.171  45.565  10.486  1.00  0.00     0.205 HD
ENDROOT
BRANCH   1   8
HETATM    8  C2  UNL     1      20.313  43.923  12.237  1.00  0.00     0.087 C 
HETATM    9  C1  UNL     1      20.021  42.590  12.864  1.00  0.00     0.089 C 
HETATM   10  N1  UNL     1      20.195  43.982  10.940  1.00  0.00    -0.389 N 
ATOM     11  H12 UNL     1      19.920  43.174  10.381  1.00  0.00     0.157 HD
ATOM     12  H11 UNL     1      20.393  44.888  10.514  1.00  0.00     0.157 HD
ENDBRANCH   1   8
BRANCH   4  13
HETATM   13  S1  UNL     1      22.768  46.022  14.987  1.00  0.00     0.330 S 
HETATM   14  O1  UNL     1      22.199  47.187  15.774  1.00  0.00    -0.182 OA
HETATM   15  O2  UNL     1      22.087  44.741  15.302  1.00  0.00    -0.182 OA
BRANCH  13  16
HETATM   16  N4  UNL     1      24.463  45.960  15.397  1.00  0.00    -0.311 N 
ATOM     17  H42 UNL     1      24.995  45.116  15.606  1.00  0.00     0.170 HD
ATOM     18  H41 UNL     1      24.807  46.920  15.386  1.00  0.00     0.170 HD
ENDBRANCH  13  16
ENDBRANCH   4  13
BRANCH   6  19
HETATM   19  N6  UNL     1      21.219  47.419  10.801  1.00  0.00    -0.257 N 
ATOM     20  H6  UNL     1      21.654  48.295  11.094  1.00  0.00     0.190 HD
BRANCH  19  21
HETATM   21  C4  UNL     1      20.036  47.426   9.996  1.00  0.00     0.190 C 
HETATM   22  N7  UNL     1      18.982  48.102  10.219  1.00  0.00    -0.360 N 
HETATM   23  C5  UNL     1      18.022  47.837   9.186  1.00  0.00     0.142 C 
ATOM     24  H7  UNL     1      18.841  48.732  11.008  1.00  0.00     0.162 HD
HETATM   25  C6  UNL     1      18.514  46.582   8.507  1.00  0.00     0.142 C 
HETATM   26  N8  UNL     1      19.940  46.640   8.825  1.00  0.00    -0.360 N 
ATOM     27  H8  UNL     1      20.704  46.204   8.310  1.00  0.00     0.162 HD
ENDBRANCH  19  21
ENDBRANCH   6  19
TORSDOF 5
ENDMDL
MODEL 2
REMARK VINA RESULT: -6.968629138      6.944      8.649
REMARK  5 active torsions:
REMARK  status: ('A' for Active; 'I' for Inactive)
REMARK    1  A    between atoms: C2_2  and  N2_6 
REMARK       I    between atoms: N2_6  and  C3_8 
REMARK       I    between atoms: C3_8  and  N5_17 
REMARK    2  A    between atoms: N3_9  and  S1_11 
REMARK    3  A    between atoms: S1_11  and  N4_12 
REMARK    4  A    between atoms: N5_17  and  N6_19 
REMARK    5  A    between atoms: N6_19  and  C4_21 
ROOT
HETATM    1  N2  UNL     1      18.673  36.249  14.649  1.00  0.00    -0.179 N 
ATOM      2  H2  UNL     1      18.442  35.988  15.607  1.00  0.00     0.185 HD
HETATM    3  C3  UNL     1      19.575  37.284  14.392  1.00  0.00     0.709 C 
HETATM    4  N3  UNL     1      20.683  37.464  15.027  1.00  0.00    -0.098 N 
ATOM      5  H3  UNL     1      21.275  38.252  14.763  1.00  0.00     0.199 HD
HETATM    6  N5  UNL     1      19.258  38.210  13.359  1.00  0.00    -0.129 N 
ATOM      7  H5  UNL     1      19.461  38.003  12.381  1.00  0.00     0.205 HD
ENDROOT
BRANCH   1   8
HETATM    8  C2  UNL     1      18.083  35.568  13.555  1.00  0.00     0.087 C 
HETATM    9  C1  UNL     1      16.593  35.444  13.412  1.00  0.00     0.089 C 
HETATM   10  N1  UNL     1      18.794  35.011  12.616  1.00  0.00    -0.389 N 
ATOM     11  H12 UNL     1      18.370  34.521  11.828  1.00  0.00     0.157 HD
ATOM     12  H11 UNL     1      19.806  35.096  12.713  1.00  0.00     0.157 HD
ENDBRANCH   1   8
BRANCH   4  13
HETATM   13  S1  UNL     1      21.203  36.432  16.296  1.00  0.00     0.330 S 
HETATM   14  O1  UNL     1      20.345  36.641  17.529  1.00  0.00    -0.182 OA
HETATM   15  O2  UNL     1      21.196  35.021  15.836  1.00  0.00    -0.182 OA
BRANCH  13  16
HETATM   16  N4  UNL     1      22.807  36.947  16.747  1.00  0.00    -0.311 N 
ATOM     17  H42 UNL     1      23.658  36.789  16.207  1.00  0.00     0.170 HD
ATOM     18  H41 UNL     1      22.725  37.429  17.642  1.00  0.00     0.170 HD
ENDBRANCH  13  16
ENDBRANCH   4  13
BRANCH   6  19
HETATM   19  N6  UNL     1      18.660  39.407  13.735  1.00  0.00    -0.257 N 
ATOM     20  H6  UNL     1      17.771  39.410  14.236  1.00  0.00     0.190 HD
BRANCH  19  21
HETATM   21  C4  UNL     1      19.315  40.635  13.404  1.00  0.00     0.190 C 
HETATM   22  N7  UNL     1      20.006  41.352  14.195  1.00  0.00    -0.360 N 
HETATM   23  C5  UNL     1      20.495  42.501  13.489  1.00  0.00     0.142 C 
ATOM     24  H7  UNL     1      20.184  41.143  15.178  1.00  0.00     0.162 HD
HETATM   25  C6  UNL     1      19.659  42.574  12.235  1.00  0.00     0.142 C 
HETATM   26  N8  UNL     1      19.243  41.179  12.102  1.00  0.00    -0.360 N 
ATOM     27  H8  UNL     1      18.960  40.698  11.248  1.00  0.00     0.162 HD
ENDBRANCH  19  21
ENDBRANCH   6  19
TORSDOF 5
ENDMDL
MODEL 3
REMARK VINA RESULT: -6.921205278      3.676      6.031
REMARK  5 active torsions:
REMARK  status: ('A' for Active; 'I' for Inactive)
REMARK    1  A    between atoms: C2_2  and  N2_6 
REMARK       I    between atoms: N2_6  and  C3_8 
REMARK       I    between atoms: C3_8  and  N5_17 
REMARK    2  A    between atoms: N3_9  and  S1_11 
REMARK    3  A    between atoms: S1_11  and  N4_12 
REMARK    4  A    between atoms: N5_17  and  N6_19 
REMARK    5  A    between atoms: N6_19  and  C4_21 
ROOT
HETATM    1  N2  UNL     1      20.160  46.279  11.599  1.00  0.00    -0.179 N 
ATOM      2  H2  UNL     1      19.513  47.018  11.871  1.00  0.00     0.185 HD
HETATM    3  C3  UNL     1      19.812  45.361  10.604  1.00  0.00     0.709 C 
HETATM    4  N3  UNL     1      19.224  45.667   9.499  1.00  0.00    -0.098 N 
ATOM      5  H3  UNL     1      19.013  44.922   8.834  1.00  0.00     0.199 HD
HETATM    6  N5  UNL     1      20.124  43.989  10.818  1.00  0.00    -0.129 N 
ATOM      7  H5  UNL     1      21.052  43.619  10.613  1.00  0.00     0.205 HD
ENDROOT
BRANCH   1   8
HETATM    8  C2  UNL     1      21.427  46.164  12.223  1.00  0.00     0.087 C 
HETATM    9  C1  UNL     1      21.587  45.533  13.576  1.00  0.00     0.089 C 
HETATM   10  N1  UNL     1      22.521  46.599  11.663  1.00  0.00    -0.389 N 
ATOM     11  H12 UNL     1      23.433  46.516  12.113  1.00  0.00     0.157 HD
ATOM     12  H11 UNL     1      22.412  47.027  10.744  1.00  0.00     0.157 HD
ENDBRANCH   1   8
BRANCH   4  13
HETATM   13  S1  UNL     1      18.785  47.278   9.097  1.00  0.00     0.330 S 
HETATM   14  O1  UNL     1      18.229  47.335   7.687  1.00  0.00    -0.182 OA
HETATM   15  O2  UNL     1      17.830  47.806  10.102  1.00  0.00    -0.182 OA
BRANCH  13  16
HETATM   16  N4  UNL     1      20.256  48.214   9.061  1.00  0.00    -0.311 N 
ATOM     17  H42 UNL     1      21.200  47.838   8.966  1.00  0.00     0.170 HD
ATOM     18  H41 UNL     1      19.988  49.193   9.152  1.00  0.00     0.170 HD
ENDBRANCH  13  16
ENDBRANCH   4  13
BRANCH   6  19
HETATM   19  N6  UNL     1      19.116  43.174  11.317  1.00  0.00    -0.257 N 
ATOM     20  H6  UNL     1      18.148  43.301  11.019  1.00  0.00     0.190 HD
BRANCH  19  21
HETATM   21  C4  UNL     1      19.461  42.152  12.257  1.00  0.00     0.190 C 
HETATM   22  N7  UNL     1      19.035  40.954  12.252  1.00  0.00    -0.360 N 
HETATM   23  C5  UNL     1      19.611  40.240  13.355  1.00  0.00     0.142 C 
ATOM     24  H7  UNL     1      18.385  40.562  11.570  1.00  0.00     0.162 HD
HETATM   25  C6  UNL     1      20.154  41.310  14.271  1.00  0.00     0.142 C 
HETATM   26  N8  UNL     1      20.351  42.406  13.325  1.00  0.00    -0.360 N 
ATOM     27  H8  UNL     1      20.997  43.191  13.416  1.00  0.00     0.162 HD
ENDBRANCH  19  21
ENDBRANCH   6  19
TORSDOF 5
ENDMDL
MODEL 4
REMARK VINA RESULT: -6.864051141      3.713      6.174
REMARK  5 active torsions:
REMARK  status: ('A' for Active; 'I' for Inactive)
REMARK    1  A    between atoms: C2_2  and  N2_6 
REMARK       I    between atoms: N2_6  and  C3_8 
REMARK       I    between atoms: C3_8  and  N5_17 
REMARK    2  A    between atoms: N3_9  and  S1_11 
REMARK    3  A    between atoms: S1_11  and  N4_12 
REMARK    4  A    between atoms: N5_17  and  N6_19 
REMARK    5  A    between atoms: N6_19  and  C4_21 
ROOT
HETATM    1  N2  UNL     1      20.128  46.286  11.458  1.00  0.00    -0.179 N 
ATOM      2  H2  UNL     1      19.485  47.056  11.644  1.00  0.00     0.185 HD
HETATM    3  C3  UNL     1      19.781  45.274  10.560  1.00  0.00     0.709 C 
HETATM    4  N3  UNL     1      19.208  45.469   9.421  1.00  0.00    -0.098 N 
ATOM      5  H3  UNL     1      18.995  44.661   8.835  1.00  0.00     0.199 HD
HETATM    6  N5  UNL     1      20.077  43.929  10.918  1.00  0.00    -0.129 N 
ATOM      7  H5  UNL     1      21.004  43.532  10.763  1.00  0.00     0.205 HD
ENDROOT
BRANCH   1   8
HETATM    8  C2  UNL     1      21.386  46.226  12.105  1.00  0.00     0.087 C 
HETATM    9  C1  UNL     1      21.578  45.481  13.394  1.00  0.00     0.089 C 
HETATM   10  N1  UNL     1      22.446  46.812  11.622  1.00  0.00    -0.389 N 
ATOM     11  H12 UNL     1      23.353  46.769  12.088  1.00  0.00     0.157 HD
ATOM     12  H11 UNL     1      22.316  47.319  10.746  1.00  0.00     0.157 HD
ENDBRANCH   1   8
BRANCH   4  13
HETATM   13  S1  UNL     1      18.788  47.033   8.850  1.00  0.00     0.330 S 
HETATM   14  O1  UNL     1      19.855  48.039   9.238  1.00  0.00    -0.182 OA
HETATM   15  O2  UNL     1      18.557  46.991   7.385  1.00  0.00    -0.182 OA
BRANCH  13  16
HETATM   16  N4  UNL     1      17.349  47.519   9.708  1.00  0.00    -0.311 N 
ATOM     17  H42 UNL     1      17.182  47.400  10.708  1.00  0.00     0.170 HD
ATOM     18  H41 UNL     1      16.720  47.937   9.023  1.00  0.00     0.170 HD
ENDBRANCH  13  16
ENDBRANCH   4  13
BRANCH   6  19
HETATM   19  N6  UNL     1      19.056  43.178  11.487  1.00  0.00    -0.257 N 
ATOM     20  H6  UNL     1      18.078  43.408  11.306  1.00  0.00     0.190 HD
BRANCH  19  21
HETATM   21  C4  UNL     1      19.402  42.077  12.332  1.00  0.00     0.190 C 
HETATM   22  N7  UNL     1      18.964  40.887  12.228  1.00  0.00    -0.360 N 
HETATM   23  C5  UNL     1      19.547  40.076  13.259  1.00  0.00     0.142 C 
ATOM     24  H7  UNL     1      18.304  40.561  11.523  1.00  0.00     0.162 HD
HETATM   25  C6  UNL     1      20.110  41.059  14.257  1.00  0.00     0.142 C 
HETATM   26  N8  UNL     1      20.307  42.231  13.406  1.00  0.00    -0.360 N 
ATOM     27  H8  UNL     1      20.960  42.999  13.557  1.00  0.00     0.162 HD
ENDBRANCH  19  21
ENDBRANCH   6  19
TORSDOF 5
ENDMDL
MODEL 5
REMARK VINA RESULT: -6.592047366      2.613      5.425
REMARK  5 active torsions:
REMARK  status: ('A' for Active; 'I' for Inactive)
REMARK    1  A    between atoms: C2_2  and  N2_6 
REMARK       I    between atoms: N2_6  and  C3_8 
REMARK       I    between atoms: C3_8  and  N5_17 
REMARK    2  A    between atoms: N3_9  and  S1_11 
REMARK    3  A    between atoms: S1_11  and  N4_12 
REMARK    4  A    between atoms: N5_17  and  N6_19 
REMARK    5  A    between atoms: N6_19  and  C4_21 
ROOT
HETATM    1  N2  UNL     1      19.543  45.458   9.951  1.00  0.00    -0.179 N 
ATOM      2  H2  UNL     1      20.414  45.694   9.475  1.00  0.00     0.185 HD
HETATM    3  C3  UNL     1      19.564  44.785  11.175  1.00  0.00     0.709 C 
HETATM    4  N3  UNL     1      20.373  45.049  12.143  1.00  0.00    -0.098 N 
ATOM      5  H3  UNL     1      20.308  44.499  13.000  1.00  0.00     0.199 HD
HETATM    6  N5  UNL     1      18.628  43.732  11.377  1.00  0.00    -0.129 N 
ATOM      7  H5  UNL     1      17.672  43.923  11.678  1.00  0.00     0.205 HD
ENDROOT
BRANCH   1   8
HETATM    8  C2  UNL     1      18.294  45.808   9.382  1.00  0.00     0.087 C 
HETATM    9  C1  UNL     1      17.761  47.211   9.447  1.00  0.00     0.089 C 
HETATM   10  N1  UNL     1      17.538  44.938   8.774  1.00  0.00    -0.389 N 
ATOM     11  H12 UNL     1      16.638  45.190   8.363  1.00  0.00     0.157 HD
ATOM     12  H11 UNL     1      17.900  43.985   8.730  1.00  0.00     0.157 HD
ENDBRANCH   1   8
BRANCH   4  13
HETATM   13  S1  UNL     1      21.556  46.290  12.051  1.00  0.00     0.330 S 
HETATM   14  O1  UNL     1      22.532  46.003  10.925  1.00  0.00    -0.182 OA
HETATM   15  O2  UNL     1      20.894  47.610  11.901  1.00  0.00    -0.182 OA
BRANCH  13  16
HETATM   16  N4  UNL     1      22.495  46.210  13.519  1.00  0.00    -0.311 N 
ATOM     17  H42 UNL     1      22.827  45.356  13.968  1.00  0.00     0.170 HD
ATOM     18  H41 UNL     1      22.640  47.169  13.833  1.00  0.00     0.170 HD
ENDBRANCH  13  16
ENDBRANCH   4  13
BRANCH   6  19
HETATM   19  N6  UNL     1      19.067  42.433  11.148  1.00  0.00    -0.257 N 
ATOM     20  H6  UNL     1      19.228  42.098  10.198  1.00  0.00     0.190 HD
BRANCH  19  21
HETATM   21  C4  UNL     1      19.290  41.576  12.272  1.00  0.00     0.190 C 
HETATM   22  N7  UNL     1      20.066  41.812  13.252  1.00  0.00    -0.360 N 
HETATM   23  C5  UNL     1      20.014  40.713  14.173  1.00  0.00     0.142 C 
ATOM     24  H7  UNL     1      20.635  42.651  13.365  1.00  0.00     0.162 HD
HETATM   25  C6  UNL     1      19.379  39.584  13.398  1.00  0.00     0.142 C 
HETATM   26  N8  UNL     1      18.631  40.332  12.389  1.00  0.00    -0.360 N 
ATOM     27  H8  UNL     1      17.807  40.020  11.876  1.00  0.00     0.162 HD
ENDBRANCH  19  21
ENDBRANCH   6  19
TORSDOF 5
ENDMDL
