MODEL 1
REMARK VINA RESULT: -5.461676449      0.000      0.000
REMARK  0 active torsions:
REMARK  status: ('A' for Active; 'I' for Inactive)
ROOT
HETATM    1  C1  UNL     1       5.025  10.741   0.792  1.00  0.00     0.012 C 
HETATM    2  C2  UNL     1       3.894  10.318   0.787  1.00  0.00    -0.113 C 
HETATM    3  C3  UNL     1       2.511   9.785   0.790  1.00  0.00     0.064 C 
HETATM    4  C4  UNL     1       2.476   8.263   0.890  1.00  0.00     0.017 C 
HETATM    5  C5  UNL     1       1.364   8.412   1.886  1.00  0.00     0.002 C 
HETATM    6  C6  UNL     1       1.848   9.826   2.146  1.00  0.00     0.017 C 
ENDROOT
TORSDOF 0
ENDMDL
MODEL 2
REMARK VINA RESULT: -4.983143918      0.684      1.383
REMARK  0 active torsions:
REMARK  status: ('A' for Active; 'I' for Inactive)
ROOT
HETATM    1  C1  UNL     1       4.972  11.138   0.213  1.00  0.00     0.012 C 
HETATM    2  C2  UNL     1       4.279  10.307   0.748  1.00  0.00    -0.113 C 
HETATM    3  C3  UNL     1       3.413   9.297   1.401  1.00  0.00     0.064 C 
HETATM    4  C4  UNL     1       2.138   9.908   1.973  1.00  0.00     0.017 C 
HETATM    5  C5  UNL     1       1.391   8.737   1.408  1.00  0.00     0.002 C 
HETATM    6  C6  UNL     1       2.538   8.533   0.437  1.00  0.00     0.017 C 
ENDROOT
TORSDOF 0
ENDMDL
MODEL 3
REMARK VINA RESULT: -4.893086484      1.223      1.386
REMARK  0 active torsions:
REMARK  status: ('A' for Active; 'I' for Inactive)
ROOT
HETATM    1  C1  UNL     1       5.033   8.416   0.254  1.00  0.00     0.012 C 
HETATM    2  C2  UNL     1       3.944   8.897   0.453  1.00  0.00    -0.113 C 
HETATM    3  C3  UNL     1       2.605   9.477   0.712  1.00  0.00     0.064 C 
HETATM    4  C4  UNL     1       1.687   8.510   1.453  1.00  0.00     0.017 C 
HETATM    5  C5  UNL     1       1.262   9.663   2.314  1.00  0.00     0.002 C 
HETATM    6  C6  UNL     1       2.553  10.362   1.934  1.00  0.00     0.017 C 
ENDROOT
TORSDOF 0
ENDMDL
MODEL 4
REMARK VINA RESULT: -4.804465602      1.069      1.989
REMARK  0 active torsions:
REMARK  status: ('A' for Active; 'I' for Inactive)
ROOT
HETATM    1  C1  UNL     1       5.420  11.803  -0.381  1.00  0.00     0.012 C 
HETATM    2  C2  UNL     1       4.900  10.921   0.258  1.00  0.00    -0.113 C 
HETATM    3  C3  UNL     1       4.246   9.839   1.032  1.00  0.00     0.064 C 
HETATM    4  C4  UNL     1       2.724   9.912   0.961  1.00  0.00     0.017 C 
HETATM    5  C5  UNL     1       2.720   8.425   0.765  1.00  0.00     0.002 C 
HETATM    6  C6  UNL     1       4.155   8.529   0.286  1.00  0.00     0.017 C 
ENDROOT
TORSDOF 0
ENDMDL
MODEL 5
REMARK VINA RESULT: -4.804148846      0.815      3.279
REMARK  0 active torsions:
REMARK  status: ('A' for Active; 'I' for Inactive)
ROOT
HETATM    1  C1  UNL     1       1.312   8.369   1.965  1.00  0.00     0.012 C 
HETATM    2  C2  UNL     1       2.090   9.107   1.412  1.00  0.00    -0.113 C 
HETATM    3  C3  UNL     1       3.057  10.013   0.747  1.00  0.00     0.064 C 
HETATM    4  C4  UNL     1       3.839  10.860   1.746  1.00  0.00     0.017 C 
HETATM    5  C5  UNL     1       5.071  10.568   0.941  1.00  0.00     0.002 C 
HETATM    6  C6  UNL     1       4.363   9.347   0.386  1.00  0.00     0.017 C 
ENDROOT
TORSDOF 0
ENDMDL
