MODEL 1
REMARK VINA RESULT: -4.612763286      0.000      0.000
REMARK  1 active torsions:
REMARK  status: ('A' for Active; 'I' for Inactive)
REMARK    1  A    between atoms: N1_1  and  C1_5 
ROOT
HETATM    1  C1  UNL     1       2.212   7.808   2.018  1.00  0.00     0.188 C 
HETATM    2  C2  UNL     1       3.224   7.124   1.087  1.00  0.00     0.039 C 
HETATM    3  C3  UNL     1       3.717   8.253   0.224  1.00  0.00     0.006 C 
HETATM    4  C4  UNL     1       2.434   9.091   0.088  1.00  0.00     0.013 C 
HETATM    5  C5  UNL     1       2.207   9.250   1.602  1.00  0.00     0.018 C 
HETATM    6  C6  UNL     1       3.528   9.852   1.998  1.00  0.00     0.027 C 
HETATM    7  C7  UNL     1       4.551   9.183   1.066  1.00  0.00     0.087 C 
HETATM    8 CL1  UNL     1       5.288  10.376  -0.026  1.00  0.00    -0.125 Cl
ENDROOT
BRANCH   1   9
HETATM    9  N1  UNL     1       0.958   7.145   1.845  1.00  0.00    -0.075 N 
ATOM     10  H13 UNL     1       1.057   6.144   1.675  1.00  0.00     0.274 HD
ATOM     11  H12 UNL     1       0.419   7.079   2.709  1.00  0.00     0.274 HD
ATOM     12  H11 UNL     1       0.459   7.629   1.099  1.00  0.00     0.274 HD
ENDBRANCH   1   9
TORSDOF 1
ENDMDL
MODEL 2
REMARK VINA RESULT: -3.974203968      2.706      3.485
REMARK  1 active torsions:
REMARK  status: ('A' for Active; 'I' for Inactive)
REMARK    1  A    between atoms: N1_1  and  C1_5 
ROOT
HETATM    1  C1  UNL     1       4.730   9.293   0.866  1.00  0.00     0.188 C 
HETATM    2  C2  UNL     1       3.838   9.982   1.909  1.00  0.00     0.039 C 
HETATM    3  C3  UNL     1       2.487   9.364   1.669  1.00  0.00     0.006 C 
HETATM    4  C4  UNL     1       2.520   9.188   0.141  1.00  0.00     0.013 C 
HETATM    5  C5  UNL     1       3.818   8.362   0.122  1.00  0.00     0.018 C 
HETATM    6  C6  UNL     1       3.429   7.249   1.056  1.00  0.00     0.027 C 
HETATM    7  C7  UNL     1       2.526   7.922   2.102  1.00  0.00     0.087 C 
HETATM    8 CL1  UNL     1       0.868   7.291   2.006  1.00  0.00    -0.125 Cl
ENDROOT
BRANCH   1   9
HETATM    9  N1  UNL     1       5.306  10.319   0.055  1.00  0.00    -0.075 N 
ATOM     10  H13 UNL     1       5.199  10.146  -0.944  1.00  0.00     0.274 HD
ATOM     11  H12 UNL     1       4.787  11.196   0.093  1.00  0.00     0.274 HD
ATOM     12  H11 UNL     1       6.281  10.421   0.341  1.00  0.00     0.274 HD
ENDBRANCH   1   9
TORSDOF 1
ENDMDL
MODEL 3
REMARK VINA RESULT: -3.283541147      2.866      3.487
REMARK  1 active torsions:
REMARK  status: ('A' for Active; 'I' for Inactive)
REMARK    1  A    between atoms: N1_1  and  C1_5 
ROOT
HETATM    1  C1  UNL     1       4.668  10.296   0.129  1.00  0.00     0.188 C 
HETATM    2  C2  UNL     1       4.238   9.168  -0.821  1.00  0.00     0.039 C 
HETATM    3  C3  UNL     1       3.784   8.083   0.116  1.00  0.00     0.006 C 
HETATM    4  C4  UNL     1       4.775   8.274   1.277  1.00  0.00     0.013 C 
HETATM    5  C5  UNL     1       4.436   9.757   1.510  1.00  0.00     0.018 C 
HETATM    6  C6  UNL     1       2.950   9.651   1.723  1.00  0.00     0.027 C 
HETATM    7  C7  UNL     1       2.507   8.518   0.785  1.00  0.00     0.087 C 
HETATM    8 CL1  UNL     1       1.891   7.133   1.713  1.00  0.00    -0.125 Cl
ENDROOT
BRANCH   1   9
HETATM    9  N1  UNL     1       6.035  10.597  -0.159  1.00  0.00    -0.075 N 
ATOM     10  H13 UNL     1       6.582   9.772  -0.406  1.00  0.00     0.274 HD
ATOM     11  H12 UNL     1       6.156  11.102  -1.038  1.00  0.00     0.274 HD
ATOM     12  H11 UNL     1       6.411  11.100   0.645  1.00  0.00     0.274 HD
ENDBRANCH   1   9
TORSDOF 1
ENDMDL
MODEL 4
REMARK VINA RESULT: -3.150456405      0.892      1.650
REMARK  1 active torsions:
REMARK  status: ('A' for Active; 'I' for Inactive)
REMARK    1  A    between atoms: N1_1  and  C1_5 
ROOT
HETATM    1  C1  UNL     1       2.280   7.247   0.897  1.00  0.00     0.188 C 
HETATM    2  C2  UNL     1       1.885   8.413  -0.023  1.00  0.00     0.039 C 
HETATM    3  C3  UNL     1       2.910   9.466   0.297  1.00  0.00     0.006 C 
HETATM    4  C4  UNL     1       3.110   9.224   1.803  1.00  0.00     0.013 C 
HETATM    5  C5  UNL     1       3.476   7.736   1.660  1.00  0.00     0.018 C 
HETATM    6  C6  UNL     1       4.627   7.845   0.698  1.00  0.00     0.027 C 
HETATM    7  C7  UNL     1       4.250   9.015  -0.223  1.00  0.00     0.087 C 
HETATM    8 CL1  UNL     1       5.384  10.369  -0.021  1.00  0.00    -0.125 Cl
ENDROOT
BRANCH   1   9
HETATM    9  N1  UNL     1       1.147   6.947   1.714  1.00  0.00    -0.075 N 
ATOM     10  H13 UNL     1       1.259   7.254   2.680  1.00  0.00     0.274 HD
ATOM     11  H12 UNL     1       0.331   7.516   1.489  1.00  0.00     0.274 HD
ATOM     12  H11 UNL     1       0.970   5.945   1.631  1.00  0.00     0.274 HD
ENDBRANCH   1   9
TORSDOF 1
ENDMDL
MODEL 5
REMARK VINA RESULT: -3.105477197      1.062      2.144
REMARK  1 active torsions:
REMARK  status: ('A' for Active; 'I' for Inactive)
REMARK    1  A    between atoms: N1_1  and  C1_5 
ROOT
HETATM    1  C1  UNL     1       2.617   8.335   0.755  1.00  0.00     0.188 C 
HETATM    2  C2  UNL     1       2.949   9.523   1.670  1.00  0.00     0.039 C 
HETATM    3  C3  UNL     1       4.417   9.746   1.427  1.00  0.00     0.006 C 
HETATM    4  C4  UNL     1       4.897   8.299   1.226  1.00  0.00     0.013 C 
HETATM    5  C5  UNL     1       3.913   7.980   0.086  1.00  0.00     0.018 C 
HETATM    6  C6  UNL     1       4.260   9.088  -0.870  1.00  0.00     0.027 C 
HETATM    7  C7  UNL     1       4.605  10.283   0.033  1.00  0.00     0.087 C 
HETATM    8 CL1  UNL     1       6.315  10.734  -0.140  1.00  0.00    -0.125 Cl
ENDROOT
BRANCH   1   9
HETATM    9  N1  UNL     1       2.082   7.299   1.581  1.00  0.00    -0.075 N 
ATOM     10  H13 UNL     1       1.638   7.653   2.428  1.00  0.00     0.274 HD
ATOM     11  H12 UNL     1       1.258   6.853   1.177  1.00  0.00     0.274 HD
ATOM     12  H11 UNL     1       2.839   6.641   1.771  1.00  0.00     0.274 HD
ENDBRANCH   1   9
TORSDOF 1
ENDMDL
