MODEL 1
REMARK VINA RESULT: -4.348345382      0.000      0.000
REMARK  0 active torsions:
REMARK  status: ('A' for Active; 'I' for Inactive)
REMARK       I    between atoms: C1_2  and  N1_4 
ROOT
HETATM    1  O1  UNL     1       5.047  10.921   0.522  1.00  0.00    -0.630 OA
HETATM    2  C1  UNL     1       4.808   9.712   0.287  1.00  0.00     0.285 C 
HETATM    3  O2  UNL     1       5.603   9.055  -0.630  1.00  0.00    -0.630 OA
HETATM    4  N1  UNL     1       3.763   9.008   0.923  1.00  0.00    -0.326 N 
HETATM    5  C2  UNL     1       3.578   7.619   0.577  1.00  0.00     0.131 C 
HETATM    6  C3  UNL     1       2.221   7.084   0.850  1.00  0.00     0.057 C 
HETATM    7  C4  UNL     1       1.596   7.625   2.110  1.00  0.00     0.173 C 
HETATM    8  F1  UNL     1       0.283   7.217   2.140  1.00  0.00    -0.249 F 
HETATM    9  C5  UNL     1       1.642   9.116   2.187  1.00  0.00     0.057 C 
HETATM   10  C6  UNL     1       2.956   9.727   1.874  1.00  0.00     0.131 C 
ENDROOT
TORSDOF 0
ENDMDL
MODEL 2
REMARK VINA RESULT: -3.721823183      0.394      1.923
REMARK  0 active torsions:
REMARK  status: ('A' for Active; 'I' for Inactive)
REMARK       I    between atoms: C1_2  and  N1_4 
ROOT
HETATM    1  O1  UNL     1       5.792   9.111  -0.263  1.00  0.00    -0.630 OA
HETATM    2  C1  UNL     1       4.860   9.682   0.354  1.00  0.00     0.285 C 
HETATM    3  O2  UNL     1       5.010  11.015   0.675  1.00  0.00    -0.630 OA
HETATM    4  N1  UNL     1       3.676   9.012   0.726  1.00  0.00    -0.326 N 
HETATM    5  C2  UNL     1       2.668   9.766   1.433  1.00  0.00     0.131 C 
HETATM    6  C3  UNL     1       1.720   8.947   2.229  1.00  0.00     0.057 C 
HETATM    7  C4  UNL     1       1.347   7.642   1.576  1.00  0.00     0.173 C 
HETATM    8  F1  UNL     1       0.639   6.899   2.492  1.00  0.00    -0.249 F 
HETATM    9  C5  UNL     1       2.537   6.855   1.131  1.00  0.00     0.057 C 
HETATM   10  C6  UNL     1       3.555   7.622   0.373  1.00  0.00     0.131 C 
ENDROOT
TORSDOF 0
ENDMDL
MODEL 3
REMARK VINA RESULT: -3.519332592      3.312      4.444
REMARK  0 active torsions:
REMARK  status: ('A' for Active; 'I' for Inactive)
REMARK       I    between atoms: C1_2  and  N1_4 
ROOT
HETATM    1  O1  UNL     1       1.471   6.674   0.909  1.00  0.00    -0.630 OA
HETATM    2  C1  UNL     1       1.738   7.795   1.406  1.00  0.00     0.285 C 
HETATM    3  O2  UNL     1       0.778   8.409   2.183  1.00  0.00    -0.630 OA
HETATM    4  N1  UNL     1       2.975   8.440   1.199  1.00  0.00    -0.326 N 
HETATM    5  C2  UNL     1       3.175   9.729   1.819  1.00  0.00     0.131 C 
HETATM    6  C3  UNL     1       4.220  10.570   1.184  1.00  0.00     0.057 C 
HETATM    7  C4  UNL     1       5.411   9.791   0.690  1.00  0.00     0.173 C 
HETATM    8  F1  UNL     1       6.198  10.645  -0.047  1.00  0.00    -0.249 F 
HETATM    9  C5  UNL     1       5.030   8.626  -0.163  1.00  0.00     0.057 C 
HETATM   10  C6  UNL     1       3.951   7.767   0.383  1.00  0.00     0.131 C 
ENDROOT
TORSDOF 0
ENDMDL
MODEL 4
REMARK VINA RESULT: -3.432692894      3.314      4.042
REMARK  0 active torsions:
REMARK  status: ('A' for Active; 'I' for Inactive)
REMARK       I    between atoms: C1_2  and  N1_4 
ROOT
HETATM    1  O1  UNL     1       1.032   8.162   2.404  1.00  0.00    -0.630 OA
HETATM    2  C1  UNL     1       1.796   7.816   1.471  1.00  0.00     0.285 C 
HETATM    3  O2  UNL     1       1.547   6.617   0.835  1.00  0.00    -0.630 OA
HETATM    4  N1  UNL     1       2.888   8.604   1.053  1.00  0.00    -0.326 N 
HETATM    5  C2  UNL     1       3.702   8.109  -0.032  1.00  0.00     0.131 C 
HETATM    6  C3  UNL     1       5.074   8.672  -0.090  1.00  0.00     0.057 C 
HETATM    7  C4  UNL     1       5.151  10.127   0.290  1.00  0.00     0.173 C 
HETATM    8  F1  UNL     1       6.479  10.467   0.393  1.00  0.00    -0.249 F 
HETATM    9  C5  UNL     1       4.473  10.425   1.588  1.00  0.00     0.057 C 
HETATM   10  C6  UNL     1       3.115   9.849   1.740  1.00  0.00     0.131 C 
ENDROOT
TORSDOF 0
ENDMDL
MODEL 5
REMARK VINA RESULT: -2.945152885      1.115      2.009
REMARK  0 active torsions:
REMARK  status: ('A' for Active; 'I' for Inactive)
REMARK       I    between atoms: C1_2  and  N1_4 
ROOT
HETATM    1  O1  UNL     1       6.198  10.168  -0.089  1.00  0.00    -0.630 OA
HETATM    2  C1  UNL     1       4.961  10.346   0.027  1.00  0.00     0.285 C 
HETATM    3  O2  UNL     1       4.465  11.619  -0.165  1.00  0.00    -0.630 OA
HETATM    4  N1  UNL     1       4.071   9.299   0.343  1.00  0.00    -0.326 N 
HETATM    5  C2  UNL     1       2.667   9.617   0.451  1.00  0.00     0.131 C 
HETATM    6  C3  UNL     1       1.871   8.659   1.258  1.00  0.00     0.057 C 
HETATM    7  C4  UNL     1       2.295   7.224   1.091  1.00  0.00     0.173 C 
HETATM    8  F1  UNL     1       1.627   6.474   2.031  1.00  0.00    -0.249 F 
HETATM    9  C5  UNL     1       3.765   7.028   1.271  1.00  0.00     0.057 C 
HETATM   10  C6  UNL     1       4.626   7.985   0.535  1.00  0.00     0.131 C 
ENDROOT
TORSDOF 0
ENDMDL
