MODEL 1
REMARK VINA RESULT: -7.964779038      0.000      0.000
REMARK  17 active torsions:
REMARK  status: ('A' for Active; 'I' for Inactive)
REMARK    1  A    between atoms: C2_2  and  N1_3 
REMARK    2  A    between atoms: N1_3  and  C3_4 
REMARK    3  A    between atoms: N1_3  and  C5_6 
REMARK    4  A    between atoms: C5_6  and  C6_7 
REMARK    5  A    between atoms: C6_7  and  N2_8 
REMARK    6  A    between atoms: N2_8  and  C7_10 
REMARK    7  A    between atoms: C8_13  and  N4_14 
REMARK    8  A    between atoms: N4_14  and  C9_15 
REMARK    9  A    between atoms: N4_14  and  C11_17 
REMARK   10  A    between atoms: C11_17  and  C12_18 
REMARK   11  A    between atoms: C12_18  and  O1_19 
REMARK   12  A    between atoms: C17_30  and  N8_31 
REMARK   13  A    between atoms: N8_31  and  C18_32 
REMARK       I    between atoms: N9_35  and  C21_36 
REMARK       I    between atoms: C21_36  and  N11_40 
REMARK   14  A    between atoms: N11_40  and  C22_42 
REMARK   15  A    between atoms: C22_42  and  C23_43 
REMARK   16  A    between atoms: C23_43  and  C24_44 
REMARK   17  A    between atoms: C24_44  and  N12_45 
ROOT
HETATM    1  C7  UNL     1       5.983  17.326   5.127  1.00  0.00     0.163 C 
HETATM    2  N3  UNL     1       5.530  17.904   6.255  1.00  0.00    -0.173 N 
ATOM      3  H3  UNL     1       4.830  18.634   6.126  1.00  0.00     0.186 HD
HETATM    4  C8  UNL     1       5.881  17.646   7.541  1.00  0.00     0.683 C 
HETATM    5  N5  UNL     1       7.176  17.508   7.959  1.00  0.00    -0.174 N 
ATOM      6  H5  UNL     1       7.419  17.897   8.870  1.00  0.00     0.186 HD
HETATM    7  C14 UNL     1       8.176  16.887   7.251  1.00  0.00     0.152 A 
HETATM    8  N6  UNL     1       9.316  16.462   7.811  1.00  0.00    -0.336 N 
ATOM      9  H6  UNL     1       9.564  16.551   8.797  1.00  0.00     0.168 HD
HETATM   10  C15 UNL     1      10.072  15.906   6.866  1.00  0.00     0.182 A 
HETATM   11  N7  UNL     1       9.436  15.961   5.689  1.00  0.00    -0.346 N 
ATOM     12  H7  UNL     1       9.779  15.611   4.795  1.00  0.00     0.167 HD
HETATM   13  C16 UNL     1       8.246  16.575   5.916  1.00  0.00     0.122 A 
HETATM   14  C17 UNL     1       7.310  16.815   4.922  1.00  0.00     0.175 C 
ENDROOT
BRANCH  14  15
HETATM   15  N8  UNL     1       7.546  16.602   3.768  1.00  0.00    -0.436 NA
BRANCH  15  16
HETATM   16  C18 UNL     1       8.234  16.498   2.610  1.00  0.00     0.167 C 
HETATM   17  C19 UNL     1       9.469  17.439   2.627  1.00  0.00     0.060 C 
HETATM   18  C20 UNL     1       9.913  17.539   1.180  1.00  0.00     0.144 C 
HETATM   19  N9  UNL     1      10.439  16.224   0.847  1.00  0.00    -0.218 N 
HETATM   20  C21 UNL     1      11.226  16.046  -0.324  1.00  0.00     0.669 C 
HETATM   21  C28 UNL     1      10.145  15.132   1.741  1.00  0.00     0.144 C 
HETATM   22  N10 UNL     1      12.490  16.264  -0.244  1.00  0.00    -0.235 N 
HETATM   23  N11 UNL     1      10.668  15.639  -1.571  1.00  0.00    -0.227 N 
ATOM     24 2H10 UNL     1      12.889  16.555   0.648  1.00  0.00     0.174 HD
ATOM     25 1H10 UNL     1      13.055  16.137  -1.084  1.00  0.00     0.174 HD
ATOM     26  H11 UNL     1      11.243  15.721  -2.409  1.00  0.00     0.177 HD
HETATM   27  C29 UNL     1       8.720  15.125   2.206  1.00  0.00     0.060 C 
BRANCH  23  28
HETATM   28  C22 UNL     1       9.337  15.120  -1.706  1.00  0.00     0.139 C 
BRANCH  28  29
HETATM   29  C23 UNL     1       8.559  15.723  -2.832  1.00  0.00     0.048 C 
BRANCH  29  30
HETATM   30  C24 UNL     1       9.512  16.144  -3.919  1.00  0.00     0.238 C 
BRANCH  30  31
HETATM   31  N12 UNL     1       9.186  15.616  -5.217  1.00  0.00    -0.068 N 
HETATM   32  C25 UNL     1       8.957  14.175  -5.259  1.00  0.00     0.272 C 
HETATM   33  C26 UNL     1       9.958  16.188  -6.302  1.00  0.00     0.265 A 
HETATM   34  C27 UNL     1       8.490  16.428  -6.173  1.00  0.00     0.265 A 
ENDBRANCH  30  31
ENDBRANCH  29  30
ENDBRANCH  28  29
ENDBRANCH  23  28
ENDBRANCH  15  16
ENDBRANCH  14  15
BRANCH   1  35
HETATM   35  N2  UNL     1       5.213  17.211   4.180  1.00  0.00    -0.351 N 
ATOM     36  H2  UNL     1       5.722  16.697   3.462  1.00  0.00     0.166 HD
BRANCH  35  37
HETATM   37  C6  UNL     1       3.971  17.466   3.657  1.00  0.00     0.082 C 
BRANCH  37  38
HETATM   38  C5  UNL     1       3.813  17.708   2.184  1.00  0.00     0.161 C 
BRANCH  38  39
HETATM   39  N1  UNL     1       5.118  17.758   1.570  1.00  0.00    -0.409 N 
BRANCH  39  40
HETATM   40  C2  UNL     1       5.277  16.891   0.458  1.00  0.00     0.112 C 
HETATM   41  C1  UNL     1       4.043  16.888  -0.394  1.00  0.00     0.026 C 
ENDBRANCH  39  40
BRANCH  39  42
HETATM   42  C3  UNL     1       5.652  19.072   1.438  1.00  0.00     0.112 C 
HETATM   43  C4  UNL     1       6.780  19.145   0.407  1.00  0.00     0.026 C 
ENDBRANCH  39  42
ENDBRANCH  38  39
ENDBRANCH  37  38
ENDBRANCH  35  37
ENDBRANCH   1  35
BRANCH   4  44
HETATM   44  N4  UNL     1       4.869  17.500   8.515  1.00  0.00    -0.216 N 
BRANCH  44  45
HETATM   45  C9  UNL     1       5.192  17.798   9.894  1.00  0.00     0.137 C 
HETATM   46  C10 UNL     1       4.837  16.677  10.845  1.00  0.00     0.027 C 
ENDBRANCH  44  45
BRANCH  44  47
HETATM   47  C11 UNL     1       3.530  17.069   8.197  1.00  0.00     0.167 C 
BRANCH  47  48
HETATM   48  C12 UNL     1       2.599  18.251   8.086  1.00  0.00     0.187 C 
BRANCH  48  49
HETATM   49  O1  UNL     1       2.591  18.881   6.869  1.00  0.00    -0.394 OA
HETATM   50  C13 UNL     1       1.487  18.518   6.123  1.00  0.00     0.201 C 
ENDBRANCH  48  49
ENDBRANCH  47  48
ENDBRANCH  44  47
ENDBRANCH   4  44
TORSDOF 17
ENDMDL
MODEL 2
REMARK VINA RESULT: -7.839492942      4.313     12.420
REMARK  17 active torsions:
REMARK  status: ('A' for Active; 'I' for Inactive)
REMARK    1  A    between atoms: C2_2  and  N1_3 
REMARK    2  A    between atoms: N1_3  and  C3_4 
REMARK    3  A    between atoms: N1_3  and  C5_6 
REMARK    4  A    between atoms: C5_6  and  C6_7 
REMARK    5  A    between atoms: C6_7  and  N2_8 
REMARK    6  A    between atoms: N2_8  and  C7_10 
REMARK    7  A    between atoms: C8_13  and  N4_14 
REMARK    8  A    between atoms: N4_14  and  C9_15 
REMARK    9  A    between atoms: N4_14  and  C11_17 
REMARK   10  A    between atoms: C11_17  and  C12_18 
REMARK   11  A    between atoms: C12_18  and  O1_19 
REMARK   12  A    between atoms: C17_30  and  N8_31 
REMARK   13  A    between atoms: N8_31  and  C18_32 
REMARK       I    between atoms: N9_35  and  C21_36 
REMARK       I    between atoms: C21_36  and  N11_40 
REMARK   14  A    between atoms: N11_40  and  C22_42 
REMARK   15  A    between atoms: C22_42  and  C23_43 
REMARK   16  A    between atoms: C23_43  and  C24_44 
REMARK   17  A    between atoms: C24_44  and  N12_45 
ROOT
HETATM    1  C7  UNL     1      12.000  13.945  -4.887  1.00  0.00     0.163 C 
HETATM    2  N3  UNL     1      12.605  13.810  -6.082  1.00  0.00    -0.173 N 
ATOM      3  H3  UNL     1      13.599  13.583  -6.050  1.00  0.00     0.186 HD
HETATM    4  C8  UNL     1      12.070  13.936  -7.323  1.00  0.00     0.683 C 
HETATM    5  N5  UNL     1      11.248  14.966  -7.692  1.00  0.00    -0.174 N 
ATOM      6  H5  UNL     1      11.360  15.341  -8.635  1.00  0.00     0.186 HD
HETATM    7  C14 UNL     1      10.284  15.535  -6.897  1.00  0.00     0.152 A 
HETATM    8  N6  UNL     1       9.281  16.280  -7.380  1.00  0.00    -0.336 N 
ATOM      9  H6  UNL     1       9.126  16.504  -8.363  1.00  0.00     0.168 HD
HETATM   10  C15 UNL     1       8.521  16.681  -6.362  1.00  0.00     0.182 A 
HETATM   11  N7  UNL     1       9.017  16.203  -5.214  1.00  0.00    -0.346 N 
ATOM     12  H7  UNL     1       8.638  16.351  -4.279  1.00  0.00     0.167 HD
HETATM   13  C16 UNL     1      10.123  15.483  -5.535  1.00  0.00     0.122 A 
HETATM   14  C17 UNL     1      10.910  14.834  -4.596  1.00  0.00     0.175 C 
ENDROOT
BRANCH  14  15
HETATM   15  N8  UNL     1      10.730  14.969  -3.420  1.00  0.00    -0.436 NA
BRANCH  15  16
HETATM   16  C18 UNL     1      10.231  15.442  -2.257  1.00  0.00     0.167 C 
HETATM   17  C19 UNL     1      10.318  16.992  -2.221  1.00  0.00     0.060 C 
HETATM   18  C20 UNL     1      10.119  17.368  -0.765  1.00  0.00     0.144 C 
HETATM   19  N9  UNL     1       8.728  17.055  -0.473  1.00  0.00    -0.218 N 
HETATM   20  C21 UNL     1       8.113  17.568   0.702  1.00  0.00     0.669 C 
HETATM   21  C28 UNL     1       8.010  16.230  -1.412  1.00  0.00     0.144 C 
HETATM   22  N10 UNL     1       7.586  18.740   0.649  1.00  0.00    -0.235 N 
HETATM   23  N11 UNL     1       8.061  16.838   1.924  1.00  0.00    -0.227 N 
ATOM     24 2H10 UNL     1       7.624  19.263  -0.227  1.00  0.00     0.174 HD
ATOM     25 1H10 UNL     1       7.145  19.109   1.491  1.00  0.00     0.174 HD
ATOM     26  H11 UNL     1       7.787  17.332   2.773  1.00  0.00     0.177 HD
HETATM   27  C29 UNL     1       8.813  15.062  -1.898  1.00  0.00     0.060 C 
BRANCH  23  28
HETATM   28  C22 UNL     1       8.374  15.441   2.020  1.00  0.00     0.139 C 
BRANCH  28  29
HETATM   29  C23 UNL     1       9.296  15.099   3.147  1.00  0.00     0.048 C 
BRANCH  29  30
HETATM   30  C24 UNL     1       9.197  16.166   4.206  1.00  0.00     0.238 C 
BRANCH  30  31
HETATM   31  N12 UNL     1       9.039  15.652   5.539  1.00  0.00    -0.068 N 
HETATM   32  C25 UNL     1       8.242  14.433   5.642  1.00  0.00     0.272 C 
HETATM   33  C26 UNL     1       8.811  16.670   6.545  1.00  0.00     0.265 A 
HETATM   34  C27 UNL     1      10.065  15.860   6.520  1.00  0.00     0.265 A 
ENDBRANCH  30  31
ENDBRANCH  29  30
ENDBRANCH  28  29
ENDBRANCH  23  28
ENDBRANCH  15  16
ENDBRANCH  14  15
BRANCH   1  35
HETATM   35  N2  UNL     1      12.394  13.257  -3.952  1.00  0.00    -0.351 N 
ATOM     36  H2  UNL     1      11.560  12.852  -3.528  1.00  0.00     0.166 HD
BRANCH  35  37
HETATM   37  C6  UNL     1      13.457  12.789  -3.224  1.00  0.00     0.082 C 
BRANCH  37  38
HETATM   38  C5  UNL     1      14.053  13.635  -2.138  1.00  0.00     0.161 C 
BRANCH  38  39
HETATM   39  N1  UNL     1      13.095  13.778  -1.069  1.00  0.00    -0.409 N 
BRANCH  39  40
HETATM   40  C2  UNL     1      12.665  12.552  -0.498  1.00  0.00     0.112 C 
HETATM   41  C1  UNL     1      13.514  12.191   0.685  1.00  0.00     0.026 C 
ENDBRANCH  39  40
BRANCH  39  42
HETATM   42  C3  UNL     1      13.381  14.840  -0.163  1.00  0.00     0.112 C 
HETATM   43  C4  UNL     1      12.161  15.251   0.662  1.00  0.00     0.026 C 
ENDBRANCH  39  42
ENDBRANCH  38  39
ENDBRANCH  37  38
ENDBRANCH  35  37
ENDBRANCH   1  35
BRANCH   4  44
HETATM   44  N4  UNL     1      12.357  12.957  -8.300  1.00  0.00    -0.216 N 
BRANCH  44  45
HETATM   45  C9  UNL     1      13.335  13.269  -9.321  1.00  0.00     0.137 C 
HETATM   46  C10 UNL     1      13.035  12.618 -10.652  1.00  0.00     0.027 C 
ENDBRANCH  44  45
BRANCH  44  47
HETATM   47  C11 UNL     1      11.722  11.663  -8.325  1.00  0.00     0.167 C 
BRANCH  47  48
HETATM   48  C12 UNL     1      12.590  10.627  -7.655  1.00  0.00     0.187 C 
BRANCH  48  49
HETATM   49  O1  UNL     1      12.902  10.880  -6.344  1.00  0.00    -0.394 OA
HETATM   50  C13 UNL     1      14.194  10.489  -6.052  1.00  0.00     0.201 C 
ENDBRANCH  48  49
ENDBRANCH  47  48
ENDBRANCH  44  47
ENDBRANCH   4  44
TORSDOF 17
ENDMDL
MODEL 3
REMARK VINA RESULT: -7.834170001      1.570      4.758
REMARK  17 active torsions:
REMARK  status: ('A' for Active; 'I' for Inactive)
REMARK    1  A    between atoms: C2_2  and  N1_3 
REMARK    2  A    between atoms: N1_3  and  C3_4 
REMARK    3  A    between atoms: N1_3  and  C5_6 
REMARK    4  A    between atoms: C5_6  and  C6_7 
REMARK    5  A    between atoms: C6_7  and  N2_8 
REMARK    6  A    between atoms: N2_8  and  C7_10 
REMARK    7  A    between atoms: C8_13  and  N4_14 
REMARK    8  A    between atoms: N4_14  and  C9_15 
REMARK    9  A    between atoms: N4_14  and  C11_17 
REMARK   10  A    between atoms: C11_17  and  C12_18 
REMARK   11  A    between atoms: C12_18  and  O1_19 
REMARK   12  A    between atoms: C17_30  and  N8_31 
REMARK   13  A    between atoms: N8_31  and  C18_32 
REMARK       I    between atoms: N9_35  and  C21_36 
REMARK       I    between atoms: C21_36  and  N11_40 
REMARK   14  A    between atoms: N11_40  and  C22_42 
REMARK   15  A    between atoms: C22_42  and  C23_43 
REMARK   16  A    between atoms: C23_43  and  C24_44 
REMARK   17  A    between atoms: C24_44  and  N12_45 
ROOT
HETATM    1  C7  UNL     1       6.238  17.387   3.759  1.00  0.00     0.163 C 
HETATM    2  N3  UNL     1       5.145  17.238   4.530  1.00  0.00    -0.173 N 
ATOM      3  H3  UNL     1       5.300  16.795   5.435  1.00  0.00     0.186 HD
HETATM    4  C8  UNL     1       3.863  17.599   4.264  1.00  0.00     0.683 C 
HETATM    5  N5  UNL     1       3.237  17.347   3.075  1.00  0.00    -0.174 N 
ATOM      6  H5  UNL     1       2.253  17.082   3.110  1.00  0.00     0.186 HD
HETATM    7  C14 UNL     1       3.827  17.422   1.836  1.00  0.00     0.152 A 
HETATM    8  N6  UNL     1       3.129  17.514   0.696  1.00  0.00    -0.336 N 
ATOM      9  H6  UNL     1       2.112  17.537   0.621  1.00  0.00     0.168 HD
HETATM   10  C15 UNL     1       3.986  17.571  -0.323  1.00  0.00     0.182 A 
HETATM   11  N7  UNL     1       5.241  17.518   0.140  1.00  0.00    -0.346 N 
ATOM     12  H7  UNL     1       6.097  17.543  -0.414  1.00  0.00     0.167 HD
HETATM   13  C16 UNL     1       5.156  17.423   1.493  1.00  0.00     0.122 A 
HETATM   14  C17 UNL     1       6.263  17.343   2.323  1.00  0.00     0.175 C 
ENDROOT
BRANCH  14  15
HETATM   15  N8  UNL     1       7.372  17.230   1.888  1.00  0.00    -0.436 NA
BRANCH  15  16
HETATM   16  C18 UNL     1       8.400  16.798   1.123  1.00  0.00     0.167 C 
HETATM   17  C19 UNL     1       9.598  17.780   1.221  1.00  0.00     0.060 C 
HETATM   18  C20 UNL     1      10.499  17.426   0.053  1.00  0.00     0.144 C 
HETATM   19  N9  UNL     1      11.049  16.117   0.374  1.00  0.00    -0.218 N 
HETATM   20  C21 UNL     1      12.170  15.619  -0.344  1.00  0.00     0.669 C 
HETATM   21  C28 UNL     1      10.430  15.367   1.438  1.00  0.00     0.144 C 
HETATM   22  N10 UNL     1      13.345  15.944   0.063  1.00  0.00    -0.235 N 
HETATM   23  N11 UNL     1      12.038  14.780  -1.489  1.00  0.00    -0.227 N 
ATOM     24 2H10 UNL     1      13.439  16.545   0.882  1.00  0.00     0.174 HD
ATOM     25 1H10 UNL     1      14.150  15.587  -0.453  1.00  0.00     0.174 HD
ATOM     26  H11 UNL     1      12.861  14.621  -2.071  1.00  0.00     0.177 HD
HETATM   27  C29 UNL     1       8.933  15.409   1.390  1.00  0.00     0.060 C 
BRANCH  23  28
HETATM   28  C22 UNL     1      10.806  14.148  -1.864  1.00  0.00     0.139 C 
BRANCH  28  29
HETATM   29  C23 UNL     1       9.891  15.022  -2.662  1.00  0.00     0.048 C 
BRANCH  29  30
HETATM   30  C24 UNL     1      10.646  15.580  -3.840  1.00  0.00     0.238 C 
BRANCH  30  31
HETATM   31  N12 UNL     1       9.855  15.702  -5.034  1.00  0.00    -0.068 N 
HETATM   32  C25 UNL     1      10.612  15.964  -6.254  1.00  0.00     0.272 C 
HETATM   33  C26 UNL     1       8.622  16.443  -4.858  1.00  0.00     0.265 A 
HETATM   34  C27 UNL     1       8.621  14.982  -5.160  1.00  0.00     0.265 A 
ENDBRANCH  30  31
ENDBRANCH  29  30
ENDBRANCH  28  29
ENDBRANCH  23  28
ENDBRANCH  15  16
ENDBRANCH  14  15
BRANCH   1  35
HETATM   35  N2  UNL     1       7.317  17.582   4.308  1.00  0.00    -0.351 N 
ATOM     36  H2  UNL     1       7.796  18.288   3.748  1.00  0.00     0.166 HD
BRANCH  35  37
HETATM   37  C6  UNL     1       8.166  17.275   5.339  1.00  0.00     0.082 C 
BRANCH  37  38
HETATM   38  C5  UNL     1       9.178  16.178   5.176  1.00  0.00     0.161 C 
BRANCH  38  39
HETATM   39  N1  UNL     1       9.085  15.278   6.299  1.00  0.00    -0.409 N 
BRANCH  39  40
HETATM   40  C2  UNL     1       9.859  15.662   7.425  1.00  0.00     0.112 C 
HETATM   41  C1  UNL     1       9.032  15.629   8.675  1.00  0.00     0.026 C 
ENDBRANCH  39  40
BRANCH  39  42
HETATM   42  C3  UNL     1       7.768  14.802   6.561  1.00  0.00     0.112 C 
HETATM   43  C4  UNL     1       7.373  13.640   5.648  1.00  0.00     0.026 C 
ENDBRANCH  39  42
ENDBRANCH  38  39
ENDBRANCH  37  38
ENDBRANCH  35  37
ENDBRANCH   1  35
BRANCH   4  44
HETATM   44  N4  UNL     1       3.120  18.282   5.253  1.00  0.00    -0.216 N 
BRANCH  44  45
HETATM   45  C9  UNL     1       1.749  18.641   4.959  1.00  0.00     0.137 C 
HETATM   46  C10 UNL     1       0.740  17.772   5.675  1.00  0.00     0.027 C 
ENDBRANCH  44  45
BRANCH  44  47
HETATM   47  C11 UNL     1       3.666  18.635   6.540  1.00  0.00     0.167 C 
BRANCH  47  48
HETATM   48  C12 UNL     1       3.713  17.433   7.449  1.00  0.00     0.187 C 
BRANCH  48  49
HETATM   49  O1  UNL     1       4.929  16.805   7.531  1.00  0.00    -0.394 OA
HETATM   50  C13 UNL     1       5.814  17.524   8.310  1.00  0.00     0.201 C 
ENDBRANCH  48  49
ENDBRANCH  47  48
ENDBRANCH  44  47
ENDBRANCH   4  44
TORSDOF 17
ENDMDL
MODEL 4
REMARK VINA RESULT: -7.811472181      1.036      1.712
REMARK  17 active torsions:
REMARK  status: ('A' for Active; 'I' for Inactive)
REMARK    1  A    between atoms: C2_2  and  N1_3 
REMARK    2  A    between atoms: N1_3  and  C3_4 
REMARK    3  A    between atoms: N1_3  and  C5_6 
REMARK    4  A    between atoms: C5_6  and  C6_7 
REMARK    5  A    between atoms: C6_7  and  N2_8 
REMARK    6  A    between atoms: N2_8  and  C7_10 
REMARK    7  A    between atoms: C8_13  and  N4_14 
REMARK    8  A    between atoms: N4_14  and  C9_15 
REMARK    9  A    between atoms: N4_14  and  C11_17 
REMARK   10  A    between atoms: C11_17  and  C12_18 
REMARK   11  A    between atoms: C12_18  and  O1_19 
REMARK   12  A    between atoms: C17_30  and  N8_31 
REMARK   13  A    between atoms: N8_31  and  C18_32 
REMARK       I    between atoms: N9_35  and  C21_36 
REMARK       I    between atoms: C21_36  and  N11_40 
REMARK   14  A    between atoms: N11_40  and  C22_42 
REMARK   15  A    between atoms: C22_42  and  C23_43 
REMARK   16  A    between atoms: C23_43  and  C24_44 
REMARK   17  A    between atoms: C24_44  and  N12_45 
ROOT
HETATM    1  C7  UNL     1       6.034  17.386   5.149  1.00  0.00     0.163 C 
HETATM    2  N3  UNL     1       5.595  17.981   6.274  1.00  0.00    -0.173 N 
ATOM      3  H3  UNL     1       4.913  18.728   6.141  1.00  0.00     0.186 HD
HETATM    4  C8  UNL     1       5.939  17.721   7.561  1.00  0.00     0.683 C 
HETATM    5  N5  UNL     1       7.230  17.553   7.980  1.00  0.00    -0.174 N 
ATOM      6  H5  UNL     1       7.482  17.940   8.890  1.00  0.00     0.186 HD
HETATM    7  C14 UNL     1       8.214  16.904   7.275  1.00  0.00     0.152 A 
HETATM    8  N6  UNL     1       9.344  16.454   7.838  1.00  0.00    -0.336 N 
ATOM      9  H6  UNL     1       9.593  16.541   8.823  1.00  0.00     0.168 HD
HETATM   10  C15 UNL     1      10.086  15.874   6.896  1.00  0.00     0.182 A 
HETATM   11  N7  UNL     1       9.452  15.940   5.718  1.00  0.00    -0.346 N 
ATOM     12  H7  UNL     1       9.786  15.577   4.826  1.00  0.00     0.167 HD
HETATM   13  C16 UNL     1       8.277  16.584   5.942  1.00  0.00     0.122 A 
HETATM   14  C17 UNL     1       7.347  16.842   4.946  1.00  0.00     0.175 C 
ENDROOT
BRANCH  14  15
HETATM   15  N8  UNL     1       7.577  16.618   3.794  1.00  0.00    -0.436 NA
BRANCH  15  16
HETATM   16  C18 UNL     1       8.267  16.471   2.641  1.00  0.00     0.167 C 
HETATM   17  C19 UNL     1       9.483  17.436   2.610  1.00  0.00     0.060 C 
HETATM   18  C20 UNL     1       9.924  17.474   1.159  1.00  0.00     0.144 C 
HETATM   19  N9  UNL     1      10.475  16.155   0.889  1.00  0.00    -0.218 N 
HETATM   20  C21 UNL     1      11.265  15.936  -0.273  1.00  0.00     0.669 C 
HETATM   21  C28 UNL     1      10.204  15.102   1.836  1.00  0.00     0.144 C 
HETATM   22  N10 UNL     1      12.525  16.182  -0.206  1.00  0.00    -0.235 N 
HETATM   23  N11 UNL     1      10.714  15.457  -1.497  1.00  0.00    -0.227 N 
ATOM     24 2H10 UNL     1      12.918  16.524   0.671  1.00  0.00     0.174 HD
ATOM     25 1H10 UNL     1      13.092  16.025  -1.040  1.00  0.00     0.174 HD
ATOM     26  H11 UNL     1      11.287  15.510  -2.340  1.00  0.00     0.177 HD
HETATM   27  C29 UNL     1       8.780  15.089   2.304  1.00  0.00     0.060 C 
BRANCH  23  28
HETATM   28  C22 UNL     1       9.394  14.906  -1.604  1.00  0.00     0.139 C 
BRANCH  28  29
HETATM   29  C23 UNL     1       8.447  15.742  -2.405  1.00  0.00     0.048 C 
BRANCH  29  30
HETATM   30  C24 UNL     1       9.235  16.601  -3.360  1.00  0.00     0.238 C 
BRANCH  30  31
HETATM   31  N12 UNL     1       9.267  16.098  -4.707  1.00  0.00    -0.068 N 
HETATM   32  C25 UNL     1      10.571  15.624  -5.159  1.00  0.00     0.272 C 
HETATM   33  C26 UNL     1       8.490  16.877  -5.650  1.00  0.00     0.265 A 
HETATM   34  C27 UNL     1       8.102  15.484  -5.276  1.00  0.00     0.265 A 
ENDBRANCH  30  31
ENDBRANCH  29  30
ENDBRANCH  28  29
ENDBRANCH  23  28
ENDBRANCH  15  16
ENDBRANCH  14  15
BRANCH   1  35
HETATM   35  N2  UNL     1       5.260  17.286   4.203  1.00  0.00    -0.351 N 
ATOM     36  H2  UNL     1       5.781  16.821   3.459  1.00  0.00     0.166 HD
BRANCH  35  37
HETATM   37  C6  UNL     1       4.007  17.520   3.698  1.00  0.00     0.082 C 
BRANCH  37  38
HETATM   38  C5  UNL     1       3.817  17.716   2.223  1.00  0.00     0.161 C 
BRANCH  38  39
HETATM   39  N1  UNL     1       5.108  17.758   1.580  1.00  0.00    -0.409 N 
BRANCH  39  40
HETATM   40  C2  UNL     1       5.249  16.864   0.487  1.00  0.00     0.112 C 
HETATM   41  C1  UNL     1       4.042  16.919  -0.402  1.00  0.00     0.026 C 
ENDBRANCH  39  40
BRANCH  39  42
HETATM   42  C3  UNL     1       5.633  19.071   1.405  1.00  0.00     0.112 C 
HETATM   43  C4  UNL     1       6.795  19.109   0.411  1.00  0.00     0.026 C 
ENDBRANCH  39  42
ENDBRANCH  38  39
ENDBRANCH  37  38
ENDBRANCH  35  37
ENDBRANCH   1  35
BRANCH   4  44
HETATM   44  N4  UNL     1       4.923  17.604   8.536  1.00  0.00    -0.216 N 
BRANCH  44  45
HETATM   45  C9  UNL     1       3.573  17.329   8.095  1.00  0.00     0.137 C 
HETATM   46  C10 UNL     1       2.561  18.324   8.615  1.00  0.00     0.027 C 
ENDBRANCH  44  45
BRANCH  44  47
HETATM   47  C11 UNL     1       5.172  17.746   9.950  1.00  0.00     0.167 C 
BRANCH  47  48
HETATM   48  C12 UNL     1       5.081  16.412  10.646  1.00  0.00     0.187 C 
BRANCH  48  49
HETATM   49  O1  UNL     1       4.047  16.282  11.537  1.00  0.00    -0.394 OA
HETATM   50  C13 UNL     1       3.246  15.202  11.220  1.00  0.00     0.201 C 
ENDBRANCH  48  49
ENDBRANCH  47  48
ENDBRANCH  44  47
ENDBRANCH   4  44
TORSDOF 17
ENDMDL
MODEL 5
REMARK VINA RESULT: -7.711450914      1.695      4.620
REMARK  17 active torsions:
REMARK  status: ('A' for Active; 'I' for Inactive)
REMARK    1  A    between atoms: C2_2  and  N1_3 
REMARK    2  A    between atoms: N1_3  and  C3_4 
REMARK    3  A    between atoms: N1_3  and  C5_6 
REMARK    4  A    between atoms: C5_6  and  C6_7 
REMARK    5  A    between atoms: C6_7  and  N2_8 
REMARK    6  A    between atoms: N2_8  and  C7_10 
REMARK    7  A    between atoms: C8_13  and  N4_14 
REMARK    8  A    between atoms: N4_14  and  C9_15 
REMARK    9  A    between atoms: N4_14  and  C11_17 
REMARK   10  A    between atoms: C11_17  and  C12_18 
REMARK   11  A    between atoms: C12_18  and  O1_19 
REMARK   12  A    between atoms: C17_30  and  N8_31 
REMARK   13  A    between atoms: N8_31  and  C18_32 
REMARK       I    between atoms: N9_35  and  C21_36 
REMARK       I    between atoms: C21_36  and  N11_40 
REMARK   14  A    between atoms: N11_40  and  C22_42 
REMARK   15  A    between atoms: C22_42  and  C23_43 
REMARK   16  A    between atoms: C23_43  and  C24_44 
REMARK   17  A    between atoms: C24_44  and  N12_45 
ROOT
HETATM    1  C7  UNL     1       6.239  17.404   3.745  1.00  0.00     0.163 C 
HETATM    2  N3  UNL     1       5.147  17.241   4.515  1.00  0.00    -0.173 N 
ATOM      3  H3  UNL     1       5.307  16.803   5.421  1.00  0.00     0.186 HD
HETATM    4  C8  UNL     1       3.860  17.581   4.245  1.00  0.00     0.683 C 
HETATM    5  N5  UNL     1       3.241  17.315   3.055  1.00  0.00    -0.174 N 
ATOM      6  H5  UNL     1       2.260  17.035   3.089  1.00  0.00     0.186 HD
HETATM    7  C14 UNL     1       3.832  17.395   1.818  1.00  0.00     0.152 A 
HETATM    8  N6  UNL     1       3.136  17.473   0.676  1.00  0.00    -0.336 N 
ATOM      9  H6  UNL     1       2.119  17.480   0.598  1.00  0.00     0.168 HD
HETATM   10  C15 UNL     1       3.993  17.540  -0.341  1.00  0.00     0.182 A 
HETATM   11  N7  UNL     1       5.249  17.507   0.125  1.00  0.00    -0.346 N 
ATOM     12  H7  UNL     1       6.105  17.544  -0.428  1.00  0.00     0.167 HD
HETATM   13  C16 UNL     1       5.161  17.416   1.477  1.00  0.00     0.122 A 
HETATM   14  C17 UNL     1       6.268  17.356   2.310  1.00  0.00     0.175 C 
ENDROOT
BRANCH  14  15
HETATM   15  N8  UNL     1       7.380  17.258   1.878  1.00  0.00    -0.436 NA
BRANCH  15  16
HETATM   16  C18 UNL     1       8.413  16.849   1.109  1.00  0.00     0.167 C 
HETATM   17  C19 UNL     1       9.648  17.764   1.328  1.00  0.00     0.060 C 
HETATM   18  C20 UNL     1      10.571  17.473   0.161  1.00  0.00     0.144 C 
HETATM   19  N9  UNL     1      11.055  16.118   0.380  1.00  0.00    -0.218 N 
HETATM   20  C21 UNL     1      12.177  15.634  -0.346  1.00  0.00     0.669 C 
HETATM   21  C28 UNL     1      10.370  15.306   1.355  1.00  0.00     0.144 C 
HETATM   22  N10 UNL     1      13.351  15.870   0.123  1.00  0.00    -0.235 N 
HETATM   23  N11 UNL     1      12.049  14.905  -1.564  1.00  0.00    -0.227 N 
ATOM     24 2H10 UNL     1      13.443  16.392   0.994  1.00  0.00     0.174 HD
ATOM     25 1H10 UNL     1      14.157  15.524  -0.398  1.00  0.00     0.174 HD
ATOM     26  H11 UNL     1      12.883  14.761  -2.133  1.00  0.00     0.177 HD
HETATM   27  C29 UNL     1       8.879  15.419   1.266  1.00  0.00     0.060 C 
BRANCH  23  28
HETATM   28  C22 UNL     1      10.805  14.365  -2.030  1.00  0.00     0.139 C 
BRANCH  28  29
HETATM   29  C23 UNL     1       9.939  15.353  -2.743  1.00  0.00     0.048 C 
BRANCH  29  30
HETATM   30  C24 UNL     1      10.519  15.623  -4.107  1.00  0.00     0.238 C 
BRANCH  30  31
HETATM   31  N12 UNL     1       9.584  15.441  -5.184  1.00  0.00    -0.068 N 
HETATM   32  C25 UNL     1       9.101  14.075  -5.362  1.00  0.00     0.272 C 
HETATM   33  C26 UNL     1       9.912  16.180  -6.387  1.00  0.00     0.265 A 
HETATM   34  C27 UNL     1       8.708  16.510  -5.568  1.00  0.00     0.265 A 
ENDBRANCH  30  31
ENDBRANCH  29  30
ENDBRANCH  28  29
ENDBRANCH  23  28
ENDBRANCH  15  16
ENDBRANCH  14  15
BRANCH   1  35
HETATM   35  N2  UNL     1       7.314  17.617   4.296  1.00  0.00    -0.351 N 
ATOM     36  H2  UNL     1       7.757  18.370   3.770  1.00  0.00     0.166 HD
BRANCH  35  37
HETATM   37  C6  UNL     1       8.185  17.295   5.305  1.00  0.00     0.082 C 
BRANCH  37  38
HETATM   38  C5  UNL     1       9.174  16.183   5.115  1.00  0.00     0.161 C 
BRANCH  38  39
HETATM   39  N1  UNL     1       9.119  15.300   6.255  1.00  0.00    -0.409 N 
BRANCH  39  40
HETATM   40  C2  UNL     1       9.918  15.710   7.354  1.00  0.00     0.112 C 
HETATM   41  C1  UNL     1       9.147  15.614   8.637  1.00  0.00     0.026 C 
ENDBRANCH  39  40
BRANCH  39  42
HETATM   42  C3  UNL     1       7.813  14.817   6.559  1.00  0.00     0.112 C 
HETATM   43  C4  UNL     1       7.387  13.667   5.646  1.00  0.00     0.026 C 
ENDBRANCH  39  42
ENDBRANCH  38  39
ENDBRANCH  37  38
ENDBRANCH  35  37
ENDBRANCH   1  35
BRANCH   4  44
HETATM   44  N4  UNL     1       3.105  18.255   5.230  1.00  0.00    -0.216 N 
BRANCH  44  45
HETATM   45  C9  UNL     1       3.771  18.668   6.447  1.00  0.00     0.137 C 
HETATM   46  C10 UNL     1       3.588  17.691   7.586  1.00  0.00     0.027 C 
ENDBRANCH  44  45
BRANCH  44  47
HETATM   47  C11 UNL     1       1.702  18.552   5.076  1.00  0.00     0.167 C 
BRANCH  47  48
HETATM   48  C12 UNL     1       0.860  17.343   5.395  1.00  0.00     0.187 C 
BRANCH  48  49
HETATM   49  O1  UNL     1       0.508  16.570   4.319  1.00  0.00    -0.394 OA
HETATM   50  C13 UNL     1       0.667  15.226   4.593  1.00  0.00     0.201 C 
ENDBRANCH  48  49
ENDBRANCH  47  48
ENDBRANCH  44  47
ENDBRANCH   4  44
TORSDOF 17
ENDMDL
