MODEL 1
REMARK VINA RESULT: -4.769258864      0.000      0.000
REMARK  2 active torsions:
REMARK  status: ('A' for Active; 'I' for Inactive)
REMARK    1  A    between atoms: C2_2  and  C3_3 
REMARK    2  A    between atoms: C3_3  and  N1_4 
ROOT
HETATM    1  N1  UNL     1      10.989  12.711  45.942  1.00  0.00     0.090 N 
HETATM    2  C4  UNL     1      10.525  13.849  46.642  1.00  0.00     0.275 C 
HETATM    3  C5  UNL     1       9.921  13.552  47.992  1.00  0.00     0.060 C 
HETATM    4  C6  UNL     1       8.988  12.395  48.000  1.00  0.00     0.020 C 
HETATM    5  C7  UNL     1       8.593  12.135  49.454  1.00  0.00     0.037 C 
HETATM    6  C8  UNL     1       7.692  12.879  47.324  1.00  0.00     0.037 C 
HETATM    7  N2  UNL     1       9.380  11.225  47.367  1.00  0.00    -0.404 N 
ATOM      8  H2  UNL     1       8.692  10.682  46.844  1.00  0.00     0.154 HD
HETATM    9  C9  UNL     1      10.707  10.778  47.434  1.00  0.00     0.045 C 
HETATM   10  C10 UNL     1      11.267  10.563  48.814  1.00  0.00     0.039 C 
HETATM   11  C11 UNL     1      10.736   9.399  46.747  1.00  0.00     0.039 C 
HETATM   12  C12 UNL     1      11.658  11.712  46.712  1.00  0.00     0.302 C 
ENDROOT
BRANCH   1  13
HETATM   13  C3  UNL     1      11.847  13.093  44.854  1.00  0.00     0.272 C 
BRANCH  13  14
HETATM   14  C2  UNL     1      12.758  12.010  44.359  1.00  0.00     0.026 C 
HETATM   15  C1  UNL     1      12.588  11.778  42.864  1.00  0.00     0.007 C 
ENDBRANCH  13  14
ENDBRANCH   1  13
TORSDOF 2
ENDMDL
MODEL 2
REMARK VINA RESULT: -4.655514383      1.803      3.516
REMARK  2 active torsions:
REMARK  status: ('A' for Active; 'I' for Inactive)
REMARK    1  A    between atoms: C2_2  and  C3_3 
REMARK    2  A    between atoms: C3_3  and  N1_4 
ROOT
HETATM    1  N1  UNL     1      12.260  12.365  44.958  1.00  0.00     0.090 N 
HETATM    2  C4  UNL     1      11.743  11.400  45.853  1.00  0.00     0.275 C 
HETATM    3  C5  UNL     1      10.627  11.898  46.737  1.00  0.00     0.060 C 
HETATM    4  C6  UNL     1      10.878  13.234  47.340  1.00  0.00     0.020 C 
HETATM    5  C7  UNL     1       9.602  13.655  48.069  1.00  0.00     0.037 C 
HETATM    6  C8  UNL     1      11.912  13.015  48.460  1.00  0.00     0.037 C 
HETATM    7  N2  UNL     1      11.352  14.249  46.524  1.00  0.00    -0.404 N 
ATOM      8  H2  UNL     1      12.046  14.903  46.886  1.00  0.00     0.154 HD
HETATM    9  C9  UNL     1      10.891  14.391  45.207  1.00  0.00     0.045 C 
HETATM   10  C10 UNL     1       9.405  14.551  45.037  1.00  0.00     0.039 C 
HETATM   11  C11 UNL     1      11.520  15.689  44.665  1.00  0.00     0.039 C 
HETATM   12  C12 UNL     1      11.313  13.230  44.330  1.00  0.00     0.302 C 
ENDROOT
BRANCH   1  13
HETATM   13  C3  UNL     1      13.052  11.741  43.933  1.00  0.00     0.272 C 
BRANCH  13  14
HETATM   14  C2  UNL     1      12.434  11.746  42.567  1.00  0.00     0.026 C 
HETATM   15  C1  UNL     1      13.428  11.305  41.503  1.00  0.00     0.007 C 
ENDBRANCH  13  14
ENDBRANCH   1  13
TORSDOF 2
ENDMDL
MODEL 3
REMARK VINA RESULT: -4.629167859      1.668      2.499
REMARK  2 active torsions:
REMARK  status: ('A' for Active; 'I' for Inactive)
REMARK    1  A    between atoms: C2_2  and  C3_3 
REMARK    2  A    between atoms: C3_3  and  N1_4 
ROOT
HETATM    1  N1  UNL     1      11.638  12.514  44.786  1.00  0.00     0.090 N 
HETATM    2  C4  UNL     1      11.648  13.845  44.306  1.00  0.00     0.275 C 
HETATM    3  C5  UNL     1      11.074  14.861  45.260  1.00  0.00     0.060 C 
HETATM    4  C6  UNL     1       9.799  14.442  45.901  1.00  0.00     0.020 C 
HETATM    5  C7  UNL     1       9.440  15.502  46.943  1.00  0.00     0.037 C 
HETATM    6  C8  UNL     1       8.709  14.572  44.821  1.00  0.00     0.037 C 
HETATM    7  N2  UNL     1       9.715  13.164  46.432  1.00  0.00    -0.404 N 
ATOM      8  H2  UNL     1       8.847  12.637  46.336  1.00  0.00     0.154 HD
HETATM    9  C9  UNL     1      10.805  12.585  47.097  1.00  0.00     0.045 C 
HETATM   10  C10 UNL     1      11.349  13.352  48.272  1.00  0.00     0.039 C 
HETATM   11  C11 UNL     1      10.304  11.243  47.665  1.00  0.00     0.039 C 
HETATM   12  C12 UNL     1      11.968  12.326  46.162  1.00  0.00     0.302 C 
ENDROOT
BRANCH   1  13
HETATM   13  C3  UNL     1      12.498  11.677  43.995  1.00  0.00     0.272 C 
BRANCH  13  14
HETATM   14  C2  UNL     1      12.236  11.722  42.519  1.00  0.00     0.026 C 
HETATM   15  C1  UNL     1      13.462  11.296  41.722  1.00  0.00     0.007 C 
ENDBRANCH  13  14
ENDBRANCH   1  13
TORSDOF 2
ENDMDL
MODEL 4
REMARK VINA RESULT: -4.501908464      1.511      4.416
REMARK  2 active torsions:
REMARK  status: ('A' for Active; 'I' for Inactive)
REMARK    1  A    between atoms: C2_2  and  C3_3 
REMARK    2  A    between atoms: C3_3  and  N1_4 
ROOT
HETATM    1  N1  UNL     1      10.583  12.183  46.644  1.00  0.00     0.090 N 
HETATM    2  C4  UNL     1      11.923  12.452  46.278  1.00  0.00     0.275 C 
HETATM    3  C5  UNL     1      12.153  13.827  45.704  1.00  0.00     0.060 C 
HETATM    4  C6  UNL     1      11.140  14.244  44.698  1.00  0.00     0.020 C 
HETATM    5  C7  UNL     1      11.424  15.702  44.338  1.00  0.00     0.037 C 
HETATM    6  C8  UNL     1      11.455  13.456  43.414  1.00  0.00     0.037 C 
HETATM    7  N2  UNL     1       9.798  14.050  44.992  1.00  0.00    -0.404 N 
ATOM      8  H2  UNL     1       9.160  13.754  44.253  1.00  0.00     0.154 HD
HETATM    9  C9  UNL     1       9.307  14.254  46.289  1.00  0.00     0.045 C 
HETATM   10  C10 UNL     1       9.539  15.617  46.881  1.00  0.00     0.039 C 
HETATM   11  C11 UNL     1       7.777  14.085  46.205  1.00  0.00     0.039 C 
HETATM   12  C12 UNL     1       9.864  13.244  47.272  1.00  0.00     0.302 C 
ENDROOT
BRANCH   1  13
HETATM   13  C3  UNL     1      10.505  11.021  47.486  1.00  0.00     0.272 C 
BRANCH  13  14
HETATM   14  C2  UNL     1      10.952   9.744  46.840  1.00  0.00     0.026 C 
HETATM   15  C1  UNL     1      11.322   8.694  47.878  1.00  0.00     0.007 C 
ENDBRANCH  13  14
ENDBRANCH   1  13
TORSDOF 2
ENDMDL
MODEL 5
REMARK VINA RESULT: -4.462297521      3.747      7.086
REMARK  2 active torsions:
REMARK  status: ('A' for Active; 'I' for Inactive)
REMARK    1  A    between atoms: C2_2  and  C3_3 
REMARK    2  A    between atoms: C3_3  and  N1_4 
ROOT
HETATM    1  N1  UNL     1      11.629  14.106  42.520  1.00  0.00     0.090 N 
HETATM    2  C4  UNL     1      11.130  15.207  41.786  1.00  0.00     0.275 C 
HETATM    3  C5  UNL     1      11.250  15.070  40.289  1.00  0.00     0.060 C 
HETATM    4  C6  UNL     1      12.570  14.564  39.828  1.00  0.00     0.020 C 
HETATM    5  C7  UNL     1      12.472  14.336  38.320  1.00  0.00     0.037 C 
HETATM    6  C8  UNL     1      13.560  15.733  39.983  1.00  0.00     0.037 C 
HETATM    7  N2  UNL     1      13.117  13.463  40.471  1.00  0.00    -0.404 N 
ATOM      8  H2  UNL     1      14.122  13.428  40.640  1.00  0.00     0.154 HD
HETATM    9  C9  UNL     1      12.308  12.397  40.890  1.00  0.00     0.045 C 
HETATM   10  C10 UNL     1      11.482  11.731  39.824  1.00  0.00     0.039 C 
HETATM   11  C11 UNL     1      13.263  11.312  41.424  1.00  0.00     0.039 C 
HETATM   12  C12 UNL     1      11.356  12.807  41.995  1.00  0.00     0.302 C 
ENDROOT
BRANCH   1  13
HETATM   13  C3  UNL     1      11.173  14.149  43.883  1.00  0.00     0.272 C 
BRANCH  13  14
HETATM   14  C2  UNL     1      11.590  12.981  44.724  1.00  0.00     0.026 C 
HETATM   15  C1  UNL     1      12.549  13.403  45.829  1.00  0.00     0.007 C 
ENDBRANCH  13  14
ENDBRANCH   1  13
TORSDOF 2
ENDMDL
