MODEL 1
REMARK VINA RESULT: -5.410014016      0.000      0.000
REMARK  2 active torsions:
REMARK  status: ('A' for Active; 'I' for Inactive)
REMARK    1  A    between atoms: N1_2  and  C2_5 
REMARK    2  A    between atoms: C2_5  and  C3_6 
ROOT
HETATM    1  C3  UNL     1      12.544  12.491  44.902  1.00  0.00     0.036 C 
HETATM    2  C4  UNL     1      12.139  13.743  45.663  1.00  0.00     0.173 C 
HETATM    3  O1  UNL     1      10.849  13.724  46.114  1.00  0.00    -0.390 OA
HETATM    4  C5  UNL     1      10.229  12.513  46.207  1.00  0.00     0.177 C 
HETATM    5  C6  UNL     1      11.168  11.440  46.699  1.00  0.00    -0.018 C 
HETATM    6  C7  UNL     1      10.484  10.124  46.943  1.00  0.00     0.012 C 
HETATM    7  C8  UNL     1      11.283   9.306  47.960  1.00  0.00     0.001 C 
HETATM    8  C9  UNL     1      11.119   9.930  49.351  1.00  0.00     0.000 C 
HETATM    9  C10 UNL     1      10.819  11.379  49.130  1.00  0.00     0.001 C 
HETATM   10  C11 UNL     1      11.724  11.915  48.009  1.00  0.00     0.012 C 
HETATM   11  C12 UNL     1      12.186  11.243  45.605  1.00  0.00     0.020 C 
ENDROOT
BRANCH   1  12
HETATM   12  C2  UNL     1      11.970  12.639  43.508  1.00  0.00     0.238 C 
BRANCH  12  13
HETATM   13  N1  UNL     1      12.179  11.342  42.870  1.00  0.00    -0.079 N 
HETATM   14  C1  UNL     1      13.308  11.355  41.950  1.00  0.00     0.267 C 
ATOM     15  H12 UNL     1      11.330  11.018  42.408  1.00  0.00     0.276 HD
ATOM     16  H11 UNL     1      12.279  10.601  43.565  1.00  0.00     0.276 HD
ENDBRANCH  12  13
ENDBRANCH   1  12
TORSDOF 2
ENDMDL
MODEL 2
REMARK VINA RESULT: -5.325863890      2.320      4.778
REMARK  2 active torsions:
REMARK  status: ('A' for Active; 'I' for Inactive)
REMARK    1  A    between atoms: N1_2  and  C2_5 
REMARK    2  A    between atoms: C2_5  and  C3_6 
ROOT
HETATM    1  C3  UNL     1      10.477  10.697  48.238  1.00  0.00     0.036 C 
HETATM    2  C4  UNL     1       9.883  11.888  48.972  1.00  0.00     0.173 C 
HETATM    3  O1  UNL     1      10.733  12.953  49.079  1.00  0.00    -0.390 OA
HETATM    4  C5  UNL     1      11.789  13.008  48.218  1.00  0.00     0.177 C 
HETATM    5  C6  UNL     1      11.410  12.538  46.836  1.00  0.00    -0.018 C 
HETATM    6  C7  UNL     1      12.513  12.714  45.830  1.00  0.00     0.012 C 
HETATM    7  C8  UNL     1      11.921  12.804  44.422  1.00  0.00     0.001 C 
HETATM    8  C9  UNL     1      11.218  14.157  44.256  1.00  0.00     0.000 C 
HETATM    9  C10 UNL     1      10.809  14.590  45.628  1.00  0.00     0.001 C 
HETATM   10  C11 UNL     1      10.250  13.380  46.392  1.00  0.00     0.012 C 
HETATM   11  C12 UNL     1      11.120  11.064  46.962  1.00  0.00     0.020 C 
ENDROOT
BRANCH   1  12
HETATM   12  C2  UNL     1      11.370   9.988  49.236  1.00  0.00     0.238 C 
BRANCH  12  13
HETATM   13  N1  UNL     1      11.354   8.585  48.831  1.00  0.00    -0.079 N 
HETATM   14  C1  UNL     1      12.539   7.867  49.280  1.00  0.00     0.267 C 
ATOM     15  H12 UNL     1      11.227   8.494  47.823  1.00  0.00     0.276 HD
ATOM     16  H11 UNL     1      10.501   8.120  49.144  1.00  0.00     0.276 HD
ENDBRANCH  12  13
ENDBRANCH   1  12
TORSDOF 2
ENDMDL
MODEL 3
REMARK VINA RESULT: -5.219741771      2.481      2.994
REMARK  2 active torsions:
REMARK  status: ('A' for Active; 'I' for Inactive)
REMARK    1  A    between atoms: N1_2  and  C2_5 
REMARK    2  A    between atoms: C2_5  and  C3_6 
ROOT
HETATM    1  C3  UNL     1      11.423  13.402  46.705  1.00  0.00     0.036 C 
HETATM    2  C4  UNL     1      10.853  13.719  48.078  1.00  0.00     0.173 C 
HETATM    3  O1  UNL     1       9.746  12.985  48.400  1.00  0.00    -0.390 OA
HETATM    4  C5  UNL     1       9.527  11.832  47.705  1.00  0.00     0.177 C 
HETATM    5  C6  UNL     1      10.812  11.093  47.428  1.00  0.00    -0.018 C 
HETATM    6  C7  UNL     1      10.594   9.752  46.784  1.00  0.00     0.012 C 
HETATM    7  C8  UNL     1      11.787   8.839  47.073  1.00  0.00     0.001 C 
HETATM    8  C9  UNL     1      11.752   8.413  48.546  1.00  0.00     0.000 C 
HETATM    9  C10 UNL     1      11.017   9.490  49.278  1.00  0.00     0.001 C 
HETATM   10  C11 UNL     1      11.475  10.860  48.753  1.00  0.00     0.012 C 
HETATM   11  C12 UNL     1      11.589  11.954  46.466  1.00  0.00     0.020 C 
ENDROOT
BRANCH   1  12
HETATM   12  C2  UNL     1      10.550  14.130  45.705  1.00  0.00     0.238 C 
BRANCH  12  13
HETATM   13  N1  UNL     1      10.180  15.381  46.363  1.00  0.00    -0.079 N 
HETATM   14  C1  UNL     1      10.246  16.521  45.458  1.00  0.00     0.267 C 
ATOM     15  H12 UNL     1      10.744  15.539  47.197  1.00  0.00     0.276 HD
ATOM     16  H11 UNL     1       9.260  15.310  46.799  1.00  0.00     0.276 HD
ENDBRANCH  12  13
ENDBRANCH   1  12
TORSDOF 2
ENDMDL
MODEL 4
REMARK VINA RESULT: -5.032680988      1.329      1.572
REMARK  2 active torsions:
REMARK  status: ('A' for Active; 'I' for Inactive)
REMARK    1  A    between atoms: N1_2  and  C2_5 
REMARK    2  A    between atoms: C2_5  and  C3_6 
ROOT
HETATM    1  C3  UNL     1      12.293  12.675  45.174  1.00  0.00     0.036 C 
HETATM    2  C4  UNL     1      11.879  13.727  46.189  1.00  0.00     0.173 C 
HETATM    3  O1  UNL     1      10.630  13.534  46.710  1.00  0.00    -0.390 OA
HETATM    4  C5  UNL     1      10.087  12.287  46.604  1.00  0.00     0.177 C 
HETATM    5  C6  UNL     1      11.119  11.208  46.816  1.00  0.00    -0.018 C 
HETATM    6  C7  UNL     1      10.530   9.826  46.842  1.00  0.00     0.012 C 
HETATM    7  C8  UNL     1      11.448   8.885  47.626  1.00  0.00     0.001 C 
HETATM    8  C9  UNL     1      11.357   9.220  49.120  1.00  0.00     0.000 C 
HETATM    9  C10 UNL     1      10.961  10.660  49.205  1.00  0.00     0.001 C 
HETATM   10  C11 UNL     1      11.747  11.461  48.155  1.00  0.00     0.012 C 
HETATM   11  C12 UNL     1      12.060  11.294  45.641  1.00  0.00     0.020 C 
ENDROOT
BRANCH   1  12
HETATM   12  C2  UNL     1      11.607  13.046  43.875  1.00  0.00     0.238 C 
BRANCH  12  13
HETATM   13  N1  UNL     1      11.323  14.474  43.990  1.00  0.00    -0.079 N 
HETATM   14  C1  UNL     1      11.155  15.109  42.690  1.00  0.00     0.267 C 
ATOM     15  H12 UNL     1      12.037  14.948  44.543  1.00  0.00     0.276 HD
ATOM     16  H11 UNL     1      10.515  14.642  44.590  1.00  0.00     0.276 HD
ENDBRANCH  12  13
ENDBRANCH   1  12
TORSDOF 2
ENDMDL
MODEL 5
REMARK VINA RESULT: -4.890887467      2.296      3.370
REMARK  2 active torsions:
REMARK  status: ('A' for Active; 'I' for Inactive)
REMARK    1  A    between atoms: N1_2  and  C2_5 
REMARK    2  A    between atoms: C2_5  and  C3_6 
ROOT
HETATM    1  C3  UNL     1      10.779  14.169  44.634  1.00  0.00     0.036 C 
HETATM    2  C4  UNL     1      11.332  12.954  43.908  1.00  0.00     0.173 C 
HETATM    3  O1  UNL     1      12.478  12.453  44.461  1.00  0.00    -0.390 OA
HETATM    4  C5  UNL     1      12.759  12.792  45.751  1.00  0.00     0.177 C 
HETATM    5  C6  UNL     1      11.516  12.826  46.604  1.00  0.00    -0.018 C 
HETATM    6  C7  UNL     1      11.806  13.063  48.060  1.00  0.00     0.012 C 
HETATM    7  C8  UNL     1      10.664  12.506  48.913  1.00  0.00     0.001 C 
HETATM    8  C9  UNL     1      10.723  10.973  48.897  1.00  0.00     0.000 C 
HETATM    9  C10 UNL     1      11.399  10.592  47.618  1.00  0.00     0.001 C 
HETATM   10  C11 UNL     1      10.866  11.480  46.482  1.00  0.00     0.012 C 
HETATM   11  C12 UNL     1      10.693  13.982  46.096  1.00  0.00     0.020 C 
ENDROOT
BRANCH   1  12
HETATM   12  C2  UNL     1      11.612  15.350  44.178  1.00  0.00     0.238 C 
BRANCH  12  13
HETATM   13  N1  UNL     1      11.392  16.383  45.187  1.00  0.00    -0.079 N 
HETATM   14  C1  UNL     1      10.391  17.356  44.771  1.00  0.00     0.267 C 
ATOM     15  H12 UNL     1      12.267  16.841  45.442  1.00  0.00     0.276 HD
ATOM     16  H11 UNL     1      11.154  15.972  46.090  1.00  0.00     0.276 HD
ENDBRANCH  12  13
ENDBRANCH   1  12
TORSDOF 2
ENDMDL
