MODEL 1
REMARK VINA RESULT: -5.062004653      0.000      0.000
REMARK  2 active torsions:
REMARK  status: ('A' for Active; 'I' for Inactive)
REMARK    1  A    between atoms: C4_5  and  N2_6 
REMARK    2  A    between atoms: N2_6  and  C5_8 
ROOT
HETATM    1  N2  UNL     1      10.384  14.757  47.570  1.00  0.00    -0.411 N 
ATOM      2  H2  UNL     1      10.718  15.269  48.386  1.00  0.00     0.154 HD
ENDROOT
BRANCH   1   3
HETATM    3  C4  UNL     1       9.551  15.382  46.613  1.00  0.00     0.107 C 
HETATM    4  C3  UNL     1       8.671  14.271  46.015  1.00  0.00     0.056 C 
HETATM    5  C2  UNL     1       8.375  14.703  44.621  1.00  0.00     0.274 C 
HETATM    6  N1  UNL     1       9.365  15.671  44.254  1.00  0.00     0.086 N 
HETATM    7  C1  UNL     1       8.832  16.860  43.670  1.00  0.00     0.310 C 
HETATM    8  C12 UNL     1      10.233  15.892  45.383  1.00  0.00     0.296 C 
ENDBRANCH   1   3
BRANCH   1   9
HETATM    9  C5  UNL     1      10.740  13.407  47.365  1.00  0.00     0.077 C 
HETATM   10  C6  UNL     1      12.084  13.148  46.768  1.00  0.00     0.024 C 
HETATM   11  C7  UNL     1      11.944  12.177  45.617  1.00  0.00     0.002 C 
HETATM   12  C8  UNL     1      11.714  10.767  46.048  1.00  0.00     0.000 C 
HETATM   13  C9  UNL     1      10.619  10.611  47.076  1.00  0.00     0.000 C 
HETATM   14  C10 UNL     1      10.998  11.150  48.414  1.00  0.00     0.002 C 
HETATM   15  C11 UNL     1      10.683  12.577  48.647  1.00  0.00     0.024 C 
ENDBRANCH   1   9
TORSDOF 2
ENDMDL
MODEL 2
REMARK VINA RESULT: -4.977407414      2.779      4.159
REMARK  2 active torsions:
REMARK  status: ('A' for Active; 'I' for Inactive)
REMARK    1  A    between atoms: C4_5  and  N2_6 
REMARK    2  A    between atoms: N2_6  and  C5_8 
ROOT
HETATM    1  N2  UNL     1       9.600  12.757  48.416  1.00  0.00    -0.411 N 
ATOM      2  H2  UNL     1       9.814  13.507  49.073  1.00  0.00     0.154 HD
ENDROOT
BRANCH   1   3
HETATM    3  C4  UNL     1       8.362  12.076  48.470  1.00  0.00     0.107 C 
HETATM    4  C3  UNL     1       7.436  12.784  47.466  1.00  0.00     0.056 C 
HETATM    5  C2  UNL     1       6.059  12.614  48.006  1.00  0.00     0.274 C 
HETATM    6  N1  UNL     1       6.180  12.311  49.401  1.00  0.00     0.086 N 
HETATM    7  C1  UNL     1       5.405  11.188  49.824  1.00  0.00     0.310 C 
HETATM    8  C12 UNL     1       7.579  12.237  49.735  1.00  0.00     0.296 C 
ENDBRANCH   1   3
BRANCH   1   9
HETATM    9  C5  UNL     1      10.533  12.370  47.429  1.00  0.00     0.077 C 
HETATM   10  C6  UNL     1      11.926  12.889  47.579  1.00  0.00     0.024 C 
HETATM   11  C7  UNL     1      12.385  13.481  46.266  1.00  0.00     0.002 C 
HETATM   12  C8  UNL     1      12.733  12.457  45.237  1.00  0.00     0.000 C 
HETATM   13  C9  UNL     1      11.681  11.388  45.057  1.00  0.00     0.000 C 
HETATM   14  C10 UNL     1      11.595  10.456  46.218  1.00  0.00     0.002 C 
HETATM   15  C11 UNL     1      10.662  10.854  47.295  1.00  0.00     0.024 C 
ENDBRANCH   1   9
TORSDOF 2
ENDMDL
MODEL 3
REMARK VINA RESULT: -4.933180291      3.408      4.386
REMARK  2 active torsions:
REMARK  status: ('A' for Active; 'I' for Inactive)
REMARK    1  A    between atoms: C4_5  and  N2_6 
REMARK    2  A    between atoms: N2_6  and  C5_8 
ROOT
HETATM    1  N2  UNL     1      11.906  11.264  43.643  1.00  0.00    -0.411 N 
ATOM      2  H2  UNL     1      12.040  10.308  43.315  1.00  0.00     0.154 HD
ENDROOT
BRANCH   1   3
HETATM    3  C4  UNL     1      11.969  12.354  42.745  1.00  0.00     0.107 C 
HETATM    4  C3  UNL     1      10.638  12.358  41.976  1.00  0.00     0.056 C 
HETATM    5  C2  UNL     1      10.950  12.936  40.640  1.00  0.00     0.274 C 
HETATM    6  N1  UNL     1      12.362  12.809  40.438  1.00  0.00     0.086 N 
HETATM    7  C1  UNL     1      13.000  14.008  39.994  1.00  0.00     0.310 C 
HETATM    8  C12 UNL     1      12.943  12.220  41.618  1.00  0.00     0.296 C 
ENDBRANCH   1   3
BRANCH   1   9
HETATM    9  C5  UNL     1      11.653  11.534  45.005  1.00  0.00     0.077 C 
HETATM   10  C6  UNL     1      11.921  10.427  45.972  1.00  0.00     0.024 C 
HETATM   11  C7  UNL     1      10.725  10.255  46.882  1.00  0.00     0.002 C 
HETATM   12  C8  UNL     1      10.608  11.317  47.924  1.00  0.00     0.000 C 
HETATM   13  C9  UNL     1      10.727  12.722  47.381  1.00  0.00     0.000 C 
HETATM   14  C10 UNL     1      12.111  13.057  46.937  1.00  0.00     0.002 C 
HETATM   15  C11 UNL     1      12.428  12.743  45.526  1.00  0.00     0.024 C 
ENDBRANCH   1   9
TORSDOF 2
ENDMDL
MODEL 4
REMARK VINA RESULT: -4.928724986      1.655      2.178
REMARK  2 active torsions:
REMARK  status: ('A' for Active; 'I' for Inactive)
REMARK    1  A    between atoms: C4_5  and  N2_6 
REMARK    2  A    between atoms: N2_6  and  C5_8 
ROOT
HETATM    1  N2  UNL     1      10.996  14.766  45.954  1.00  0.00    -0.411 N 
ATOM      2  H2  UNL     1      10.570  15.418  46.612  1.00  0.00     0.154 HD
ENDROOT
BRANCH   1   3
HETATM    3  C4  UNL     1      11.428  15.200  44.680  1.00  0.00     0.107 C 
HETATM    4  C3  UNL     1      11.299  16.733  44.680  1.00  0.00     0.056 C 
HETATM    5  C2  UNL     1      11.030  17.111  43.265  1.00  0.00     0.274 C 
HETATM    6  N1  UNL     1      10.538  15.943  42.597  1.00  0.00     0.086 N 
HETATM    7  C1  UNL     1      11.180  15.669  41.351  1.00  0.00     0.310 C 
HETATM    8  C12 UNL     1      10.540  14.845  43.529  1.00  0.00     0.296 C 
ENDBRANCH   1   3
BRANCH   1   9
HETATM    9  C5  UNL     1      11.168  13.406  46.290  1.00  0.00     0.077 C 
HETATM   10  C6  UNL     1      12.378  12.724  45.741  1.00  0.00     0.024 C 
HETATM   11  C7  UNL     1      11.971  11.415  45.102  1.00  0.00     0.002 C 
HETATM   12  C8  UNL     1      11.649  10.343  46.088  1.00  0.00     0.000 C 
HETATM   13  C9  UNL     1      10.698  10.778  47.178  1.00  0.00     0.000 C 
HETATM   14  C10 UNL     1      11.319  11.731  48.143  1.00  0.00     0.002 C 
HETATM   15  C11 UNL     1      11.199  13.166  47.798  1.00  0.00     0.024 C 
ENDBRANCH   1   9
TORSDOF 2
ENDMDL
MODEL 5
REMARK VINA RESULT: -4.917799061      2.828      4.082
REMARK  2 active torsions:
REMARK  status: ('A' for Active; 'I' for Inactive)
REMARK    1  A    between atoms: C4_5  and  N2_6 
REMARK    2  A    between atoms: N2_6  and  C5_8 
ROOT
HETATM    1  N2  UNL     1      12.623  12.233  44.773  1.00  0.00    -0.411 N 
ATOM      2  H2  UNL     1      13.522  12.715  44.773  1.00  0.00     0.154 HD
ENDROOT
BRANCH   1   3
HETATM    3  C4  UNL     1      11.991  11.878  43.559  1.00  0.00     0.107 C 
HETATM    4  C3  UNL     1      13.116  11.502  42.580  1.00  0.00     0.056 C 
HETATM    5  C2  UNL     1      12.597  11.842  41.227  1.00  0.00     0.274 C 
HETATM    6  N1  UNL     1      11.528  12.779  41.401  1.00  0.00     0.086 N 
HETATM    7  C1  UNL     1      10.341  12.453  40.676  1.00  0.00     0.310 C 
HETATM    8  C12 UNL     1      11.331  12.994  42.812  1.00  0.00     0.296 C 
ENDBRANCH   1   3
BRANCH   1   9
HETATM    9  C5  UNL     1      11.977  11.903  45.984  1.00  0.00     0.077 C 
HETATM   10  C6  UNL     1      10.861  12.797  46.417  1.00  0.00     0.024 C 
HETATM   11  C7  UNL     1      11.061  13.185  47.864  1.00  0.00     0.002 C 
HETATM   12  C8  UNL     1      10.739  12.092  48.828  1.00  0.00     0.000 C 
HETATM   13  C9  UNL     1      11.381  10.768  48.488  1.00  0.00     0.000 C 
HETATM   14  C10 UNL     1      10.784  10.127  47.280  1.00  0.00     0.002 C 
HETATM   15  C11 UNL     1      11.406  10.487  45.987  1.00  0.00     0.024 C 
ENDBRANCH   1   9
TORSDOF 2
ENDMDL
