MODEL 1
REMARK VINA RESULT: -6.862987878      0.000      0.000
REMARK  8 active torsions:
REMARK  status: ('A' for Active; 'I' for Inactive)
REMARK    1  A    between atoms: N2_7  and  O1_8 
REMARK    2  A    between atoms: O1_8  and  C5_9 
REMARK    3  A    between atoms: C5_9  and  C6_10 
REMARK    4  A    between atoms: C6_10  and  C7_11 
REMARK    5  A    between atoms: C7_11  and  C8_12 
REMARK    6  A    between atoms: C8_12  and  C9_13 
REMARK    7  A    between atoms: C21_25  and  O2_26 
REMARK    8  A    between atoms: C25_31  and  O3_32 
ROOT
HETATM    1  C9  UNL     1       1.892  21.523   3.952  1.00  0.00    -0.006 C 
HETATM    2  C10 UNL     1       1.630  20.025   3.807  1.00  0.00     0.006 C 
HETATM    3  C11 UNL     1       2.192  19.626   2.453  1.00  0.00     0.011 C 
HETATM    4  C12 UNL     1       1.922  20.807   1.599  1.00  0.00    -0.025 C 
HETATM    5  C13 UNL     1       2.834  21.037   0.446  1.00  0.00     0.016 C 
HETATM    6  C14 UNL     1       2.098  22.241  -0.177  1.00  0.00    -0.008 C 
HETATM    7  C15 UNL     1       2.225  23.470   0.657  1.00  0.00     0.006 C 
HETATM    8  C16 UNL     1       1.722  23.261   2.094  1.00  0.00     0.011 C 
HETATM    9  C17 UNL     1       2.160  21.926   2.556  1.00  0.00    -0.032 C 
HETATM   10  C18 UNL     1       3.719  22.091   2.565  1.00  0.00     0.016 C 
HETATM   11  C19 UNL     1       0.684  21.765  -0.135  1.00  0.00     0.005 C 
HETATM   12  C20 UNL     1       0.027  21.463  -1.397  1.00  0.00     0.026 C 
HETATM   13  C21 UNL     1       0.070  22.408  -2.514  1.00  0.00     0.123 C 
HETATM   14  C22 UNL     1      -0.860  21.663  -3.501  1.00  0.00     0.032 C 
HETATM   15  C23 UNL     1      -0.544  20.183  -3.245  1.00  0.00     0.010 C 
HETATM   16  C24 UNL     1       0.420  20.160  -2.064  1.00  0.00     0.021 C 
HETATM   17  C25 UNL     1       0.013  19.116  -1.060  1.00  0.00     0.123 C 
HETATM   18  C26 UNL     1       0.652  19.250   0.260  1.00  0.00     0.042 C 
HETATM   19  C27 UNL     1       0.660  20.643   0.861  1.00  0.00    -0.029 C 
HETATM   20  C28 UNL     1      -0.643  20.709   1.597  1.00  0.00     0.016 C 
ENDROOT
BRANCH   1  21
HETATM   21  C8  UNL     1       0.899  22.197   4.787  1.00  0.00     0.005 C 
BRANCH  21  22
HETATM   22  C7  UNL     1      -0.160  21.480   5.490  1.00  0.00     0.002 C 
BRANCH  22  23
HETATM   23  C6  UNL     1      -1.559  21.637   4.981  1.00  0.00     0.029 C 
BRANCH  23  24
HETATM   24  C5  UNL     1      -2.530  22.102   6.047  1.00  0.00     0.202 C 
BRANCH  24  25
HETATM   25  O1  UNL     1      -2.893  23.429   5.696  1.00  0.00    -0.272 OA
BRANCH  25  26
HETATM   26  N2  UNL     1      -2.415  24.543   6.285  1.00  0.00    -0.220 N 
HETATM   27  C2  UNL     1      -1.467  25.389   5.845  1.00  0.00     0.105 A 
HETATM   28  C1  UNL     1      -0.691  25.304   4.569  1.00  0.00     0.091 C 
HETATM   29  N1  UNL     1      -1.294  26.374   6.744  1.00  0.00    -0.353 N 
HETATM   30  C3  UNL     1      -2.122  26.183   7.773  1.00  0.00     0.109 A 
ATOM     31  H1  UNL     1      -0.633  27.145   6.653  1.00  0.00     0.166 HD
HETATM   32  C4  UNL     1      -2.822  25.025   7.469  1.00  0.00     0.142 A 
ENDBRANCH  25  26
ENDBRANCH  24  25
ENDBRANCH  23  24
ENDBRANCH  22  23
ENDBRANCH  21  22
ENDBRANCH   1  21
BRANCH  17  33
HETATM   33  O3  UNL     1      -1.391  19.109  -1.009  1.00  0.00    -0.395 OA
ATOM     34  H3  UNL     1      -1.648  18.422  -0.406  1.00  0.00     0.210 HD
ENDBRANCH  17  33
BRANCH  13  35
HETATM   35  O2  UNL     1       1.271  22.486  -3.218  1.00  0.00    -0.395 OA
ATOM     36  H2  UNL     1       1.212  22.435  -4.165  1.00  0.00     0.210 HD
ENDBRANCH  13  35
TORSDOF 8
ENDMDL
MODEL 2
REMARK VINA RESULT: -6.625199788      3.986      6.595
REMARK  8 active torsions:
REMARK  status: ('A' for Active; 'I' for Inactive)
REMARK    1  A    between atoms: N2_7  and  O1_8 
REMARK    2  A    between atoms: O1_8  and  C5_9 
REMARK    3  A    between atoms: C5_9  and  C6_10 
REMARK    4  A    between atoms: C6_10  and  C7_11 
REMARK    5  A    between atoms: C7_11  and  C8_12 
REMARK    6  A    between atoms: C8_12  and  C9_13 
REMARK    7  A    between atoms: C21_25  and  O2_26 
REMARK    8  A    between atoms: C25_31  and  O3_32 
ROOT
HETATM    1  C9  UNL     1       1.154  18.679   4.528  1.00  0.00    -0.006 C 
HETATM    2  C10 UNL     1       1.162  18.828   3.007  1.00  0.00     0.006 C 
HETATM    3  C11 UNL     1       2.407  18.108   2.518  1.00  0.00     0.011 C 
HETATM    4  C12 UNL     1       3.403  18.367   3.584  1.00  0.00    -0.025 C 
HETATM    5  C13 UNL     1       4.485  17.360   3.764  1.00  0.00     0.016 C 
HETATM    6  C14 UNL     1       5.298  18.106   4.842  1.00  0.00    -0.008 C 
HETATM    7  C15 UNL     1       4.592  18.142   6.154  1.00  0.00     0.006 C 
HETATM    8  C16 UNL     1       3.195  18.772   6.053  1.00  0.00     0.011 C 
HETATM    9  C17 UNL     1       2.554  18.298   4.808  1.00  0.00    -0.032 C 
HETATM   10  C18 UNL     1       2.417  16.762   5.088  1.00  0.00     0.016 C 
HETATM   11  C19 UNL     1       5.338  19.483   4.269  1.00  0.00     0.005 C 
HETATM   12  C20 UNL     1       6.617  19.989   3.794  1.00  0.00     0.026 C 
HETATM   13  C21 UNL     1       7.819  19.895   4.623  1.00  0.00     0.123 C 
HETATM   14  C22 UNL     1       8.803  20.671   3.716  1.00  0.00     0.032 C 
HETATM   15  C23 UNL     1       8.362  20.289   2.297  1.00  0.00     0.010 C 
HETATM   16  C24 UNL     1       7.101  19.448   2.463  1.00  0.00     0.021 C 
HETATM   17  C25 UNL     1       6.034  19.886   1.498  1.00  0.00     0.123 C 
HETATM   18  C26 UNL     1       4.681  19.394   1.811  1.00  0.00     0.042 C 
HETATM   19  C27 UNL     1       4.235  19.535   3.253  1.00  0.00    -0.029 C 
HETATM   20  C28 UNL     1       3.634  20.907   3.296  1.00  0.00     0.016 C 
ENDROOT
BRANCH   1  21
HETATM   21  C8  UNL     1       0.492  19.792   5.206  1.00  0.00     0.005 C 
BRANCH  21  22
HETATM   22  C7  UNL     1       0.247  21.078   4.561  1.00  0.00     0.002 C 
BRANCH  22  23
HETATM   23  C6  UNL     1       0.888  22.289   5.163  1.00  0.00     0.029 C 
BRANCH  23  24
HETATM   24  C5  UNL     1       0.316  23.589   4.635  1.00  0.00     0.202 C 
BRANCH  24  25
HETATM   25  O1  UNL     1       0.135  23.399   3.239  1.00  0.00    -0.272 OA
BRANCH  25  26
HETATM   26  N2  UNL     1       1.076  23.618   2.299  1.00  0.00    -0.220 N 
HETATM   27  C2  UNL     1       1.358  22.893   1.204  1.00  0.00     0.105 A 
HETATM   28  C1  UNL     1       0.687  21.637   0.744  1.00  0.00     0.091 C 
HETATM   29  N1  UNL     1       2.374  23.466   0.536  1.00  0.00    -0.353 N 
HETATM   30  C3  UNL     1       2.763  24.566   1.184  1.00  0.00     0.109 A 
ATOM     31  H1  UNL     1       2.784  23.116  -0.330  1.00  0.00     0.166 HD
HETATM   32  C4  UNL     1       1.935  24.648   2.294  1.00  0.00     0.142 A 
ENDBRANCH  25  26
ENDBRANCH  24  25
ENDBRANCH  23  24
ENDBRANCH  22  23
ENDBRANCH  21  22
ENDBRANCH   1  21
BRANCH  17  33
HETATM   33  O3  UNL     1       6.113  21.285   1.393  1.00  0.00    -0.395 OA
ATOM     34  H3  UNL     1       6.299  21.490   0.484  1.00  0.00     0.210 HD
ENDBRANCH  17  33
BRANCH  13  35
HETATM   35  O2  UNL     1       8.412  18.637   4.719  1.00  0.00    -0.395 OA
ATOM     36  H2  UNL     1       9.356  18.604   4.615  1.00  0.00     0.210 HD
ENDBRANCH  13  35
TORSDOF 8
ENDMDL
MODEL 3
REMARK VINA RESULT: -6.539950263      0.881      1.446
REMARK  8 active torsions:
REMARK  status: ('A' for Active; 'I' for Inactive)
REMARK    1  A    between atoms: N2_7  and  O1_8 
REMARK    2  A    between atoms: O1_8  and  C5_9 
REMARK    3  A    between atoms: C5_9  and  C6_10 
REMARK    4  A    between atoms: C6_10  and  C7_11 
REMARK    5  A    between atoms: C7_11  and  C8_12 
REMARK    6  A    between atoms: C8_12  and  C9_13 
REMARK    7  A    between atoms: C21_25  and  O2_26 
REMARK    8  A    between atoms: C25_31  and  O3_32 
ROOT
HETATM    1  C9  UNL     1       1.384  21.380   3.815  1.00  0.00    -0.006 C 
HETATM    2  C10 UNL     1       1.194  19.879   3.602  1.00  0.00     0.006 C 
HETATM    3  C11 UNL     1       1.891  19.545   2.295  1.00  0.00     0.011 C 
HETATM    4  C12 UNL     1       1.653  20.743   1.455  1.00  0.00    -0.025 C 
HETATM    5  C13 UNL     1       2.657  21.043   0.397  1.00  0.00     0.016 C 
HETATM    6  C14 UNL     1       1.934  22.239  -0.254  1.00  0.00    -0.008 C 
HETATM    7  C15 UNL     1       1.939  23.444   0.623  1.00  0.00     0.006 C 
HETATM    8  C16 UNL     1       1.316  23.170   2.001  1.00  0.00     0.011 C 
HETATM    9  C17 UNL     1       1.762  21.838   2.462  1.00  0.00    -0.032 C 
HETATM   10  C18 UNL     1       3.305  22.058   2.618  1.00  0.00     0.016 C 
HETATM   11  C19 UNL     1       0.542  21.712  -0.356  1.00  0.00     0.005 C 
HETATM   12  C20 UNL     1       0.013  21.430  -1.682  1.00  0.00     0.026 C 
HETATM   13  C21 UNL     1       0.121  22.411  -2.762  1.00  0.00     0.123 C 
HETATM   14  C22 UNL     1      -0.687  21.667  -3.851  1.00  0.00     0.032 C 
HETATM   15  C23 UNL     1      -0.339  20.191  -3.611  1.00  0.00     0.010 C 
HETATM   16  C24 UNL     1       0.515  20.163  -2.348  1.00  0.00     0.021 C 
HETATM   17  C25 UNL     1       0.059  19.073  -1.417  1.00  0.00     0.123 C 
HETATM   18  C26 UNL     1       0.570  19.187  -0.040  1.00  0.00     0.042 C 
HETATM   19  C27 UNL     1       0.471  20.558   0.599  1.00  0.00    -0.029 C 
HETATM   20  C28 UNL     1      -0.895  20.554   1.216  1.00  0.00     0.016 C 
ENDROOT
BRANCH   1  21
HETATM   21  C8  UNL     1       0.295  21.991   4.575  1.00  0.00     0.005 C 
BRANCH  21  22
HETATM   22  C7  UNL     1       0.524  22.918   5.679  1.00  0.00     0.002 C 
BRANCH  22  23
HETATM   23  C6  UNL     1       0.513  24.382   5.367  1.00  0.00     0.029 C 
BRANCH  23  24
HETATM   24  C5  UNL     1      -0.696  24.808   4.561  1.00  0.00     0.202 C 
BRANCH  24  25
HETATM   25  O1  UNL     1      -1.801  24.759   5.453  1.00  0.00    -0.272 OA
BRANCH  25  26
HETATM   26  N2  UNL     1      -1.887  25.432   6.617  1.00  0.00    -0.220 N 
HETATM   27  C2  UNL     1      -2.037  24.949   7.862  1.00  0.00     0.105 A 
HETATM   28  C1  UNL     1      -2.148  23.515   8.276  1.00  0.00     0.091 C 
HETATM   29  N1  UNL     1      -2.077  25.969   8.737  1.00  0.00    -0.353 N 
HETATM   30  C3  UNL     1      -1.954  27.122   8.076  1.00  0.00     0.109 A 
ATOM     31  H1  UNL     1      -2.186  25.876   9.747  1.00  0.00     0.166 HD
HETATM   32  C4  UNL     1      -1.835  26.767   6.740  1.00  0.00     0.142 A 
ENDBRANCH  25  26
ENDBRANCH  24  25
ENDBRANCH  23  24
ENDBRANCH  22  23
ENDBRANCH  21  22
ENDBRANCH   1  21
BRANCH  17  33
HETATM   33  O3  UNL     1      -1.342  19.015  -1.494  1.00  0.00    -0.395 OA
ATOM     34  H3  UNL     1      -1.652  18.587  -0.705  1.00  0.00     0.210 HD
ENDBRANCH  17  33
BRANCH  13  35
HETATM   35  O2  UNL     1       1.377  22.554  -3.350  1.00  0.00    -0.395 OA
ATOM     36  H2  UNL     1       1.792  23.404  -3.260  1.00  0.00     0.210 HD
ENDBRANCH  13  35
TORSDOF 8
ENDMDL
MODEL 4
REMARK VINA RESULT: -6.331702985      2.733      3.984
REMARK  8 active torsions:
REMARK  status: ('A' for Active; 'I' for Inactive)
REMARK    1  A    between atoms: N2_7  and  O1_8 
REMARK    2  A    between atoms: O1_8  and  C5_9 
REMARK    3  A    between atoms: C5_9  and  C6_10 
REMARK    4  A    between atoms: C6_10  and  C7_11 
REMARK    5  A    between atoms: C7_11  and  C8_12 
REMARK    6  A    between atoms: C8_12  and  C9_13 
REMARK    7  A    between atoms: C21_25  and  O2_26 
REMARK    8  A    between atoms: C25_31  and  O3_32 
ROOT
HETATM    1  C9  UNL     1       1.840  21.596   3.948  1.00  0.00    -0.006 C 
HETATM    2  C10 UNL     1       1.559  20.099   3.827  1.00  0.00     0.006 C 
HETATM    3  C11 UNL     1       2.123  19.669   2.484  1.00  0.00     0.011 C 
HETATM    4  C12 UNL     1       1.873  20.838   1.608  1.00  0.00    -0.025 C 
HETATM    5  C13 UNL     1       2.795  21.035   0.456  1.00  0.00     0.016 C 
HETATM    6  C14 UNL     1       2.079  22.237  -0.192  1.00  0.00    -0.008 C 
HETATM    7  C15 UNL     1       2.218  23.479   0.621  1.00  0.00     0.006 C 
HETATM    8  C16 UNL     1       1.704  23.302   2.057  1.00  0.00     0.011 C 
HETATM    9  C17 UNL     1       2.122  21.971   2.546  1.00  0.00    -0.032 C 
HETATM   10  C18 UNL     1       3.682  22.115   2.561  1.00  0.00     0.016 C 
HETATM   11  C19 UNL     1       0.659  21.781  -0.150  1.00  0.00     0.005 C 
HETATM   12  C20 UNL     1       0.005  21.466  -1.411  1.00  0.00     0.026 C 
HETATM   13  C21 UNL     1       0.066  22.389  -2.544  1.00  0.00     0.123 C 
HETATM   14  C22 UNL     1      -0.867  21.640  -3.523  1.00  0.00     0.032 C 
HETATM   15  C23 UNL     1      -0.573  20.160  -3.239  1.00  0.00     0.010 C 
HETATM   16  C24 UNL     1       0.384  20.145  -2.052  1.00  0.00     0.021 C 
HETATM   17  C25 UNL     1      -0.043  19.125  -1.032  1.00  0.00     0.123 C 
HETATM   18  C26 UNL     1       0.590  19.275   0.290  1.00  0.00     0.042 C 
HETATM   19  C27 UNL     1       0.614  20.678   0.865  1.00  0.00    -0.029 C 
HETATM   20  C28 UNL     1      -0.692  20.774   1.593  1.00  0.00     0.016 C 
ENDROOT
BRANCH   1  21
HETATM   21  C8  UNL     1       0.851  22.299   4.764  1.00  0.00     0.005 C 
BRANCH  21  22
HETATM   22  C7  UNL     1       0.087  21.641   5.820  1.00  0.00     0.002 C 
BRANCH  22  23
HETATM   23  C6  UNL     1       0.448  21.961   7.237  1.00  0.00     0.029 C 
BRANCH  23  24
HETATM   24  C5  UNL     1       0.549  20.731   8.116  1.00  0.00     0.202 C 
BRANCH  24  25
HETATM   25  O1  UNL     1       1.700  20.026   7.675  1.00  0.00    -0.272 OA
BRANCH  25  26
HETATM   26  N2  UNL     1       1.710  18.746   7.254  1.00  0.00    -0.220 N 
HETATM   27  C2  UNL     1       2.680  18.079   6.606  1.00  0.00     0.105 A 
HETATM   28  C1  UNL     1       4.017  18.599   6.181  1.00  0.00     0.091 C 
HETATM   29  N1  UNL     1       2.278  16.817   6.373  1.00  0.00    -0.353 N 
HETATM   30  C3  UNL     1       1.049  16.648   6.865  1.00  0.00     0.109 A 
ATOM     31  H1  UNL     1       2.826  16.102   5.896  1.00  0.00     0.166 HD
HETATM   32  C4  UNL     1       0.704  17.874   7.416  1.00  0.00     0.142 A 
ENDBRANCH  25  26
ENDBRANCH  24  25
ENDBRANCH  23  24
ENDBRANCH  22  23
ENDBRANCH  21  22
ENDBRANCH   1  21
BRANCH  17  33
HETATM   33  O3  UNL     1      -1.447  19.138  -0.989  1.00  0.00    -0.395 OA
ATOM     34  H3  UNL     1      -1.705  19.825  -0.385  1.00  0.00     0.210 HD
ENDBRANCH  17  33
BRANCH  13  35
HETATM   35  O2  UNL     1       1.273  22.439  -3.242  1.00  0.00    -0.395 OA
ATOM     36  H2  UNL     1       1.764  23.250  -3.183  1.00  0.00     0.210 HD
ENDBRANCH  13  35
TORSDOF 8
ENDMDL
MODEL 5
REMARK VINA RESULT: -6.322658885      2.542      3.295
REMARK  8 active torsions:
REMARK  status: ('A' for Active; 'I' for Inactive)
REMARK    1  A    between atoms: N2_7  and  O1_8 
REMARK    2  A    between atoms: O1_8  and  C5_9 
REMARK    3  A    between atoms: C5_9  and  C6_10 
REMARK    4  A    between atoms: C6_10  and  C7_11 
REMARK    5  A    between atoms: C7_11  and  C8_12 
REMARK    6  A    between atoms: C8_12  and  C9_13 
REMARK    7  A    between atoms: C21_25  and  O2_26 
REMARK    8  A    between atoms: C25_31  and  O3_32 
ROOT
HETATM    1  C9  UNL     1       1.700  21.795   3.952  1.00  0.00    -0.006 C 
HETATM    2  C10 UNL     1       1.461  20.288   3.861  1.00  0.00     0.006 C 
HETATM    3  C11 UNL     1       2.075  19.842   2.545  1.00  0.00     0.011 C 
HETATM    4  C12 UNL     1       1.820  20.982   1.634  1.00  0.00    -0.025 C 
HETATM    5  C13 UNL     1       2.769  21.177   0.503  1.00  0.00     0.016 C 
HETATM    6  C14 UNL     1       2.040  22.343  -0.193  1.00  0.00    -0.008 C 
HETATM    7  C15 UNL     1       2.125  23.608   0.592  1.00  0.00     0.006 C 
HETATM    8  C16 UNL     1       1.574  23.451   2.018  1.00  0.00     0.011 C 
HETATM    9  C17 UNL     1       2.012  22.143   2.550  1.00  0.00    -0.032 C 
HETATM   10  C18 UNL     1       3.567  22.329   2.605  1.00  0.00     0.016 C 
HETATM   11  C19 UNL     1       0.632  21.851  -0.180  1.00  0.00     0.005 C 
HETATM   12  C20 UNL     1       0.022  21.489  -1.451  1.00  0.00     0.026 C 
HETATM   13  C21 UNL     1       0.093  22.386  -2.604  1.00  0.00     0.123 C 
HETATM   14  C22 UNL     1      -0.793  21.589  -3.589  1.00  0.00     0.032 C 
HETATM   15  C23 UNL     1      -0.469  20.125  -3.261  1.00  0.00     0.010 C 
HETATM   16  C24 UNL     1       0.454  20.163  -2.049  1.00  0.00     0.021 C 
HETATM   17  C25 UNL     1       0.025  19.157  -1.016  1.00  0.00     0.123 C 
HETATM   18  C26 UNL     1       0.616  19.355   0.319  1.00  0.00     0.042 C 
HETATM   19  C27 UNL     1       0.586  20.771   0.860  1.00  0.00    -0.029 C 
HETATM   20  C28 UNL     1      -0.742  20.850   1.549  1.00  0.00     0.016 C 
ENDROOT
BRANCH   1  21
HETATM   21  C8  UNL     1       0.671  22.490   4.723  1.00  0.00     0.005 C 
BRANCH  21  22
HETATM   22  C7  UNL     1       0.632  22.475   6.183  1.00  0.00     0.002 C 
BRANCH  22  23
HETATM   23  C6  UNL     1      -0.689  22.215   6.837  1.00  0.00     0.029 C 
BRANCH  23  24
HETATM   24  C5  UNL     1      -0.668  22.455   8.333  1.00  0.00     0.202 C 
BRANCH  24  25
HETATM   25  O1  UNL     1       0.343  21.604   8.853  1.00  0.00    -0.272 OA
BRANCH  25  26
HETATM   26  N2  UNL     1       0.168  20.313   9.195  1.00  0.00    -0.220 N 
HETATM   27  C2  UNL     1       0.649  19.209   8.597  1.00  0.00     0.105 A 
HETATM   28  C1  UNL     1       1.515  19.136   7.380  1.00  0.00     0.091 C 
HETATM   29  N1  UNL     1       0.232  18.120   9.265  1.00  0.00    -0.353 N 
HETATM   30  C3  UNL     1      -0.521  18.498  10.300  1.00  0.00     0.109 A 
ATOM     31  H1  UNL     1       0.455  17.155   9.019  1.00  0.00     0.166 HD
HETATM   32  C4  UNL     1      -0.552  19.884  10.243  1.00  0.00     0.142 A 
ENDBRANCH  25  26
ENDBRANCH  24  25
ENDBRANCH  23  24
ENDBRANCH  22  23
ENDBRANCH  21  22
ENDBRANCH   1  21
BRANCH  17  33
HETATM   33  O3  UNL     1      -1.380  19.134  -1.012  1.00  0.00    -0.395 OA
ATOM     34  H3  UNL     1      -1.648  18.227  -1.098  1.00  0.00     0.210 HD
ENDBRANCH  17  33
BRANCH  13  35
HETATM   35  O2  UNL     1       1.316  22.451  -3.269  1.00  0.00    -0.395 OA
ATOM     36  H2  UNL     1       2.096  22.404  -2.728  1.00  0.00     0.210 HD
ENDBRANCH  13  35
TORSDOF 8
ENDMDL
