MODEL 1
REMARK VINA RESULT: -7.530196415      0.000      0.000
REMARK  9 active torsions:
REMARK  status: ('A' for Active; 'I' for Inactive)
REMARK    1  A    between atoms: C4_4  and  C5_5 
REMARK    2  A    between atoms: C5_5  and  C6_6 
REMARK    3  A    between atoms: C6_6  and  C8_8 
REMARK    4  A    between atoms: N1_19  and  O1_21 
REMARK    5  A    between atoms: O1_21  and  C19_22 
REMARK    6  A    between atoms: C19_22  and  C20_24 
REMARK    7  A    between atoms: C20_24  and  C21_25 
REMARK    8  A    between atoms: C21_25  and  O3_28 
REMARK    9  A    between atoms: C26_32  and  O4_33 
ROOT
HETATM    1  C8  UNL     1       3.063  20.035   2.958  1.00  0.00     0.001 C 
HETATM    2  C9  UNL     1       2.285  18.740   3.097  1.00  0.00     0.006 C 
HETATM    3  C10 UNL     1       3.480  17.775   2.936  1.00  0.00     0.006 C 
HETATM    4  C11 UNL     1       4.373  18.443   1.938  1.00  0.00     0.001 C 
HETATM    5  C12 UNL     1       5.770  18.642   2.360  1.00  0.00    -0.002 C 
HETATM    6  C13 UNL     1       6.175  18.033   3.667  1.00  0.00     0.010 C 
HETATM    7  C14 UNL     1       7.651  18.423   3.869  1.00  0.00    -0.009 C 
HETATM    8  C15 UNL     1       7.796  19.761   4.508  1.00  0.00     0.005 C 
HETATM    9  C16 UNL     1       8.123  20.876   3.542  1.00  0.00     0.011 C 
HETATM   10  C17 UNL     1       7.443  20.520   2.209  1.00  0.00     0.040 C 
HETATM   11  C18 UNL     1       8.251  19.393   1.667  1.00  0.00     0.015 C 
HETATM   12  N1  UNL     1       8.750  19.371   0.502  1.00  0.00    -0.266 N 
ATOM     13  H1  UNL     1       8.609  20.157  -0.132  1.00  0.00     0.194 HD
HETATM   14  C24 UNL     1       8.450  18.239   2.614  1.00  0.00     0.059 C 
HETATM   15  C25 UNL     1       6.015  20.137   2.476  1.00  0.00     0.029 C 
HETATM   16  C26 UNL     1       5.037  20.679   1.508  1.00  0.00     0.132 C 
HETATM   17  C27 UNL     1       3.798  19.857   1.709  1.00  0.00    -0.010 C 
HETATM   18  C28 UNL     1       3.056  19.800   0.433  1.00  0.00     0.018 C 
ENDROOT
BRANCH  12  19
HETATM   19  O1  UNL     1       9.480  18.280   0.100  1.00  0.00    -0.200 OA
BRANCH  19  20
HETATM   20  C19 UNL     1       9.882  18.141  -1.203  1.00  0.00     0.284 C 
HETATM   21  O2  UNL     1       9.400  17.166  -1.860  1.00  0.00    -0.263 OA
BRANCH  20  22
HETATM   22  C20 UNL     1      10.844  19.098  -1.820  1.00  0.00     0.150 C 
BRANCH  22  23
HETATM   23  C21 UNL     1      10.100  20.138  -2.628  1.00  0.00     0.059 C 
HETATM   24  C22 UNL     1      10.292  21.506  -2.049  1.00  0.00     0.045 C 
HETATM   25  C23 UNL     1      10.553  20.091  -4.074  1.00  0.00     0.045 C 
BRANCH  23  26
HETATM   26  O3  UNL     1       8.749  19.754  -2.626  1.00  0.00    -0.390 OA
ATOM     27  H3  UNL     1       8.291  20.374  -3.180  1.00  0.00     0.210 HD
ENDBRANCH  23  26
ENDBRANCH  22  23
ENDBRANCH  20  22
ENDBRANCH  19  20
ENDBRANCH  12  19
BRANCH  16  28
HETATM   28  O4  UNL     1       4.868  22.028   1.496  1.00  0.00    -0.394 OA
ATOM     29  H4  UNL     1       4.491  22.406   0.710  1.00  0.00     0.210 HD
ENDBRANCH  16  28
BRANCH   1  30
HETATM   30  C6  UNL     1       2.412  21.261   3.339  1.00  0.00    -0.010 C 
HETATM   31  C7  UNL     1       1.637  21.064   4.662  1.00  0.00     0.010 C 
BRANCH  30  32
HETATM   32  C5  UNL     1       1.505  22.007   2.442  1.00  0.00     0.032 C 
BRANCH  32  33
HETATM   33  C4  UNL     1       1.231  23.413   2.818  1.00  0.00    -0.024 C 
HETATM   34  C2  UNL     1       1.736  24.410   2.139  1.00  0.00    -0.091 C 
HETATM   35  C1  UNL     1       1.384  25.809   2.614  1.00  0.00     0.042 C 
HETATM   36  C3  UNL     1       2.626  24.291   0.978  1.00  0.00     0.042 C 
ENDBRANCH  32  33
ENDBRANCH  30  32
ENDBRANCH   1  30
TORSDOF 9
ENDMDL
MODEL 2
REMARK VINA RESULT: -7.395240299      0.992      1.244
REMARK  9 active torsions:
REMARK  status: ('A' for Active; 'I' for Inactive)
REMARK    1  A    between atoms: C4_4  and  C5_5 
REMARK    2  A    between atoms: C5_5  and  C6_6 
REMARK    3  A    between atoms: C6_6  and  C8_8 
REMARK    4  A    between atoms: N1_19  and  O1_21 
REMARK    5  A    between atoms: O1_21  and  C19_22 
REMARK    6  A    between atoms: C19_22  and  C20_24 
REMARK    7  A    between atoms: C20_24  and  C21_25 
REMARK    8  A    between atoms: C21_25  and  O3_28 
REMARK    9  A    between atoms: C26_32  and  O4_33 
ROOT
HETATM    1  C8  UNL     1       2.580  20.244   3.012  1.00  0.00     0.001 C 
HETATM    2  C9  UNL     1       1.812  18.940   2.905  1.00  0.00     0.006 C 
HETATM    3  C10 UNL     1       3.024  18.019   2.645  1.00  0.00     0.006 C 
HETATM    4  C11 UNL     1       3.953  18.843   1.810  1.00  0.00     0.001 C 
HETATM    5  C12 UNL     1       5.327  18.978   2.323  1.00  0.00    -0.002 C 
HETATM    6  C13 UNL     1       5.681  18.168   3.531  1.00  0.00     0.010 C 
HETATM    7  C14 UNL     1       7.142  18.526   3.861  1.00  0.00    -0.009 C 
HETATM    8  C15 UNL     1       7.243  19.745   4.713  1.00  0.00     0.005 C 
HETATM    9  C16 UNL     1       7.599  21.002   3.955  1.00  0.00     0.011 C 
HETATM   10  C17 UNL     1       6.984  20.862   2.552  1.00  0.00     0.040 C 
HETATM   11  C18 UNL     1       7.828  19.842   1.873  1.00  0.00     0.015 C 
HETATM   12  N1  UNL     1       8.378  20.010   0.744  1.00  0.00    -0.266 N 
ATOM     13  H1  UNL     1       8.257  20.888   0.239  1.00  0.00     0.194 HD
HETATM   14  C24 UNL     1       7.998  18.551   2.631  1.00  0.00     0.059 C 
HETATM   15  C25 UNL     1       5.550  20.435   2.689  1.00  0.00     0.029 C 
HETATM   16  C26 UNL     1       4.609  21.122   1.777  1.00  0.00     0.132 C 
HETATM   17  C27 UNL     1       3.372  20.273   1.786  1.00  0.00    -0.010 C 
HETATM   18  C28 UNL     1       2.688  20.419   0.484  1.00  0.00     0.018 C 
ENDROOT
BRANCH  12  19
HETATM   19  O1  UNL     1       9.138  19.002   0.205  1.00  0.00    -0.200 OA
BRANCH  19  20
HETATM   20  C19 UNL     1       8.737  18.344  -0.928  1.00  0.00     0.284 C 
HETATM   21  O2  UNL     1       7.501  18.066  -1.034  1.00  0.00    -0.263 OA
BRANCH  20  22
HETATM   22  C20 UNL     1       9.714  17.972  -1.991  1.00  0.00     0.150 C 
BRANCH  22  23
HETATM   23  C21 UNL     1       9.515  18.844  -3.210  1.00  0.00     0.059 C 
HETATM   24  C22 UNL     1      10.809  19.458  -3.648  1.00  0.00     0.045 C 
HETATM   25  C23 UNL     1       8.891  18.033  -4.329  1.00  0.00     0.045 C 
BRANCH  23  26
HETATM   26  O3  UNL     1       8.568  19.818  -2.855  1.00  0.00    -0.390 OA
ATOM     27  H3  UNL     1       8.222  20.168  -3.668  1.00  0.00     0.210 HD
ENDBRANCH  23  26
ENDBRANCH  22  23
ENDBRANCH  20  22
ENDBRANCH  19  20
ENDBRANCH  12  19
BRANCH  16  28
HETATM   28  O4  UNL     1       4.425  22.454   1.975  1.00  0.00    -0.394 OA
ATOM     29  H4  UNL     1       3.573  22.727   2.296  1.00  0.00     0.210 HD
ENDBRANCH  16  28
BRANCH   1  30
HETATM   30  C6  UNL     1       1.898  21.390   3.556  1.00  0.00    -0.010 C 
HETATM   31  C7  UNL     1       1.263  21.033   4.919  1.00  0.00     0.010 C 
BRANCH  30  32
HETATM   32  C5  UNL     1       0.871  22.146   2.812  1.00  0.00     0.032 C 
BRANCH  32  33
HETATM   33  C4  UNL     1       1.305  23.442   2.240  1.00  0.00    -0.024 C 
HETATM   34  C2  UNL     1       1.126  24.565   2.885  1.00  0.00    -0.091 C 
HETATM   35  C1  UNL     1       1.614  25.831   2.203  1.00  0.00     0.042 C 
HETATM   36  C3  UNL     1       0.477  24.706   4.194  1.00  0.00     0.042 C 
ENDBRANCH  32  33
ENDBRANCH  30  32
ENDBRANCH   1  30
TORSDOF 9
ENDMDL
MODEL 3
REMARK VINA RESULT: -7.352020487      4.045      6.477
REMARK  9 active torsions:
REMARK  status: ('A' for Active; 'I' for Inactive)
REMARK    1  A    between atoms: C4_4  and  C5_5 
REMARK    2  A    between atoms: C5_5  and  C6_6 
REMARK    3  A    between atoms: C6_6  and  C8_8 
REMARK    4  A    between atoms: N1_19  and  O1_21 
REMARK    5  A    between atoms: O1_21  and  C19_22 
REMARK    6  A    between atoms: C19_22  and  C20_24 
REMARK    7  A    between atoms: C20_24  and  C21_25 
REMARK    8  A    between atoms: C21_25  and  O3_28 
REMARK    9  A    between atoms: C26_32  and  O4_33 
ROOT
HETATM    1  C8  UNL     1      -1.259  20.866  -0.847  1.00  0.00     0.001 C 
HETATM    2  C9  UNL     1      -1.900  19.651  -0.203  1.00  0.00     0.006 C 
HETATM    3  C10 UNL     1      -0.899  19.496   0.963  1.00  0.00     0.006 C 
HETATM    4  C11 UNL     1       0.423  19.889   0.381  1.00  0.00     0.001 C 
HETATM    5  C12 UNL     1       1.152  20.945   1.102  1.00  0.00    -0.002 C 
HETATM    6  C13 UNL     1       0.568  21.403   2.403  1.00  0.00     0.010 C 
HETATM    7  C14 UNL     1       1.503  22.517   2.911  1.00  0.00    -0.009 C 
HETATM    8  C15 UNL     1       1.150  23.849   2.342  1.00  0.00     0.005 C 
HETATM    9  C16 UNL     1       2.028  24.283   1.192  1.00  0.00     0.011 C 
HETATM   10  C17 UNL     1       2.446  23.005   0.447  1.00  0.00     0.040 C 
HETATM   11  C18 UNL     1       3.427  22.347   1.354  1.00  0.00     0.015 C 
HETATM   12  N1  UNL     1       4.586  21.977   1.000  1.00  0.00    -0.266 N 
ATOM     13  H1  UNL     1       4.902  22.123   0.042  1.00  0.00     0.194 HD
HETATM   14  C24 UNL     1       2.946  22.139   2.766  1.00  0.00     0.059 C 
HETATM   15  C25 UNL     1       1.227  22.164   0.199  1.00  0.00     0.029 C 
HETATM   16  C26 UNL     1       1.162  21.548  -1.145  1.00  0.00     0.132 C 
HETATM   17  C27 UNL     1       0.133  20.462  -1.023  1.00  0.00    -0.010 C 
HETATM   18  C28 UNL     1       0.462  19.389  -1.983  1.00  0.00     0.018 C 
ENDROOT
BRANCH  12  19
HETATM   19  O1  UNL     1       5.413  21.378   1.918  1.00  0.00    -0.200 OA
BRANCH  19  20
HETATM   20  C19 UNL     1       5.844  20.089   1.743  1.00  0.00     0.284 C 
HETATM   21  O2  UNL     1       5.340  19.431   0.779  1.00  0.00    -0.263 OA
BRANCH  20  22
HETATM   22  C20 UNL     1       6.862  19.486   2.651  1.00  0.00     0.150 C 
BRANCH  22  23
HETATM   23  C21 UNL     1       8.246  19.958   2.268  1.00  0.00     0.059 C 
HETATM   24  C22 UNL     1       8.776  20.937   3.270  1.00  0.00     0.045 C 
HETATM   25  C23 UNL     1       9.177  18.770   2.124  1.00  0.00     0.045 C 
BRANCH  23  26
HETATM   26  O3  UNL     1       8.134  20.527   0.988  1.00  0.00    -0.390 OA
ATOM     27  H3  UNL     1       8.906  20.257   0.504  1.00  0.00     0.210 HD
ENDBRANCH  23  26
ENDBRANCH  22  23
ENDBRANCH  20  22
ENDBRANCH  19  20
ENDBRANCH  12  19
BRANCH  16  28
HETATM   28  O4  UNL     1       1.023  22.392  -2.201  1.00  0.00    -0.394 OA
ATOM     29  H4  UNL     1       0.864  21.995  -3.049  1.00  0.00     0.210 HD
ENDBRANCH  16  28
BRANCH   1  30
HETATM   30  C6  UNL     1      -2.017  21.588  -1.837  1.00  0.00    -0.010 C 
HETATM   31  C7  UNL     1      -3.500  21.678  -1.410  1.00  0.00     0.010 C 
BRANCH  30  32
HETATM   32  C5  UNL     1      -2.025  21.227  -3.269  1.00  0.00     0.032 C 
BRANCH  32  33
HETATM   33  C4  UNL     1      -2.968  20.156  -3.664  1.00  0.00    -0.024 C 
HETATM   34  C2  UNL     1      -2.626  19.230  -4.522  1.00  0.00    -0.091 C 
HETATM   35  C1  UNL     1      -3.674  18.181  -4.850  1.00  0.00     0.042 C 
HETATM   36  C3  UNL     1      -1.332  19.134  -5.208  1.00  0.00     0.042 C 
ENDBRANCH  32  33
ENDBRANCH  30  32
ENDBRANCH   1  30
TORSDOF 9
ENDMDL
MODEL 4
REMARK VINA RESULT: -7.338790257      3.988      6.607
REMARK  9 active torsions:
REMARK  status: ('A' for Active; 'I' for Inactive)
REMARK    1  A    between atoms: C4_4  and  C5_5 
REMARK    2  A    between atoms: C5_5  and  C6_6 
REMARK    3  A    between atoms: C6_6  and  C8_8 
REMARK    4  A    between atoms: N1_19  and  O1_21 
REMARK    5  A    between atoms: O1_21  and  C19_22 
REMARK    6  A    between atoms: C19_22  and  C20_24 
REMARK    7  A    between atoms: C20_24  and  C21_25 
REMARK    8  A    between atoms: C21_25  and  O3_28 
REMARK    9  A    between atoms: C26_32  and  O4_33 
ROOT
HETATM    1  C8  UNL     1      -1.132  20.901  -0.912  1.00  0.00     0.001 C 
HETATM    2  C9  UNL     1      -1.930  19.708  -0.424  1.00  0.00     0.006 C 
HETATM    3  C10 UNL     1      -1.197  19.518   0.922  1.00  0.00     0.006 C 
HETATM    4  C11 UNL     1       0.228  19.867   0.628  1.00  0.00     0.001 C 
HETATM    5  C12 UNL     1       0.827  20.898   1.493  1.00  0.00    -0.002 C 
HETATM    6  C13 UNL     1       0.002  21.373   2.649  1.00  0.00     0.010 C 
HETATM    7  C14 UNL     1       0.847  22.455   3.348  1.00  0.00    -0.009 C 
HETATM    8  C15 UNL     1       0.661  23.798   2.731  1.00  0.00     0.005 C 
HETATM    9  C16 UNL     1       1.771  24.206   1.790  1.00  0.00     0.011 C 
HETATM   10  C17 UNL     1       2.293  22.915   1.136  1.00  0.00     0.040 C 
HETATM   11  C18 UNL     1       3.044  22.224   2.220  1.00  0.00     0.015 C 
HETATM   12  N1  UNL     1       4.239  21.817   2.109  1.00  0.00    -0.266 N 
ATOM     13  H1  UNL     1       4.750  21.954   1.238  1.00  0.00     0.194 HD
HETATM   14  C24 UNL     1       2.276  22.029   3.501  1.00  0.00     0.059 C 
HETATM   15  C25 UNL     1       1.125  22.115   0.635  1.00  0.00     0.029 C 
HETATM   16  C26 UNL     1       1.318  21.504  -0.698  1.00  0.00     0.132 C 
HETATM   17  C27 UNL     1       0.253  20.453  -0.800  1.00  0.00    -0.010 C 
HETATM   18  C28 UNL     1       0.738  19.371  -1.681  1.00  0.00     0.018 C 
ENDROOT
BRANCH  12  19
HETATM   19  O1  UNL     1       4.840  21.189   3.172  1.00  0.00    -0.200 OA
BRANCH  19  20
HETATM   20  C19 UNL     1       6.187  20.938   3.174  1.00  0.00     0.284 C 
HETATM   21  O2  UNL     1       6.958  21.894   3.501  1.00  0.00    -0.263 OA
BRANCH  20  22
HETATM   22  C20 UNL     1       6.722  19.596   2.805  1.00  0.00     0.150 C 
BRANCH  22  23
HETATM   23  C21 UNL     1       7.245  19.615   1.387  1.00  0.00     0.059 C 
HETATM   24  C22 UNL     1       8.739  19.722   1.368  1.00  0.00     0.045 C 
HETATM   25  C23 UNL     1       6.778  18.377   0.646  1.00  0.00     0.045 C 
BRANCH  23  26
HETATM   26  O3  UNL     1       6.634  20.708   0.750  1.00  0.00    -0.390 OA
ATOM     27  H3  UNL     1       6.773  20.590  -0.183  1.00  0.00     0.210 HD
ENDBRANCH  23  26
ENDBRANCH  22  23
ENDBRANCH  20  22
ENDBRANCH  19  20
ENDBRANCH  12  19
BRANCH  16  28
HETATM   28  O4  UNL     1       1.427  22.354  -1.753  1.00  0.00    -0.394 OA
ATOM     29  H4  UNL     1       2.093  22.152  -2.400  1.00  0.00     0.210 HD
ENDBRANCH  16  28
BRANCH   1  30
HETATM   30  C6  UNL     1      -1.646  21.650  -2.030  1.00  0.00    -0.010 C 
HETATM   31  C7  UNL     1      -3.132  22.005  -1.794  1.00  0.00     0.010 C 
BRANCH  30  32
HETATM   32  C5  UNL     1      -1.555  21.179  -3.427  1.00  0.00     0.032 C 
BRANCH  32  33
HETATM   33  C4  UNL     1      -2.687  20.355  -3.911  1.00  0.00    -0.024 C 
HETATM   34  C2  UNL     1      -2.492  19.182  -4.454  1.00  0.00    -0.091 C 
HETATM   35  C1  UNL     1      -3.728  18.426  -4.911  1.00  0.00     0.042 C 
HETATM   36  C3  UNL     1      -1.187  18.548  -4.678  1.00  0.00     0.042 C 
ENDBRANCH  32  33
ENDBRANCH  30  32
ENDBRANCH   1  30
TORSDOF 9
ENDMDL
MODEL 5
REMARK VINA RESULT: -7.239102124      4.060      6.734
REMARK  9 active torsions:
REMARK  status: ('A' for Active; 'I' for Inactive)
REMARK    1  A    between atoms: C4_4  and  C5_5 
REMARK    2  A    between atoms: C5_5  and  C6_6 
REMARK    3  A    between atoms: C6_6  and  C8_8 
REMARK    4  A    between atoms: N1_19  and  O1_21 
REMARK    5  A    between atoms: O1_21  and  C19_22 
REMARK    6  A    between atoms: C19_22  and  C20_24 
REMARK    7  A    between atoms: C20_24  and  C21_25 
REMARK    8  A    between atoms: C21_25  and  O3_28 
REMARK    9  A    between atoms: C26_32  and  O4_33 
ROOT
HETATM    1  C8  UNL     1      -1.215  20.814  -0.858  1.00  0.00     0.001 C 
HETATM    2  C9  UNL     1      -1.810  19.552  -0.263  1.00  0.00     0.006 C 
HETATM    3  C10 UNL     1      -0.795  19.380   0.888  1.00  0.00     0.006 C 
HETATM    4  C11 UNL     1       0.509  19.841   0.315  1.00  0.00     0.001 C 
HETATM    5  C12 UNL     1       1.209  20.888   1.076  1.00  0.00    -0.002 C 
HETATM    6  C13 UNL     1       0.622  21.271   2.399  1.00  0.00     0.010 C 
HETATM    7  C14 UNL     1       1.524  22.392   2.948  1.00  0.00    -0.009 C 
HETATM    8  C15 UNL     1       1.123  23.735   2.441  1.00  0.00     0.005 C 
HETATM    9  C16 UNL     1       1.976  24.247   1.305  1.00  0.00     0.011 C 
HETATM   10  C17 UNL     1       2.430  23.017   0.502  1.00  0.00     0.040 C 
HETATM   11  C18 UNL     1       3.439  22.353   1.372  1.00  0.00     0.015 C 
HETATM   12  N1  UNL     1       4.606  22.037   0.994  1.00  0.00    -0.266 N 
ATOM     13  H1  UNL     1       4.909  22.234   0.041  1.00  0.00     0.194 HD
HETATM   14  C24 UNL     1       2.977  22.068   2.777  1.00  0.00     0.059 C 
HETATM   15  C25 UNL     1       1.236  22.147   0.226  1.00  0.00     0.029 C 
HETATM   16  C26 UNL     1       1.180  21.588  -1.143  1.00  0.00     0.132 C 
HETATM   17  C27 UNL     1       0.188  20.465  -1.061  1.00  0.00    -0.010 C 
HETATM   18  C28 UNL     1       0.544  19.445  -2.069  1.00  0.00     0.018 C 
ENDROOT
BRANCH  12  19
HETATM   19  O1  UNL     1       5.461  21.427   1.879  1.00  0.00    -0.200 OA
BRANCH  19  20
HETATM   20  C19 UNL     1       6.081  20.247   1.560  1.00  0.00     0.284 C 
HETATM   21  O2  UNL     1       6.970  20.282   0.652  1.00  0.00    -0.263 OA
BRANCH  20  22
HETATM   22  C20 UNL     1       5.724  18.976   2.254  1.00  0.00     0.150 C 
BRANCH  22  23
HETATM   23  C21 UNL     1       4.571  18.302   1.546  1.00  0.00     0.059 C 
HETATM   24  C22 UNL     1       4.923  16.897   1.164  1.00  0.00     0.045 C 
HETATM   25  C23 UNL     1       3.335  18.334   2.424  1.00  0.00     0.045 C 
BRANCH  23  26
HETATM   26  O3  UNL     1       4.275  19.092   0.423  1.00  0.00    -0.390 OA
ATOM     27  H3  UNL     1       4.170  19.982   0.738  1.00  0.00     0.210 HD
ENDBRANCH  23  26
ENDBRANCH  22  23
ENDBRANCH  20  22
ENDBRANCH  19  20
ENDBRANCH  12  19
BRANCH  16  28
HETATM   28  O4  UNL     1       1.004  22.472  -2.160  1.00  0.00    -0.394 OA
ATOM     29  H4  UNL     1       1.540  22.346  -2.934  1.00  0.00     0.210 HD
ENDBRANCH  16  28
BRANCH   1  30
HETATM   30  C6  UNL     1      -2.004  21.553  -1.809  1.00  0.00    -0.010 C 
HETATM   31  C7  UNL     1      -3.480  21.602  -1.352  1.00  0.00     0.010 C 
BRANCH  30  32
HETATM   32  C5  UNL     1      -2.034  21.237  -3.252  1.00  0.00     0.032 C 
BRANCH  32  33
HETATM   33  C4  UNL     1      -2.984  20.180  -3.666  1.00  0.00    -0.024 C 
HETATM   34  C2  UNL     1      -2.644  19.258  -4.531  1.00  0.00    -0.091 C 
HETATM   35  C1  UNL     1      -3.700  18.223  -4.879  1.00  0.00     0.042 C 
HETATM   36  C3  UNL     1      -1.344  19.156  -5.205  1.00  0.00     0.042 C 
ENDBRANCH  32  33
ENDBRANCH  30  32
ENDBRANCH   1  30
TORSDOF 9
ENDMDL
