MODEL 1
REMARK VINA RESULT: -8.218915777      0.000      0.000
REMARK  7 active torsions:
REMARK  status: ('A' for Active; 'I' for Inactive)
REMARK    1  A    between atoms: C2_2  and  O1_3 
REMARK    2  A    between atoms: O1_3  and  C3_4 
REMARK       I    between atoms: C3_4  and  N1_6 
REMARK    3  A    between atoms: N2_9  and  C6_10 
REMARK    4  A    between atoms: C6_10  and  C9_13 
REMARK    5  A    between atoms: C12_16  and  N3_17 
REMARK    6  A    between atoms: C17_25  and  N5_26 
REMARK       I    between atoms: N5_26  and  C18_28 
REMARK       I    between atoms: C18_28  and  N6_30 
REMARK    7  A    between atoms: N6_30  and  C19_32 
ROOT
HETATM    1  C9  UNL     1       0.681  20.499   4.869  1.00  0.00     0.013 C 
HETATM    2  C10 UNL     1      -0.741  20.367   4.341  1.00  0.00     0.009 C 
HETATM    3  C11 UNL     1      -0.785  20.984   2.959  1.00  0.00     0.026 C 
HETATM    4  C12 UNL     1       0.215  20.387   2.030  1.00  0.00     0.091 C 
HETATM    5  C24 UNL     1       1.167  19.411   2.651  1.00  0.00     0.026 C 
HETATM    6  C25 UNL     1       1.667  19.755   4.001  1.00  0.00     0.009 C 
ENDROOT
BRANCH   4   7
HETATM    7  N3  UNL     1       0.907  21.455   1.329  1.00  0.00    -0.336 N 
HETATM    8  C13 UNL     1       1.468  21.442   0.122  1.00  0.00     0.184 A 
HETATM    9  N4  UNL     1       2.010  22.634  -0.175  1.00  0.00    -0.350 N 
HETATM   10  C14 UNL     1       1.790  23.433   0.869  1.00  0.00     0.063 A 
ATOM     11  H4  UNL     1       2.498  22.881  -1.036  1.00  0.00     0.166 HD
HETATM   12  C15 UNL     1       2.097  24.747   1.156  1.00  0.00     0.076 A 
HETATM   13  C23 UNL     1       1.109  22.720   1.808  1.00  0.00     0.065 A 
HETATM   14  C16 UNL     1       1.737  25.329   2.341  1.00  0.00     0.145 A 
HETATM   15  F1  UNL     1       2.058  26.635   2.594  1.00  0.00    -0.204 F 
HETATM   16  C17 UNL     1       1.032  24.607   3.326  1.00  0.00     0.077 A 
HETATM   17  C22 UNL     1       0.742  23.307   3.010  1.00  0.00     0.064 A 
BRANCH  16  18
HETATM   18  N5  UNL     1       0.679  25.265   4.527  1.00  0.00    -0.306 N 
HETATM   19  C18 UNL     1      -0.577  25.672   4.935  1.00  0.00     0.321 C 
HETATM   20  O3  UNL     1      -1.612  25.490   4.254  1.00  0.00    -0.247 OA
HETATM   21  N6  UNL     1      -0.723  26.341   6.203  1.00  0.00    -0.339 N 
ATOM     22  H6  UNL     1       0.103  26.505   6.779  1.00  0.00     0.164 HD
ATOM     23  H5  UNL     1       1.446  25.464   5.170  1.00  0.00     0.171 HD
BRANCH  21  24
HETATM   24  C19 UNL     1      -2.016  26.785   6.676  1.00  0.00     0.078 C 
HETATM   25  C20 UNL     1      -2.465  27.997   5.860  1.00  0.00     0.032 C 
HETATM   26  C21 UNL     1      -1.994  27.203   8.117  1.00  0.00     0.032 C 
ENDBRANCH  21  24
ENDBRANCH  16  18
ENDBRANCH   4   7
BRANCH   1  27
HETATM   27  C6  UNL     1       0.795  20.154   6.331  1.00  0.00     0.028 C 
HETATM   28  C7  UNL     1       2.176  19.544   6.525  1.00  0.00     0.038 C 
HETATM   29  C8  UNL     1       0.824  21.470   7.083  1.00  0.00     0.038 C 
BRANCH  27  30
HETATM   30  N2  UNL     1      -0.137  19.225   6.815  1.00  0.00    -0.381 N 
HETATM   31  C5  UNL     1      -1.068  19.563   7.807  1.00  0.00     0.079 C 
HETATM   32  C4  UNL     1      -0.943  18.777   9.092  1.00  0.00     0.172 C 
HETATM   33  N1  UNL     1      -1.043  17.371   8.809  1.00  0.00    -0.322 N 
HETATM   34  C3  UNL     1      -1.485  16.430   9.807  1.00  0.00     0.367 C 
HETATM   35  C27 UNL     1      -0.678  16.931   7.476  1.00  0.00     0.148 C 
HETATM   36  O2  UNL     1      -1.569  15.208   9.543  1.00  0.00    -0.238 OA
HETATM   37  C26 UNL     1       0.401  17.915   6.997  1.00  0.00     0.143 C 
BRANCH  34  38
HETATM   38  O1  UNL     1      -1.827  16.851  11.078  1.00  0.00    -0.275 OA
BRANCH  38  39
HETATM   39  C2  UNL     1      -3.119  17.024  11.511  1.00  0.00     0.137 C 
HETATM   40  C1  UNL     1      -4.063  17.401  10.675  1.00  0.00     0.038 C 
ENDBRANCH  38  39
ENDBRANCH  34  38
ENDBRANCH  27  30
ENDBRANCH   1  27
TORSDOF 7
ENDMDL
MODEL 2
REMARK VINA RESULT: -8.078802389      4.242      9.776
REMARK  7 active torsions:
REMARK  status: ('A' for Active; 'I' for Inactive)
REMARK    1  A    between atoms: C2_2  and  O1_3 
REMARK    2  A    between atoms: O1_3  and  C3_4 
REMARK       I    between atoms: C3_4  and  N1_6 
REMARK    3  A    between atoms: N2_9  and  C6_10 
REMARK    4  A    between atoms: C6_10  and  C9_13 
REMARK    5  A    between atoms: C12_16  and  N3_17 
REMARK    6  A    between atoms: C17_25  and  N5_26 
REMARK       I    between atoms: N5_26  and  C18_28 
REMARK       I    between atoms: C18_28  and  N6_30 
REMARK    7  A    between atoms: N6_30  and  C19_32 
ROOT
HETATM    1  C9  UNL     1       0.739  22.146   2.501  1.00  0.00     0.013 C 
HETATM    2  C10 UNL     1       0.759  23.469   3.254  1.00  0.00     0.009 C 
HETATM    3  C11 UNL     1      -0.150  23.334   4.458  1.00  0.00     0.026 C 
HETATM    4  C12 UNL     1       0.219  22.187   5.333  1.00  0.00     0.091 C 
HETATM    5  C24 UNL     1       1.302  21.298   4.804  1.00  0.00     0.026 C 
HETATM    6  C25 UNL     1       1.265  21.015   3.351  1.00  0.00     0.009 C 
ENDROOT
BRANCH   4   7
HETATM    7  N3  UNL     1      -0.982  21.443   5.669  1.00  0.00    -0.336 N 
HETATM    8  C13 UNL     1      -2.160  21.425   5.049  1.00  0.00     0.184 A 
HETATM    9  N4  UNL     1      -3.023  20.603   5.670  1.00  0.00    -0.350 N 
HETATM   10  C14 UNL     1      -2.382  20.080   6.713  1.00  0.00     0.063 A 
ATOM     11  H4  UNL     1      -3.987  20.416   5.393  1.00  0.00     0.166 HD
HETATM   12  C15 UNL     1      -2.728  19.187   7.707  1.00  0.00     0.076 A 
HETATM   13  C23 UNL     1      -1.119  20.588   6.728  1.00  0.00     0.065 A 
HETATM   14  C16 UNL     1      -1.844  18.815   8.682  1.00  0.00     0.145 A 
HETATM   15  F1  UNL     1      -2.221  17.928   9.653  1.00  0.00    -0.204 F 
HETATM   16  C17 UNL     1      -0.532  19.331   8.715  1.00  0.00     0.077 A 
HETATM   17  C22 UNL     1      -0.219  20.213   7.716  1.00  0.00     0.064 A 
BRANCH  16  18
HETATM   18  N5  UNL     1       0.340  18.902   9.743  1.00  0.00    -0.306 N 
HETATM   19  C18 UNL     1       1.198  17.819   9.731  1.00  0.00     0.321 C 
HETATM   20  O3  UNL     1       1.318  17.049   8.751  1.00  0.00    -0.247 OA
HETATM   21  N6  UNL     1       2.003  17.546  10.896  1.00  0.00    -0.339 N 
ATOM     22  H6  UNL     1       1.926  18.155  11.710  1.00  0.00     0.164 HD
ATOM     23  H5  UNL     1       0.334  19.460  10.597  1.00  0.00     0.171 HD
BRANCH  21  24
HETATM   24  C19 UNL     1       2.917  16.426  10.933  1.00  0.00     0.078 C 
HETATM   25  C20 UNL     1       2.255  15.255  11.659  1.00  0.00     0.032 C 
HETATM   26  C21 UNL     1       4.189  16.740  11.665  1.00  0.00     0.032 C 
ENDBRANCH  21  24
ENDBRANCH  16  18
ENDBRANCH   4   7
BRANCH   1  27
HETATM   27  C6  UNL     1       1.401  22.234   1.150  1.00  0.00     0.028 C 
HETATM   28  C7  UNL     1       1.955  23.646   1.031  1.00  0.00     0.038 C 
HETATM   29  C8  UNL     1       2.612  21.325   1.206  1.00  0.00     0.038 C 
BRANCH  27  30
HETATM   30  N2  UNL     1       0.564  22.026   0.046  1.00  0.00    -0.381 N 
HETATM   31  C5  UNL     1      -0.150  20.831  -0.125  1.00  0.00     0.079 C 
HETATM   32  C4  UNL     1       0.209  20.046  -1.366  1.00  0.00     0.172 C 
HETATM   33  N1  UNL     1       0.030  20.873  -2.528  1.00  0.00    -0.322 N 
HETATM   34  C3  UNL     1      -0.227  20.304  -3.827  1.00  0.00     0.367 C 
HETATM   35  C27 UNL     1       0.119  22.309  -2.345  1.00  0.00     0.148 C 
HETATM   36  O2  UNL     1      -0.383  21.040  -4.829  1.00  0.00    -0.238 OA
HETATM   37  C26 UNL     1       1.102  22.517  -1.183  1.00  0.00     0.143 C 
BRANCH  34  38
HETATM   38  O1  UNL     1      -0.307  18.935  -3.999  1.00  0.00    -0.275 OA
BRANCH  38  39
HETATM   39  C2  UNL     1      -0.061  18.292  -5.187  1.00  0.00     0.137 C 
HETATM   40  C1  UNL     1       0.020  16.978  -5.235  1.00  0.00     0.038 C 
ENDBRANCH  38  39
ENDBRANCH  34  38
ENDBRANCH  27  30
ENDBRANCH   1  27
TORSDOF 7
ENDMDL
MODEL 3
REMARK VINA RESULT: -8.003346475      2.379      4.177
REMARK  7 active torsions:
REMARK  status: ('A' for Active; 'I' for Inactive)
REMARK    1  A    between atoms: C2_2  and  O1_3 
REMARK    2  A    between atoms: O1_3  and  C3_4 
REMARK       I    between atoms: C3_4  and  N1_6 
REMARK    3  A    between atoms: N2_9  and  C6_10 
REMARK    4  A    between atoms: C6_10  and  C9_13 
REMARK    5  A    between atoms: C12_16  and  N3_17 
REMARK    6  A    between atoms: C17_25  and  N5_26 
REMARK       I    between atoms: N5_26  and  C18_28 
REMARK       I    between atoms: C18_28  and  N6_30 
REMARK    7  A    between atoms: N6_30  and  C19_32 
ROOT
HETATM    1  C9  UNL     1       3.152  20.411   3.445  1.00  0.00     0.013 C 
HETATM    2  C10 UNL     1       2.332  19.956   2.246  1.00  0.00     0.009 C 
HETATM    3  C11 UNL     1       1.670  21.177   1.642  1.00  0.00     0.026 C 
HETATM    4  C12 UNL     1       2.647  22.242   1.280  1.00  0.00     0.091 C 
HETATM    5  C24 UNL     1       4.061  21.989   1.705  1.00  0.00     0.026 C 
HETATM    6  C25 UNL     1       4.243  21.374   3.040  1.00  0.00     0.009 C 
ENDROOT
BRANCH   4   7
HETATM    7  N3  UNL     1       2.152  23.520   1.762  1.00  0.00    -0.336 N 
HETATM    8  C13 UNL     1       2.382  24.743   1.287  1.00  0.00     0.184 A 
HETATM    9  N4  UNL     1       1.739  25.674   2.010  1.00  0.00    -0.350 N 
HETATM   10  C14 UNL     1       1.080  25.032   2.974  1.00  0.00     0.063 A 
ATOM     11  H4  UNL     1       1.754  26.682   1.852  1.00  0.00     0.166 HD
HETATM   12  C15 UNL     1       0.257  25.432   4.007  1.00  0.00     0.076 A 
HETATM   13  C23 UNL     1       1.324  23.700   2.835  1.00  0.00     0.065 A 
HETATM   14  C16 UNL     1      -0.302  24.532   4.872  1.00  0.00     0.145 A 
HETATM   15  F1  UNL     1      -1.113  24.963   5.887  1.00  0.00    -0.204 F 
HETATM   16  C17 UNL     1      -0.061  23.148   4.746  1.00  0.00     0.077 A 
HETATM   17  C22 UNL     1       0.759  22.785   3.711  1.00  0.00     0.064 A 
BRANCH  16  18
HETATM   18  N5  UNL     1      -0.674  22.266   5.665  1.00  0.00    -0.306 N 
HETATM   19  C18 UNL     1      -1.746  21.421   5.445  1.00  0.00     0.321 C 
HETATM   20  O3  UNL     1      -2.329  21.326   4.342  1.00  0.00    -0.247 OA
HETATM   21  N6  UNL     1      -2.229  20.601   6.528  1.00  0.00    -0.339 N 
ATOM     22  H6  UNL     1      -1.774  20.658   7.439  1.00  0.00     0.164 HD
ATOM     23  H5  UNL     1      -0.277  22.251   6.605  1.00  0.00     0.171 HD
BRANCH  21  24
HETATM   24  C19 UNL     1      -3.346  19.700   6.349  1.00  0.00     0.078 C 
HETATM   25  C20 UNL     1      -4.023  19.456   7.698  1.00  0.00     0.032 C 
HETATM   26  C21 UNL     1      -2.930  18.361   5.813  1.00  0.00     0.032 C 
ENDBRANCH  21  24
ENDBRANCH  16  18
ENDBRANCH   4   7
BRANCH   1  27
HETATM   27  C6  UNL     1       3.652  19.262   4.281  1.00  0.00     0.028 C 
HETATM   28  C7  UNL     1       3.283  17.990   3.532  1.00  0.00     0.038 C 
HETATM   29  C8  UNL     1       5.166  19.331   4.244  1.00  0.00     0.038 C 
BRANCH  27  30
HETATM   30  N2  UNL     1       3.103  19.157   5.566  1.00  0.00    -0.381 N 
HETATM   31  C5  UNL     1       2.952  17.917   6.204  1.00  0.00     0.079 C 
HETATM   32  C4  UNL     1       1.524  17.535   6.523  1.00  0.00     0.172 C 
HETATM   33  N1  UNL     1       0.920  18.559   7.331  1.00  0.00    -0.322 N 
HETATM   34  C3  UNL     1      -0.184  18.273   8.212  1.00  0.00     0.367 C 
HETATM   35  C27 UNL     1       1.464  19.900   7.226  1.00  0.00     0.148 C 
HETATM   36  O2  UNL     1      -0.697  19.177   8.911  1.00  0.00    -0.238 OA
HETATM   37  C26 UNL     1       1.988  20.022   5.787  1.00  0.00     0.143 C 
BRANCH  34  38
HETATM   38  O1  UNL     1      -0.703  16.996   8.306  1.00  0.00    -0.275 OA
BRANCH  38  39
HETATM   39  C2  UNL     1      -1.767  16.653   9.104  1.00  0.00     0.137 C 
HETATM   40  C1  UNL     1      -2.758  15.928   8.627  1.00  0.00     0.038 C 
ENDBRANCH  38  39
ENDBRANCH  34  38
ENDBRANCH  27  30
ENDBRANCH   1  27
TORSDOF 7
ENDMDL
MODEL 4
REMARK VINA RESULT: -7.939076089      4.586      9.633
REMARK  7 active torsions:
REMARK  status: ('A' for Active; 'I' for Inactive)
REMARK    1  A    between atoms: C2_2  and  O1_3 
REMARK    2  A    between atoms: O1_3  and  C3_4 
REMARK       I    between atoms: C3_4  and  N1_6 
REMARK    3  A    between atoms: N2_9  and  C6_10 
REMARK    4  A    between atoms: C6_10  and  C9_13 
REMARK    5  A    between atoms: C12_16  and  N3_17 
REMARK    6  A    between atoms: C17_25  and  N5_26 
REMARK       I    between atoms: N5_26  and  C18_28 
REMARK       I    between atoms: C18_28  and  N6_30 
REMARK    7  A    between atoms: N6_30  and  C19_32 
ROOT
HETATM    1  C9  UNL     1       1.003  22.297   2.973  1.00  0.00     0.013 C 
HETATM    2  C10 UNL     1       0.705  23.669   3.562  1.00  0.00     0.009 C 
HETATM    3  C11 UNL     1      -0.382  23.504   4.603  1.00  0.00     0.026 C 
HETATM    4  C12 UNL     1      -0.027  22.509   5.653  1.00  0.00     0.091 C 
HETATM    5  C24 UNL     1       1.245  21.754   5.420  1.00  0.00     0.026 C 
HETATM    6  C25 UNL     1       1.513  21.339   4.024  1.00  0.00     0.009 C 
ENDROOT
BRANCH   4   7
HETATM    7  N3  UNL     1      -1.158  21.623   5.866  1.00  0.00    -0.336 N 
HETATM    8  C13 UNL     1      -2.308  21.552   5.199  1.00  0.00     0.184 A 
HETATM    9  N4  UNL     1      -3.103  20.593   5.701  1.00  0.00    -0.350 N 
HETATM   10  C14 UNL     1      -2.447  20.035   6.716  1.00  0.00     0.063 A 
ATOM     11  H4  UNL     1      -4.034  20.342   5.367  1.00  0.00     0.166 HD
HETATM   12  C15 UNL     1      -2.734  19.018   7.605  1.00  0.00     0.076 A 
HETATM   13  C23 UNL     1      -1.242  20.659   6.833  1.00  0.00     0.065 A 
HETATM   14  C16 UNL     1      -1.849  18.639   8.576  1.00  0.00     0.145 A 
HETATM   15  F1  UNL     1      -2.166  17.628   9.441  1.00  0.00    -0.204 F 
HETATM   16  C17 UNL     1      -0.597  19.273   8.713  1.00  0.00     0.077 A 
HETATM   17  C22 UNL     1      -0.342  20.276   7.817  1.00  0.00     0.064 A 
BRANCH  16  18
HETATM   18  N5  UNL     1       0.280  18.831   9.731  1.00  0.00    -0.306 N 
HETATM   19  C18 UNL     1       1.191  17.793   9.676  1.00  0.00     0.321 C 
HETATM   20  O3  UNL     1       1.363  17.085   8.658  1.00  0.00    -0.247 OA
HETATM   21  N6  UNL     1       1.991  17.497  10.837  1.00  0.00    -0.339 N 
ATOM     22  H6  UNL     1       1.871  18.055  11.682  1.00  0.00     0.164 HD
ATOM     23  H5  UNL     1       0.234  19.341  10.614  1.00  0.00     0.171 HD
BRANCH  21  24
HETATM   24  C19 UNL     1       2.959  16.422  10.830  1.00  0.00     0.078 C 
HETATM   25  C20 UNL     1       2.318  15.158  11.404  1.00  0.00     0.032 C 
HETATM   26  C21 UNL     1       4.168  16.725  11.665  1.00  0.00     0.032 C 
ENDBRANCH  21  24
ENDBRANCH  16  18
ENDBRANCH   4   7
BRANCH   1  27
HETATM   27  C6  UNL     1       1.883  22.364   1.752  1.00  0.00     0.028 C 
HETATM   28  C7  UNL     1       0.976  22.129   0.552  1.00  0.00     0.038 C 
HETATM   29  C8  UNL     1       2.346  23.802   1.634  1.00  0.00     0.038 C 
BRANCH  27  30
HETATM   30  N2  UNL     1       2.909  21.411   1.685  1.00  0.00    -0.381 N 
HETATM   31  C5  UNL     1       4.232  21.727   2.027  1.00  0.00     0.079 C 
HETATM   32  C4  UNL     1       5.231  21.587   0.902  1.00  0.00     0.172 C 
HETATM   33  N1  UNL     1       5.185  20.249   0.379  1.00  0.00    -0.322 N 
HETATM   34  C3  UNL     1       6.318  19.660  -0.289  1.00  0.00     0.367 C 
HETATM   35  C27 UNL     1       3.949  19.509   0.547  1.00  0.00     0.148 C 
HETATM   36  O2  UNL     1       6.261  18.491  -0.736  1.00  0.00    -0.238 OA
HETATM   37  C26 UNL     1       2.831  20.564   0.538  1.00  0.00     0.143 C 
BRANCH  34  38
HETATM   38  O1  UNL     1       7.493  20.369  -0.452  1.00  0.00    -0.275 OA
BRANCH  38  39
HETATM   39  C2  UNL     1       8.367  20.184  -1.495  1.00  0.00     0.137 C 
HETATM   40  C1  UNL     1       9.306  21.071  -1.750  1.00  0.00     0.038 C 
ENDBRANCH  38  39
ENDBRANCH  34  38
ENDBRANCH  27  30
ENDBRANCH   1  27
TORSDOF 7
ENDMDL
MODEL 5
REMARK VINA RESULT: -7.829730043      3.639      5.100
REMARK  7 active torsions:
REMARK  status: ('A' for Active; 'I' for Inactive)
REMARK    1  A    between atoms: C2_2  and  O1_3 
REMARK    2  A    between atoms: O1_3  and  C3_4 
REMARK       I    between atoms: C3_4  and  N1_6 
REMARK    3  A    between atoms: N2_9  and  C6_10 
REMARK    4  A    between atoms: C6_10  and  C9_13 
REMARK    5  A    between atoms: C12_16  and  N3_17 
REMARK    6  A    between atoms: C17_25  and  N5_26 
REMARK       I    between atoms: N5_26  and  C18_28 
REMARK       I    between atoms: C18_28  and  N6_30 
REMARK    7  A    between atoms: N6_30  and  C19_32 
ROOT
HETATM    1  C9  UNL     1       0.578  18.711   6.951  1.00  0.00     0.013 C 
HETATM    2  C10 UNL     1       0.651  19.609   8.178  1.00  0.00     0.009 C 
HETATM    3  C11 UNL     1       0.759  21.042   7.701  1.00  0.00     0.026 C 
HETATM    4  C12 UNL     1      -0.352  21.431   6.788  1.00  0.00     0.091 C 
HETATM    5  C24 UNL     1      -1.275  20.320   6.390  1.00  0.00     0.026 C 
HETATM    6  C25 UNL     1      -0.642  19.011   6.114  1.00  0.00     0.009 C 
ENDROOT
BRANCH   4   7
HETATM    7  N3  UNL     1       0.202  22.120   5.635  1.00  0.00    -0.336 N 
HETATM    8  C13 UNL     1       1.144  21.714   4.787  1.00  0.00     0.184 A 
HETATM    9  N4  UNL     1       1.381  22.641   3.844  1.00  0.00    -0.350 N 
HETATM   10  C14 UNL     1       0.569  23.667   4.094  1.00  0.00     0.063 A 
ATOM     11  H4  UNL     1       2.055  22.572   3.082  1.00  0.00     0.166 HD
HETATM   12  C15 UNL     1       0.348  24.889   3.491  1.00  0.00     0.076 A 
HETATM   13  C23 UNL     1      -0.167  23.362   5.199  1.00  0.00     0.065 A 
HETATM   14  C16 UNL     1      -0.575  25.775   3.974  1.00  0.00     0.145 A 
HETATM   15  F1  UNL     1      -0.768  26.978   3.352  1.00  0.00    -0.204 F 
HETATM   16  C17 UNL     1      -1.347  25.478   5.116  1.00  0.00     0.077 A 
HETATM   17  C22 UNL     1      -1.105  24.258   5.691  1.00  0.00     0.064 A 
BRANCH  16  18
HETATM   18  N5  UNL     1      -2.292  26.430   5.563  1.00  0.00    -0.306 N 
HETATM   19  C18 UNL     1      -2.141  27.370   6.566  1.00  0.00     0.321 C 
HETATM   20  O3  UNL     1      -1.087  27.502   7.229  1.00  0.00    -0.247 OA
HETATM   21  N6  UNL     1      -3.239  28.250   6.876  1.00  0.00    -0.339 N 
ATOM     22  H6  UNL     1      -4.111  28.165   6.353  1.00  0.00     0.164 HD
ATOM     23  H5  UNL     1      -3.195  26.422   5.088  1.00  0.00     0.171 HD
BRANCH  21  24
HETATM   24  C19 UNL     1      -3.131  29.251   7.914  1.00  0.00     0.078 C 
HETATM   25  C20 UNL     1      -3.704  28.694   9.218  1.00  0.00     0.032 C 
HETATM   26  C21 UNL     1      -3.894  30.503   7.594  1.00  0.00     0.032 C 
ENDBRANCH  21  24
ENDBRANCH  16  18
ENDBRANCH   4   7
BRANCH   1  27
HETATM   27  C6  UNL     1       0.725  17.250   7.288  1.00  0.00     0.028 C 
HETATM   28  C7  UNL     1       0.397  17.112   8.767  1.00  0.00     0.038 C 
HETATM   29  C8  UNL     1      -0.388  16.526   6.557  1.00  0.00     0.038 C 
BRANCH  27  30
HETATM   30  N2  UNL     1       2.001  16.703   7.097  1.00  0.00    -0.381 N 
HETATM   31  C5  UNL     1       2.470  15.635   7.875  1.00  0.00     0.079 C 
HETATM   32  C4  UNL     1       3.694  15.943   8.708  1.00  0.00     0.172 C 
HETATM   33  N1  UNL     1       4.754  16.407   7.855  1.00  0.00    -0.322 N 
HETATM   34  C3  UNL     1       6.138  16.275   8.231  1.00  0.00     0.367 C 
HETATM   35  C27 UNL     1       4.377  17.020   6.596  1.00  0.00     0.148 C 
HETATM   36  O2  UNL     1       7.050  16.683   7.475  1.00  0.00    -0.238 OA
HETATM   37  C26 UNL     1       3.013  17.681   6.849  1.00  0.00     0.143 C 
BRANCH  34  38
HETATM   38  O1  UNL     1       6.494  15.695   9.434  1.00  0.00    -0.275 OA
BRANCH  38  39
HETATM   39  C2  UNL     1       7.088  14.462   9.550  1.00  0.00     0.137 C 
HETATM   40  C1  UNL     1       6.559  13.405   8.969  1.00  0.00     0.038 C 
ENDBRANCH  38  39
ENDBRANCH  34  38
ENDBRANCH  27  30
ENDBRANCH   1  27
TORSDOF 7
ENDMDL
