MODEL 1
REMARK VINA RESULT: -7.944668389      0.000      0.000
REMARK  9 active torsions:
REMARK  status: ('A' for Active; 'I' for Inactive)
REMARK    1  A    between atoms: C3_5  and  C4_6 
REMARK    2  A    between atoms: N2_16  and  C13_17 
REMARK    3  A    between atoms: C14_20  and  N4_21 
REMARK    4  A    between atoms: N4_21  and  C15_23 
REMARK    5  A    between atoms: C15_23  and  N5_25 
REMARK    6  A    between atoms: N5_25  and  C16_27 
REMARK    7  A    between atoms: C16_27  and  C18_29 
REMARK    8  A    between atoms: C18_29  and  C19_30 
REMARK    9  A    between atoms: C19_30  and  C20_31 
ROOT
HETATM    1  C13 UNL     1      -0.972  26.002   4.933  1.00  0.00     0.707 A 
HETATM    2  N3  UNL     1      -2.006  26.559   4.297  1.00  0.00    -0.174 N 
ATOM      3  H3  UNL     1      -2.104  26.378   3.298  1.00  0.00     0.186 HD
HETATM    4  C14 UNL     1      -2.920  27.338   4.881  1.00  0.00     0.126 A 
HETATM    5  C23 UNL     1      -2.781  27.582   6.242  1.00  0.00     0.092 A 
HETATM    6  C24 UNL     1      -1.707  26.999   6.882  1.00  0.00     0.123 A 
HETATM    7 CL1  UNL     1      -1.501  27.284   8.597  1.00  0.00    -0.064 Cl
HETATM    8  N6  UNL     1      -0.818  26.223   6.244  1.00  0.00    -0.179 N 
ATOM      9  H6  UNL     1      -0.037  25.807   6.750  1.00  0.00     0.185 HD
ENDROOT
BRANCH   1  10
HETATM   10  N2  UNL     1      -0.063  25.182   4.174  1.00  0.00    -0.072 N 
HETATM   11  C3  UNL     1       0.248  23.913   4.485  1.00  0.00     0.127 A 
HETATM   12  N1  UNL     1       1.116  23.496   3.553  1.00  0.00    -0.333 N 
HETATM   13  C2  UNL     1       1.341  24.487   2.678  1.00  0.00     0.094 A 
ATOM     14  H1  UNL     1       1.540  22.569   3.515  1.00  0.00     0.168 HD
HETATM   15  C1  UNL     1       2.238  24.472   1.475  1.00  0.00     0.090 C 
HETATM   16  N7  UNL     1       0.599  25.524   3.084  1.00  0.00    -0.267 N 
ATOM     17  H7  UNL     1       0.552  26.434   2.625  1.00  0.00     0.189 HD
BRANCH  11  18
HETATM   18  C4  UNL     1      -0.292  23.149   5.653  1.00  0.00     0.061 C 
HETATM   19  C5  UNL     1       0.785  22.230   6.158  1.00  0.00     0.038 C 
HETATM   20  C6  UNL     1       1.004  21.022   5.313  1.00  0.00     0.169 C 
HETATM   21  O1  UNL     1      -0.047  20.669   4.512  1.00  0.00    -0.380 OA
HETATM   22  C7  UNL     1      -1.287  20.937   5.019  1.00  0.00     0.061 C 
HETATM   23  C8  UNL     1      -1.511  20.090   6.245  1.00  0.00     0.038 C 
HETATM   24  C11 UNL     1      -2.335  20.441   4.046  1.00  0.00     0.038 C 
HETATM   25  C12 UNL     1      -1.547  22.400   5.263  1.00  0.00     0.050 C 
HETATM   26  C9  UNL     1      -2.118  18.789   5.763  1.00  0.00     0.003 C 
HETATM   27  C10 UNL     1      -2.327  18.951   4.267  1.00  0.00     0.003 C 
ENDBRANCH  11  18
ENDBRANCH   1  10
BRANCH   4  28
HETATM   28  N4  UNL     1      -3.921  27.876   4.262  1.00  0.00    -0.319 N 
ATOM     29  H4  UNL     1      -4.782  27.359   4.081  1.00  0.00     0.169 HD
BRANCH  28  30
HETATM   30  C15 UNL     1      -3.755  29.238   3.843  1.00  0.00     0.173 C 
HETATM   31  S1  UNL     1      -4.899  29.932   2.863  1.00  0.00    -0.041 SA
BRANCH  30  32
HETATM   32  N5  UNL     1      -2.669  30.036   4.217  1.00  0.00    -0.363 N 
ATOM     33  H5  UNL     1      -1.720  29.725   4.008  1.00  0.00     0.162 HD
BRANCH  32  34
HETATM   34  C16 UNL     1      -2.877  31.299   4.896  1.00  0.00     0.079 C 
HETATM   35  C17 UNL     1      -2.256  32.453   4.213  1.00  0.00     0.032 C 
BRANCH  34  36
HETATM   36  C18 UNL     1      -2.712  31.181   6.374  1.00  0.00     0.025 C 
BRANCH  36  37
HETATM   37  C19 UNL     1      -3.922  31.003   7.197  1.00  0.00     0.006 C 
BRANCH  37  38
HETATM   38  C20 UNL     1      -3.769  31.072   8.681  1.00  0.00    -0.023 C 
HETATM   39  C21 UNL     1      -4.768  31.963   9.369  1.00  0.00     0.009 C 
HETATM   40  C22 UNL     1      -4.007  29.621   9.177  1.00  0.00     0.009 C 
ENDBRANCH  37  38
ENDBRANCH  36  37
ENDBRANCH  34  36
ENDBRANCH  32  34
ENDBRANCH  30  32
ENDBRANCH  28  30
ENDBRANCH   4  28
TORSDOF 9
ENDMDL
MODEL 2
REMARK VINA RESULT: -7.775942357      3.463      9.101
REMARK  9 active torsions:
REMARK  status: ('A' for Active; 'I' for Inactive)
REMARK    1  A    between atoms: C3_5  and  C4_6 
REMARK    2  A    between atoms: N2_16  and  C13_17 
REMARK    3  A    between atoms: C14_20  and  N4_21 
REMARK    4  A    between atoms: N4_21  and  C15_23 
REMARK    5  A    between atoms: C15_23  and  N5_25 
REMARK    6  A    between atoms: N5_25  and  C16_27 
REMARK    7  A    between atoms: C16_27  and  C18_29 
REMARK    8  A    between atoms: C18_29  and  C19_30 
REMARK    9  A    between atoms: C19_30  and  C20_31 
ROOT
HETATM    1  C13 UNL     1      -1.553  26.226   5.591  1.00  0.00     0.707 A 
HETATM    2  N3  UNL     1      -1.862  24.948   5.828  1.00  0.00    -0.174 N 
ATOM      3  H3  UNL     1      -2.561  24.752   6.543  1.00  0.00     0.186 HD
HETATM    4  C14 UNL     1      -1.316  23.909   5.190  1.00  0.00     0.126 A 
HETATM    5  C23 UNL     1      -0.362  24.182   4.216  1.00  0.00     0.092 A 
HETATM    6  C24 UNL     1      -0.056  25.508   3.986  1.00  0.00     0.123 A 
HETATM    7 CL1  UNL     1       1.141  25.889   2.767  1.00  0.00    -0.064 Cl
HETATM    8  N6  UNL     1      -0.638  26.513   4.658  1.00  0.00    -0.179 N 
ATOM      9  H6  UNL     1      -0.386  27.481   4.461  1.00  0.00     0.185 HD
ENDROOT
BRANCH   1  10
HETATM   10  N2  UNL     1      -2.223  27.245   6.357  1.00  0.00    -0.072 N 
HETATM   11  C3  UNL     1      -2.787  28.342   5.824  1.00  0.00     0.127 A 
HETATM   12  N1  UNL     1      -3.301  29.038   6.846  1.00  0.00    -0.333 N 
HETATM   13  C2  UNL     1      -3.064  28.387   7.995  1.00  0.00     0.094 A 
ATOM     14  H1  UNL     1      -3.797  29.926   6.764  1.00  0.00     0.168 HD
HETATM   15  C1  UNL     1      -3.456  28.793   9.386  1.00  0.00     0.090 C 
HETATM   16  N7  UNL     1      -2.393  27.277   7.666  1.00  0.00    -0.267 N 
ATOM     17  H7  UNL     1      -2.065  26.568   8.322  1.00  0.00     0.189 HD
BRANCH  11  18
HETATM   18  C4  UNL     1      -2.812  28.681   4.367  1.00  0.00     0.061 C 
HETATM   19  C5  UNL     1      -2.469  30.138   4.213  1.00  0.00     0.038 C 
HETATM   20  C6  UNL     1      -3.576  31.067   4.576  1.00  0.00     0.169 C 
HETATM   21  O1  UNL     1      -4.833  30.526   4.539  1.00  0.00    -0.380 OA
HETATM   22  C7  UNL     1      -5.028  29.561   3.591  1.00  0.00     0.061 C 
HETATM   23  C8  UNL     1      -4.899  30.182   2.225  1.00  0.00     0.038 C 
HETATM   24  C11 UNL     1      -6.471  29.106   3.643  1.00  0.00     0.038 C 
HETATM   25  C12 UNL     1      -4.159  28.345   3.767  1.00  0.00     0.050 C 
HETATM   26  C9  UNL     1      -6.280  30.672   1.842  1.00  0.00     0.003 C 
HETATM   27  C10 UNL     1      -7.207  30.232   2.963  1.00  0.00     0.003 C 
ENDBRANCH  11  18
ENDBRANCH   1  10
BRANCH   4  28
HETATM   28  N4  UNL     1      -1.618  22.672   5.421  1.00  0.00    -0.319 N 
ATOM     29  H4  UNL     1      -2.583  22.369   5.546  1.00  0.00     0.169 HD
BRANCH  28  30
HETATM   30  C15 UNL     1      -0.521  21.750   5.491  1.00  0.00     0.173 C 
HETATM   31  S1  UNL     1       0.616  21.929   6.687  1.00  0.00    -0.041 SA
BRANCH  30  32
HETATM   32  N5  UNL     1      -0.344  20.688   4.599  1.00  0.00    -0.363 N 
ATOM     33  H5  UNL     1       0.295  19.930   4.839  1.00  0.00     0.162 HD
BRANCH  32  34
HETATM   34  C16 UNL     1      -1.058  20.654   3.338  1.00  0.00     0.079 C 
HETATM   35  C17 UNL     1      -2.222  19.743   3.337  1.00  0.00     0.032 C 
BRANCH  34  36
HETATM   36  C18 UNL     1      -0.136  20.623   2.166  1.00  0.00     0.025 C 
BRANCH  36  37
HETATM   37  C19 UNL     1       0.374  21.906   1.649  1.00  0.00     0.006 C 
BRANCH  37  38
HETATM   38  C20 UNL     1       1.847  22.031   1.435  1.00  0.00    -0.023 C 
HETATM   39  C21 UNL     1       2.255  23.203   0.583  1.00  0.00     0.009 C 
HETATM   40  C22 UNL     1       2.442  22.246   2.852  1.00  0.00     0.009 C 
ENDBRANCH  37  38
ENDBRANCH  36  37
ENDBRANCH  34  36
ENDBRANCH  32  34
ENDBRANCH  30  32
ENDBRANCH  28  30
ENDBRANCH   4  28
TORSDOF 9
ENDMDL
MODEL 3
REMARK VINA RESULT: -7.708069008      4.456      8.327
REMARK  9 active torsions:
REMARK  status: ('A' for Active; 'I' for Inactive)
REMARK    1  A    between atoms: C3_5  and  C4_6 
REMARK    2  A    between atoms: N2_16  and  C13_17 
REMARK    3  A    between atoms: C14_20  and  N4_21 
REMARK    4  A    between atoms: N4_21  and  C15_23 
REMARK    5  A    between atoms: C15_23  and  N5_25 
REMARK    6  A    between atoms: N5_25  and  C16_27 
REMARK    7  A    between atoms: C16_27  and  C18_29 
REMARK    8  A    between atoms: C18_29  and  C19_30 
REMARK    9  A    between atoms: C19_30  and  C20_31 
ROOT
HETATM    1  C13 UNL     1       1.366  23.020   2.738  1.00  0.00     0.707 A 
HETATM    2  N3  UNL     1       1.044  23.017   1.441  1.00  0.00    -0.174 N 
ATOM      3  H3  UNL     1       0.112  23.339   1.181  1.00  0.00     0.186 HD
HETATM    4  C14 UNL     1       1.860  22.619   0.462  1.00  0.00     0.126 A 
HETATM    5  C23 UNL     1       3.129  22.179   0.823  1.00  0.00     0.092 A 
HETATM    6  C24 UNL     1       3.443  22.189   2.166  1.00  0.00     0.123 A 
HETATM    7 CL1  UNL     1       5.032  21.643   2.656  1.00  0.00    -0.064 Cl
HETATM    8  N6  UNL     1       2.582  22.601   3.108  1.00  0.00    -0.179 N 
ATOM      9  H6  UNL     1       2.849  22.596   4.092  1.00  0.00     0.185 HD
ENDROOT
BRANCH   1  10
HETATM   10  N2  UNL     1       0.382  23.477   3.685  1.00  0.00    -0.072 N 
HETATM   11  C3  UNL     1      -0.318  22.667   4.497  1.00  0.00     0.127 A 
HETATM   12  N1  UNL     1      -1.122  23.458   5.220  1.00  0.00    -0.333 N 
HETATM   13  C2  UNL     1      -0.926  24.737   4.866  1.00  0.00     0.094 A 
ATOM     14  H1  UNL     1      -1.782  23.137   5.929  1.00  0.00     0.168 HD
HETATM   15  C1  UNL     1      -1.604  25.961   5.409  1.00  0.00     0.090 C 
HETATM   16  N7  UNL     1       0.012  24.724   3.912  1.00  0.00    -0.267 N 
ATOM     17  H7  UNL     1       0.382  25.546   3.435  1.00  0.00     0.189 HD
BRANCH  11  18
HETATM   18  C4  UNL     1      -0.193  21.176   4.551  1.00  0.00     0.061 C 
HETATM   19  C5  UNL     1      -1.574  20.589   4.664  1.00  0.00     0.038 C 
HETATM   20  C6  UNL     1      -2.180  20.711   6.019  1.00  0.00     0.169 C 
HETATM   21  O1  UNL     1      -1.293  20.889   7.046  1.00  0.00    -0.380 OA
HETATM   22  C7  UNL     1      -0.083  20.274   6.887  1.00  0.00     0.061 C 
HETATM   23  C8  UNL     1      -0.287  18.781   6.885  1.00  0.00     0.038 C 
HETATM   24  C11 UNL     1       0.759  20.518   8.122  1.00  0.00     0.038 C 
HETATM   25  C12 UNL     1       0.701  20.760   5.698  1.00  0.00     0.050 C 
HETATM   26  C9  UNL     1      -0.194  18.332   8.328  1.00  0.00     0.003 C 
HETATM   27  C10 UNL     1       0.164  19.571   9.131  1.00  0.00     0.003 C 
ENDBRANCH  11  18
ENDBRANCH   1  10
BRANCH   4  28
HETATM   28  N4  UNL     1       1.546  22.617  -0.793  1.00  0.00    -0.319 N 
ATOM     29  H4  UNL     1       2.009  23.231  -1.463  1.00  0.00     0.169 HD
BRANCH  28  30
HETATM   30  C15 UNL     1       0.511  21.706  -1.191  1.00  0.00     0.173 C 
HETATM   31  S1  UNL     1       0.602  20.118  -0.718  1.00  0.00    -0.041 SA
BRANCH  30  32
HETATM   32  N5  UNL     1      -0.592  22.077  -1.965  1.00  0.00    -0.363 N 
ATOM     33  H5  UNL     1      -1.104  22.929  -1.737  1.00  0.00     0.162 HD
BRANCH  32  34
HETATM   34  C16 UNL     1      -1.014  21.265  -3.089  1.00  0.00     0.079 C 
HETATM   35  C17 UNL     1      -0.152  21.404  -4.282  1.00  0.00     0.032 C 
BRANCH  34  36
HETATM   36  C18 UNL     1      -2.492  21.287  -3.281  1.00  0.00     0.025 C 
BRANCH  36  37
HETATM   37  C19 UNL     1      -3.326  21.826  -2.191  1.00  0.00     0.006 C 
BRANCH  37  38
HETATM   38  C20 UNL     1      -4.084  20.852  -1.350  1.00  0.00    -0.023 C 
HETATM   39  C21 UNL     1      -3.286  20.251  -0.223  1.00  0.00     0.009 C 
HETATM   40  C22 UNL     1      -5.241  21.675  -0.725  1.00  0.00     0.009 C 
ENDBRANCH  37  38
ENDBRANCH  36  37
ENDBRANCH  34  36
ENDBRANCH  32  34
ENDBRANCH  30  32
ENDBRANCH  28  30
ENDBRANCH   4  28
TORSDOF 9
ENDMDL
MODEL 4
REMARK VINA RESULT: -7.692051313      5.029      9.504
REMARK  9 active torsions:
REMARK  status: ('A' for Active; 'I' for Inactive)
REMARK    1  A    between atoms: C3_5  and  C4_6 
REMARK    2  A    between atoms: N2_16  and  C13_17 
REMARK    3  A    between atoms: C14_20  and  N4_21 
REMARK    4  A    between atoms: N4_21  and  C15_23 
REMARK    5  A    between atoms: C15_23  and  N5_25 
REMARK    6  A    between atoms: N5_25  and  C16_27 
REMARK    7  A    between atoms: C16_27  and  C18_29 
REMARK    8  A    between atoms: C18_29  and  C19_30 
REMARK    9  A    between atoms: C19_30  and  C20_31 
ROOT
HETATM    1  C13 UNL     1       1.323  23.037   2.746  1.00  0.00     0.707 A 
HETATM    2  N3  UNL     1       0.982  23.045   1.455  1.00  0.00    -0.174 N 
ATOM      3  H3  UNL     1       0.050  23.382   1.212  1.00  0.00     0.186 HD
HETATM    4  C14 UNL     1       1.778  22.643   0.461  1.00  0.00     0.126 A 
HETATM    5  C23 UNL     1       3.045  22.184   0.799  1.00  0.00     0.092 A 
HETATM    6  C24 UNL     1       3.380  22.182   2.138  1.00  0.00     0.123 A 
HETATM    7 CL1  UNL     1       4.970  21.612   2.600  1.00  0.00    -0.064 Cl
HETATM    8  N6  UNL     1       2.539  22.600   3.095  1.00  0.00    -0.179 N 
ATOM      9  H6  UNL     1       2.821  22.585   4.075  1.00  0.00     0.185 HD
ENDROOT
BRANCH   1  10
HETATM   10  N2  UNL     1       0.361  23.501   3.712  1.00  0.00    -0.072 N 
HETATM   11  C3  UNL     1      -0.337  22.696   4.530  1.00  0.00     0.127 A 
HETATM   12  N1  UNL     1      -1.119  23.493   5.269  1.00  0.00    -0.333 N 
HETATM   13  C2  UNL     1      -0.913  24.771   4.920  1.00  0.00     0.094 A 
ATOM     14  H1  UNL     1      -1.772  23.176   5.987  1.00  0.00     0.168 HD
HETATM   15  C1  UNL     1      -1.567  26.000   5.480  1.00  0.00     0.090 C 
HETATM   16  N7  UNL     1       0.010  24.752   3.950  1.00  0.00    -0.267 N 
ATOM     17  H7  UNL     1       0.383  25.572   3.472  1.00  0.00     0.189 HD
BRANCH  11  18
HETATM   18  C4  UNL     1      -0.230  21.203   4.574  1.00  0.00     0.061 C 
HETATM   19  C5  UNL     1      -1.616  20.633   4.701  1.00  0.00     0.038 C 
HETATM   20  C6  UNL     1      -2.205  20.755   6.065  1.00  0.00     0.169 C 
HETATM   21  O1  UNL     1      -1.303  20.915   7.081  1.00  0.00    -0.380 OA
HETATM   22  C7  UNL     1      -0.103  20.286   6.904  1.00  0.00     0.061 C 
HETATM   23  C8  UNL     1      -0.326  18.796   6.896  1.00  0.00     0.038 C 
HETATM   24  C11 UNL     1       0.757  20.513   8.130  1.00  0.00     0.038 C 
HETATM   25  C12 UNL     1       0.672  20.769   5.708  1.00  0.00     0.050 C 
HETATM   26  C9  UNL     1      -0.221  18.338   8.336  1.00  0.00     0.003 C 
HETATM   27  C10 UNL     1       0.162  19.568   9.141  1.00  0.00     0.003 C 
ENDBRANCH  11  18
ENDBRANCH   1  10
BRANCH   4  28
HETATM   28  N4  UNL     1       1.444  22.652  -0.789  1.00  0.00    -0.319 N 
ATOM     29  H4  UNL     1       1.687  23.429  -1.404  1.00  0.00     0.169 HD
BRANCH  28  30
HETATM   30  C15 UNL     1       0.713  21.512  -1.264  1.00  0.00     0.173 C 
HETATM   31  S1  UNL     1      -0.320  20.723  -0.233  1.00  0.00    -0.041 SA
BRANCH  30  32
HETATM   32  N5  UNL     1       0.817  21.013  -2.565  1.00  0.00    -0.363 N 
ATOM     33  H5  UNL     1       1.271  20.114  -2.726  1.00  0.00     0.162 HD
BRANCH  32  34
HETATM   34  C16 UNL     1       0.286  21.759  -3.689  1.00  0.00     0.079 C 
HETATM   35  C17 UNL     1      -1.063  22.314  -3.451  1.00  0.00     0.032 C 
BRANCH  34  36
HETATM   36  C18 UNL     1       0.553  21.087  -4.993  1.00  0.00     0.025 C 
BRANCH  36  37
HETATM   37  C19 UNL     1       1.081  19.711  -4.970  1.00  0.00     0.006 C 
BRANCH  37  38
HETATM   38  C20 UNL     1       0.247  18.638  -5.590  1.00  0.00    -0.023 C 
HETATM   39  C21 UNL     1       0.427  17.276  -4.973  1.00  0.00     0.009 C 
HETATM   40  C22 UNL     1      -1.221  19.079  -5.346  1.00  0.00     0.009 C 
ENDBRANCH  37  38
ENDBRANCH  36  37
ENDBRANCH  34  36
ENDBRANCH  32  34
ENDBRANCH  30  32
ENDBRANCH  28  30
ENDBRANCH   4  28
TORSDOF 9
ENDMDL
MODEL 5
REMARK VINA RESULT: -7.662706205      3.512      9.037
REMARK  9 active torsions:
REMARK  status: ('A' for Active; 'I' for Inactive)
REMARK    1  A    between atoms: C3_5  and  C4_6 
REMARK    2  A    between atoms: N2_16  and  C13_17 
REMARK    3  A    between atoms: C14_20  and  N4_21 
REMARK    4  A    between atoms: N4_21  and  C15_23 
REMARK    5  A    between atoms: C15_23  and  N5_25 
REMARK    6  A    between atoms: N5_25  and  C16_27 
REMARK    7  A    between atoms: C16_27  and  C18_29 
REMARK    8  A    between atoms: C18_29  and  C19_30 
REMARK    9  A    between atoms: C19_30  and  C20_31 
ROOT
HETATM    1  C13 UNL     1      -1.564  26.160   5.648  1.00  0.00     0.707 A 
HETATM    2  N3  UNL     1      -1.963  24.899   5.831  1.00  0.00    -0.174 N 
ATOM      3  H3  UNL     1      -2.718  24.730   6.496  1.00  0.00     0.186 HD
HETATM    4  C14 UNL     1      -1.440  23.843   5.203  1.00  0.00     0.126 A 
HETATM    5  C23 UNL     1      -0.411  24.079   4.298  1.00  0.00     0.092 A 
HETATM    6  C24 UNL     1      -0.012  25.388   4.123  1.00  0.00     0.123 A 
HETATM    7 CL1  UNL     1       1.281  25.723   2.991  1.00  0.00    -0.064 Cl
HETATM    8  N6  UNL     1      -0.575  26.412   4.782  1.00  0.00    -0.179 N 
ATOM      9  H6  UNL     1      -0.255  27.367   4.626  1.00  0.00     0.185 HD
ENDROOT
BRANCH   1  10
HETATM   10  N2  UNL     1      -2.221  27.201   6.396  1.00  0.00    -0.072 N 
HETATM   11  C3  UNL     1      -2.776  28.293   5.843  1.00  0.00     0.127 A 
HETATM   12  N1  UNL     1      -3.279  29.015   6.853  1.00  0.00    -0.333 N 
HETATM   13  C2  UNL     1      -3.044  28.385   8.014  1.00  0.00     0.094 A 
ATOM     14  H1  UNL     1      -3.765  29.907   6.755  1.00  0.00     0.168 HD
HETATM   15  C1  UNL     1      -3.426  28.821   9.398  1.00  0.00     0.090 C 
HETATM   16  N7  UNL     1      -2.385  27.261   7.705  1.00  0.00    -0.267 N 
ATOM     17  H7  UNL     1      -2.062  26.562   8.374  1.00  0.00     0.189 HD
BRANCH  11  18
HETATM   18  C4  UNL     1      -2.803  28.604   4.380  1.00  0.00     0.061 C 
HETATM   19  C5  UNL     1      -2.421  30.048   4.195  1.00  0.00     0.038 C 
HETATM   20  C6  UNL     1      -3.499  31.015   4.546  1.00  0.00     0.169 C 
HETATM   21  O1  UNL     1      -4.770  30.508   4.530  1.00  0.00    -0.380 OA
HETATM   22  C7  UNL     1      -5.000  29.530   3.603  1.00  0.00     0.061 C 
HETATM   23  C8  UNL     1      -4.864  30.120   2.223  1.00  0.00     0.038 C 
HETATM   24  C11 UNL     1      -6.454  29.117   3.674  1.00  0.00     0.038 C 
HETATM   25  C12 UNL     1      -4.164  28.294   3.797  1.00  0.00     0.050 C 
HETATM   26  C9  UNL     1      -6.234  30.640   1.841  1.00  0.00     0.003 C 
HETATM   27  C10 UNL     1      -7.164  30.249   2.978  1.00  0.00     0.003 C 
ENDBRANCH  11  18
ENDBRANCH   1  10
BRANCH   4  28
HETATM   28  N4  UNL     1      -1.829  22.622   5.382  1.00  0.00    -0.319 N 
ATOM     29  H4  UNL     1      -2.800  22.393   5.590  1.00  0.00     0.169 HD
BRANCH  28  30
HETATM   30  C15 UNL     1      -0.819  21.608   5.272  1.00  0.00     0.173 C 
HETATM   31  S1  UNL     1      -0.665  20.767   3.850  1.00  0.00    -0.041 SA
BRANCH  30  32
HETATM   32  N5  UNL     1       0.061  21.277   6.306  1.00  0.00    -0.363 N 
ATOM     33  H5  UNL     1       1.044  21.540   6.235  1.00  0.00     0.162 HD
BRANCH  32  34
HETATM   34  C16 UNL     1      -0.408  20.565   7.478  1.00  0.00     0.079 C 
HETATM   35  C17 UNL     1       0.659  20.249   8.451  1.00  0.00     0.032 C 
BRANCH  34  36
HETATM   36  C18 UNL     1      -1.389  19.495   7.135  1.00  0.00     0.025 C 
BRANCH  36  37
HETATM   37  C19 UNL     1      -2.299  19.021   8.194  1.00  0.00     0.006 C 
BRANCH  37  38
HETATM   38  C20 UNL     1      -3.721  18.757   7.821  1.00  0.00    -0.023 C 
HETATM   39  C21 UNL     1      -4.400  17.708   8.660  1.00  0.00     0.009 C 
HETATM   40  C22 UNL     1      -4.455  20.103   8.060  1.00  0.00     0.009 C 
ENDBRANCH  37  38
ENDBRANCH  36  37
ENDBRANCH  34  36
ENDBRANCH  32  34
ENDBRANCH  30  32
ENDBRANCH  28  30
ENDBRANCH   4  28
TORSDOF 9
ENDMDL
