MODEL 1
REMARK VINA RESULT: -6.785696677      0.000      0.000
REMARK  8 active torsions:
REMARK  status: ('A' for Active; 'I' for Inactive)
REMARK    1  A    between atoms: O1_2  and  C2_3 
REMARK    2  A    between atoms: C4_6  and  O2_7 
REMARK    3  A    between atoms: C8_12  and  C9_13 
REMARK    4  A    between atoms: C14_20  and  O3_21 
REMARK    5  A    between atoms: O3_21  and  C15_22 
REMARK    6  A    between atoms: C15_22  and  C16_24 
REMARK    7  A    between atoms: C16_24  and  C17_25 
REMARK    8  A    between atoms: C17_25  and  C18_26 
ROOT
HETATM    1  C9  UNL     1       3.132  20.305   4.131  1.00  0.00     0.007 C 
HETATM    2  C10 UNL     1       3.945  19.228   4.780  1.00  0.00     0.008 C 
HETATM    3  C11 UNL     1       5.323  19.499   4.158  1.00  0.00     0.030 C 
HETATM    4  C12 UNL     1       4.976  19.783   2.734  1.00  0.00     0.080 A 
HETATM    5 CL1  UNL     1       5.351  18.392   1.705  1.00  0.00    -0.115 Cl
HETATM    6  C13 UNL     1       5.429  21.119   2.198  1.00  0.00     0.224 A 
HETATM    7  F1  UNL     1       6.166  21.777   3.165  1.00  0.00    -0.245 F 
HETATM    8  C14 UNL     1       3.994  21.527   2.080  1.00  0.00     0.178 A 
HETATM    9  C19 UNL     1       3.539  20.251   2.676  1.00  0.00     0.014 A 
HETATM   10  C20 UNL     1       2.721  19.328   1.822  1.00  0.00     0.020 C 
ENDROOT
BRANCH   1  11
HETATM   11  C8  UNL     1       1.653  20.148   4.325  1.00  0.00     0.027 C 
HETATM   12  C7  UNL     1       1.284  20.286   5.754  1.00  0.00    -0.012 A 
HETATM   13  C2  UNL     1       1.185  19.410   6.818  1.00  0.00     0.095 A 
HETATM   14  C6  UNL     1       0.991  21.613   5.993  1.00  0.00    -0.046 A 
HETATM   15  C3  UNL     1       0.809  19.853   8.063  1.00  0.00     0.077 A 
HETATM   16 BR1  UNL     1       0.670  18.653   9.538  1.00  0.00    -0.045 Br
HETATM   17  C4  UNL     1       0.516  21.180   8.303  1.00  0.00     0.086 A 
HETATM   18  C5  UNL     1       0.613  22.054   7.245  1.00  0.00     0.045 A 
HETATM   19  C22 UNL     1       1.151  22.399   4.727  1.00  0.00     0.040 C 
HETATM   20  C21 UNL     1       0.924  21.316   3.696  1.00  0.00     0.014 C 
BRANCH  13  21
HETATM   21  O1  UNL     1       1.471  18.067   6.621  1.00  0.00    -0.354 OA
HETATM   22  C1  UNL     1       0.546  17.154   6.065  1.00  0.00     0.210 C 
ENDBRANCH  13  21
BRANCH  17  23
HETATM   23  O2  UNL     1       0.138  21.601   9.573  1.00  0.00    -0.359 OA
ATOM     24  H2  UNL     1      -0.583  22.210   9.685  1.00  0.00     0.217 HD
ENDBRANCH  17  23
ENDBRANCH   1  11
BRANCH   8  25
HETATM   25  O3  UNL     1       3.510  21.899   0.833  1.00  0.00    -0.312 OA
BRANCH  25  26
HETATM   26  C15 UNL     1       2.667  22.947   0.579  1.00  0.00     0.259 C 
HETATM   27  O4  UNL     1       1.816  22.700  -0.313  1.00  0.00    -0.265 OA
BRANCH  26  28
HETATM   28  C16 UNL     1       2.723  24.258   1.266  1.00  0.00     0.120 C 
BRANCH  28  29
HETATM   29  C17 UNL     1       1.358  24.523   1.858  1.00  0.00     0.127 C 
BRANCH  29  30
HETATM   30  C18 UNL     1       1.301  25.870   2.548  1.00  0.00     0.388 C 
HETATM   31  F2  UNL     1       0.853  26.859   1.704  1.00  0.00    -0.171 F 
HETATM   32  F3  UNL     1       0.512  25.823   3.669  1.00  0.00    -0.171 F 
HETATM   33  F4  UNL     1       2.581  26.208   2.930  1.00  0.00    -0.171 F 
ENDBRANCH  29  30
ENDBRANCH  28  29
ENDBRANCH  26  28
ENDBRANCH  25  26
ENDBRANCH   8  25
TORSDOF 8
ENDMDL
MODEL 2
REMARK VINA RESULT: -6.444517104      3.899      5.660
REMARK  8 active torsions:
REMARK  status: ('A' for Active; 'I' for Inactive)
REMARK    1  A    between atoms: O1_2  and  C2_3 
REMARK    2  A    between atoms: C4_6  and  O2_7 
REMARK    3  A    between atoms: C8_12  and  C9_13 
REMARK    4  A    between atoms: C14_20  and  O3_21 
REMARK    5  A    between atoms: O3_21  and  C15_22 
REMARK    6  A    between atoms: C15_22  and  C16_24 
REMARK    7  A    between atoms: C16_24  and  C17_25 
REMARK    8  A    between atoms: C17_25  and  C18_26 
ROOT
HETATM    1  C9  UNL     1       1.057  21.362   2.346  1.00  0.00     0.007 C 
HETATM    2  C10 UNL     1      -0.305  21.785   1.890  1.00  0.00     0.008 C 
HETATM    3  C11 UNL     1      -0.481  20.889   0.654  1.00  0.00     0.030 C 
HETATM    4  C12 UNL     1       0.868  20.965   0.016  1.00  0.00     0.080 A 
HETATM    5 CL1  UNL     1       0.840  22.040  -1.391  1.00  0.00    -0.115 Cl
HETATM    6  C13 UNL     1       1.572  19.647  -0.196  1.00  0.00     0.224 A 
HETATM    7  F1  UNL     1       0.740  18.613   0.191  1.00  0.00    -0.245 F 
HETATM    8  C14 UNL     1       2.602  20.067   0.804  1.00  0.00     0.178 A 
HETATM    9  C19 UNL     1       1.880  21.330   1.079  1.00  0.00     0.014 A 
HETATM   10  C20 UNL     1       2.563  22.620   0.732  1.00  0.00     0.020 C 
ENDROOT
BRANCH   1  11
HETATM   11  C8  UNL     1       1.647  22.255   3.398  1.00  0.00     0.027 C 
HETATM   12  C7  UNL     1       0.597  23.063   4.063  1.00  0.00    -0.012 A 
HETATM   13  C2  UNL     1       0.017  24.292   3.812  1.00  0.00     0.095 A 
HETATM   14  C6  UNL     1       0.152  22.363   5.164  1.00  0.00    -0.046 A 
HETATM   15  C3  UNL     1      -0.965  24.788   4.634  1.00  0.00     0.077 A 
HETATM   16 BR1  UNL     1      -1.773  26.482   4.297  1.00  0.00    -0.045 Br
HETATM   17  C4  UNL     1      -1.411  24.088   5.737  1.00  0.00     0.086 A 
HETATM   18  C5  UNL     1      -0.835  22.865   5.989  1.00  0.00     0.045 A 
HETATM   19  C22 UNL     1       0.897  21.066   5.271  1.00  0.00     0.040 C 
HETATM   20  C21 UNL     1       2.176  21.420   4.544  1.00  0.00     0.014 C 
BRANCH  13  21
HETATM   21  O1  UNL     1       0.435  25.029   2.714  1.00  0.00    -0.354 OA
HETATM   22  C1  UNL     1       1.649  25.753   2.687  1.00  0.00     0.210 C 
ENDBRANCH  13  21
BRANCH  17  23
HETATM   23  O2  UNL     1      -2.407  24.614   6.553  1.00  0.00    -0.359 OA
ATOM     24  H2  UNL     1      -2.561  24.256   7.419  1.00  0.00     0.217 HD
ENDBRANCH  17  23
ENDBRANCH   1  11
BRANCH   8  25
HETATM   25  O3  UNL     1       3.931  20.123   0.406  1.00  0.00    -0.312 OA
BRANCH  25  26
HETATM   26  C15 UNL     1       5.016  19.834   1.188  1.00  0.00     0.259 C 
HETATM   27  O4  UNL     1       6.019  19.457   0.531  1.00  0.00    -0.265 OA
BRANCH  26  28
HETATM   28  C16 UNL     1       5.042  19.941   2.665  1.00  0.00     0.120 C 
BRANCH  28  29
HETATM   29  C17 UNL     1       5.718  21.246   3.018  1.00  0.00     0.127 C 
BRANCH  29  30
HETATM   30  C18 UNL     1       7.081  21.018   3.638  1.00  0.00     0.388 C 
HETATM   31  F2  UNL     1       7.634  19.826   3.236  1.00  0.00    -0.171 F 
HETATM   32  F3  UNL     1       7.938  22.050   3.349  1.00  0.00    -0.171 F 
HETATM   33  F4  UNL     1       6.922  20.954   5.006  1.00  0.00    -0.171 F 
ENDBRANCH  29  30
ENDBRANCH  28  29
ENDBRANCH  26  28
ENDBRANCH  25  26
ENDBRANCH   8  25
TORSDOF 8
ENDMDL
MODEL 3
REMARK VINA RESULT: -6.372373383      3.940      6.012
REMARK  8 active torsions:
REMARK  status: ('A' for Active; 'I' for Inactive)
REMARK    1  A    between atoms: O1_2  and  C2_3 
REMARK    2  A    between atoms: C4_6  and  O2_7 
REMARK    3  A    between atoms: C8_12  and  C9_13 
REMARK    4  A    between atoms: C14_20  and  O3_21 
REMARK    5  A    between atoms: O3_21  and  C15_22 
REMARK    6  A    between atoms: C15_22  and  C16_24 
REMARK    7  A    between atoms: C16_24  and  C17_25 
REMARK    8  A    between atoms: C17_25  and  C18_26 
ROOT
HETATM    1  C9  UNL     1       5.876  20.190   3.171  1.00  0.00     0.007 C 
HETATM    2  C10 UNL     1       5.825  20.280   4.665  1.00  0.00     0.008 C 
HETATM    3  C11 UNL     1       7.325  20.338   4.997  1.00  0.00     0.030 C 
HETATM    4  C12 UNL     1       7.893  19.319   4.065  1.00  0.00     0.080 A 
HETATM    5 CL1  UNL     1       8.281  17.822   4.928  1.00  0.00    -0.115 Cl
HETATM    6  C13 UNL     1       8.963  19.812   3.122  1.00  0.00     0.224 A 
HETATM    7  F1  UNL     1       9.246  21.137   3.398  1.00  0.00    -0.245 F 
HETATM    8  C14 UNL     1       8.029  19.568   1.978  1.00  0.00     0.178 A 
HETATM    9  C19 UNL     1       6.945  19.155   2.898  1.00  0.00     0.014 A 
HETATM   10  C20 UNL     1       6.453  17.741   2.816  1.00  0.00     0.020 C 
ENDROOT
BRANCH   1  11
HETATM   11  C8  UNL     1       4.560  19.843   2.540  1.00  0.00     0.027 C 
HETATM   12  C7  UNL     1       3.480  20.729   3.038  1.00  0.00    -0.012 A 
HETATM   13  C2  UNL     1       2.606  20.684   4.108  1.00  0.00     0.095 A 
HETATM   14  C6  UNL     1       3.394  21.814   2.191  1.00  0.00    -0.046 A 
HETATM   15  C3  UNL     1       1.691  21.687   4.312  1.00  0.00     0.077 A 
HETATM   16 BR1  UNL     1       0.481  21.637   5.785  1.00  0.00    -0.045 Br
HETATM   17  C4  UNL     1       1.604  22.774   3.466  1.00  0.00     0.086 A 
HETATM   18  C5  UNL     1       2.473  22.820   2.400  1.00  0.00     0.045 A 
HETATM   19  C22 UNL     1       4.412  21.682   1.099  1.00  0.00     0.040 C 
HETATM   20  C21 UNL     1       4.591  20.180   1.065  1.00  0.00     0.014 C 
BRANCH  13  21
HETATM   21  O1  UNL     1       2.659  19.610   4.984  1.00  0.00    -0.354 OA
HETATM   22  C1  UNL     1       2.046  18.364   4.716  1.00  0.00     0.210 C 
ENDBRANCH  13  21
BRANCH  17  23
HETATM   23  O2  UNL     1       0.668  23.776   3.696  1.00  0.00    -0.359 OA
ATOM     24  H2  UNL     1       0.674  24.571   3.176  1.00  0.00     0.217 HD
ENDBRANCH  17  23
ENDBRANCH   1  11
BRANCH   8  25
HETATM   25  O3  UNL     1       8.425  18.700   0.970  1.00  0.00    -0.312 OA
BRANCH  25  26
HETATM   26  C15 UNL     1       8.297  18.919  -0.375  1.00  0.00     0.259 C 
HETATM   27  O4  UNL     1       7.156  18.638  -0.821  1.00  0.00    -0.265 OA
BRANCH  26  28
HETATM   28  C16 UNL     1       9.375  19.434  -1.249  1.00  0.00     0.120 C 
BRANCH  28  29
HETATM   29  C17 UNL     1       9.765  20.802  -0.739  1.00  0.00     0.127 C 
BRANCH  29  30
HETATM   30  C18 UNL     1      10.062  21.758  -1.875  1.00  0.00     0.388 C 
HETATM   31  F2  UNL     1      10.964  22.727  -1.507  1.00  0.00    -0.171 F 
HETATM   32  F3  UNL     1      10.523  21.090  -2.981  1.00  0.00    -0.171 F 
HETATM   33  F4  UNL     1       8.888  22.399  -2.211  1.00  0.00    -0.171 F 
ENDBRANCH  29  30
ENDBRANCH  28  29
ENDBRANCH  26  28
ENDBRANCH  25  26
ENDBRANCH   8  25
TORSDOF 8
ENDMDL
MODEL 4
REMARK VINA RESULT: -6.236736704      3.870      5.661
REMARK  8 active torsions:
REMARK  status: ('A' for Active; 'I' for Inactive)
REMARK    1  A    between atoms: O1_2  and  C2_3 
REMARK    2  A    between atoms: C4_6  and  O2_7 
REMARK    3  A    between atoms: C8_12  and  C9_13 
REMARK    4  A    between atoms: C14_20  and  O3_21 
REMARK    5  A    between atoms: O3_21  and  C15_22 
REMARK    6  A    between atoms: C15_22  and  C16_24 
REMARK    7  A    between atoms: C16_24  and  C17_25 
REMARK    8  A    between atoms: C17_25  and  C18_26 
ROOT
HETATM    1  C9  UNL     1       2.414  20.129   1.120  1.00  0.00     0.007 C 
HETATM    2  C10 UNL     1       2.528  19.270  -0.102  1.00  0.00     0.008 C 
HETATM    3  C11 UNL     1       1.483  19.934  -1.012  1.00  0.00     0.030 C 
HETATM    4  C12 UNL     1       0.360  20.197  -0.062  1.00  0.00     0.080 A 
HETATM    5 CL1  UNL     1      -0.942  19.018  -0.285  1.00  0.00    -0.115 Cl
HETATM    6  C13 UNL     1      -0.087  21.634   0.048  1.00  0.00     0.224 A 
HETATM    7  F1  UNL     1       0.621  22.408  -0.853  1.00  0.00    -0.245 F 
HETATM    8  C14 UNL     1       0.412  21.652   1.458  1.00  0.00     0.178 A 
HETATM    9  C19 UNL     1       0.925  20.268   1.338  1.00  0.00     0.014 A 
HETATM   10  C20 UNL     1       0.308  19.212   2.207  1.00  0.00     0.020 C 
ENDROOT
BRANCH   1  11
HETATM   11  C8  UNL     1       3.125  19.572   2.318  1.00  0.00     0.027 C 
HETATM   12  C7  UNL     1       4.595  19.700   2.174  1.00  0.00    -0.012 A 
HETATM   13  C2  UNL     1       5.588  18.908   1.627  1.00  0.00     0.095 A 
HETATM   14  C6  UNL     1       4.976  20.903   2.732  1.00  0.00    -0.046 A 
HETATM   15  C3  UNL     1       6.900  19.313   1.644  1.00  0.00     0.077 A 
HETATM   16 BR1  UNL     1       8.277  18.230   0.892  1.00  0.00    -0.045 Br
HETATM   17  C4  UNL     1       7.282  20.516   2.202  1.00  0.00     0.086 A 
HETATM   18  C5  UNL     1       6.296  21.305   2.747  1.00  0.00     0.045 A 
HETATM   19  C22 UNL     1       3.770  21.611   3.272  1.00  0.00     0.040 C 
HETATM   20  C21 UNL     1       2.850  20.439   3.529  1.00  0.00     0.014 C 
BRANCH  13  21
HETATM   21  O1  UNL     1       5.248  17.691   1.056  1.00  0.00    -0.354 OA
HETATM   22  C1  UNL     1       5.042  16.514   1.811  1.00  0.00     0.210 C 
ENDBRANCH  13  21
BRANCH  17  23
HETATM   23  O2  UNL     1       8.618  20.901   2.205  1.00  0.00    -0.359 OA
ATOM     24  H2  UNL     1       9.024  21.232   2.998  1.00  0.00     0.217 HD
ENDBRANCH  17  23
ENDBRANCH   1  11
BRANCH   8  25
HETATM   25  O3  UNL     1      -0.482  21.954   2.476  1.00  0.00    -0.312 OA
BRANCH  25  26
HETATM   26  C15 UNL     1      -0.391  23.013   3.338  1.00  0.00     0.259 C 
HETATM   27  O4  UNL     1      -1.481  23.299   3.896  1.00  0.00    -0.265 OA
BRANCH  26  28
HETATM   28  C16 UNL     1       0.851  23.773   3.610  1.00  0.00     0.120 C 
BRANCH  28  29
HETATM   29  C17 UNL     1       0.554  25.236   3.372  1.00  0.00     0.127 C 
BRANCH  29  30
HETATM   30  C18 UNL     1       1.393  25.799   2.245  1.00  0.00     0.388 C 
HETATM   31  F2  UNL     1       1.664  24.853   1.285  1.00  0.00    -0.171 F 
HETATM   32  F3  UNL     1       0.786  26.886   1.667  1.00  0.00    -0.171 F 
HETATM   33  F4  UNL     1       2.601  26.204   2.772  1.00  0.00    -0.171 F 
ENDBRANCH  29  30
ENDBRANCH  28  29
ENDBRANCH  26  28
ENDBRANCH  25  26
ENDBRANCH   8  25
TORSDOF 8
ENDMDL
MODEL 5
REMARK VINA RESULT: -6.206626127      2.060      2.328
REMARK  8 active torsions:
REMARK  status: ('A' for Active; 'I' for Inactive)
REMARK    1  A    between atoms: O1_2  and  C2_3 
REMARK    2  A    between atoms: C4_6  and  O2_7 
REMARK    3  A    between atoms: C8_12  and  C9_13 
REMARK    4  A    between atoms: C14_20  and  O3_21 
REMARK    5  A    between atoms: O3_21  and  C15_22 
REMARK    6  A    between atoms: C15_22  and  C16_24 
REMARK    7  A    between atoms: C16_24  and  C17_25 
REMARK    8  A    between atoms: C17_25  and  C18_26 
ROOT
HETATM    1  C9  UNL     1       3.305  20.238   4.171  1.00  0.00     0.007 C 
HETATM    2  C10 UNL     1       4.089  19.057   4.655  1.00  0.00     0.008 C 
HETATM    3  C11 UNL     1       5.482  19.395   4.100  1.00  0.00     0.030 C 
HETATM    4  C12 UNL     1       5.161  19.904   2.733  1.00  0.00     0.080 A 
HETATM    5 CL1  UNL     1       5.529  18.683   1.504  1.00  0.00    -0.115 Cl
HETATM    6  C13 UNL     1       5.645  21.298   2.419  1.00  0.00     0.224 A 
HETATM    7  F1  UNL     1       6.379  21.783   3.486  1.00  0.00    -0.245 F 
HETATM    8  C14 UNL     1       4.220  21.747   2.347  1.00  0.00     0.178 A 
HETATM    9  C19 UNL     1       3.734  20.403   2.731  1.00  0.00     0.014 A 
HETATM   10  C20 UNL     1       2.913  19.640   1.733  1.00  0.00     0.020 C 
ENDROOT
BRANCH   1  11
HETATM   11  C8  UNL     1       1.821  20.080   4.319  1.00  0.00     0.027 C 
HETATM   12  C7  UNL     1       1.406  20.236   5.734  1.00  0.00    -0.012 A 
HETATM   13  C2  UNL     1       1.274  19.373   6.806  1.00  0.00     0.095 A 
HETATM   14  C6  UNL     1       1.104  21.565   5.947  1.00  0.00    -0.046 A 
HETATM   15  C3  UNL     1       0.858  19.831   8.032  1.00  0.00     0.077 A 
HETATM   16 BR1  UNL     1       0.672  18.650   9.517  1.00  0.00    -0.045 Br
HETATM   17  C4  UNL     1       0.555  21.160   8.246  1.00  0.00     0.086 A 
HETATM   18  C5  UNL     1       0.685  22.021   7.181  1.00  0.00     0.045 A 
HETATM   19  C22 UNL     1       1.303  22.336   4.677  1.00  0.00     0.040 C 
HETATM   20  C21 UNL     1       1.111  21.239   3.652  1.00  0.00     0.014 C 
BRANCH  13  21
HETATM   21  O1  UNL     1       1.567  18.028   6.635  1.00  0.00    -0.354 OA
HETATM   22  C1  UNL     1       0.664  17.108   6.055  1.00  0.00     0.210 C 
ENDBRANCH  13  21
BRANCH  17  23
HETATM   23  O2  UNL     1       0.135  21.597   9.497  1.00  0.00    -0.359 OA
ATOM     24  H2  UNL     1      -0.789  21.620   9.716  1.00  0.00     0.217 HD
ENDBRANCH  17  23
ENDBRANCH   1  11
BRANCH   8  25
HETATM   25  O3  UNL     1       3.761  22.319   1.168  1.00  0.00    -0.312 OA
BRANCH  25  26
HETATM   26  C15 UNL     1       2.902  23.380   1.071  1.00  0.00     0.259 C 
HETATM   27  O4  UNL     1       3.443  24.486   1.324  1.00  0.00    -0.265 OA
BRANCH  26  28
HETATM   28  C16 UNL     1       1.471  23.274   0.707  1.00  0.00     0.120 C 
BRANCH  28  29
HETATM   29  C17 UNL     1       1.363  22.312  -0.454  1.00  0.00     0.127 C 
BRANCH  29  30
HETATM   30  C18 UNL     1       0.092  21.492  -0.384  1.00  0.00     0.388 C 
HETATM   31  F2  UNL     1      -0.816  21.871  -1.344  1.00  0.00    -0.171 F 
HETATM   32  F3  UNL     1       0.358  20.151  -0.499  1.00  0.00    -0.171 F 
HETATM   33  F4  UNL     1      -0.493  21.716   0.844  1.00  0.00    -0.171 F 
ENDBRANCH  29  30
ENDBRANCH  28  29
ENDBRANCH  26  28
ENDBRANCH  25  26
ENDBRANCH   8  25
TORSDOF 8
ENDMDL
