MODEL 1
REMARK VINA RESULT: -7.843223665      0.000      0.000
REMARK  5 active torsions:
REMARK  status: ('A' for Active; 'I' for Inactive)
REMARK    1  A    between atoms: C4_6  and  O1_7 
REMARK    2  A    between atoms: O1_7  and  C5_8 
REMARK    3  A    between atoms: C7_10  and  C8_11 
REMARK    4  A    between atoms: N3_21  and  C14_23 
REMARK    5  A    between atoms: C14_23  and  C15_24 
ROOT
HETATM    1  C5  UNL     1       2.207  23.267   1.812  1.00  0.00     0.081 A 
HETATM    2  C6  UNL     1       1.267  22.857   0.874  1.00  0.00     0.062 A 
HETATM    3  C7  UNL     1       1.520  21.770   0.071  1.00  0.00     0.018 A 
HETATM    4  N2  UNL     1       2.673  21.088   0.177  1.00  0.00    -0.346 N 
ATOM      5  H2  UNL     1       2.838  20.284  -0.430  1.00  0.00     0.167 HD
HETATM    6  C13 UNL     1       3.626  21.451   1.080  1.00  0.00     0.104 A 
HETATM    7  N3  UNL     1       4.697  20.738   1.108  1.00  0.00    -0.372 N 
ATOM      8  H3  UNL     1       4.828  19.941   0.487  1.00  0.00     0.161 HD
HETATM    9  C19 UNL     1       3.376  22.539   1.887  1.00  0.00     0.085 A 
ENDROOT
BRANCH   7  10
HETATM   10  C14 UNL     1       5.713  21.131   2.077  1.00  0.00     0.159 C 
BRANCH  10  11
HETATM   11  C15 UNL     1       6.501  19.963   2.543  1.00  0.00    -0.015 C 
HETATM   12  C16 UNL     1       7.756  19.975   2.956  1.00  0.00     0.083 C 
HETATM   13 CL2  UNL     1       8.789  21.399   3.044  1.00  0.00    -0.083 Cl
HETATM   14  C17 UNL     1       8.121  18.597   3.320  1.00  0.00     0.256 C 
HETATM   15 CL3  UNL     1       8.279  18.491   5.104  1.00  0.00    -0.064 Cl
HETATM   16 CL4  UNL     1       9.693  18.204   2.550  1.00  0.00    -0.064 Cl
HETATM   17  O2  UNL     1       7.126  17.783   2.839  1.00  0.00    -0.343 OA
HETATM   18  C18 UNL     1       6.006  18.583   2.624  1.00  0.00     0.209 C 
ENDBRANCH  10  11
ENDBRANCH   7  10
BRANCH   3  19
HETATM   19  C8  UNL     1       0.516  21.339  -0.924  1.00  0.00     0.045 C 
HETATM   20  C9  UNL     1      -0.821  21.042  -0.284  1.00  0.00     0.055 C 
HETATM   21  C10 UNL     1      -1.658  20.425  -1.381  1.00  0.00     0.061 C 
HETATM   22  N1  UNL     1      -1.812  21.207  -2.536  1.00  0.00    -0.382 N 
HETATM   23  C11 UNL     1      -0.876  22.203  -2.833  1.00  0.00     0.061 C 
ATOM     24  H1  UNL     1      -2.606  21.050  -3.157  1.00  0.00     0.163 HD
HETATM   25  C12 UNL     1       0.298  22.379  -1.973  1.00  0.00     0.055 C 
ENDBRANCH   3  19
BRANCH   1  26
HETATM   26  O1  UNL     1       2.038  24.342   2.656  1.00  0.00    -0.307 OA
BRANCH  26  27
HETATM   27  C4  UNL     1       0.855  24.611   3.327  1.00  0.00     0.119 A 
HETATM   28  C3  UNL     1       0.363  23.754   4.286  1.00  0.00     0.072 A 
HETATM   29  C2  UNL     1      -0.816  24.050   4.935  1.00  0.00     0.069 A 
HETATM   30 CL1  UNL     1       1.268  22.283   4.660  1.00  0.00    -0.081 Cl
HETATM   31  C1  UNL     1      -1.531  25.194   4.651  1.00  0.00     0.119 A 
HETATM   32  F1  UNL     1      -2.686  25.447   5.312  1.00  0.00    -0.206 F 
HETATM   33  C21 UNL     1      -1.014  26.029   3.691  1.00  0.00     0.069 A 
HETATM   34  C20 UNL     1       0.165  25.763   3.021  1.00  0.00     0.072 A 
HETATM   35 CL5  UNL     1       0.771  26.886   1.793  1.00  0.00    -0.081 Cl
ENDBRANCH  26  27
ENDBRANCH   1  26
TORSDOF 5
ENDMDL
MODEL 2
REMARK VINA RESULT: -7.830810327      0.025      1.598
REMARK  5 active torsions:
REMARK  status: ('A' for Active; 'I' for Inactive)
REMARK    1  A    between atoms: C4_6  and  O1_7 
REMARK    2  A    between atoms: O1_7  and  C5_8 
REMARK    3  A    between atoms: C7_10  and  C8_11 
REMARK    4  A    between atoms: N3_21  and  C14_23 
REMARK    5  A    between atoms: C14_23  and  C15_24 
ROOT
HETATM    1  C5  UNL     1       2.218  23.280   1.799  1.00  0.00     0.081 A 
HETATM    2  C6  UNL     1       1.277  22.871   0.861  1.00  0.00     0.062 A 
HETATM    3  C7  UNL     1       1.527  21.780   0.062  1.00  0.00     0.018 A 
HETATM    4  N2  UNL     1       2.676  21.093   0.172  1.00  0.00    -0.346 N 
ATOM      5  H2  UNL     1       2.838  20.287  -0.432  1.00  0.00     0.167 HD
HETATM    6  C13 UNL     1       3.629  21.455   1.075  1.00  0.00     0.104 A 
HETATM    7  N3  UNL     1       4.697  20.737   1.107  1.00  0.00    -0.372 N 
ATOM      8  H3  UNL     1       4.825  19.937   0.488  1.00  0.00     0.161 HD
HETATM    9  C19 UNL     1       3.384  22.547   1.878  1.00  0.00     0.085 A 
ENDROOT
BRANCH   7  10
HETATM   10  C14 UNL     1       5.714  21.129   2.076  1.00  0.00     0.159 C 
BRANCH  10  11
HETATM   11  C15 UNL     1       6.504  19.960   2.537  1.00  0.00    -0.015 C 
HETATM   12  C16 UNL     1       7.758  19.973   2.953  1.00  0.00     0.083 C 
HETATM   13 CL2  UNL     1       8.787  21.400   3.051  1.00  0.00    -0.083 Cl
HETATM   14  C17 UNL     1       8.127  18.594   3.310  1.00  0.00     0.256 C 
HETATM   15 CL3  UNL     1       8.281  18.479   5.094  1.00  0.00    -0.064 Cl
HETATM   16 CL4  UNL     1       9.701  18.210   2.540  1.00  0.00    -0.064 Cl
HETATM   17  O2  UNL     1       7.135  17.780   2.823  1.00  0.00    -0.343 OA
HETATM   18  C18 UNL     1       6.013  18.578   2.610  1.00  0.00     0.209 C 
ENDBRANCH  10  11
ENDBRANCH   7  10
BRANCH   3  19
HETATM   19  C8  UNL     1       0.522  21.351  -0.933  1.00  0.00     0.045 C 
HETATM   20  C9  UNL     1      -0.816  21.057  -0.293  1.00  0.00     0.055 C 
HETATM   21  C10 UNL     1      -1.654  20.441  -1.390  1.00  0.00     0.061 C 
HETATM   22  N1  UNL     1      -1.806  21.223  -2.545  1.00  0.00    -0.382 N 
HETATM   23  C11 UNL     1      -0.868  22.217  -2.843  1.00  0.00     0.061 C 
ATOM     24  H1  UNL     1      -2.600  21.068  -3.167  1.00  0.00     0.163 HD
HETATM   25  C12 UNL     1       0.306  22.391  -1.982  1.00  0.00     0.055 C 
ENDBRANCH   3  19
BRANCH   1  26
HETATM   26  O1  UNL     1       2.053  24.359   2.639  1.00  0.00    -0.307 OA
BRANCH  26  27
HETATM   27  C4  UNL     1       0.865  24.646   3.294  1.00  0.00     0.119 A 
HETATM   28  C3  UNL     1       0.149  25.787   3.012  1.00  0.00     0.072 A 
HETATM   29  C2  UNL     1      -1.029  26.044   3.681  1.00  0.00     0.069 A 
HETATM   30 CL1  UNL     1       0.766  26.903   1.788  1.00  0.00    -0.081 Cl
HETATM   31  C1  UNL     1      -1.521  25.182   4.638  1.00  0.00     0.119 A 
HETATM   32  F1  UNL     1      -2.682  25.472   5.271  1.00  0.00    -0.206 F 
HETATM   33  C21 UNL     1      -0.784  24.052   4.895  1.00  0.00     0.069 A 
HETATM   34  C20 UNL     1       0.400  23.764   4.244  1.00  0.00     0.072 A 
HETATM   35 CL5  UNL     1       1.298  22.287   4.629  1.00  0.00    -0.081 Cl
ENDBRANCH  26  27
ENDBRANCH   1  26
TORSDOF 5
ENDMDL
MODEL 3
REMARK VINA RESULT: -7.700993028      1.138      1.321
REMARK  5 active torsions:
REMARK  status: ('A' for Active; 'I' for Inactive)
REMARK    1  A    between atoms: C4_6  and  O1_7 
REMARK    2  A    between atoms: O1_7  and  C5_8 
REMARK    3  A    between atoms: C7_10  and  C8_11 
REMARK    4  A    between atoms: N3_21  and  C14_23 
REMARK    5  A    between atoms: C14_23  and  C15_24 
ROOT
HETATM    1  C5  UNL     1       2.259  22.970   1.738  1.00  0.00     0.081 A 
HETATM    2  C6  UNL     1       1.314  22.678   0.762  1.00  0.00     0.062 A 
HETATM    3  C7  UNL     1       1.478  21.583  -0.054  1.00  0.00     0.018 A 
HETATM    4  N2  UNL     1       2.549  20.781   0.075  1.00  0.00    -0.346 N 
ATOM      5  H2  UNL     1       2.648  19.975  -0.542  1.00  0.00     0.167 HD
HETATM    6  C13 UNL     1       3.503  21.027   1.015  1.00  0.00     0.104 A 
HETATM    7  N3  UNL     1       4.491  20.204   1.064  1.00  0.00    -0.372 N 
ATOM      8  H3  UNL     1       4.558  19.407   0.431  1.00  0.00     0.161 HD
HETATM    9  C19 UNL     1       3.342  22.121   1.835  1.00  0.00     0.085 A 
ENDROOT
BRANCH   7  10
HETATM   10  C14 UNL     1       5.510  20.471   2.072  1.00  0.00     0.159 C 
BRANCH  10  11
HETATM   11  C15 UNL     1       5.537  19.411   3.111  1.00  0.00    -0.015 C 
HETATM   12  C16 UNL     1       6.208  19.442   4.249  1.00  0.00     0.083 C 
HETATM   13 CL2  UNL     1       7.236  20.766   4.793  1.00  0.00    -0.083 Cl
HETATM   14  C17 UNL     1       5.941  18.183   4.962  1.00  0.00     0.256 C 
HETATM   15 CL3  UNL     1       4.904  18.532   6.384  1.00  0.00    -0.064 Cl
HETATM   16 CL4  UNL     1       7.506  17.496   5.508  1.00  0.00    -0.064 Cl
HETATM   17  O2  UNL     1       5.327  17.343   4.067  1.00  0.00    -0.343 OA
HETATM   18  C18 UNL     1       4.812  18.136   3.044  1.00  0.00     0.209 C 
ENDBRANCH  10  11
ENDBRANCH   7  10
BRANCH   3  19
HETATM   19  C8  UNL     1       0.469  21.278  -1.090  1.00  0.00     0.045 C 
HETATM   20  C9  UNL     1      -0.899  21.041  -0.491  1.00  0.00     0.055 C 
HETATM   21  C10 UNL     1      -1.753  20.544  -1.636  1.00  0.00     0.061 C 
HETATM   22  N1  UNL     1      -1.827  21.397  -2.748  1.00  0.00    -0.382 N 
HETATM   23  C11 UNL     1      -0.818  22.339  -2.973  1.00  0.00     0.061 C 
ATOM     24  H1  UNL     1      -2.616  21.329  -3.391  1.00  0.00     0.163 HD
HETATM   25  C12 UNL     1       0.346  22.386  -2.083  1.00  0.00     0.055 C 
ENDBRANCH   3  19
BRANCH   1  26
HETATM   26  O1  UNL     1       2.177  24.043   2.597  1.00  0.00    -0.307 OA
BRANCH  26  27
HETATM   27  C4  UNL     1       1.028  24.375   3.300  1.00  0.00     0.119 A 
HETATM   28  C3  UNL     1       0.521  23.548   4.277  1.00  0.00     0.072 A 
HETATM   29  C2  UNL     1      -0.623  23.907   4.958  1.00  0.00     0.069 A 
HETATM   30 CL1  UNL     1       1.361  22.035   4.635  1.00  0.00    -0.081 Cl
HETATM   31  C1  UNL     1      -1.287  25.084   4.687  1.00  0.00     0.119 A 
HETATM   32  F1  UNL     1      -2.408  25.398   5.379  1.00  0.00    -0.206 F 
HETATM   33  C21 UNL     1      -0.756  25.887   3.708  1.00  0.00     0.069 A 
HETATM   34  C20 UNL     1       0.389  25.559   3.007  1.00  0.00     0.072 A 
HETATM   35 CL5  UNL     1       1.015  26.644   1.755  1.00  0.00    -0.081 Cl
ENDBRANCH  26  27
ENDBRANCH   1  26
TORSDOF 5
ENDMDL
MODEL 4
REMARK VINA RESULT: -7.674206442      1.133      2.069
REMARK  5 active torsions:
REMARK  status: ('A' for Active; 'I' for Inactive)
REMARK    1  A    between atoms: C4_6  and  O1_7 
REMARK    2  A    between atoms: O1_7  and  C5_8 
REMARK    3  A    between atoms: C7_10  and  C8_11 
REMARK    4  A    between atoms: N3_21  and  C14_23 
REMARK    5  A    between atoms: C14_23  and  C15_24 
ROOT
HETATM    1  C5  UNL     1       2.244  22.993   1.746  1.00  0.00     0.081 A 
HETATM    2  C6  UNL     1       1.300  22.703   0.768  1.00  0.00     0.062 A 
HETATM    3  C7  UNL     1       1.466  21.611  -0.051  1.00  0.00     0.018 A 
HETATM    4  N2  UNL     1       2.537  20.809   0.076  1.00  0.00    -0.346 N 
ATOM      5  H2  UNL     1       2.637  20.005  -0.542  1.00  0.00     0.167 HD
HETATM    6  C13 UNL     1       3.490  21.052   1.019  1.00  0.00     0.104 A 
HETATM    7  N3  UNL     1       4.479  20.230   1.066  1.00  0.00    -0.372 N 
ATOM      8  H3  UNL     1       4.547  19.436   0.430  1.00  0.00     0.161 HD
HETATM    9  C19 UNL     1       3.328  22.145   1.842  1.00  0.00     0.085 A 
ENDROOT
BRANCH   7  10
HETATM   10  C14 UNL     1       5.496  20.495   2.076  1.00  0.00     0.159 C 
BRANCH  10  11
HETATM   11  C15 UNL     1       5.526  19.430   3.109  1.00  0.00    -0.015 C 
HETATM   12  C16 UNL     1       6.208  19.451   4.241  1.00  0.00     0.083 C 
HETATM   13 CL2  UNL     1       7.248  20.765   4.782  1.00  0.00    -0.083 Cl
HETATM   14  C17 UNL     1       5.939  18.189   4.950  1.00  0.00     0.256 C 
HETATM   15 CL3  UNL     1       4.917  18.537   6.383  1.00  0.00    -0.064 Cl
HETATM   16 CL4  UNL     1       7.505  17.491   5.478  1.00  0.00    -0.064 Cl
HETATM   17  O2  UNL     1       5.311  17.358   4.056  1.00  0.00    -0.343 OA
HETATM   18  C18 UNL     1       4.792  18.159   3.042  1.00  0.00     0.209 C 
ENDBRANCH  10  11
ENDBRANCH   7  10
BRANCH   3  19
HETATM   19  C8  UNL     1       0.458  21.308  -1.088  1.00  0.00     0.045 C 
HETATM   20  C9  UNL     1      -0.917  21.100  -0.494  1.00  0.00     0.055 C 
HETATM   21  C10 UNL     1      -1.772  20.602  -1.638  1.00  0.00     0.061 C 
HETATM   22  N1  UNL     1      -1.827  21.441  -2.761  1.00  0.00    -0.382 N 
HETATM   23  C11 UNL     1      -0.803  22.365  -2.992  1.00  0.00     0.061 C 
ATOM     24  H1  UNL     1      -2.613  21.378  -3.408  1.00  0.00     0.163 HD
HETATM   25  C12 UNL     1       0.357  22.405  -2.096  1.00  0.00     0.055 C 
ENDBRANCH   3  19
BRANCH   1  26
HETATM   26  O1  UNL     1       2.160  24.064   2.608  1.00  0.00    -0.307 OA
BRANCH  26  27
HETATM   27  C4  UNL     1       1.004  24.407   3.292  1.00  0.00     0.119 A 
HETATM   28  C3  UNL     1       0.326  25.573   3.015  1.00  0.00     0.072 A 
HETATM   29  C2  UNL     1      -0.821  25.886   3.713  1.00  0.00     0.069 A 
HETATM   30 CL1  UNL     1       0.952  26.646   1.758  1.00  0.00    -0.081 Cl
HETATM   31  C1  UNL     1      -1.319  25.057   4.696  1.00  0.00     0.119 A 
HETATM   32  F1  UNL     1      -2.448  25.402   5.358  1.00  0.00    -0.206 F 
HETATM   33  C21 UNL     1      -0.621  23.902   4.948  1.00  0.00     0.069 A 
HETATM   34  C20 UNL     1       0.532  23.558   4.268  1.00  0.00     0.072 A 
HETATM   35 CL5  UNL     1       1.381  22.050   4.648  1.00  0.00    -0.081 Cl
ENDBRANCH  26  27
ENDBRANCH   1  26
TORSDOF 5
ENDMDL
MODEL 5
REMARK VINA RESULT: -7.601053878      0.994      1.272
REMARK  5 active torsions:
REMARK  status: ('A' for Active; 'I' for Inactive)
REMARK    1  A    between atoms: C4_6  and  O1_7 
REMARK    2  A    between atoms: O1_7  and  C5_8 
REMARK    3  A    between atoms: C7_10  and  C8_11 
REMARK    4  A    between atoms: N3_21  and  C14_23 
REMARK    5  A    between atoms: C14_23  and  C15_24 
ROOT
HETATM    1  C5  UNL     1       2.200  23.287   1.797  1.00  0.00     0.081 A 
HETATM    2  C6  UNL     1       1.263  22.866   0.861  1.00  0.00     0.062 A 
HETATM    3  C7  UNL     1       1.521  21.775   0.065  1.00  0.00     0.018 A 
HETATM    4  N2  UNL     1       2.677  21.099   0.176  1.00  0.00    -0.346 N 
ATOM      5  H2  UNL     1       2.846  20.292  -0.425  1.00  0.00     0.167 HD
HETATM    6  C13 UNL     1       3.628  21.472   1.077  1.00  0.00     0.104 A 
HETATM    7  N3  UNL     1       4.702  20.764   1.110  1.00  0.00    -0.372 N 
ATOM      8  H3  UNL     1       4.836  19.963   0.494  1.00  0.00     0.161 HD
HETATM    9  C19 UNL     1       3.373  22.564   1.876  1.00  0.00     0.085 A 
ENDROOT
BRANCH   7  10
HETATM   10  C14 UNL     1       5.716  21.168   2.077  1.00  0.00     0.159 C 
BRANCH  10  11
HETATM   11  C15 UNL     1       6.564  20.021   2.487  1.00  0.00    -0.015 C 
HETATM   12  C16 UNL     1       6.349  19.209   3.507  1.00  0.00     0.083 C 
HETATM   13 CL2  UNL     1       4.991  19.310   4.625  1.00  0.00    -0.083 Cl
HETATM   14  C17 UNL     1       7.442  18.223   3.533  1.00  0.00     0.256 C 
HETATM   15 CL3  UNL     1       6.791  16.625   3.040  1.00  0.00    -0.064 Cl
HETATM   16 CL4  UNL     1       8.079  18.127   5.208  1.00  0.00    -0.064 Cl
HETATM   17  O2  UNL     1       8.407  18.678   2.670  1.00  0.00    -0.343 OA
HETATM   18  C18 UNL     1       7.798  19.593   1.815  1.00  0.00     0.209 C 
ENDBRANCH  10  11
ENDBRANCH   7  10
BRANCH   3  19
HETATM   19  C8  UNL     1       0.520  21.333  -0.928  1.00  0.00     0.045 C 
HETATM   20  C9  UNL     1      -0.823  21.058  -0.290  1.00  0.00     0.055 C 
HETATM   21  C10 UNL     1      -1.659  20.428  -1.380  1.00  0.00     0.061 C 
HETATM   22  N1  UNL     1      -1.801  21.190  -2.550  1.00  0.00    -0.382 N 
HETATM   23  C11 UNL     1      -0.855  22.173  -2.860  1.00  0.00     0.061 C 
ATOM     24  H1  UNL     1      -2.592  21.027  -3.173  1.00  0.00     0.163 HD
HETATM   25  C12 UNL     1       0.315  22.355  -1.997  1.00  0.00     0.055 C 
ENDBRANCH   3  19
BRANCH   1  26
HETATM   26  O1  UNL     1       2.027  24.367   2.633  1.00  0.00    -0.307 OA
BRANCH  26  27
HETATM   27  C4  UNL     1       0.848  24.625   3.315  1.00  0.00     0.119 A 
HETATM   28  C3  UNL     1       0.371  23.763   4.277  1.00  0.00     0.072 A 
HETATM   29  C2  UNL     1      -0.805  24.048   4.937  1.00  0.00     0.069 A 
HETATM   30 CL1  UNL     1       1.290  22.297   4.640  1.00  0.00    -0.081 Cl
HETATM   31  C1  UNL     1      -1.530  25.188   4.662  1.00  0.00     0.119 A 
HETATM   32  F1  UNL     1      -2.681  25.431   5.333  1.00  0.00    -0.206 F 
HETATM   33  C21 UNL     1      -1.028  26.029   3.699  1.00  0.00     0.069 A 
HETATM   34  C20 UNL     1       0.147  25.772   3.018  1.00  0.00     0.072 A 
HETATM   35 CL5  UNL     1       0.734  26.903   1.787  1.00  0.00    -0.081 Cl
ENDBRANCH  26  27
ENDBRANCH   1  26
TORSDOF 5
ENDMDL
