MODEL 1
REMARK VINA RESULT: -6.291023015      0.000      0.000
REMARK  7 active torsions:
REMARK  status: ('A' for Active; 'I' for Inactive)
REMARK    1  A    between atoms: C4_5  and  N1_6 
REMARK    2  A    between atoms: C5_7  and  C6_8 
REMARK    3  A    between atoms: C6_8  and  N2_9 
REMARK    4  A    between atoms: C6_8  and  C7_13 
REMARK    5  A    between atoms: C10_16  and  C11_17 
REMARK       I    between atoms: C11_17  and  N3_19 
REMARK    6  A    between atoms: N3_19  and  C12_21 
REMARK    7  A    between atoms: C19_29  and  C20_30 
ROOT
HETATM    1  N1  UNL     1       8.736  18.044  -2.956  1.00  0.00    -0.304 N 
HETATM    2  C5  UNL     1       8.028  18.102  -1.822  1.00  0.00     0.064 A 
HETATM    3  C10 UNL     1       8.478  19.237  -1.070  1.00  0.00     0.065 A 
HETATM    4  C17 UNL     1       9.461  19.799  -1.839  1.00  0.00    -0.012 A 
HETATM    5  C18 UNL     1      10.218  21.047  -1.468  1.00  0.00     0.052 C 
HETATM    6  C19 UNL     1       9.632  19.078  -2.995  1.00  0.00     0.131 A 
ENDROOT
BRANCH   1   7
HETATM    7  C4  UNL     1       8.705  17.125  -4.026  1.00  0.00     0.086 A 
HETATM    8  C3  UNL     1       7.739  17.279  -5.042  1.00  0.00     0.151 A 
HETATM    9  C2  UNL     1       7.606  16.435  -6.097  1.00  0.00     0.002 A 
HETATM   10  F1  UNL     1       6.900  18.345  -4.918  1.00  0.00    -0.203 F 
HETATM   11  C1  UNL     1       6.547  16.712  -7.100  1.00  0.00     0.053 C 
HETATM   12  C24 UNL     1       8.429  15.363  -6.228  1.00  0.00     0.065 A 
HETATM   13  C23 UNL     1       9.383  15.162  -5.274  1.00  0.00     0.064 A 
HETATM   14 CL2  UNL     1       8.252  14.281  -7.591  1.00  0.00    -0.082 Cl
HETATM   15  C21 UNL     1       9.525  16.030  -4.183  1.00  0.00    -0.008 A 
HETATM   16 CL1  UNL     1      10.446  13.786  -5.426  1.00  0.00    -0.082 Cl
HETATM   17  C22 UNL     1      10.578  15.691  -3.191  1.00  0.00     0.052 C 
ENDBRANCH   1   7
BRANCH   2  18
HETATM   18  C6  UNL     1       7.069  17.189  -1.217  1.00  0.00     0.237 C 
BRANCH  18  19
HETATM   19  N2  UNL     1       7.664  15.963  -0.735  1.00  0.00    -0.069 N 
ATOM     20  H23 UNL     1       7.992  15.391  -1.513  1.00  0.00     0.275 HD
ATOM     21  H22 UNL     1       8.555  16.150  -0.274  1.00  0.00     0.275 HD
ATOM     22  H21 UNL     1       7.049  15.424  -0.125  1.00  0.00     0.275 HD
ENDBRANCH  18  19
BRANCH  18  23
HETATM   23  C7  UNL     1       5.792  16.824  -1.868  1.00  0.00     0.014 C 
HETATM   24  C8  UNL     1       4.614  16.845  -0.901  1.00  0.00     0.012 C 
HETATM   25  C9  UNL     1       5.917  15.365  -2.342  1.00  0.00     0.012 C 
ENDBRANCH  18  23
ENDBRANCH   2  18
BRANCH   6  26
HETATM   26  C20 UNL     1      10.652  19.452  -3.988  1.00  0.00     0.433 C 
HETATM   27  F2  UNL     1      10.449  19.057  -5.261  1.00  0.00    -0.165 F 
HETATM   28  F3  UNL     1      11.877  18.978  -3.563  1.00  0.00    -0.165 F 
HETATM   29  F4  UNL     1      10.779  20.862  -4.022  1.00  0.00    -0.165 F 
ENDBRANCH   6  26
BRANCH   3  30
HETATM   30  C11 UNL     1       7.945  19.714   0.205  1.00  0.00     0.254 C 
HETATM   31  O1  UNL     1       6.917  20.425   0.341  1.00  0.00    -0.268 OA
HETATM   32  N3  UNL     1       8.595  19.378   1.425  1.00  0.00    -0.350 N 
ATOM     33  H3  UNL     1       9.426  18.788   1.382  1.00  0.00     0.163 HD
BRANCH  32  34
HETATM   34  C12 UNL     1       8.141  19.825   2.729  1.00  0.00     0.108 C 
HETATM   35  C13 UNL     1       9.300  20.119   3.649  1.00  0.00     0.029 C 
HETATM   36  C14 UNL     1       8.863  20.138   5.071  1.00  0.00     0.028 C 
HETATM   37  C15 UNL     1       8.369  18.745   5.435  1.00  0.00     0.167 C 
HETATM   38  O2  UNL     1       8.090  18.023   4.270  1.00  0.00    -0.389 OA
HETATM   39  C16 UNL     1       7.278  18.778   3.403  1.00  0.00     0.192 C 
ENDBRANCH  32  34
ENDBRANCH   3  30
TORSDOF 7
ENDMDL
MODEL 2
REMARK VINA RESULT: -6.157476738      7.885     10.782
REMARK  7 active torsions:
REMARK  status: ('A' for Active; 'I' for Inactive)
REMARK    1  A    between atoms: C4_5  and  N1_6 
REMARK    2  A    between atoms: C5_7  and  C6_8 
REMARK    3  A    between atoms: C6_8  and  N2_9 
REMARK    4  A    between atoms: C6_8  and  C7_13 
REMARK    5  A    between atoms: C10_16  and  C11_17 
REMARK       I    between atoms: C11_17  and  N3_19 
REMARK    6  A    between atoms: N3_19  and  C12_21 
REMARK    7  A    between atoms: C19_29  and  C20_30 
ROOT
HETATM    1  N1  UNL     1       1.933  21.074   1.554  1.00  0.00    -0.304 N 
HETATM    2  C5  UNL     1       1.639  20.410   0.430  1.00  0.00     0.064 A 
HETATM    3  C10 UNL     1       2.578  19.336   0.286  1.00  0.00     0.065 A 
HETATM    4  C17 UNL     1       3.398  19.437   1.377  1.00  0.00    -0.012 A 
HETATM    5  C18 UNL     1       4.534  18.494   1.675  1.00  0.00     0.052 C 
HETATM    6  C19 UNL     1       3.017  20.499   2.161  1.00  0.00     0.131 A 
ENDROOT
BRANCH   1   7
HETATM    7  C4  UNL     1       1.340  22.209   2.146  1.00  0.00     0.086 A 
HETATM    8  C3  UNL     1       0.237  22.043   3.008  1.00  0.00     0.151 A 
HETATM    9  C2  UNL     1      -0.422  23.070   3.604  1.00  0.00     0.002 A 
HETATM   10  F1  UNL     1      -0.171  20.761   3.224  1.00  0.00    -0.203 F 
HETATM   11  C1  UNL     1      -1.571  22.758   4.491  1.00  0.00     0.053 C 
HETATM   12  C24 UNL     1      -0.032  24.353   3.390  1.00  0.00     0.065 A 
HETATM   13  C23 UNL     1       1.030  24.576   2.564  1.00  0.00     0.064 A 
HETATM   14 CL2  UNL     1      -0.886  25.670   4.163  1.00  0.00    -0.082 Cl
HETATM   15  C21 UNL     1       1.713  23.520   1.946  1.00  0.00    -0.008 A 
HETATM   16 CL1  UNL     1       1.540  26.220   2.276  1.00  0.00    -0.082 Cl
HETATM   17  C22 UNL     1       2.834  23.887   1.042  1.00  0.00     0.052 C 
ENDBRANCH   1   7
BRANCH   2  18
HETATM   18  C6  UNL     1       0.700  20.678  -0.649  1.00  0.00     0.237 C 
BRANCH  18  19
HETATM   19  N2  UNL     1       1.122  21.742  -1.532  1.00  0.00    -0.069 N 
ATOM     20  H23 UNL     1       0.534  22.566  -1.409  1.00  0.00     0.275 HD
ATOM     21  H22 UNL     1       2.018  22.126  -1.232  1.00  0.00     0.275 HD
ATOM     22  H21 UNL     1       1.157  21.467  -2.514  1.00  0.00     0.275 HD
ENDBRANCH  18  19
BRANCH  18  23
HETATM   23  C7  UNL     1      -0.751  20.854  -0.421  1.00  0.00     0.014 C 
HETATM   24  C8  UNL     1      -1.383  19.659   0.283  1.00  0.00     0.012 C 
HETATM   25  C9  UNL     1      -1.428  20.933  -1.800  1.00  0.00     0.012 C 
ENDBRANCH  18  23
ENDBRANCH   2  18
BRANCH   6  26
HETATM   26  C20 UNL     1       3.753  20.849   3.386  1.00  0.00     0.433 C 
HETATM   27  F2  UNL     1       4.264  19.834   4.112  1.00  0.00    -0.165 F 
HETATM   28  F3  UNL     1       2.928  21.607   4.195  1.00  0.00    -0.165 F 
HETATM   29  F4  UNL     1       4.842  21.692   3.055  1.00  0.00    -0.165 F 
ENDBRANCH   6  26
BRANCH   3  30
HETATM   30  C11 UNL     1       2.598  18.322  -0.768  1.00  0.00     0.254 C 
HETATM   31  O1  UNL     1       3.185  18.436  -1.874  1.00  0.00    -0.268 OA
HETATM   32  N3  UNL     1       1.920  17.084  -0.585  1.00  0.00    -0.350 N 
ATOM     33  H3  UNL     1       1.439  16.925   0.300  1.00  0.00     0.163 HD
BRANCH  32  34
HETATM   34  C12 UNL     1       1.877  16.035  -1.586  1.00  0.00     0.108 C 
HETATM   35  C13 UNL     1       0.552  15.311  -1.573  1.00  0.00     0.029 C 
HETATM   36  C14 UNL     1       0.657  13.992  -2.254  1.00  0.00     0.028 C 
HETATM   37  C15 UNL     1       1.628  13.126  -1.464  1.00  0.00     0.167 C 
HETATM   38  O2  UNL     1       2.410  13.931  -0.630  1.00  0.00    -0.389 OA
HETATM   39  C16 UNL     1       2.962  15.004  -1.355  1.00  0.00     0.192 C 
ENDBRANCH  32  34
ENDBRANCH   3  30
TORSDOF 7
ENDMDL
MODEL 3
REMARK VINA RESULT: -6.145650300      5.239      8.645
REMARK  7 active torsions:
REMARK  status: ('A' for Active; 'I' for Inactive)
REMARK    1  A    between atoms: C4_5  and  N1_6 
REMARK    2  A    between atoms: C5_7  and  C6_8 
REMARK    3  A    between atoms: C6_8  and  N2_9 
REMARK    4  A    between atoms: C6_8  and  C7_13 
REMARK    5  A    between atoms: C10_16  and  C11_17 
REMARK       I    between atoms: C11_17  and  N3_19 
REMARK    6  A    between atoms: N3_19  and  C12_21 
REMARK    7  A    between atoms: C19_29  and  C20_30 
ROOT
HETATM    1  N1  UNL     1       7.995  18.315   3.751  1.00  0.00    -0.304 N 
HETATM    2  C5  UNL     1       7.776  18.219   2.434  1.00  0.00     0.064 A 
HETATM    3  C10 UNL     1       8.193  19.446   1.820  1.00  0.00     0.065 A 
HETATM    4  C17 UNL     1       8.650  20.218   2.853  1.00  0.00    -0.012 A 
HETATM    5  C18 UNL     1       9.224  21.601   2.688  1.00  0.00     0.052 C 
HETATM    6  C19 UNL     1       8.532  19.540   4.041  1.00  0.00     0.131 A 
ENDROOT
BRANCH   1   7
HETATM    7  C4  UNL     1       7.749  17.409   4.803  1.00  0.00     0.086 A 
HETATM    8  C3  UNL     1       8.630  16.325   5.002  1.00  0.00     0.151 A 
HETATM    9  C2  UNL     1       8.468  15.383   5.966  1.00  0.00     0.002 A 
HETATM   10  F1  UNL     1       9.691  16.247   4.151  1.00  0.00    -0.203 F 
HETATM   11  C1  UNL     1       9.470  14.292   6.070  1.00  0.00     0.053 C 
HETATM   12  C24 UNL     1       7.410  15.443   6.815  1.00  0.00     0.065 A 
HETATM   13  C23 UNL     1       6.523  16.468   6.670  1.00  0.00     0.064 A 
HETATM   14 CL2  UNL     1       7.209  14.225   8.055  1.00  0.00    -0.082 Cl
HETATM   15  C21 UNL     1       6.685  17.444   5.677  1.00  0.00    -0.008 A 
HETATM   16 CL1  UNL     1       5.156  16.557   7.751  1.00  0.00    -0.082 Cl
HETATM   17  C22 UNL     1       5.638  18.495   5.595  1.00  0.00     0.052 C 
ENDBRANCH   1   7
BRANCH   2  18
HETATM   18  C6  UNL     1       7.099  17.217   1.624  1.00  0.00     0.237 C 
BRANCH  18  19
HETATM   19  N2  UNL     1       5.717  17.011   1.994  1.00  0.00    -0.069 N 
ATOM     20  H23 UNL     1       5.627  16.212   2.620  1.00  0.00     0.275 HD
ATOM     21  H22 UNL     1       5.396  17.753   2.617  1.00  0.00     0.275 HD
ATOM     22  H21 UNL     1       5.091  16.916   1.194  1.00  0.00     0.275 HD
ENDBRANCH  18  19
BRANCH  18  23
HETATM   23  C7  UNL     1       7.678  15.882   1.355  1.00  0.00     0.014 C 
HETATM   24  C8  UNL     1       9.145  15.952   0.945  1.00  0.00     0.012 C 
HETATM   25  C9  UNL     1       6.933  15.292   0.145  1.00  0.00     0.012 C 
ENDBRANCH  18  23
ENDBRANCH   2  18
BRANCH   6  26
HETATM   26  C20 UNL     1       8.927  20.158   5.318  1.00  0.00     0.433 C 
HETATM   27  F2  UNL     1       9.287  19.330   6.320  1.00  0.00    -0.165 F 
HETATM   28  F3  UNL     1       7.896  20.966   5.755  1.00  0.00    -0.165 F 
HETATM   29  F4  UNL     1      10.025  21.024   5.101  1.00  0.00    -0.165 F 
ENDBRANCH   6  26
BRANCH   3  30
HETATM   30  C11 UNL     1       8.187  19.759   0.391  1.00  0.00     0.254 C 
HETATM   31  O1  UNL     1       7.312  20.444  -0.198  1.00  0.00    -0.268 OA
HETATM   32  N3  UNL     1       9.229  19.283  -0.452  1.00  0.00    -0.350 N 
ATOM     33  H3  UNL     1       9.978  18.735  -0.029  1.00  0.00     0.163 HD
BRANCH  32  34
HETATM   34  C12 UNL     1       9.287  19.534  -1.880  1.00  0.00     0.108 C 
HETATM   35  C13 UNL     1       9.019  18.280  -2.675  1.00  0.00     0.029 C 
HETATM   36  C14 UNL     1       9.506  18.418  -4.074  1.00  0.00     0.028 C 
HETATM   37  C15 UNL     1      11.018  18.586  -4.035  1.00  0.00     0.167 C 
HETATM   38  O2  UNL     1      11.420  18.969  -2.751  1.00  0.00    -0.389 OA
HETATM   39  C16 UNL     1      10.649  20.055  -2.294  1.00  0.00     0.192 C 
ENDBRANCH  32  34
ENDBRANCH   3  30
TORSDOF 7
ENDMDL
MODEL 4
REMARK VINA RESULT: -6.120631885      0.860      1.884
REMARK  7 active torsions:
REMARK  status: ('A' for Active; 'I' for Inactive)
REMARK    1  A    between atoms: C4_5  and  N1_6 
REMARK    2  A    between atoms: C5_7  and  C6_8 
REMARK    3  A    between atoms: C6_8  and  N2_9 
REMARK    4  A    between atoms: C6_8  and  C7_13 
REMARK    5  A    between atoms: C10_16  and  C11_17 
REMARK       I    between atoms: C11_17  and  N3_19 
REMARK    6  A    between atoms: N3_19  and  C12_21 
REMARK    7  A    between atoms: C19_29  and  C20_30 
ROOT
HETATM    1  N1  UNL     1       8.765  17.951  -2.890  1.00  0.00    -0.304 N 
HETATM    2  C5  UNL     1       8.085  18.029  -1.740  1.00  0.00     0.064 A 
HETATM    3  C10 UNL     1       8.504  19.216  -1.052  1.00  0.00     0.065 A 
HETATM    4  C17 UNL     1       9.440  19.785  -1.872  1.00  0.00    -0.012 A 
HETATM    5  C18 UNL     1      10.149  21.081  -1.578  1.00  0.00     0.052 C 
HETATM    6  C19 UNL     1       9.613  19.020  -2.999  1.00  0.00     0.131 A 
ENDROOT
BRANCH   1   7
HETATM    7  C4  UNL     1       8.747  16.983  -3.917  1.00  0.00     0.086 A 
HETATM    8  C3  UNL     1       9.751  15.993  -3.950  1.00  0.00     0.151 A 
HETATM    9  C2  UNL     1       9.840  15.036  -4.909  1.00  0.00     0.002 A 
HETATM   10  F1  UNL     1      10.674  16.036  -2.950  1.00  0.00    -0.203 F 
HETATM   11  C1  UNL     1      10.947  14.050  -4.828  1.00  0.00     0.053 C 
HETATM   12  C24 UNL     1       8.933  14.987  -5.918  1.00  0.00     0.065 A 
HETATM   13  C23 UNL     1       7.939  15.921  -5.939  1.00  0.00     0.064 A 
HETATM   14 CL2  UNL     1       9.055  13.750  -7.150  1.00  0.00    -0.082 Cl
HETATM   15  C21 UNL     1       7.842  16.911  -4.952  1.00  0.00    -0.008 A 
HETATM   16 CL1  UNL     1       6.767  15.874  -7.231  1.00  0.00    -0.082 Cl
HETATM   17  C22 UNL     1       6.736  17.893  -5.096  1.00  0.00     0.052 C 
ENDBRANCH   1   7
BRANCH   2  18
HETATM   18  C6  UNL     1       7.185  17.103  -1.069  1.00  0.00     0.237 C 
BRANCH  18  19
HETATM   19  N2  UNL     1       7.834  15.897  -0.608  1.00  0.00    -0.069 N 
ATOM     20  H23 UNL     1       8.734  15.772  -1.073  1.00  0.00     0.275 HD
ATOM     21  H22 UNL     1       8.154  16.004   0.355  1.00  0.00     0.275 HD
ATOM     22  H21 UNL     1       7.259  15.061  -0.707  1.00  0.00     0.275 HD
ENDBRANCH  18  19
BRANCH  18  23
HETATM   23  C7  UNL     1       5.880  16.702  -1.638  1.00  0.00     0.014 C 
HETATM   24  C8  UNL     1       4.752  16.754  -0.614  1.00  0.00     0.012 C 
HETATM   25  C9  UNL     1       5.995  15.226  -2.058  1.00  0.00     0.012 C 
ENDBRANCH  18  23
ENDBRANCH   2  18
BRANCH   6  26
HETATM   26  C20 UNL     1      10.588  19.393  -4.037  1.00  0.00     0.433 C 
HETATM   27  F2  UNL     1      10.359  18.948  -5.289  1.00  0.00    -0.165 F 
HETATM   28  F3  UNL     1      11.841  18.975  -3.635  1.00  0.00    -0.165 F 
HETATM   29  F4  UNL     1      10.666  20.805  -4.122  1.00  0.00    -0.165 F 
ENDBRANCH   6  26
BRANCH   3  30
HETATM   30  C11 UNL     1       7.983  19.727   0.215  1.00  0.00     0.254 C 
HETATM   31  O1  UNL     1       6.953  20.437   0.343  1.00  0.00    -0.268 OA
HETATM   32  N3  UNL     1       8.648  19.427   1.437  1.00  0.00    -0.350 N 
ATOM     33  H3  UNL     1       9.481  18.840   1.400  1.00  0.00     0.163 HD
BRANCH  32  34
HETATM   34  C12 UNL     1       8.207  19.910   2.732  1.00  0.00     0.108 C 
HETATM   35  C13 UNL     1       9.371  20.132   3.667  1.00  0.00     0.029 C 
HETATM   36  C14 UNL     1       8.917  20.186   5.083  1.00  0.00     0.028 C 
HETATM   37  C15 UNL     1       8.330  18.830   5.446  1.00  0.00     0.167 C 
HETATM   38  O2  UNL     1       8.019  18.122   4.280  1.00  0.00    -0.389 OA
HETATM   39  C16 UNL     1       7.269  18.924   3.399  1.00  0.00     0.192 C 
ENDBRANCH  32  34
ENDBRANCH   3  30
TORSDOF 7
ENDMDL
MODEL 5
REMARK VINA RESULT: -6.073369435      9.700     11.629
REMARK  7 active torsions:
REMARK  status: ('A' for Active; 'I' for Inactive)
REMARK    1  A    between atoms: C4_5  and  N1_6 
REMARK    2  A    between atoms: C5_7  and  C6_8 
REMARK    3  A    between atoms: C6_8  and  N2_9 
REMARK    4  A    between atoms: C6_8  and  C7_13 
REMARK    5  A    between atoms: C10_16  and  C11_17 
REMARK       I    between atoms: C11_17  and  N3_19 
REMARK    6  A    between atoms: N3_19  and  C12_21 
REMARK    7  A    between atoms: C19_29  and  C20_30 
ROOT
HETATM    1  N1  UNL     1       0.641  22.641   2.824  1.00  0.00    -0.304 N 
HETATM    2  C5  UNL     1      -0.356  22.985   3.648  1.00  0.00     0.064 A 
HETATM    3  C10 UNL     1      -0.435  24.417   3.682  1.00  0.00     0.065 A 
HETATM    4  C17 UNL     1       0.559  24.843   2.842  1.00  0.00    -0.012 A 
HETATM    5  C18 UNL     1       0.845  26.289   2.533  1.00  0.00     0.052 C 
HETATM    6  C19 UNL     1       1.228  23.767   2.312  1.00  0.00     0.131 A 
ENDROOT
BRANCH   1   7
HETATM    7  C4  UNL     1       1.147  21.378   2.453  1.00  0.00     0.086 A 
HETATM    8  C3  UNL     1       2.183  20.798   3.214  1.00  0.00     0.151 A 
HETATM    9  C2  UNL     1       2.758  19.602   2.925  1.00  0.00     0.002 A 
HETATM   10  F1  UNL     1       2.614  21.513   4.289  1.00  0.00    -0.203 F 
HETATM   11  C1  UNL     1       3.841  19.102   3.809  1.00  0.00     0.053 C 
HETATM   12  C24 UNL     1       2.345  18.882   1.850  1.00  0.00     0.065 A 
HETATM   13  C23 UNL     1       1.346  19.393   1.076  1.00  0.00     0.064 A 
HETATM   14 CL2  UNL     1       3.091  17.341   1.487  1.00  0.00    -0.082 Cl
HETATM   15  C21 UNL     1       0.749  20.627   1.369  1.00  0.00    -0.008 A 
HETATM   16 CL1  UNL     1       0.808  18.482  -0.312  1.00  0.00    -0.082 Cl
HETATM   17  C22 UNL     1      -0.307  21.097   0.435  1.00  0.00     0.052 C 
ENDBRANCH   1   7
BRANCH   2  18
HETATM   18  C6  UNL     1      -1.193  22.210   4.551  1.00  0.00     0.237 C 
BRANCH  18  19
HETATM   19  N2  UNL     1      -0.485  21.709   5.708  1.00  0.00    -0.069 N 
ATOM     20  H23 UNL     1       0.490  21.516   5.479  1.00  0.00     0.275 HD
ATOM     21  H22 UNL     1      -0.355  22.449   6.399  1.00  0.00     0.275 HD
ATOM     22  H21 UNL     1      -0.925  20.892   6.132  1.00  0.00     0.275 HD
ENDBRANCH  18  19
BRANCH  18  23
HETATM   23  C7  UNL     1      -2.080  21.122   4.083  1.00  0.00     0.014 C 
HETATM   24  C8  UNL     1      -3.462  21.177   4.724  1.00  0.00     0.012 C 
HETATM   25  C9  UNL     1      -1.460  19.791   4.541  1.00  0.00     0.012 C 
ENDBRANCH  18  23
ENDBRANCH   2  18
BRANCH   6  26
HETATM   26  C20 UNL     1       2.366  23.948   1.396  1.00  0.00     0.433 C 
HETATM   27  F2  UNL     1       2.843  25.200   1.242  1.00  0.00    -0.165 F 
HETATM   28  F3  UNL     1       2.019  23.446   0.157  1.00  0.00    -0.165 F 
HETATM   29  F4  UNL     1       3.454  23.157   1.838  1.00  0.00    -0.165 F 
ENDBRANCH   6  26
BRANCH   3  30
HETATM   30  C11 UNL     1      -1.413  25.226   4.407  1.00  0.00     0.254 C 
HETATM   31  O1  UNL     1      -2.395  25.817   3.887  1.00  0.00    -0.268 OA
HETATM   32  N3  UNL     1      -1.304  25.392   5.816  1.00  0.00    -0.350 N 
ATOM     33  H3  UNL     1      -0.537  24.923   6.298  1.00  0.00     0.163 HD
BRANCH  32  34
HETATM   34  C12 UNL     1      -2.221  26.192   6.605  1.00  0.00     0.108 C 
HETATM   35  C13 UNL     1      -1.501  27.288   7.352  1.00  0.00     0.029 C 
HETATM   36  C14 UNL     1      -2.330  27.806   8.474  1.00  0.00     0.028 C 
HETATM   37  C15 UNL     1      -2.540  26.674   9.470  1.00  0.00     0.167 C 
HETATM   38  O2  UNL     1      -2.269  25.447   8.857  1.00  0.00    -0.389 OA
HETATM   39  C16 UNL     1      -2.951  25.346   7.629  1.00  0.00     0.192 C 
ENDBRANCH  32  34
ENDBRANCH   3  30
TORSDOF 7
ENDMDL
