MODEL 1
REMARK VINA RESULT: -7.690327841      0.000      0.000
REMARK  6 active torsions:
REMARK  status: ('A' for Active; 'I' for Inactive)
REMARK    1  A    between atoms: C9_14  and  N3_15 
REMARK    2  A    between atoms: N3_15  and  C10_17 
REMARK    3  A    between atoms: C10_17  and  C11_18 
REMARK    4  A    between atoms: C11_18  and  C12_19 
REMARK    5  A    between atoms: C13_23  and  S2_24 
REMARK    6  A    between atoms: S2_24  and  C14_25 
ROOT
HETATM    1  C1  UNL     1       6.123  16.156   8.535  1.00  0.00     0.068 C 
HETATM    2  C2  UNL     1       6.057  17.021   7.352  1.00  0.00     0.006 A 
HETATM    3  C3  UNL     1       7.123  17.283   6.548  1.00  0.00     0.032 A 
HETATM    4  C4  UNL     1       7.079  18.104   5.414  1.00  0.00    -0.046 A 
HETATM    5  C5  UNL     1       8.271  17.947   4.573  1.00  0.00     0.049 C 
HETATM    6  C6  UNL     1       5.890  18.730   5.044  1.00  0.00     0.020 A 
HETATM    7  C7  UNL     1       4.838  18.411   5.901  1.00  0.00     0.088 A 
HETATM    8  N1  UNL     1       4.926  17.600   6.997  1.00  0.00    -0.354 N 
ATOM      9  H1  UNL     1       4.090  17.436   7.558  1.00  0.00     0.166 HD
HETATM   10  S1  UNL     1       3.483  19.168   5.213  1.00  0.00    -0.052 SA
HETATM   11  C8  UNL     1       4.236  19.888   3.878  1.00  0.00     0.106 A 
HETATM   12  N2  UNL     1       3.737  20.693   2.892  1.00  0.00    -0.184 N 
ATOM     13  H2  UNL     1       2.738  20.903   2.882  1.00  0.00     0.185 HD
HETATM   14  C9  UNL     1       4.514  21.211   1.945  1.00  0.00     0.679 A 
HETATM   15  N4  UNL     1       5.789  20.898   2.038  1.00  0.00    -0.184 N 
ATOM     16  H4  UNL     1       6.415  21.285   1.332  1.00  0.00     0.185 HD
HETATM   17  C13 UNL     1       6.347  20.104   2.995  1.00  0.00     0.107 A 
HETATM   18  C21 UNL     1       5.584  19.522   3.985  1.00  0.00     0.046 A 
ENDROOT
BRANCH  17  19
HETATM   19  S2  UNL     1       8.123  20.263   3.009  1.00  0.00    -0.035 SA
BRANCH  19  20
HETATM   20  C14 UNL     1       8.781  19.888   1.374  1.00  0.00     0.151 A 
HETATM   21  N5  UNL     1       8.865  20.601   0.272  1.00  0.00    -0.335 N 
HETATM   22  C15 UNL     1       9.453  19.903  -0.729  1.00  0.00     0.062 A 
ATOM     23  H5  UNL     1       8.530  21.560   0.182  1.00  0.00     0.168 HD
HETATM   24  C16 UNL     1       9.775  20.169  -2.039  1.00  0.00     0.051 A 
HETATM   25  C20 UNL     1       9.740  18.658  -0.157  1.00  0.00     0.061 A 
HETATM   26  C17 UNL     1      10.386  19.209  -2.803  1.00  0.00     0.013 A 
HETATM   27 BR1  UNL     1      10.869  19.490  -4.626  1.00  0.00    -0.051 Br
HETATM   28  C18 UNL     1      10.691  17.954  -2.277  1.00  0.00     0.021 A 
HETATM   29  C19 UNL     1      10.356  17.724  -0.969  1.00  0.00     0.033 A 
HETATM   30  N6  UNL     1       9.323  18.678   1.113  1.00  0.00    -0.335 N 
ATOM     31  H6  UNL     1       9.400  17.906   1.776  1.00  0.00     0.168 HD
ENDBRANCH  19  20
ENDBRANCH  17  19
BRANCH  14  32
HETATM   32  N3  UNL     1       4.013  21.927   1.031  1.00  0.00    -0.226 N 
ATOM     33  H3  UNL     1       4.596  22.038   0.202  1.00  0.00     0.177 HD
BRANCH  32  34
HETATM   34  C10 UNL     1       2.762  22.600   0.981  1.00  0.00     0.140 C 
BRANCH  34  35
HETATM   35  C11 UNL     1       2.945  24.110   1.035  1.00  0.00     0.051 C 
BRANCH  35  36
HETATM   36  C12 UNL     1       1.760  24.709   1.786  1.00  0.00     0.224 C 
HETATM   37  F1  UNL     1       1.819  26.077   1.803  1.00  0.00    -0.255 F 
ENDBRANCH  35  36
ENDBRANCH  34  35
ENDBRANCH  32  34
ENDBRANCH  14  32
TORSDOF 6
ENDMDL
MODEL 2
REMARK VINA RESULT: -7.617617413      4.959      8.541
REMARK  6 active torsions:
REMARK  status: ('A' for Active; 'I' for Inactive)
REMARK    1  A    between atoms: C9_14  and  N3_15 
REMARK    2  A    between atoms: N3_15  and  C10_17 
REMARK    3  A    between atoms: C10_17  and  C11_18 
REMARK    4  A    between atoms: C11_18  and  C12_19 
REMARK    5  A    between atoms: C13_23  and  S2_24 
REMARK    6  A    between atoms: S2_24  and  C14_25 
ROOT
HETATM    1  C1  UNL     1      -2.033  26.503   5.269  1.00  0.00     0.068 C 
HETATM    2  C2  UNL     1      -1.079  25.500   4.784  1.00  0.00     0.006 A 
HETATM    3  C3  UNL     1      -0.287  25.678   3.692  1.00  0.00     0.032 A 
HETATM    4  C4  UNL     1       0.630  24.733   3.215  1.00  0.00    -0.046 A 
HETATM    5  C5  UNL     1       1.560  25.312   2.238  1.00  0.00     0.049 C 
HETATM    6  C6  UNL     1       0.773  23.504   3.856  1.00  0.00     0.020 A 
HETATM    7  C7  UNL     1      -0.057  23.391   4.969  1.00  0.00     0.088 A 
HETATM    8  N1  UNL     1      -0.937  24.344   5.403  1.00  0.00    -0.354 N 
ATOM      9  H1  UNL     1      -1.500  24.154   6.231  1.00  0.00     0.166 HD
HETATM   10  S1  UNL     1       0.355  21.897   5.659  1.00  0.00    -0.052 SA
HETATM   11  C8  UNL     1       1.542  21.416   4.552  1.00  0.00     0.106 A 
HETATM   12  N2  UNL     1       2.289  20.273   4.476  1.00  0.00    -0.184 N 
ATOM     13  H2  UNL     1       2.187  19.566   5.203  1.00  0.00     0.185 HD
HETATM   14  C9  UNL     1       3.145  20.057   3.481  1.00  0.00     0.679 A 
HETATM   15  N4  UNL     1       3.206  21.015   2.580  1.00  0.00    -0.184 N 
ATOM     16  H4  UNL     1       3.847  20.877   1.799  1.00  0.00     0.185 HD
HETATM   17  C13 UNL     1       2.490  22.174   2.599  1.00  0.00     0.107 A 
HETATM   18  C21 UNL     1       1.607  22.460   3.619  1.00  0.00     0.046 A 
ENDROOT
BRANCH  17  19
HETATM   19  S2  UNL     1       2.555  22.997   1.019  1.00  0.00    -0.035 SA
BRANCH  19  20
HETATM   20  C14 UNL     1       1.428  22.194  -0.133  1.00  0.00     0.151 A 
HETATM   21  N5  UNL     1       0.541  21.237   0.022  1.00  0.00    -0.335 N 
HETATM   22  C15 UNL     1      -0.096  20.953  -1.139  1.00  0.00     0.062 A 
ATOM     23  H5  UNL     1       0.356  20.765   0.908  1.00  0.00     0.168 HD
HETATM   24  C16 UNL     1      -1.079  20.068  -1.516  1.00  0.00     0.051 A 
HETATM   25  C20 UNL     1       0.475  21.831  -2.067  1.00  0.00     0.061 A 
HETATM   26  C17 UNL     1      -1.511  20.038  -2.816  1.00  0.00     0.013 A 
HETATM   27 BR1  UNL     1      -2.867  18.846  -3.428  1.00  0.00    -0.051 Br
HETATM   28  C18 UNL     1      -0.972  20.893  -3.777  1.00  0.00     0.021 A 
HETATM   29  C19 UNL     1       0.005  21.762  -3.365  1.00  0.00     0.033 A 
HETATM   30  N6  UNL     1       1.393  22.568  -1.432  1.00  0.00    -0.335 N 
ATOM     31  H6  UNL     1       1.971  23.293  -1.858  1.00  0.00     0.168 HD
ENDBRANCH  19  20
ENDBRANCH  17  19
BRANCH  14  32
HETATM   32  N3  UNL     1       3.842  19.001   3.459  1.00  0.00    -0.226 N 
ATOM     33  H3  UNL     1       3.308  18.132   3.462  1.00  0.00     0.177 HD
BRANCH  32  34
HETATM   34  C10 UNL     1       5.254  18.840   3.431  1.00  0.00     0.140 C 
BRANCH  34  35
HETATM   35  C11 UNL     1       5.916  19.582   4.583  1.00  0.00     0.051 C 
BRANCH  35  36
HETATM   36  C12 UNL     1       6.837  20.649   3.999  1.00  0.00     0.224 C 
HETATM   37  F1  UNL     1       6.146  21.789   3.686  1.00  0.00    -0.255 F 
ENDBRANCH  35  36
ENDBRANCH  34  35
ENDBRANCH  32  34
ENDBRANCH  14  32
TORSDOF 6
ENDMDL
MODEL 3
REMARK VINA RESULT: -7.614751009      0.832      1.288
REMARK  6 active torsions:
REMARK  status: ('A' for Active; 'I' for Inactive)
REMARK    1  A    between atoms: C9_14  and  N3_15 
REMARK    2  A    between atoms: N3_15  and  C10_17 
REMARK    3  A    between atoms: C10_17  and  C11_18 
REMARK    4  A    between atoms: C11_18  and  C12_19 
REMARK    5  A    between atoms: C13_23  and  S2_24 
REMARK    6  A    between atoms: S2_24  and  C14_25 
ROOT
HETATM    1  C1  UNL     1       6.255  15.869   8.904  1.00  0.00     0.068 C 
HETATM    2  C2  UNL     1       6.159  16.705   7.703  1.00  0.00     0.006 A 
HETATM    3  C3  UNL     1       7.191  16.908   6.840  1.00  0.00     0.032 A 
HETATM    4  C4  UNL     1       7.118  17.701   5.688  1.00  0.00    -0.046 A 
HETATM    5  C5  UNL     1       8.260  17.480   4.794  1.00  0.00     0.049 C 
HETATM    6  C6  UNL     1       5.934  18.360   5.361  1.00  0.00     0.020 A 
HETATM    7  C7  UNL     1       4.916  18.101   6.277  1.00  0.00     0.088 A 
HETATM    8  N1  UNL     1       5.032  17.315   7.389  1.00  0.00    -0.354 N 
ATOM      9  H1  UNL     1       4.220  17.196   7.996  1.00  0.00     0.166 HD
HETATM   10  S1  UNL     1       3.556  18.888   5.637  1.00  0.00    -0.052 SA
HETATM   11  C8  UNL     1       4.264  19.546   4.247  1.00  0.00     0.106 A 
HETATM   12  N2  UNL     1       3.743  20.343   3.266  1.00  0.00    -0.184 N 
ATOM     13  H2  UNL     1       2.754  20.588   3.300  1.00  0.00     0.185 HD
HETATM   14  C9  UNL     1       4.489  20.808   2.268  1.00  0.00     0.679 A 
HETATM   15  N4  UNL     1       5.756  20.453   2.306  1.00  0.00    -0.184 N 
ATOM     16  H4  UNL     1       6.358  20.799   1.559  1.00  0.00     0.185 HD
HETATM   17  C13 UNL     1       6.334  19.663   3.255  1.00  0.00     0.107 A 
HETATM   18  C21 UNL     1       5.602  19.135   4.297  1.00  0.00     0.046 A 
ENDROOT
BRANCH  17  19
HETATM   19  S2  UNL     1       8.112  19.760   3.176  1.00  0.00    -0.035 SA
BRANCH  19  20
HETATM   20  C14 UNL     1       8.652  19.669   1.459  1.00  0.00     0.151 A 
HETATM   21  N5  UNL     1       8.655  18.687   0.586  1.00  0.00    -0.335 N 
HETATM   22  C15 UNL     1       9.153  19.083  -0.610  1.00  0.00     0.062 A 
ATOM     23  H5  UNL     1       8.323  17.743   0.784  1.00  0.00     0.168 HD
HETATM   24  C16 UNL     1       9.370  18.472  -1.822  1.00  0.00     0.051 A 
HETATM   25  C20 UNL     1       9.475  20.432  -0.417  1.00  0.00     0.061 A 
HETATM   26  C17 UNL     1       9.908  19.184  -2.862  1.00  0.00     0.013 A 
HETATM   27 BR1  UNL     1      10.243  18.420  -4.576  1.00  0.00    -0.051 Br
HETATM   28  C18 UNL     1      10.246  20.530  -2.717  1.00  0.00     0.021 A 
HETATM   29  C19 UNL     1      10.016  21.106  -1.495  1.00  0.00     0.033 A 
HETATM   30  N6  UNL     1       9.162  20.758   0.842  1.00  0.00    -0.335 N 
ATOM     31  H6  UNL     1       9.288  21.677   1.266  1.00  0.00     0.168 HD
ENDBRANCH  19  20
ENDBRANCH  17  19
BRANCH  14  32
HETATM   32  N3  UNL     1       3.967  21.518   1.360  1.00  0.00    -0.226 N 
ATOM     33  H3  UNL     1       4.538  22.301   1.043  1.00  0.00     0.177 HD
BRANCH  32  34
HETATM   34  C10 UNL     1       2.707  21.393   0.715  1.00  0.00     0.140 C 
BRANCH  34  35
HETATM   35  C11 UNL     1       2.227  22.734   0.178  1.00  0.00     0.051 C 
BRANCH  35  36
HETATM   36  C12 UNL     1       2.408  23.782   1.272  1.00  0.00     0.224 C 
HETATM   37  F1  UNL     1       3.301  24.749   0.895  1.00  0.00    -0.255 F 
ENDBRANCH  35  36
ENDBRANCH  34  35
ENDBRANCH  32  34
ENDBRANCH  14  32
TORSDOF 6
ENDMDL
MODEL 4
REMARK VINA RESULT: -7.506084519      4.897      8.533
REMARK  6 active torsions:
REMARK  status: ('A' for Active; 'I' for Inactive)
REMARK    1  A    between atoms: C9_14  and  N3_15 
REMARK    2  A    between atoms: N3_15  and  C10_17 
REMARK    3  A    between atoms: C10_17  and  C11_18 
REMARK    4  A    between atoms: C11_18  and  C12_19 
REMARK    5  A    between atoms: C13_23  and  S2_24 
REMARK    6  A    between atoms: S2_24  and  C14_25 
ROOT
HETATM    1  C1  UNL     1      -2.067  26.473   5.815  1.00  0.00     0.068 C 
HETATM    2  C2  UNL     1      -1.136  25.511   5.214  1.00  0.00     0.006 A 
HETATM    3  C3  UNL     1      -0.455  25.741   4.059  1.00  0.00     0.032 A 
HETATM    4  C4  UNL     1       0.439  24.837   3.472  1.00  0.00    -0.046 A 
HETATM    5  C5  UNL     1       1.257  25.468   2.430  1.00  0.00     0.049 C 
HETATM    6  C6  UNL     1       0.675  23.596   4.061  1.00  0.00     0.020 A 
HETATM    7  C7  UNL     1      -0.044  23.430   5.244  1.00  0.00     0.088 A 
HETATM    8  N1  UNL     1      -0.904  24.344   5.784  1.00  0.00    -0.354 N 
ATOM      9  H1  UNL     1      -1.382  24.117   6.656  1.00  0.00     0.166 HD
HETATM   10  S1  UNL     1       0.472  21.931   5.850  1.00  0.00    -0.052 SA
HETATM   11  C8  UNL     1       1.562  21.514   4.623  1.00  0.00     0.106 A 
HETATM   12  N2  UNL     1       2.329  20.397   4.445  1.00  0.00    -0.184 N 
ATOM     13  H2  UNL     1       2.315  19.668   5.159  1.00  0.00     0.185 HD
HETATM   14  C9  UNL     1       3.093  20.232   3.369  1.00  0.00     0.679 A 
HETATM   15  N4  UNL     1       3.044  21.214   2.495  1.00  0.00    -0.184 N 
ATOM     16  H4  UNL     1       3.613  21.116   1.654  1.00  0.00     0.185 HD
HETATM   17  C13 UNL     1       2.301  22.350   2.613  1.00  0.00     0.107 A 
HETATM   18  C21 UNL     1       1.510  22.583   3.719  1.00  0.00     0.046 A 
ENDROOT
BRANCH  17  19
HETATM   19  S2  UNL     1       2.196  23.216   1.058  1.00  0.00    -0.035 SA
BRANCH  19  20
HETATM   20  C14 UNL     1       1.179  22.276  -0.094  1.00  0.00     0.151 A 
HETATM   21  N5  UNL     1       1.272  22.072  -1.389  1.00  0.00    -0.335 N 
HETATM   22  C15 UNL     1       0.272  21.278  -1.842  1.00  0.00     0.062 A 
ATOM     23  H5  UNL     1       2.007  22.462  -1.980  1.00  0.00     0.168 HD
HETATM   24  C16 UNL     1      -0.084  20.772  -3.070  1.00  0.00     0.051 A 
HETATM   25  C20 UNL     1      -0.483  20.991  -0.699  1.00  0.00     0.061 A 
HETATM   26  C17 UNL     1      -1.193  19.974  -3.186  1.00  0.00     0.013 A 
HETATM   27 BR1  UNL     1      -1.761  19.227  -4.846  1.00  0.00    -0.051 Br
HETATM   28  C18 UNL     1      -1.976  19.660  -2.076  1.00  0.00     0.021 A 
HETATM   29  C19 UNL     1      -1.591  20.182  -0.869  1.00  0.00     0.033 A 
HETATM   30  N6  UNL     1       0.087  21.608   0.341  1.00  0.00    -0.335 N 
ATOM     31  H6  UNL     1      -0.246  21.578   1.305  1.00  0.00     0.168 HD
ENDBRANCH  19  20
ENDBRANCH  17  19
BRANCH  14  32
HETATM   32  N3  UNL     1       3.814  19.198   3.253  1.00  0.00    -0.226 N 
ATOM     33  H3  UNL     1       3.302  18.317   3.224  1.00  0.00     0.177 HD
BRANCH  32  34
HETATM   34  C10 UNL     1       5.226  19.076   3.156  1.00  0.00     0.140 C 
BRANCH  34  35
HETATM   35  C11 UNL     1       5.913  19.613   4.404  1.00  0.00     0.051 C 
BRANCH  35  36
HETATM   36  C12 UNL     1       6.825  20.764   3.991  1.00  0.00     0.224 C 
HETATM   37  F1  UNL     1       6.102  21.855   3.590  1.00  0.00    -0.255 F 
ENDBRANCH  35  36
ENDBRANCH  34  35
ENDBRANCH  32  34
ENDBRANCH  14  32
TORSDOF 6
ENDMDL
MODEL 5
REMARK VINA RESULT: -7.251460899      4.658      7.916
REMARK  6 active torsions:
REMARK  status: ('A' for Active; 'I' for Inactive)
REMARK    1  A    between atoms: C9_14  and  N3_15 
REMARK    2  A    between atoms: N3_15  and  C10_17 
REMARK    3  A    between atoms: C10_17  and  C11_18 
REMARK    4  A    between atoms: C11_18  and  C12_19 
REMARK    5  A    between atoms: C13_23  and  S2_24 
REMARK    6  A    between atoms: S2_24  and  C14_25 
ROOT
HETATM    1  C1  UNL     1      -1.729  21.169   6.248  1.00  0.00     0.068 C 
HETATM    2  C2  UNL     1      -0.550  21.287   5.382  1.00  0.00     0.006 A 
HETATM    3  C3  UNL     1      -0.368  22.297   4.489  1.00  0.00     0.032 A 
HETATM    4  C4  UNL     1       0.750  22.427   3.656  1.00  0.00    -0.046 A 
HETATM    5  C5  UNL     1       0.829  23.759   3.043  1.00  0.00     0.049 C 
HETATM    6  C6  UNL     1       1.771  21.479   3.694  1.00  0.00     0.020 A 
HETATM    7  C7  UNL     1       1.527  20.481   4.635  1.00  0.00     0.088 A 
HETATM    8  N1  UNL     1       0.421  20.395   5.432  1.00  0.00    -0.354 N 
ATOM      9  H1  UNL     1       0.343  19.617   6.087  1.00  0.00     0.166 HD
HETATM   10  S1  UNL     1       2.923  19.516   4.604  1.00  0.00    -0.052 SA
HETATM   11  C8  UNL     1       3.790  20.348   3.412  1.00  0.00     0.106 A 
HETATM   12  N2  UNL     1       5.012  20.098   2.851  1.00  0.00    -0.184 N 
ATOM     13  H2  UNL     1       5.562  19.310   3.193  1.00  0.00     0.185 HD
HETATM   14  C9  UNL     1       5.504  20.852   1.872  1.00  0.00     0.679 A 
HETATM   15  N4  UNL     1       4.725  21.840   1.484  1.00  0.00    -0.184 N 
ATOM     16  H4  UNL     1       5.069  22.434   0.729  1.00  0.00     0.185 HD
HETATM   17  C13 UNL     1       3.501  22.140   2.001  1.00  0.00     0.107 A 
HETATM   18  C21 UNL     1       2.953  21.407   3.033  1.00  0.00     0.046 A 
ENDROOT
BRANCH  17  19
HETATM   19  S2  UNL     1       2.614  23.269   0.944  1.00  0.00    -0.035 SA
BRANCH  19  20
HETATM   20  C14 UNL     1       1.463  22.354  -0.096  1.00  0.00     0.151 A 
HETATM   21  N5  UNL     1       0.580  21.419   0.177  1.00  0.00    -0.335 N 
HETATM   22  C15 UNL     1      -0.081  21.018  -0.936  1.00  0.00     0.062 A 
ATOM     23  H5  UNL     1       0.413  21.042   1.109  1.00  0.00     0.168 HD
HETATM   24  C16 UNL     1      -1.071  20.101  -1.199  1.00  0.00     0.051 A 
HETATM   25  C20 UNL     1       0.471  21.794  -1.962  1.00  0.00     0.061 A 
HETATM   26  C17 UNL     1      -1.531  19.937  -2.480  1.00  0.00     0.013 A 
HETATM   27 BR1  UNL     1      -2.899  18.691  -2.937  1.00  0.00    -0.051 Br
HETATM   28  C18 UNL     1      -1.011  20.687  -3.535  1.00  0.00     0.021 A 
HETATM   29  C19 UNL     1      -0.026  21.591  -3.235  1.00  0.00     0.033 A 
HETATM   30  N6  UNL     1       1.401  22.591  -1.425  1.00  0.00    -0.335 N 
ATOM     31  H6  UNL     1       1.970  23.267  -1.936  1.00  0.00     0.168 HD
ENDBRANCH  19  20
ENDBRANCH  17  19
BRANCH  14  32
HETATM   32  N3  UNL     1       6.651  20.610   1.397  1.00  0.00    -0.226 N 
ATOM     33  H3  UNL     1       6.793  20.916   0.435  1.00  0.00     0.177 HD
BRANCH  32  34
HETATM   34  C10 UNL     1       7.773  19.977   1.998  1.00  0.00     0.140 C 
BRANCH  34  35
HETATM   35  C11 UNL     1       8.504  20.926   2.936  1.00  0.00     0.051 C 
BRANCH  35  36
HETATM   36  C12 UNL     1       8.749  20.200   4.256  1.00  0.00     0.224 C 
HETATM   37  F1  UNL     1       9.742  20.803   4.981  1.00  0.00    -0.255 F 
ENDBRANCH  35  36
ENDBRANCH  34  35
ENDBRANCH  32  34
ENDBRANCH  14  32
TORSDOF 6
ENDMDL
