MODEL 1
REMARK VINA RESULT: -8.115610187      0.000      0.000
REMARK  13 active torsions:
REMARK  status: ('A' for Active; 'I' for Inactive)
REMARK    1  A    between atoms: C2_5  and  C3_6 
REMARK       I    between atoms: C3_6  and  N3_8 
REMARK    2  A    between atoms: N3_8  and  N4_10 
REMARK    3  A    between atoms: C5_14  and  N5_15 
REMARK    4  A    between atoms: N5_15  and  C6_17 
REMARK    5  A    between atoms: C6_17  and  C7_18 
REMARK    6  A    between atoms: C7_18  and  O2_19 
REMARK    7  A    between atoms: C7_18  and  C8_21 
REMARK    8  A    between atoms: C8_21  and  O3_22 
REMARK    9  A    between atoms: C9_26  and  N7_27 
REMARK   10  A    between atoms: N7_27  and  N8_29 
REMARK   11  A    between atoms: N8_29  and  C10_30 
REMARK   12  A    between atoms: C10_30  and  C11_31 
REMARK   13  A    between atoms: N10_37  and  N11_38 
ROOT
HETATM    1  C1  UNL     1     -24.305   2.237  43.887  1.00  0.00     0.179 C 
HETATM    2  N1  UNL     1     -22.854   2.064  43.828  1.00  0.00    -0.279 N 
HETATM    3  N2  UNL     1     -22.029   1.718  44.778  1.00  0.00    -0.291 N 
ATOM      4  H2  UNL     1     -22.312   1.513  45.736  1.00  0.00     0.187 HD
HETATM    5  C2  UNL     1     -20.737   1.663  44.327  1.00  0.00     0.135 A 
HETATM    6  C4  UNL     1     -20.789   2.002  43.008  1.00  0.00     0.088 A 
HETATM    7  C5  UNL     1     -19.862   2.143  41.985  1.00  0.00     0.133 A 
HETATM    8  N6  UNL     1     -20.283   2.507  40.768  1.00  0.00    -0.174 N 
ATOM      9  H6  UNL     1     -19.588   2.607  40.028  1.00  0.00     0.186 HD
HETATM   10  C9  UNL     1     -21.564   2.747  40.467  1.00  0.00     0.710 A 
HETATM   11  N13 UNL     1     -22.458   2.612  41.453  1.00  0.00    -0.172 N 
ATOM     12  H13 UNL     1     -23.439   2.792  41.237  1.00  0.00     0.186 HD
HETATM   13  C14 UNL     1     -22.145   2.253  42.707  1.00  0.00     0.154 A 
ENDROOT
BRANCH  10  14
HETATM   14  N7  UNL     1     -21.920   3.091  39.257  1.00  0.00    -0.065 N 
ATOM     15  H7  UNL     1     -22.048   2.335  38.584  1.00  0.00     0.221 HD
BRANCH  14  16
HETATM   16  N8  UNL     1     -22.123   4.285  38.832  1.00  0.00    -0.322 NA
BRANCH  16  17
HETATM   17  C10 UNL     1     -22.257   5.337  38.280  1.00  0.00     0.232 C 
BRANCH  17  18
HETATM   18  C11 UNL     1     -23.590   5.960  38.041  1.00  0.00     0.082 A 
HETATM   19  S1  UNL     1     -24.705   5.589  36.789  1.00  0.00    -0.047 SA
HETATM   20  C12 UNL     1     -25.916   6.713  37.197  1.00  0.00     0.165 A 
HETATM   21  N9  UNL     1     -27.074   6.943  36.610  1.00  0.00    -0.378 N 
HETATM   22  N10 UNL     1     -25.421   7.325  38.270  1.00  0.00    -0.225 N 
ATOM     23  H92 UNL     1     -27.453   6.475  35.788  1.00  0.00     0.158 HD
ATOM     24  H91 UNL     1     -27.799   7.617  36.853  1.00  0.00     0.158 HD
HETATM   25  C13 UNL     1     -24.235   6.950  38.713  1.00  0.00     0.159 A 
HETATM   26  N12 UNL     1     -23.638   7.574  39.891  1.00  0.00    -0.079 NA
BRANCH  22  27
HETATM   27  N11 UNL     1     -26.196   8.366  38.896  1.00  0.00    -0.335 N 
ATOM     28 2H11 UNL     1     -26.458   9.227  38.415  1.00  0.00     0.177 HD
ATOM     29 1H11 UNL     1     -26.500   8.239  39.861  1.00  0.00     0.177 HD
ENDBRANCH  22  27
ENDBRANCH  17  18
ENDBRANCH  16  17
ENDBRANCH  14  16
ENDBRANCH  10  14
BRANCH   7  30
HETATM   30  N5  UNL     1     -18.625   1.921  42.241  1.00  0.00    -0.372 N 
ATOM     31  H5  UNL     1     -18.116   2.504  42.906  1.00  0.00     0.161 HD
BRANCH  30  32
HETATM   32  C6  UNL     1     -17.971   0.824  41.564  1.00  0.00     0.155 C 
BRANCH  32  33
HETATM   33  C7  UNL     1     -17.393  -0.189  42.497  1.00  0.00     0.159 C 
BRANCH  33  34
HETATM   34  O2  UNL     1     -16.966   0.314  43.701  1.00  0.00    -0.392 OA
ATOM     35  H2  UNL     1     -17.209  -0.205  44.459  1.00  0.00     0.210 HD
ENDBRANCH  33  34
BRANCH  33  36
HETATM   36  C8  UNL     1     -18.284  -1.373  42.737  1.00  0.00     0.197 C 
BRANCH  36  37
HETATM   37  O3  UNL     1     -17.926  -2.061  43.905  1.00  0.00    -0.398 OA
ATOM     38  H3  UNL     1     -18.000  -3.002  43.794  1.00  0.00     0.209 HD
ENDBRANCH  36  37
ENDBRANCH  33  36
ENDBRANCH  32  33
ENDBRANCH  30  32
ENDBRANCH   7  30
BRANCH   5  39
HETATM   39  C3  UNL     1     -19.599   1.310  45.140  1.00  0.00     0.288 C 
HETATM   40  O1  UNL     1     -18.693   2.066  45.473  1.00  0.00    -0.264 OA
HETATM   41  N3  UNL     1     -19.473  -0.052  45.629  1.00  0.00    -0.271 N 
ATOM     42  H3  UNL     1     -20.178  -0.755  45.408  1.00  0.00     0.189 HD
BRANCH  41  43
HETATM   43  N4  UNL     1     -18.371  -0.369  46.403  1.00  0.00    -0.342 N 
ATOM     44  H42 UNL     1     -18.373  -0.161  47.401  1.00  0.00     0.176 HD
ATOM     45  H41 UNL     1     -17.574  -0.811  45.947  1.00  0.00     0.176 HD
ENDBRANCH  41  43
ENDBRANCH   5  39
TORSDOF 13
ENDMDL
MODEL 2
REMARK VINA RESULT: -8.031624921      1.832      3.472
REMARK  13 active torsions:
REMARK  status: ('A' for Active; 'I' for Inactive)
REMARK    1  A    between atoms: C2_5  and  C3_6 
REMARK       I    between atoms: C3_6  and  N3_8 
REMARK    2  A    between atoms: N3_8  and  N4_10 
REMARK    3  A    between atoms: C5_14  and  N5_15 
REMARK    4  A    between atoms: N5_15  and  C6_17 
REMARK    5  A    between atoms: C6_17  and  C7_18 
REMARK    6  A    between atoms: C7_18  and  O2_19 
REMARK    7  A    between atoms: C7_18  and  C8_21 
REMARK    8  A    between atoms: C8_21  and  O3_22 
REMARK    9  A    between atoms: C9_26  and  N7_27 
REMARK   10  A    between atoms: N7_27  and  N8_29 
REMARK   11  A    between atoms: N8_29  and  C10_30 
REMARK   12  A    between atoms: C10_30  and  C11_31 
REMARK   13  A    between atoms: N10_37  and  N11_38 
ROOT
HETATM    1  C1  UNL     1     -19.904   0.373  39.610  1.00  0.00     0.179 C 
HETATM    2  N1  UNL     1     -19.916   0.849  40.992  1.00  0.00    -0.279 N 
HETATM    3  N2  UNL     1     -19.360   0.321  42.048  1.00  0.00    -0.291 N 
ATOM      4  H2  UNL     1     -18.817  -0.542  42.038  1.00  0.00     0.187 HD
HETATM    5  C2  UNL     1     -19.598   1.070  43.170  1.00  0.00     0.135 A 
HETATM    6  C4  UNL     1     -20.353   2.127  42.758  1.00  0.00     0.088 A 
HETATM    7  C5  UNL     1     -20.927   3.233  43.370  1.00  0.00     0.133 A 
HETATM    8  N6  UNL     1     -21.632   4.096  42.630  1.00  0.00    -0.174 N 
ATOM      9  H6  UNL     1     -22.048   4.903  43.097  1.00  0.00     0.186 HD
HETATM   10  C9  UNL     1     -21.822   3.962  41.313  1.00  0.00     0.710 A 
HETATM   11  N13 UNL     1     -21.269   2.898  40.721  1.00  0.00    -0.172 N 
ATOM     12  H13 UNL     1     -21.405   2.783  39.717  1.00  0.00     0.186 HD
HETATM   13  C14 UNL     1     -20.545   1.971  41.368  1.00  0.00     0.154 A 
ENDROOT
BRANCH  10  14
HETATM   14  N7  UNL     1     -22.512   4.844  40.638  1.00  0.00    -0.065 N 
ATOM     15  H7  UNL     1     -23.031   5.534  41.180  1.00  0.00     0.221 HD
BRANCH  14  16
HETATM   16  N8  UNL     1     -22.601   4.926  39.360  1.00  0.00    -0.322 NA
BRANCH  16  17
HETATM   17  C10 UNL     1     -22.809   5.125  38.199  1.00  0.00     0.232 C 
BRANCH  17  18
HETATM   18  C11 UNL     1     -24.058   5.767  37.700  1.00  0.00     0.082 A 
HETATM   19  S1  UNL     1     -24.978   5.324  36.319  1.00  0.00    -0.047 SA
HETATM   20  C12 UNL     1     -26.186   6.517  36.435  1.00  0.00     0.165 A 
HETATM   21  N9  UNL     1     -27.225   6.732  35.654  1.00  0.00    -0.378 N 
HETATM   22  N10 UNL     1     -25.838   7.204  37.521  1.00  0.00    -0.225 N 
ATOM     23  H92 UNL     1     -27.492   6.206  34.822  1.00  0.00     0.158 HD
ATOM     24  H91 UNL     1     -27.949   7.447  35.722  1.00  0.00     0.158 HD
HETATM   25  C13 UNL     1     -24.755   6.831  38.177  1.00  0.00     0.159 A 
HETATM   26  N12 UNL     1     -24.323   7.537  39.381  1.00  0.00    -0.079 NA
BRANCH  22  27
HETATM   27  N11 UNL     1     -26.654   8.320  37.928  1.00  0.00    -0.335 N 
ATOM     28 2H11 UNL     1     -27.666   8.343  37.798  1.00  0.00     0.177 HD
ATOM     29 1H11 UNL     1     -26.205   9.122  38.368  1.00  0.00     0.177 HD
ENDBRANCH  22  27
ENDBRANCH  17  18
ENDBRANCH  16  17
ENDBRANCH  14  16
ENDBRANCH  10  14
BRANCH   7  30
HETATM   30  N5  UNL     1     -20.765   3.389  44.632  1.00  0.00    -0.372 N 
ATOM     31  H5  UNL     1     -19.911   3.805  45.003  1.00  0.00     0.161 HD
BRANCH  30  32
HETATM   32  C6  UNL     1     -21.825   2.959  45.517  1.00  0.00     0.155 C 
BRANCH  32  33
HETATM   33  C7  UNL     1     -21.347   2.605  46.887  1.00  0.00     0.159 C 
BRANCH  33  34
HETATM   34  O2  UNL     1     -20.073   3.024  47.180  1.00  0.00    -0.392 OA
ATOM     35  H2  UNL     1     -19.973   3.431  48.033  1.00  0.00     0.210 HD
ENDBRANCH  33  34
BRANCH  33  36
HETATM   36  C8  UNL     1     -22.279   3.031  47.984  1.00  0.00     0.197 C 
BRANCH  36  37
HETATM   37  O3  UNL     1     -21.836   4.206  48.612  1.00  0.00    -0.398 OA
ATOM     38  H3  UNL     1     -22.555   4.802  48.785  1.00  0.00     0.209 HD
ENDBRANCH  36  37
ENDBRANCH  33  36
ENDBRANCH  32  33
ENDBRANCH  30  32
ENDBRANCH   7  30
BRANCH   5  39
HETATM   39  C3  UNL     1     -19.116   0.746  44.490  1.00  0.00     0.288 C 
HETATM   40  O1  UNL     1     -18.363   1.435  45.168  1.00  0.00    -0.264 OA
HETATM   41  N3  UNL     1     -19.534  -0.500  45.110  1.00  0.00    -0.271 N 
ATOM     42  H3  UNL     1     -20.162  -1.141  44.626  1.00  0.00     0.189 HD
BRANCH  41  43
HETATM   43  N4  UNL     1     -19.056  -0.793  46.374  1.00  0.00    -0.342 N 
ATOM     44  H42 UNL     1     -19.460  -0.333  47.190  1.00  0.00     0.176 HD
ATOM     45  H41 UNL     1     -18.301  -1.472  46.458  1.00  0.00     0.176 HD
ENDBRANCH  41  43
ENDBRANCH   5  39
TORSDOF 13
ENDMDL
MODEL 3
REMARK VINA RESULT: -8.008453551      1.771      3.419
REMARK  13 active torsions:
REMARK  status: ('A' for Active; 'I' for Inactive)
REMARK    1  A    between atoms: C2_5  and  C3_6 
REMARK       I    between atoms: C3_6  and  N3_8 
REMARK    2  A    between atoms: N3_8  and  N4_10 
REMARK    3  A    between atoms: C5_14  and  N5_15 
REMARK    4  A    between atoms: N5_15  and  C6_17 
REMARK    5  A    between atoms: C6_17  and  C7_18 
REMARK    6  A    between atoms: C7_18  and  O2_19 
REMARK    7  A    between atoms: C7_18  and  C8_21 
REMARK    8  A    between atoms: C8_21  and  O3_22 
REMARK    9  A    between atoms: C9_26  and  N7_27 
REMARK   10  A    between atoms: N7_27  and  N8_29 
REMARK   11  A    between atoms: N8_29  and  C10_30 
REMARK   12  A    between atoms: C10_30  and  C11_31 
REMARK   13  A    between atoms: N10_37  and  N11_38 
ROOT
HETATM    1  C1  UNL     1     -18.650  -0.406  39.962  1.00  0.00     0.179 C 
HETATM    2  N1  UNL     1     -18.875   0.343  41.199  1.00  0.00    -0.279 N 
HETATM    3  N2  UNL     1     -18.241   0.260  42.336  1.00  0.00    -0.291 N 
ATOM      4  H2  UNL     1     -17.463  -0.375  42.514  1.00  0.00     0.187 HD
HETATM    5  C2  UNL     1     -18.751   1.133  43.261  1.00  0.00     0.135 A 
HETATM    6  C4  UNL     1     -19.767   1.789  42.632  1.00  0.00     0.088 A 
HETATM    7  C5  UNL     1     -20.678   2.774  42.986  1.00  0.00     0.133 A 
HETATM    8  N6  UNL     1     -21.572   3.193  42.082  1.00  0.00    -0.174 N 
ATOM      9  H6  UNL     1     -22.235   3.917  42.360  1.00  0.00     0.186 HD
HETATM   10  C9  UNL     1     -21.645   2.715  40.835  1.00  0.00     0.710 A 
HETATM   11  N13 UNL     1     -20.767   1.765  40.492  1.00  0.00    -0.172 N 
ATOM     12  H13 UNL     1     -20.811   1.392  39.544  1.00  0.00     0.186 HD
HETATM   13  C14 UNL     1     -19.832   1.273  41.319  1.00  0.00     0.154 A 
ENDROOT
BRANCH  10  14
HETATM   14  N7  UNL     1     -22.533   3.168  39.990  1.00  0.00    -0.065 N 
ATOM     15  H7  UNL     1     -23.435   2.692  39.972  1.00  0.00     0.221 HD
BRANCH  14  16
HETATM   16  N8  UNL     1     -22.382   4.153  39.180  1.00  0.00    -0.322 NA
BRANCH  16  17
HETATM   17  C10 UNL     1     -22.414   5.052  38.393  1.00  0.00     0.232 C 
BRANCH  17  18
HETATM   18  C11 UNL     1     -23.657   5.818  38.091  1.00  0.00     0.082 A 
HETATM   19  S1  UNL     1     -24.733   5.581  36.773  1.00  0.00    -0.047 SA
HETATM   20  C12 UNL     1     -25.838   6.826  37.131  1.00  0.00     0.165 A 
HETATM   21  N9  UNL     1     -26.929   7.185  36.485  1.00  0.00    -0.378 N 
HETATM   22  N10 UNL     1     -25.341   7.370  38.240  1.00  0.00    -0.225 N 
ATOM     23  H92 UNL     1     -27.309   6.769  35.636  1.00  0.00     0.158 HD
ATOM     24  H91 UNL     1     -27.591   7.931  36.699  1.00  0.00     0.158 HD
HETATM   25  C13 UNL     1     -24.229   6.865  38.741  1.00  0.00     0.159 A 
HETATM   26  N12 UNL     1     -23.636   7.410  39.960  1.00  0.00    -0.079 NA
BRANCH  22  27
HETATM   27  N11 UNL     1     -26.034   8.482  38.839  1.00  0.00    -0.335 N 
ATOM     28 2H11 UNL     1     -27.051   8.565  38.841  1.00  0.00     0.177 HD
ATOM     29 1H11 UNL     1     -25.488   9.220  39.283  1.00  0.00     0.177 HD
ENDBRANCH  22  27
ENDBRANCH  17  18
ENDBRANCH  16  17
ENDBRANCH  14  16
ENDBRANCH  10  14
BRANCH   7  30
HETATM   30  N5  UNL     1     -20.636   3.252  44.175  1.00  0.00    -0.372 N 
ATOM     31  H5  UNL     1     -19.887   3.884  44.459  1.00  0.00     0.161 HD
BRANCH  30  32
HETATM   32  C6  UNL     1     -21.676   2.870  45.104  1.00  0.00     0.155 C 
BRANCH  32  33
HETATM   33  C7  UNL     1     -21.155   2.463  46.443  1.00  0.00     0.159 C 
BRANCH  33  34
HETATM   34  O2  UNL     1     -19.975   3.060  46.810  1.00  0.00    -0.392 OA
ATOM     35  H2  UNL     1     -19.358   3.195  46.099  1.00  0.00     0.210 HD
ENDBRANCH  33  34
BRANCH  33  36
HETATM   36  C8  UNL     1     -22.155   2.609  47.553  1.00  0.00     0.197 C 
BRANCH  36  37
HETATM   37  O3  UNL     1     -22.445   1.375  48.154  1.00  0.00    -0.398 OA
ATOM     38  H3  UNL     1     -23.041   0.859  47.624  1.00  0.00     0.209 HD
ENDBRANCH  36  37
ENDBRANCH  33  36
ENDBRANCH  32  33
ENDBRANCH  30  32
ENDBRANCH   7  30
BRANCH   5  39
HETATM   39  C3  UNL     1     -18.262   1.277  44.610  1.00  0.00     0.288 C 
HETATM   40  O1  UNL     1     -18.527   0.539  45.551  1.00  0.00    -0.264 OA
HETATM   41  N3  UNL     1     -17.373   2.381  44.927  1.00  0.00    -0.271 N 
ATOM     42  H3  UNL     1     -17.091   3.049  44.209  1.00  0.00     0.189 HD
BRANCH  41  43
HETATM   43  N4  UNL     1     -16.920   2.503  46.228  1.00  0.00    -0.342 N 
ATOM     44  H42 UNL     1     -17.526   2.238  47.004  1.00  0.00     0.176 HD
ATOM     45  H41 UNL     1     -15.978   2.860  46.379  1.00  0.00     0.176 HD
ENDBRANCH  41  43
ENDBRANCH   5  39
TORSDOF 13
ENDMDL
MODEL 4
REMARK VINA RESULT: -7.776691616      2.120      3.042
REMARK  13 active torsions:
REMARK  status: ('A' for Active; 'I' for Inactive)
REMARK    1  A    between atoms: C2_5  and  C3_6 
REMARK       I    between atoms: C3_6  and  N3_8 
REMARK    2  A    between atoms: N3_8  and  N4_10 
REMARK    3  A    between atoms: C5_14  and  N5_15 
REMARK    4  A    between atoms: N5_15  and  C6_17 
REMARK    5  A    between atoms: C6_17  and  C7_18 
REMARK    6  A    between atoms: C7_18  and  O2_19 
REMARK    7  A    between atoms: C7_18  and  C8_21 
REMARK    8  A    between atoms: C8_21  and  O3_22 
REMARK    9  A    between atoms: C9_26  and  N7_27 
REMARK   10  A    between atoms: N7_27  and  N8_29 
REMARK   11  A    between atoms: N8_29  and  C10_30 
REMARK   12  A    between atoms: C10_30  and  C11_31 
REMARK   13  A    between atoms: N10_37  and  N11_38 
ROOT
HETATM    1  C1  UNL     1     -22.812   2.493  47.191  1.00  0.00     0.179 C 
HETATM    2  N1  UNL     1     -21.487   2.535  46.573  1.00  0.00    -0.279 N 
HETATM    3  N2  UNL     1     -20.342   2.857  47.107  1.00  0.00    -0.291 N 
ATOM      4  H2  UNL     1     -20.221   3.136  48.080  1.00  0.00     0.187 HD
HETATM    5  C2  UNL     1     -19.321   2.773  46.197  1.00  0.00     0.135 A 
HETATM    6  C4  UNL     1     -19.897   2.371  45.029  1.00  0.00     0.088 A 
HETATM    7  C5  UNL     1     -19.446   2.101  43.744  1.00  0.00     0.133 A 
HETATM    8  N6  UNL     1     -20.325   1.717  42.811  1.00  0.00    -0.174 N 
ATOM      9  H6  UNL     1     -19.977   1.524  41.871  1.00  0.00     0.186 HD
HETATM   10  C9  UNL     1     -21.635   1.572  43.040  1.00  0.00     0.710 A 
HETATM   11  N13 UNL     1     -22.070   1.832  44.278  1.00  0.00    -0.172 N 
ATOM     12  H13 UNL     1     -23.067   1.725  44.467  1.00  0.00     0.186 HD
HETATM   13  C14 UNL     1     -21.277   2.224  45.287  1.00  0.00     0.154 A 
ENDROOT
BRANCH  10  14
HETATM   14  N7  UNL     1     -22.447   1.185  42.092  1.00  0.00    -0.065 N 
ATOM     15  H7  UNL     1     -23.131   0.469  42.337  1.00  0.00     0.221 HD
BRANCH  14  16
HETATM   16  N8  UNL     1     -22.468   1.615  40.883  1.00  0.00    -0.322 NA
BRANCH  16  17
HETATM   17  C10 UNL     1     -22.393   2.152  39.817  1.00  0.00     0.232 C 
BRANCH  17  18
HETATM   18  C11 UNL     1     -22.573   3.621  39.638  1.00  0.00     0.082 A 
HETATM   19  S1  UNL     1     -22.961   4.455  38.188  1.00  0.00    -0.047 SA
HETATM   20  C12 UNL     1     -22.963   6.040  38.808  1.00  0.00     0.165 A 
HETATM   21  N9  UNL     1     -23.197   7.179  38.188  1.00  0.00    -0.378 N 
HETATM   22  N10 UNL     1     -22.668   5.868  40.095  1.00  0.00    -0.225 N 
ATOM     23  H92 UNL     1     -23.422   7.311  37.202  1.00  0.00     0.158 HD
ATOM     24  H91 UNL     1     -23.198   8.129  38.559  1.00  0.00     0.158 HD
HETATM   25  C13 UNL     1     -22.468   4.639  40.532  1.00  0.00     0.159 A 
HETATM   26  N12 UNL     1     -22.149   4.380  41.934  1.00  0.00    -0.079 NA
BRANCH  22  27
HETATM   27  N11 UNL     1     -22.578   7.027  40.947  1.00  0.00    -0.335 N 
ATOM     28 2H11 UNL     1     -22.383   7.963  40.592  1.00  0.00     0.177 HD
ATOM     29 1H11 UNL     1     -22.718   6.910  41.951  1.00  0.00     0.177 HD
ENDBRANCH  22  27
ENDBRANCH  17  18
ENDBRANCH  16  17
ENDBRANCH  14  16
ENDBRANCH  10  14
BRANCH   7  30
HETATM   30  N5  UNL     1     -18.196   2.233  43.491  1.00  0.00    -0.372 N 
ATOM     31  H5  UNL     1     -17.641   2.952  43.955  1.00  0.00     0.161 HD
BRANCH  30  32
HETATM   32  C6  UNL     1     -17.593   1.334  42.533  1.00  0.00     0.155 C 
BRANCH  32  33
HETATM   33  C7  UNL     1     -17.275  -0.011  43.098  1.00  0.00     0.159 C 
BRANCH  33  34
HETATM   34  O2  UNL     1     -17.183  -0.054  44.467  1.00  0.00    -0.392 OA
ATOM     35  H2  UNL     1     -17.101  -0.927  44.834  1.00  0.00     0.210 HD
ENDBRANCH  33  34
BRANCH  33  36
HETATM   36  C8  UNL     1     -18.193  -1.101  42.624  1.00  0.00     0.197 C 
BRANCH  36  37
HETATM   37  O3  UNL     1     -17.781  -2.360  43.084  1.00  0.00    -0.398 OA
ATOM     38  H3  UNL     1     -17.036  -2.686  42.593  1.00  0.00     0.209 HD
ENDBRANCH  36  37
ENDBRANCH  33  36
ENDBRANCH  32  33
ENDBRANCH  30  32
ENDBRANCH   7  30
BRANCH   5  39
HETATM   39  C3  UNL     1     -17.939   3.066  46.485  1.00  0.00     0.288 C 
HETATM   40  O1  UNL     1     -16.969   2.464  46.038  1.00  0.00    -0.264 OA
HETATM   41  N3  UNL     1     -17.620   4.164  47.381  1.00  0.00    -0.271 N 
ATOM     42  H3  UNL     1     -18.358   4.727  47.803  1.00  0.00     0.189 HD
BRANCH  41  43
HETATM   43  N4  UNL     1     -16.288   4.424  47.648  1.00  0.00    -0.342 N 
ATOM     44  H42 UNL     1     -15.856   4.052  48.493  1.00  0.00     0.176 HD
ATOM     45  H41 UNL     1     -15.765   4.991  46.981  1.00  0.00     0.176 HD
ENDBRANCH  41  43
ENDBRANCH   5  39
TORSDOF 13
ENDMDL
MODEL 5
REMARK VINA RESULT: -7.673819232      1.894      2.923
REMARK  13 active torsions:
REMARK  status: ('A' for Active; 'I' for Inactive)
REMARK    1  A    between atoms: C2_5  and  C3_6 
REMARK       I    between atoms: C3_6  and  N3_8 
REMARK    2  A    between atoms: N3_8  and  N4_10 
REMARK    3  A    between atoms: C5_14  and  N5_15 
REMARK    4  A    between atoms: N5_15  and  C6_17 
REMARK    5  A    between atoms: C6_17  and  C7_18 
REMARK    6  A    between atoms: C7_18  and  O2_19 
REMARK    7  A    between atoms: C7_18  and  C8_21 
REMARK    8  A    between atoms: C8_21  and  O3_22 
REMARK    9  A    between atoms: C9_26  and  N7_27 
REMARK   10  A    between atoms: N7_27  and  N8_29 
REMARK   11  A    between atoms: N8_29  and  C10_30 
REMARK   12  A    between atoms: C10_30  and  C11_31 
REMARK   13  A    between atoms: N10_37  and  N11_38 
ROOT
HETATM    1  C1  UNL     1     -22.126  -0.041  39.159  1.00  0.00     0.179 C 
HETATM    2  N1  UNL     1     -21.494   0.393  40.405  1.00  0.00    -0.279 N 
HETATM    3  N2  UNL     1     -20.819  -0.310  41.272  1.00  0.00    -0.291 N 
ATOM      4  H2  UNL     1     -20.639  -1.310  41.183  1.00  0.00     0.187 HD
HETATM    5  C2  UNL     1     -20.384   0.462  42.316  1.00  0.00     0.135 A 
HETATM    6  C4  UNL     1     -20.830   1.723  42.058  1.00  0.00     0.088 A 
HETATM    7  C5  UNL     1     -20.746   2.954  42.694  1.00  0.00     0.133 A 
HETATM    8  N6  UNL     1     -21.328   4.020  42.134  1.00  0.00    -0.174 N 
ATOM      9  H6  UNL     1     -21.257   4.917  42.616  1.00  0.00     0.186 HD
HETATM   10  C9  UNL     1     -21.998   3.978  40.976  1.00  0.00     0.710 A 
HETATM   11  N13 UNL     1     -22.079   2.792  40.362  1.00  0.00    -0.172 N 
ATOM     12  H13 UNL     1     -22.587   2.745  39.478  1.00  0.00     0.186 HD
HETATM   13  C14 UNL     1     -21.535   1.661  40.836  1.00  0.00     0.154 A 
ENDROOT
BRANCH  10  14
HETATM   14  N7  UNL     1     -22.538   5.054  40.470  1.00  0.00    -0.065 N 
ATOM     15  H7  UNL     1     -22.779   5.799  41.125  1.00  0.00     0.221 HD
BRANCH  14  16
HETATM   16  N8  UNL     1     -22.797   5.268  39.231  1.00  0.00    -0.322 NA
BRANCH  16  17
HETATM   17  C10 UNL     1     -22.962   5.623  38.102  1.00  0.00     0.232 C 
BRANCH  17  18
HETATM   18  C11 UNL     1     -24.294   6.029  37.569  1.00  0.00     0.082 A 
HETATM   19  S1  UNL     1     -25.115   5.379  36.208  1.00  0.00    -0.047 SA
HETATM   20  C12 UNL     1     -26.502   6.364  36.264  1.00  0.00     0.165 A 
HETATM   21  N9  UNL     1     -27.554   6.370  35.470  1.00  0.00    -0.378 N 
HETATM   22  N10 UNL     1     -26.282   7.148  37.317  1.00  0.00    -0.225 N 
ATOM     23  H92 UNL     1     -27.723   5.770  34.663  1.00  0.00     0.158 HD
ATOM     24  H91 UNL     1     -28.385   6.961  35.503  1.00  0.00     0.158 HD
HETATM   25  C13 UNL     1     -25.159   6.987  37.993  1.00  0.00     0.159 A 
HETATM   26  N12 UNL     1     -24.860   7.809  39.163  1.00  0.00    -0.079 NA
BRANCH  22  27
HETATM   27  N11 UNL     1     -27.273   8.134  37.669  1.00  0.00    -0.335 N 
ATOM     28 2H11 UNL     1     -27.387   9.010  37.159  1.00  0.00     0.177 HD
ATOM     29 1H11 UNL     1     -27.890   7.950  38.459  1.00  0.00     0.177 HD
ENDBRANCH  22  27
ENDBRANCH  17  18
ENDBRANCH  16  17
ENDBRANCH  14  16
ENDBRANCH  10  14
BRANCH   7  30
HETATM   30  N5  UNL     1     -20.113   3.028  43.807  1.00  0.00    -0.372 N 
ATOM     31  H5  UNL     1     -19.098   2.925  43.839  1.00  0.00     0.161 HD
BRANCH  30  32
HETATM   32  C6  UNL     1     -20.873   3.261  45.014  1.00  0.00     0.155 C 
BRANCH  32  33
HETATM   33  C7  UNL     1     -20.237   2.684  46.236  1.00  0.00     0.159 C 
BRANCH  33  34
HETATM   34  O2  UNL     1     -20.670   1.426  46.573  1.00  0.00    -0.392 OA
ATOM     35  H2  UNL     1     -20.101   0.719  46.293  1.00  0.00     0.210 HD
ENDBRANCH  33  34
BRANCH  33  36
HETATM   36  C8  UNL     1     -18.736   2.705  46.207  1.00  0.00     0.197 C 
BRANCH  36  37
HETATM   37  O3  UNL     1     -18.203   1.414  46.072  1.00  0.00    -0.398 OA
ATOM     38  H3  UNL     1     -17.559   1.230  46.746  1.00  0.00     0.209 HD
ENDBRANCH  36  37
ENDBRANCH  33  36
ENDBRANCH  32  33
ENDBRANCH  30  32
ENDBRANCH   7  30
BRANCH   5  39
HETATM   39  C3  UNL     1     -19.612  -0.028  43.433  1.00  0.00     0.288 C 
HETATM   40  O1  UNL     1     -20.046  -0.272  44.552  1.00  0.00    -0.264 OA
HETATM   41  N3  UNL     1     -18.190  -0.265  43.260  1.00  0.00    -0.271 N 
ATOM     42  H3  UNL     1     -17.735  -0.094  42.363  1.00  0.00     0.189 HD
BRANCH  41  43
HETATM   43  N4  UNL     1     -17.469  -0.730  44.344  1.00  0.00    -0.342 N 
ATOM     44  H42 UNL     1     -17.703  -1.629  44.764  1.00  0.00     0.176 HD
ATOM     45  H41 UNL     1     -16.709  -0.151  44.701  1.00  0.00     0.176 HD
ENDBRANCH  41  43
ENDBRANCH   5  39
TORSDOF 13
ENDMDL
