MODEL 1
REMARK VINA RESULT: -5.978567953      0.000      0.000
REMARK  2 active torsions:
REMARK  status: ('A' for Active; 'I' for Inactive)
REMARK    1  A    between atoms: C1_2  and  C2_4 
REMARK       I    between atoms: C2_4  and  N2_6 
REMARK    2  A    between atoms: N2_6  and  C3_8 
ROOT
HETATM    1  C3  UNL     1      20.462 -19.334  22.434  1.00  0.00     0.716 A 
HETATM    2  N3  UNL     1      20.548 -19.795  21.190  1.00  0.00    -0.116 N 
ATOM      3  H3  UNL     1      20.601 -19.359  20.270  1.00  0.00     0.207 HD
HETATM    4  N4  UNL     1      20.538 -21.029  21.616  1.00  0.00    -0.214 N 
ATOM      5  H4  UNL     1      20.579 -21.946  21.173  1.00  0.00     0.209 HD
HETATM    6  N5  UNL     1      20.453 -20.596  22.852  1.00  0.00    -0.116 N 
ATOM      7  H5  UNL     1      20.401 -21.046  23.765  1.00  0.00     0.207 HD
ENDROOT
BRANCH   1   8
HETATM    8  N2  UNL     1      20.407 -18.209  23.059  1.00  0.00    -0.149 N 
HETATM    9  C2  UNL     1      20.059 -18.067  24.414  1.00  0.00     0.325 C 
HETATM   10  O2  UNL     1      18.851 -18.161  24.740  1.00  0.00    -0.262 OA
ATOM     11  H2  UNL     1      20.631 -17.363  22.536  1.00  0.00     0.188 HD
BRANCH   9  12
HETATM   12  C1  UNL     1      21.040 -17.817  25.449  1.00  0.00     0.323 C 
HETATM   13  N1  UNL     1      22.375 -18.212  25.409  1.00  0.00    -0.053 NA
HETATM   14  O1  UNL     1      20.650 -17.185  26.474  1.00  0.00    -0.266 OA
ENDBRANCH   9  12
ENDBRANCH   1   8
TORSDOF 2
ENDMDL
MODEL 2
REMARK VINA RESULT: -5.918648455      1.575      2.042
REMARK  2 active torsions:
REMARK  status: ('A' for Active; 'I' for Inactive)
REMARK    1  A    between atoms: C1_2  and  C2_4 
REMARK       I    between atoms: C2_4  and  N2_6 
REMARK    2  A    between atoms: N2_6  and  C3_8 
ROOT
HETATM    1  C3  UNL     1      20.672 -20.170  22.374  1.00  0.00     0.716 A 
HETATM    2  N3  UNL     1      20.358 -20.999  21.385  1.00  0.00    -0.116 N 
ATOM      3  H3  UNL     1      20.072 -21.977  21.337  1.00  0.00     0.207 HD
HETATM    4  N4  UNL     1      20.560 -20.064  20.497  1.00  0.00    -0.214 N 
ATOM      5  H4  UNL     1      20.500 -20.006  19.481  1.00  0.00     0.209 HD
HETATM    6  N5  UNL     1      20.875 -19.227  21.459  1.00  0.00    -0.116 N 
ATOM      7  H5  UNL     1      21.160 -18.249  21.491  1.00  0.00     0.207 HD
ENDROOT
BRANCH   1   8
HETATM    8  N2  UNL     1      20.769 -20.171  23.659  1.00  0.00    -0.149 N 
HETATM    9  C2  UNL     1      21.356 -19.141  24.415  1.00  0.00     0.325 C 
HETATM   10  O2  UNL     1      22.607 -19.056  24.449  1.00  0.00    -0.262 OA
ATOM     11  H2  UNL     1      20.393 -20.974  24.163  1.00  0.00     0.188 HD
BRANCH   9  12
HETATM   12  C1  UNL     1      20.574 -18.174  25.155  1.00  0.00     0.323 C 
HETATM   13  N1  UNL     1      19.271 -17.785  24.851  1.00  0.00    -0.053 NA
HETATM   14  O1  UNL     1      21.121 -17.638  26.164  1.00  0.00    -0.266 OA
ENDBRANCH   9  12
ENDBRANCH   1   8
TORSDOF 2
ENDMDL
MODEL 3
REMARK VINA RESULT: -5.910121661      2.642      4.345
REMARK  2 active torsions:
REMARK  status: ('A' for Active; 'I' for Inactive)
REMARK    1  A    between atoms: C1_2  and  C2_4 
REMARK       I    between atoms: C2_4  and  N2_6 
REMARK    2  A    between atoms: N2_6  and  C3_8 
ROOT
HETATM    1  C3  UNL     1      20.546 -19.750  23.007  1.00  0.00     0.716 A 
HETATM    2  N3  UNL     1      21.304 -20.650  23.624  1.00  0.00    -0.116 N 
ATOM      3  H3  UNL     1      21.428 -21.659  23.535  1.00  0.00     0.207 HD
HETATM    4  N4  UNL     1      21.827 -19.730  24.387  1.00  0.00    -0.214 N 
ATOM      5  H4  UNL     1      22.521 -19.719  25.134  1.00  0.00     0.209 HD
HETATM    6  N5  UNL     1      21.087 -18.824  23.792  1.00  0.00    -0.116 N 
ATOM      7  H5  UNL     1      20.974 -17.815  23.891  1.00  0.00     0.207 HD
ENDROOT
BRANCH   1   8
HETATM    8  N2  UNL     1      19.662 -19.690  22.071  1.00  0.00    -0.149 N 
HETATM    9  C2  UNL     1      19.600 -18.677  21.098  1.00  0.00     0.325 C 
HETATM   10  O2  UNL     1      19.144 -17.555  21.423  1.00  0.00    -0.262 OA
ATOM     11  H2  UNL     1      18.959 -20.428  22.034  1.00  0.00     0.188 HD
BRANCH   9  12
HETATM   12  C1  UNL     1      20.041 -18.879  19.734  1.00  0.00     0.323 C 
HETATM   13  N1  UNL     1      20.068 -20.101  19.066  1.00  0.00    -0.053 NA
HETATM   14  O1  UNL     1      20.433 -17.857  19.096  1.00  0.00    -0.266 OA
ENDBRANCH   9  12
ENDBRANCH   1   8
TORSDOF 2
ENDMDL
MODEL 4
REMARK VINA RESULT: -5.892871995      2.699      4.372
REMARK  2 active torsions:
REMARK  status: ('A' for Active; 'I' for Inactive)
REMARK    1  A    between atoms: C1_2  and  C2_4 
REMARK       I    between atoms: C2_4  and  N2_6 
REMARK    2  A    between atoms: N2_6  and  C3_8 
ROOT
HETATM    1  C3  UNL     1      20.573 -19.753  23.075  1.00  0.00     0.716 A 
HETATM    2  N3  UNL     1      21.345 -20.638  23.698  1.00  0.00    -0.116 N 
ATOM      3  H3  UNL     1      21.472 -21.647  23.629  1.00  0.00     0.207 HD
HETATM    4  N4  UNL     1      21.876 -19.700  24.434  1.00  0.00    -0.214 N 
ATOM      5  H4  UNL     1      22.581 -19.670  25.169  1.00  0.00     0.209 HD
HETATM    6  N5  UNL     1      21.123 -18.809  23.831  1.00  0.00    -0.116 N 
ATOM      7  H5  UNL     1      21.007 -17.799  23.912  1.00  0.00     0.207 HD
ENDROOT
BRANCH   1   8
HETATM    8  N2  UNL     1      19.675 -19.717  22.151  1.00  0.00    -0.149 N 
HETATM    9  C2  UNL     1      19.594 -18.725  21.158  1.00  0.00     0.325 C 
HETATM   10  O2  UNL     1      19.140 -17.597  21.466  1.00  0.00    -0.262 OA
ATOM     11  H2  UNL     1      18.974 -20.457  22.141  1.00  0.00     0.188 HD
BRANCH   9  12
HETATM   12  C1  UNL     1      20.015 -18.954  19.792  1.00  0.00     0.323 C 
HETATM   13  N1  UNL     1      20.192 -17.967  18.825  1.00  0.00    -0.053 NA
HETATM   14  O1  UNL     1      20.241 -20.152  19.450  1.00  0.00    -0.266 OA
ENDBRANCH   9  12
ENDBRANCH   1   8
TORSDOF 2
ENDMDL
MODEL 5
REMARK VINA RESULT: -5.890049864      2.988      4.430
REMARK  2 active torsions:
REMARK  status: ('A' for Active; 'I' for Inactive)
REMARK    1  A    between atoms: C1_2  and  C2_4 
REMARK       I    between atoms: C2_4  and  N2_6 
REMARK    2  A    between atoms: N2_6  and  C3_8 
ROOT
HETATM    1  C3  UNL     1      20.949 -19.414  23.345  1.00  0.00     0.716 A 
HETATM    2  N3  UNL     1      21.873 -19.006  24.208  1.00  0.00    -0.116 N 
ATOM      3  H3  UNL     1      22.208 -18.094  24.516  1.00  0.00     0.207 HD
HETATM    4  N4  UNL     1      22.180 -20.239  24.507  1.00  0.00    -0.214 N 
ATOM      5  H4  UNL     1      22.846 -20.687  25.135  1.00  0.00     0.209 HD
HETATM    6  N5  UNL     1      21.272 -20.664  23.658  1.00  0.00    -0.116 N 
ATOM      7  H5  UNL     1      20.947 -21.584  23.361  1.00  0.00     0.207 HD
ENDROOT
BRANCH   1   8
HETATM    8  N2  UNL     1      20.084 -18.916  22.529  1.00  0.00    -0.149 N 
HETATM    9  C2  UNL     1      19.845 -19.398  21.230  1.00  0.00     0.325 C 
HETATM   10  O2  UNL     1      20.667 -19.121  20.324  1.00  0.00    -0.262 OA
ATOM     11  H2  UNL     1      19.534 -18.119  22.848  1.00  0.00     0.188 HD
BRANCH   9  12
HETATM   12  C1  UNL     1      18.688 -20.200  20.896  1.00  0.00     0.323 C 
HETATM   13  N1  UNL     1      17.483 -19.712  20.396  1.00  0.00    -0.053 NA
HETATM   14  O1  UNL     1      18.781 -21.451  21.072  1.00  0.00    -0.266 OA
ENDBRANCH   9  12
ENDBRANCH   1   8
TORSDOF 2
ENDMDL
