MODEL 1
REMARK VINA RESULT: -7.385954057      0.000      0.000
REMARK  2 active torsions:
REMARK  status: ('A' for Active; 'I' for Inactive)
REMARK    1  A    between atoms: N1_1  and  N2_4 
REMARK       I    between atoms: N2_4  and  C1_6 
REMARK    2  A    between atoms: C1_6  and  C2_8 
REMARK       I    between atoms: C2_8  and  N3_10 
ROOT
HETATM    1  C2  UNL     1      19.341 -19.540  21.540  1.00  0.00     0.316 C 
HETATM    2  O2  UNL     1      20.479 -19.291  21.051  1.00  0.00    -0.262 OA
HETATM    3  N3  UNL     1      18.878 -18.707  22.593  1.00  0.00    -0.300 N 
ATOM      4  H3  UNL     1      17.931 -18.334  22.530  1.00  0.00     0.171 HD
HETATM    5  C3  UNL     1      19.577 -18.400  23.613  1.00  0.00     0.181 A 
HETATM    6  N4  UNL     1      20.898 -18.814  23.880  1.00  0.00    -0.290 N 
ATOM      7  H4  UNL     1      21.459 -19.418  23.280  1.00  0.00     0.172 HD
HETATM    8  C4  UNL     1      21.330 -18.250  25.136  1.00  0.00     0.328 A 
HETATM    9  O3  UNL     1      22.468 -18.442  25.640  1.00  0.00    -0.247 OA
HETATM   10  N5  UNL     1      20.236 -17.483  25.622  1.00  0.00    -0.272 N 
ATOM     11  H5  UNL     1      20.232 -16.957  26.496  1.00  0.00     0.174 HD
HETATM   12  C5  UNL     1      19.134 -17.557  24.700  1.00  0.00     0.293 A 
HETATM   13  O4  UNL     1      18.017 -16.978  24.855  1.00  0.00    -0.264 OA
ENDROOT
BRANCH   1  14
HETATM   14  C1  UNL     1      18.580 -20.641  21.012  1.00  0.00     0.327 C 
HETATM   15  N2  UNL     1      19.102 -21.953  20.874  1.00  0.00    -0.268 N 
ATOM     16  H2  UNL     1      20.065 -22.114  21.168  1.00  0.00     0.190 HD
HETATM   17  O1  UNL     1      17.392 -20.441  20.649  1.00  0.00    -0.261 OA
BRANCH  15  18
HETATM   18  N1  UNL     1      18.390 -23.038  20.367  1.00  0.00    -0.342 N 
ATOM     19  H12 UNL     1      17.372 -22.971  20.395  1.00  0.00     0.176 HD
ATOM     20  H11 UNL     1      18.816 -23.878  19.976  1.00  0.00     0.176 HD
ENDBRANCH  15  18
ENDBRANCH   1  14
TORSDOF 2
ENDMDL
MODEL 2
REMARK VINA RESULT: -7.013718918      2.721      5.763
REMARK  2 active torsions:
REMARK  status: ('A' for Active; 'I' for Inactive)
REMARK    1  A    between atoms: N1_1  and  N2_4 
REMARK       I    between atoms: N2_4  and  C1_6 
REMARK    2  A    between atoms: C1_6  and  C2_8 
REMARK       I    between atoms: C2_8  and  N3_10 
ROOT
HETATM    1  C2  UNL     1      19.741 -19.837  22.044  1.00  0.00     0.316 C 
HETATM    2  O2  UNL     1      18.873 -20.747  22.154  1.00  0.00    -0.262 OA
HETATM    3  N3  UNL     1      19.820 -19.146  20.806  1.00  0.00    -0.300 N 
ATOM      4  H3  UNL     1      19.852 -18.127  20.826  1.00  0.00     0.171 HD
HETATM    5  C3  UNL     1      19.854 -19.726  19.672  1.00  0.00     0.181 A 
HETATM    6  N4  UNL     1      19.820 -21.115  19.439  1.00  0.00    -0.290 N 
ATOM      7  H4  UNL     1      19.764 -21.833  20.162  1.00  0.00     0.172 HD
HETATM    8  C4  UNL     1      19.877 -21.362  18.019  1.00  0.00     0.328 A 
HETATM    9  O3  UNL     1      19.864 -22.511  17.502  1.00  0.00    -0.247 OA
HETATM   10  N5  UNL     1      19.946 -20.085  17.397  1.00  0.00    -0.272 N 
ATOM     11  H5  UNL     1      19.997 -19.925  16.391  1.00  0.00     0.174 HD
HETATM   12  C5  UNL     1      19.934 -19.050  18.397  1.00  0.00     0.293 A 
HETATM   13  O4  UNL     1      19.985 -17.807  18.156  1.00  0.00    -0.264 OA
ENDROOT
BRANCH   1  14
HETATM   14  C1  UNL     1      20.597 -19.549  23.165  1.00  0.00     0.327 C 
HETATM   15  N2  UNL     1      21.430 -20.520  23.777  1.00  0.00    -0.268 N 
ATOM     16  H2  UNL     1      21.416 -21.466  23.397  1.00  0.00     0.190 HD
HETATM   17  O1  UNL     1      20.614 -18.381  23.633  1.00  0.00    -0.261 OA
BRANCH  15  18
HETATM   18  N1  UNL     1      22.269 -20.271  24.863  1.00  0.00    -0.342 N 
ATOM     19  H12 UNL     1      22.653 -21.086  25.341  1.00  0.00     0.176 HD
ATOM     20  H11 UNL     1      22.517 -19.341  25.201  1.00  0.00     0.176 HD
ENDBRANCH  15  18
ENDBRANCH   1  14
TORSDOF 2
ENDMDL
MODEL 3
REMARK VINA RESULT: -6.995043661      2.774      4.021
REMARK  2 active torsions:
REMARK  status: ('A' for Active; 'I' for Inactive)
REMARK    1  A    between atoms: N1_1  and  N2_4 
REMARK       I    between atoms: N2_4  and  C1_6 
REMARK    2  A    between atoms: C1_6  and  C2_8 
REMARK       I    between atoms: C2_8  and  N3_10 
ROOT
HETATM    1  C2  UNL     1      20.194 -22.965  19.798  1.00  0.00     0.316 C 
HETATM    2  O2  UNL     1      21.355 -22.539  19.538  1.00  0.00    -0.262 OA
HETATM    3  N3  UNL     1      19.187 -22.005  20.080  1.00  0.00    -0.300 N 
ATOM      4  H3  UNL     1      18.290 -22.094  19.601  1.00  0.00     0.171 HD
HETATM    5  C3  UNL     1      19.337 -21.040  20.898  1.00  0.00     0.181 A 
HETATM    6  N4  UNL     1      20.493 -20.751  21.651  1.00  0.00    -0.290 N 
ATOM      7  H4  UNL     1      21.359 -21.289  21.631  1.00  0.00     0.172 HD
HETATM    8  C4  UNL     1      20.257 -19.576  22.455  1.00  0.00     0.328 A 
HETATM    9  O3  UNL     1      21.108 -19.073  23.235  1.00  0.00    -0.247 OA
HETATM   10  N5  UNL     1      18.927 -19.160  22.168  1.00  0.00    -0.272 N 
ATOM     11  H5  UNL     1      18.464 -18.352  22.582  1.00  0.00     0.174 HD
HETATM   12  C5  UNL     1      18.331 -20.049  21.207  1.00  0.00     0.293 A 
HETATM   13  O4  UNL     1      17.153 -19.940  20.751  1.00  0.00    -0.264 OA
ENDROOT
BRANCH   1  14
HETATM   14  C1  UNL     1      19.954 -24.384  19.794  1.00  0.00     0.327 C 
HETATM   15  N2  UNL     1      20.467 -25.257  18.800  1.00  0.00    -0.268 N 
ATOM     16  H2  UNL     1      21.033 -24.850  18.056  1.00  0.00     0.190 HD
HETATM   17  O1  UNL     1      19.255 -24.885  20.712  1.00  0.00    -0.261 OA
BRANCH  15  18
HETATM   18  N1  UNL     1      20.251 -26.634  18.770  1.00  0.00    -0.342 N 
ATOM     19  H12 UNL     1      20.388 -27.099  17.873  1.00  0.00     0.176 HD
ATOM     20  H11 UNL     1      19.970 -27.193  19.576  1.00  0.00     0.176 HD
ENDBRANCH  15  18
ENDBRANCH   1  14
TORSDOF 2
ENDMDL
MODEL 4
REMARK VINA RESULT: -6.907942461      2.046      2.869
REMARK  2 active torsions:
REMARK  status: ('A' for Active; 'I' for Inactive)
REMARK    1  A    between atoms: N1_1  and  N2_4 
REMARK       I    between atoms: N2_4  and  C1_6 
REMARK    2  A    between atoms: C1_6  and  C2_8 
REMARK       I    between atoms: C2_8  and  N3_10 
ROOT
HETATM    1  C2  UNL     1      19.577 -19.625  21.465  1.00  0.00     0.316 C 
HETATM    2  O2  UNL     1      18.449 -19.374  21.974  1.00  0.00    -0.262 OA
HETATM    3  N3  UNL     1      20.603 -20.087  22.331  1.00  0.00    -0.300 N 
ATOM      4  H3  UNL     1      21.138 -20.909  22.047  1.00  0.00     0.171 HD
HETATM    5  C3  UNL     1      20.895 -19.536  23.442  1.00  0.00     0.181 A 
HETATM    6  N4  UNL     1      20.276 -18.401  24.002  1.00  0.00    -0.290 N 
ATOM      7  H4  UNL     1      19.509 -17.878  23.580  1.00  0.00     0.172 HD
HETATM    8  C4  UNL     1      20.897 -18.094  25.268  1.00  0.00     0.328 A 
HETATM    9  O3  UNL     1      20.557 -17.132  26.006  1.00  0.00    -0.247 OA
HETATM   10  N5  UNL     1      21.910 -19.075  25.459  1.00  0.00    -0.272 N 
ATOM     11  H5  UNL     1      22.529 -19.128  26.268  1.00  0.00     0.174 HD
HETATM   12  C5  UNL     1      21.933 -19.982  24.343  1.00  0.00     0.293 A 
HETATM   13  O4  UNL     1      22.726 -20.964  24.221  1.00  0.00    -0.264 OA
ENDROOT
BRANCH   1  14
HETATM   14  C1  UNL     1      19.764 -19.432  20.051  1.00  0.00     0.327 C 
HETATM   15  N2  UNL     1      19.904 -20.503  19.132  1.00  0.00    -0.268 N 
ATOM     16  H2  UNL     1      19.869 -21.454  19.500  1.00  0.00     0.190 HD
HETATM   17  O1  UNL     1      19.809 -18.259  19.598  1.00  0.00    -0.261 OA
BRANCH  15  18
HETATM   18  N1  UNL     1      20.087 -20.348  17.759  1.00  0.00    -0.342 N 
ATOM     19  H12 UNL     1      20.068 -21.198  17.195  1.00  0.00     0.176 HD
ATOM     20  H11 UNL     1      20.235 -19.453  17.293  1.00  0.00     0.176 HD
ENDBRANCH  15  18
ENDBRANCH   1  14
TORSDOF 2
ENDMDL
MODEL 5
REMARK VINA RESULT: -6.897916295      2.174      3.089
REMARK  2 active torsions:
REMARK  status: ('A' for Active; 'I' for Inactive)
REMARK    1  A    between atoms: N1_1  and  N2_4 
REMARK       I    between atoms: N2_4  and  C1_6 
REMARK    2  A    between atoms: C1_6  and  C2_8 
REMARK       I    between atoms: C2_8  and  N3_10 
ROOT
HETATM    1  C2  UNL     1      19.706 -20.092  21.289  1.00  0.00     0.316 C 
HETATM    2  O2  UNL     1      18.497 -20.209  21.634  1.00  0.00    -0.262 OA
HETATM    3  N3  UNL     1      20.693 -20.153  22.309  1.00  0.00    -0.300 N 
ATOM      4  H3  UNL     1      21.498 -20.762  22.163  1.00  0.00     0.171 HD
HETATM    5  C3  UNL     1      20.630 -19.490  23.395  1.00  0.00     0.181 A 
HETATM    6  N4  UNL     1      19.605 -18.602  23.778  1.00  0.00    -0.290 N 
ATOM      7  H4  UNL     1      18.779 -18.381  23.222  1.00  0.00     0.172 HD
HETATM    8  C4  UNL     1      19.908 -18.056  25.078  1.00  0.00     0.328 A 
HETATM    9  O3  UNL     1      19.175 -17.231  25.684  1.00  0.00    -0.247 OA
HETATM   10  N5  UNL     1      21.144 -18.637  25.473  1.00  0.00    -0.272 N 
ATOM     11  H5  UNL     1      21.626 -18.449  26.353  1.00  0.00     0.174 HD
HETATM   12  C5  UNL     1      21.617 -19.530  24.450  1.00  0.00     0.293 A 
HETATM   13  O4  UNL     1      22.693 -20.199  24.509  1.00  0.00    -0.264 OA
ENDROOT
BRANCH   1  14
HETATM   14  C1  UNL     1      20.021 -19.907  19.897  1.00  0.00     0.327 C 
HETATM   15  N2  UNL     1      19.724 -18.717  19.184  1.00  0.00    -0.268 N 
ATOM     16  H2  UNL     1      19.266 -17.961  19.692  1.00  0.00     0.190 HD
HETATM   17  O1  UNL     1      20.586 -20.841  19.271  1.00  0.00    -0.261 OA
BRANCH  15  18
HETATM   18  N1  UNL     1      20.016 -18.508  17.837  1.00  0.00    -0.342 N 
ATOM     19  H12 UNL     1      20.592 -17.696  17.614  1.00  0.00     0.176 HD
ATOM     20  H11 UNL     1      19.696 -19.107  17.076  1.00  0.00     0.176 HD
ENDBRANCH  15  18
ENDBRANCH   1  14
TORSDOF 2
ENDMDL
