MODEL 1
REMARK VINA RESULT: -7.719501734      0.000      0.000
REMARK  1 active torsions:
REMARK  status: ('A' for Active; 'I' for Inactive)
REMARK    1  A    between atoms: N1_1  and  N2_4 
ROOT
HETATM    1  N2  UNL     1      20.165 -20.129  22.411  1.00  0.00    -0.155 N 
HETATM    2  N3  UNL     1      21.221 -20.353  23.290  1.00  0.00    -0.227 N 
ATOM      3  H3  UNL     1      21.718 -21.222  23.091  1.00  0.00     0.194 HD
HETATM    4  C1  UNL     1      21.774 -19.642  24.416  1.00  0.00     0.344 C 
HETATM    5  O1  UNL     1      22.722 -20.261  24.966  1.00  0.00    -0.245 OA
HETATM    6  N4  UNL     1      21.498 -18.394  25.058  1.00  0.00    -0.259 N 
ATOM      7  H4  UNL     1      22.309 -18.020  25.550  1.00  0.00     0.175 HD
HETATM    8  C2  UNL     1      20.346 -17.548  25.169  1.00  0.00     0.331 C 
HETATM    9  O2  UNL     1      20.441 -16.722  26.124  1.00  0.00    -0.246 OA
HETATM   10  N5  UNL     1      19.134 -17.456  24.425  1.00  0.00    -0.271 N 
ATOM     11  H5  UNL     1      18.515 -16.720  24.766  1.00  0.00     0.174 HD
HETATM   12  C3  UNL     1      18.585 -18.171  23.298  1.00  0.00     0.321 C 
HETATM   13  O3  UNL     1      17.477 -17.719  22.923  1.00  0.00    -0.262 OA
HETATM   14  C4  UNL     1      19.016 -19.303  22.486  1.00  0.00     0.349 C 
HETATM   15  O4  UNL     1      18.157 -19.625  21.643  1.00  0.00    -0.259 OA
ENDROOT
BRANCH   1  16
HETATM   16  N1  UNL     1      20.283 -20.880  21.230  1.00  0.00    -0.321 N 
ATOM     17  H12 UNL     1      20.984 -21.621  21.257  1.00  0.00     0.179 HD
ATOM     18  H11 UNL     1      19.637 -20.567  20.504  1.00  0.00     0.179 HD
ENDBRANCH   1  16
TORSDOF 1
ENDMDL
MODEL 2
REMARK VINA RESULT: -7.707266702      1.164      3.618
REMARK  1 active torsions:
REMARK  status: ('A' for Active; 'I' for Inactive)
REMARK    1  A    between atoms: N1_1  and  N2_4 
ROOT
HETATM    1  N2  UNL     1      21.505 -19.863  24.024  1.00  0.00    -0.155 N 
HETATM    2  N3  UNL     1      20.939 -20.261  22.817  1.00  0.00    -0.227 N 
ATOM      3  H3  UNL     1      21.520 -20.930  22.312  1.00  0.00     0.194 HD
HETATM    4  C1  UNL     1      19.720 -19.945  22.113  1.00  0.00     0.344 C 
HETATM    5  O1  UNL     1      19.643 -20.511  20.992  1.00  0.00    -0.245 OA
HETATM    6  N4  UNL     1      18.573 -19.136  22.391  1.00  0.00    -0.259 N 
ATOM      7  H4  UNL     1      17.744 -19.445  21.885  1.00  0.00     0.175 HD
HETATM    8  C2  UNL     1      18.320 -17.992  23.217  1.00  0.00     0.331 C 
HETATM    9  O2  UNL     1      17.260 -17.381  22.890  1.00  0.00    -0.246 OA
HETATM   10  N5  UNL     1      19.018 -17.416  24.319  1.00  0.00    -0.271 N 
ATOM     11  H5  UNL     1      18.550 -16.593  24.698  1.00  0.00     0.174 HD
HETATM   12  C3  UNL     1      20.238 -17.737  25.019  1.00  0.00     0.321 C 
HETATM   13  O3  UNL     1      20.462 -16.973  25.988  1.00  0.00    -0.262 OA
HETATM   14  C4  UNL     1      21.280 -18.746  24.866  1.00  0.00     0.349 C 
HETATM   15  O4  UNL     1      22.206 -18.586  25.684  1.00  0.00    -0.259 OA
ENDROOT
BRANCH   1  16
HETATM   16  N1  UNL     1      22.489 -20.759  24.474  1.00  0.00    -0.321 N 
ATOM     17  H12 UNL     1      22.313 -21.740  24.256  1.00  0.00     0.179 HD
ATOM     18  H11 UNL     1      23.250 -20.287  24.963  1.00  0.00     0.179 HD
ENDBRANCH   1  16
TORSDOF 1
ENDMDL
MODEL 3
REMARK VINA RESULT: -7.505846919      1.338      4.838
REMARK  1 active torsions:
REMARK  status: ('A' for Active; 'I' for Inactive)
REMARK    1  A    between atoms: N1_1  and  N2_4 
ROOT
HETATM    1  N2  UNL     1      19.924 -17.619  25.158  1.00  0.00    -0.155 N 
HETATM    2  N3  UNL     1      18.790 -17.453  24.368  1.00  0.00    -0.227 N 
ATOM      3  H3  UNL     1      18.067 -16.902  24.831  1.00  0.00     0.194 HD
HETATM    4  C1  UNL     1      18.401 -17.881  23.046  1.00  0.00     0.344 C 
HETATM    5  O1  UNL     1      17.227 -17.540  22.749  1.00  0.00    -0.245 OA
HETATM    6  N4  UNL     1      19.038 -18.604  21.990  1.00  0.00    -0.259 N 
ATOM      7  H4  UNL     1      18.646 -18.385  21.074  1.00  0.00     0.175 HD
HETATM    8  C2  UNL     1      20.101 -19.564  21.920  1.00  0.00     0.331 C 
HETATM    9  O2  UNL     1      20.101 -20.210  20.831  1.00  0.00    -0.246 OA
HETATM   10  N5  UNL     1      21.142 -19.927  22.823  1.00  0.00    -0.271 N 
ATOM     11  H5  UNL     1      21.752 -20.655  22.452  1.00  0.00     0.174 HD
HETATM   12  C3  UNL     1      21.527 -19.496  24.146  1.00  0.00     0.321 C 
HETATM   13  O3  UNL     1      22.565 -20.062  24.563  1.00  0.00    -0.262 OA
HETATM   14  C4  UNL     1      20.991 -18.551  25.118  1.00  0.00     0.349 C 
HETATM   15  O4  UNL     1      21.636 -18.564  26.184  1.00  0.00    -0.259 OA
ENDROOT
BRANCH   1  16
HETATM   16  N1  UNL     1      20.001 -16.669  26.189  1.00  0.00    -0.321 N 
ATOM     17  H12 UNL     1      20.213 -15.718  25.885  1.00  0.00     0.179 HD
ATOM     18  H11 UNL     1      19.831 -17.077  27.108  1.00  0.00     0.179 HD
ENDBRANCH   1  16
TORSDOF 1
ENDMDL
MODEL 4
REMARK VINA RESULT: -7.373165178      1.692      3.643
REMARK  1 active torsions:
REMARK  status: ('A' for Active; 'I' for Inactive)
REMARK    1  A    between atoms: N1_1  and  N2_4 
ROOT
HETATM    1  N2  UNL     1      21.125 -19.352  23.788  1.00  0.00    -0.155 N 
HETATM    2  N3  UNL     1      21.059 -19.494  22.405  1.00  0.00    -0.227 N 
ATOM      3  H3  UNL     1      21.880 -19.961  22.019  1.00  0.00     0.194 HD
HETATM    4  C1  UNL     1      20.099 -19.132  21.391  1.00  0.00     0.344 C 
HETATM    5  O1  UNL     1      20.490 -19.412  20.228  1.00  0.00    -0.245 OA
HETATM    6  N4  UNL     1      18.803 -18.529  21.396  1.00  0.00    -0.259 N 
ATOM      7  H4  UNL     1      18.250 -18.781  20.577  1.00  0.00     0.175 HD
HETATM    8  C2  UNL     1      18.101 -17.650  22.286  1.00  0.00     0.331 C 
HETATM    9  O2  UNL     1      17.115 -17.082  21.729  1.00  0.00    -0.246 OA
HETATM   10  N5  UNL     1      18.292 -17.298  23.654  1.00  0.00    -0.271 N 
ATOM     11  H5  UNL     1      17.591 -16.640  23.995  1.00  0.00     0.174 HD
HETATM   12  C3  UNL     1      19.255 -17.663  24.664  1.00  0.00     0.321 C 
HETATM   13  O3  UNL     1      19.016 -17.142  25.779  1.00  0.00    -0.262 OA
HETATM   14  C4  UNL     1      20.448 -18.501  24.697  1.00  0.00     0.349 C 
HETATM   15  O4  UNL     1      21.017 -18.459  25.805  1.00  0.00    -0.259 OA
ENDROOT
BRANCH   1  16
HETATM   16  N1  UNL     1      22.049 -20.233  24.373  1.00  0.00    -0.321 N 
ATOM     17  H12 UNL     1      22.893 -20.400  23.825  1.00  0.00     0.179 HD
ATOM     18  H11 UNL     1      21.734 -20.583  25.277  1.00  0.00     0.179 HD
ENDBRANCH   1  16
TORSDOF 1
ENDMDL
MODEL 5
REMARK VINA RESULT: -7.325628536      1.428      3.463
REMARK  1 active torsions:
REMARK  status: ('A' for Active; 'I' for Inactive)
REMARK    1  A    between atoms: N1_1  and  N2_4 
ROOT
HETATM    1  N2  UNL     1      18.371 -18.256  23.061  1.00  0.00    -0.155 N 
HETATM    2  N3  UNL     1      18.725 -19.378  22.317  1.00  0.00    -0.227 N 
ATOM      3  H3  UNL     1      18.007 -19.645  21.643  1.00  0.00     0.194 HD
HETATM    4  C1  UNL     1      19.874 -20.250  22.277  1.00  0.00     0.344 C 
HETATM    5  O1  UNL     1      19.737 -21.200  21.463  1.00  0.00    -0.245 OA
HETATM    6  N4  UNL     1      21.136 -20.289  22.947  1.00  0.00    -0.259 N 
ATOM      7  H4  UNL     1      21.850 -20.780  22.410  1.00  0.00     0.175 HD
HETATM    8  C2  UNL     1      21.631 -19.797  24.200  1.00  0.00     0.331 C 
HETATM    9  O2  UNL     1      22.707 -20.363  24.553  1.00  0.00    -0.246 OA
HETATM   10  N5  UNL     1      21.156 -18.809  25.111  1.00  0.00    -0.271 N 
ATOM     11  H5  UNL     1      21.766 -18.690  25.920  1.00  0.00     0.174 HD
HETATM   12  C3  UNL     1      20.005 -17.939  25.146  1.00  0.00     0.321 C 
HETATM   13  O3  UNL     1      20.002 -17.170  26.136  1.00  0.00    -0.262 OA
HETATM   14  C4  UNL     1      18.837 -17.740  24.296  1.00  0.00     0.349 C 
HETATM   15  O4  UNL     1      18.049 -16.902  24.775  1.00  0.00    -0.259 OA
ENDROOT
BRANCH   1  16
HETATM   16  N1  UNL     1      17.351 -17.509  22.450  1.00  0.00    -0.321 N 
ATOM     17  H12 UNL     1      16.444 -17.975  22.399  1.00  0.00     0.179 HD
ATOM     18  H11 UNL     1      17.673 -16.592  22.140  1.00  0.00     0.179 HD
ENDBRANCH   1  16
TORSDOF 1
ENDMDL
