MODEL 1
REMARK VINA RESULT: -6.815820181      0.000      0.000
REMARK  5 active torsions:
REMARK  status: ('A' for Active; 'I' for Inactive)
REMARK    1  A    between atoms: C2_2  and  C3_3 
REMARK    2  A    between atoms: C3_3  and  C4_4 
REMARK    3  A    between atoms: C4_4  and  C5_5 
REMARK    4  A    between atoms: C5_5  and  N1_6 
REMARK    5  A    between atoms: N1_6  and  C6_8 
ROOT
HETATM    1  C6  UNL     1       9.054   1.163  29.831  1.00  0.00     0.146 A 
HETATM    2  N2  UNL     1      10.141   0.447  29.508  1.00  0.00    -0.323 N 
ATOM      3  H2  UNL     1      10.491  -0.190  30.223  1.00  0.00     0.169 HD
HETATM    4  C7  UNL     1      10.807   0.473  28.370  1.00  0.00     0.108 A 
HETATM    5  N3  UNL     1      11.842  -0.341  28.315  1.00  0.00    -0.385 N 
ATOM      6  H31 UNL     1      12.357  -0.321  27.434  1.00  0.00     0.157 HD
ATOM      7  H32 UNL     1      12.031  -0.904  29.144  1.00  0.00     0.157 HD
HETATM    8  C8  UNL     1      10.551   1.236  27.247  1.00  0.00    -0.001 A 
HETATM    9  C9  UNL     1       9.499   2.117  27.179  1.00  0.00    -0.004 A 
HETATM   10  S1  UNL     1       8.535   2.198  28.582  1.00  0.00    -0.058 SA
HETATM   11  C10 UNL     1       9.189   2.957  25.975  1.00  0.00     0.047 C 
HETATM   12  C11 UNL     1       9.787   2.248  24.787  1.00  0.00     0.005 C 
HETATM   13  C12 UNL     1      11.286   2.035  25.003  1.00  0.00     0.005 C 
HETATM   14  C13 UNL     1      11.508   1.047  26.084  1.00  0.00     0.043 C 
ENDROOT
BRANCH   1  15
HETATM   15  N1  UNL     1       8.442   1.088  30.976  1.00  0.00    -0.370 N 
ATOM     16  H1  UNL     1       8.929   0.680  31.773  1.00  0.00     0.161 HD
BRANCH  15  17
HETATM   17  C5  UNL     1       7.119   1.558  31.142  1.00  0.00     0.121 C 
BRANCH  17  18
HETATM   18  C4  UNL     1       6.669   1.226  32.569  1.00  0.00     0.020 C 
BRANCH  18  19
HETATM   19  C3  UNL     1       5.187   0.836  32.555  1.00  0.00     0.001 C 
BRANCH  19  20
HETATM   20  C2  UNL     1       4.558   1.608  31.401  1.00  0.00    -0.004 C 
HETATM   21  C1  UNL     1       3.159   1.089  31.119  1.00  0.00     0.005 C 
ENDBRANCH  19  20
ENDBRANCH  18  19
ENDBRANCH  17  18
ENDBRANCH  15  17
ENDBRANCH   1  15
TORSDOF 5
ENDMDL
MODEL 2
REMARK VINA RESULT: -6.576791351      2.992      7.507
REMARK  5 active torsions:
REMARK  status: ('A' for Active; 'I' for Inactive)
REMARK    1  A    between atoms: C2_2  and  C3_3 
REMARK    2  A    between atoms: C3_3  and  C4_4 
REMARK    3  A    between atoms: C4_4  and  C5_5 
REMARK    4  A    between atoms: C5_5  and  N1_6 
REMARK    5  A    between atoms: N1_6  and  C6_8 
ROOT
HETATM    1  C6  UNL     1       5.594   2.210  31.970  1.00  0.00     0.146 A 
HETATM    2  N2  UNL     1       4.626   1.304  31.773  1.00  0.00    -0.323 N 
ATOM      3  H2  UNL     1       4.877   0.330  31.944  1.00  0.00     0.169 HD
HETATM    4  C7  UNL     1       3.386   1.529  31.383  1.00  0.00     0.108 A 
HETATM    5  N3  UNL     1       2.636   0.451  31.273  1.00  0.00    -0.385 N 
ATOM      6  H31 UNL     1       1.676   0.626  30.972  1.00  0.00     0.157 HD
ATOM      7  H32 UNL     1       3.075  -0.442  31.493  1.00  0.00     0.157 HD
HETATM    8  C8  UNL     1       2.791   2.739  31.086  1.00  0.00    -0.001 A 
HETATM    9  C9  UNL     1       3.466   3.933  31.167  1.00  0.00    -0.004 A 
HETATM   10  S1  UNL     1       5.092   3.808  31.662  1.00  0.00    -0.058 SA
HETATM   11  C10 UNL     1       2.850   5.265  30.856  1.00  0.00     0.047 C 
HETATM   12  C11 UNL     1       1.363   5.110  31.051  1.00  0.00     0.005 C 
HETATM   13  C12 UNL     1       0.833   3.980  30.168  1.00  0.00     0.005 C 
HETATM   14  C13 UNL     1       1.337   2.675  30.655  1.00  0.00     0.043 C 
ENDROOT
BRANCH   1  15
HETATM   15  N1  UNL     1       6.801   1.919  32.357  1.00  0.00    -0.370 N 
ATOM     16  H1  UNL     1       7.207   2.427  33.142  1.00  0.00     0.161 HD
BRANCH  15  17
HETATM   17  C5  UNL     1       7.564   0.916  31.715  1.00  0.00     0.121 C 
BRANCH  17  18
HETATM   18  C4  UNL     1       7.945   1.423  30.320  1.00  0.00     0.020 C 
BRANCH  18  19
HETATM   19  C3  UNL     1       9.415   1.088  30.044  1.00  0.00     0.001 C 
BRANCH  19  20
HETATM   20  C2  UNL     1       9.418   0.182  28.818  1.00  0.00    -0.004 C 
HETATM   21  C1  UNL     1      10.424   0.681  27.795  1.00  0.00     0.005 C 
ENDBRANCH  19  20
ENDBRANCH  18  19
ENDBRANCH  17  18
ENDBRANCH  15  17
ENDBRANCH   1  15
TORSDOF 5
ENDMDL
MODEL 3
REMARK VINA RESULT: -6.491926405      3.319      4.575
REMARK  5 active torsions:
REMARK  status: ('A' for Active; 'I' for Inactive)
REMARK    1  A    between atoms: C2_2  and  C3_3 
REMARK    2  A    between atoms: C3_3  and  C4_4 
REMARK    3  A    between atoms: C4_4  and  C5_5 
REMARK    4  A    between atoms: C5_5  and  N1_6 
REMARK    5  A    between atoms: N1_6  and  C6_8 
ROOT
HETATM    1  C6  UNL     1       5.738   3.272  31.001  1.00  0.00     0.146 A 
HETATM    2  N2  UNL     1       6.212   2.221  31.686  1.00  0.00    -0.323 N 
ATOM      3  H2  UNL     1       5.724   1.988  32.550  1.00  0.00     0.169 HD
HETATM    4  C7  UNL     1       7.237   1.454  31.367  1.00  0.00     0.108 A 
HETATM    5  N3  UNL     1       7.487   0.481  32.219  1.00  0.00    -0.385 N 
ATOM      6  H31 UNL     1       8.280  -0.112  31.972  1.00  0.00     0.157 HD
ATOM      7  H32 UNL     1       6.878   0.412  33.034  1.00  0.00     0.157 HD
HETATM    8  C8  UNL     1       8.063   1.547  30.263  1.00  0.00    -0.001 A 
HETATM    9  C9  UNL     1       7.901   2.515  29.301  1.00  0.00    -0.004 A 
HETATM   10  S1  UNL     1       6.608   3.591  29.572  1.00  0.00    -0.058 SA
HETATM   11  C10 UNL     1       8.776   2.643  28.089  1.00  0.00     0.047 C 
HETATM   12  C11 UNL     1       9.369   1.280  27.838  1.00  0.00     0.005 C 
HETATM   13  C12 UNL     1      10.125   0.799  29.078  1.00  0.00     0.005 C 
HETATM   14  C13 UNL     1       9.171   0.514  30.175  1.00  0.00     0.043 C 
ENDROOT
BRANCH   1  15
HETATM   15  N1  UNL     1       4.718   3.987  31.373  1.00  0.00    -0.370 N 
ATOM     16  H1  UNL     1       3.814   3.534  31.502  1.00  0.00     0.161 HD
BRANCH  15  17
HETATM   17  C5  UNL     1       4.832   5.378  31.603  1.00  0.00     0.121 C 
BRANCH  17  18
HETATM   18  C4  UNL     1       5.913   5.600  32.666  1.00  0.00     0.020 C 
BRANCH  18  19
HETATM   19  C3  UNL     1       5.247   5.943  34.003  1.00  0.00     0.001 C 
BRANCH  19  20
HETATM   20  C2  UNL     1       4.011   6.766  33.659  1.00  0.00    -0.004 C 
HETATM   21  C1  UNL     1       3.175   7.007  34.904  1.00  0.00     0.005 C 
ENDBRANCH  19  20
ENDBRANCH  18  19
ENDBRANCH  17  18
ENDBRANCH  15  17
ENDBRANCH   1  15
TORSDOF 5
ENDMDL
MODEL 4
REMARK VINA RESULT: -6.479595115      3.447      5.438
REMARK  5 active torsions:
REMARK  status: ('A' for Active; 'I' for Inactive)
REMARK    1  A    between atoms: C2_2  and  C3_3 
REMARK    2  A    between atoms: C3_3  and  C4_4 
REMARK    3  A    between atoms: C4_4  and  C5_5 
REMARK    4  A    between atoms: C5_5  and  N1_6 
REMARK    5  A    between atoms: N1_6  and  C6_8 
ROOT
HETATM    1  C6  UNL     1       4.220   3.161  30.494  1.00  0.00     0.146 A 
HETATM    2  N2  UNL     1       4.582   2.368  31.514  1.00  0.00    -0.323 N 
ATOM      3  H2  UNL     1       3.892   2.241  32.254  1.00  0.00     0.169 HD
HETATM    4  C7  UNL     1       5.728   1.733  31.666  1.00  0.00     0.108 A 
HETATM    5  N3  UNL     1       5.820   1.012  32.765  1.00  0.00    -0.385 N 
ATOM      6  H31 UNL     1       6.707   0.521  32.883  1.00  0.00     0.157 HD
ATOM      7  H32 UNL     1       5.012   1.013  33.387  1.00  0.00     0.157 HD
HETATM    8  C8  UNL     1       6.822   1.732  30.823  1.00  0.00    -0.001 A 
HETATM    9  C9  UNL     1       6.846   2.439  29.645  1.00  0.00    -0.004 A 
HETATM   10  S1  UNL     1       5.426   3.317  29.304  1.00  0.00    -0.058 SA
HETATM   11  C10 UNL     1       8.015   2.457  28.705  1.00  0.00     0.047 C 
HETATM   12  C11 UNL     1       8.792   1.190  28.956  1.00  0.00     0.005 C 
HETATM   13  C12 UNL     1       9.204   1.109  30.426  1.00  0.00     0.005 C 
HETATM   14  C13 UNL     1       8.009   0.902  31.277  1.00  0.00     0.043 C 
ENDROOT
BRANCH   1  15
HETATM   15  N1  UNL     1       3.068   3.757  30.406  1.00  0.00    -0.370 N 
ATOM     16  H1  UNL     1       2.219   3.195  30.350  1.00  0.00     0.161 HD
BRANCH  15  17
HETATM   17  C5  UNL     1       2.964   5.168  30.384  1.00  0.00     0.121 C 
BRANCH  17  18
HETATM   18  C4  UNL     1       3.381   5.700  31.760  1.00  0.00     0.020 C 
BRANCH  18  19
HETATM   19  C3  UNL     1       4.513   6.718  31.587  1.00  0.00     0.001 C 
BRANCH  19  20
HETATM   20  C2  UNL     1       5.805   5.968  31.885  1.00  0.00    -0.004 C 
HETATM   21  C1  UNL     1       5.793   5.440  33.309  1.00  0.00     0.005 C 
ENDBRANCH  19  20
ENDBRANCH  18  19
ENDBRANCH  17  18
ENDBRANCH  15  17
ENDBRANCH   1  15
TORSDOF 5
ENDMDL
MODEL 5
REMARK VINA RESULT: -6.408635939      3.126      7.583
REMARK  5 active torsions:
REMARK  status: ('A' for Active; 'I' for Inactive)
REMARK    1  A    between atoms: C2_2  and  C3_3 
REMARK    2  A    between atoms: C3_3  and  C4_4 
REMARK    3  A    between atoms: C4_4  and  C5_5 
REMARK    4  A    between atoms: C5_5  and  N1_6 
REMARK    5  A    between atoms: N1_6  and  C6_8 
ROOT
HETATM    1  C6  UNL     1       5.477   2.383  30.072  1.00  0.00     0.146 A 
HETATM    2  N2  UNL     1       4.577   1.523  30.570  1.00  0.00    -0.323 N 
ATOM      3  H2  UNL     1       4.925   0.597  30.816  1.00  0.00     0.169 HD
HETATM    4  C7  UNL     1       3.293   1.740  30.777  1.00  0.00     0.108 A 
HETATM    5  N3  UNL     1       2.633   0.717  31.284  1.00  0.00    -0.385 N 
ATOM      6  H31 UNL     1       1.639   0.885  31.445  1.00  0.00     0.157 HD
ATOM      7  H32 UNL     1       3.166  -0.133  31.464  1.00  0.00     0.157 HD
HETATM    8  C8  UNL     1       2.570   2.891  30.534  1.00  0.00    -0.001 A 
HETATM    9  C9  UNL     1       3.145   4.026  30.013  1.00  0.00    -0.004 A 
HETATM   10  S1  UNL     1       4.813   3.903  29.688  1.00  0.00    -0.058 SA
HETATM   11  C10 UNL     1       2.392   5.295  29.740  1.00  0.00     0.047 C 
HETATM   12  C11 UNL     1       1.188   5.287  30.648  1.00  0.00     0.005 C 
HETATM   13  C12 UNL     1       0.355   4.028  30.405  1.00  0.00     0.005 C 
HETATM   14  C13 UNL     1       1.092   2.832  30.874  1.00  0.00     0.043 C 
ENDROOT
BRANCH   1  15
HETATM   15  N1  UNL     1       6.734   2.104  29.893  1.00  0.00    -0.370 N 
ATOM     16  H1  UNL     1       7.193   1.450  30.526  1.00  0.00     0.161 HD
BRANCH  15  17
HETATM   17  C5  UNL     1       7.480   2.685  28.841  1.00  0.00     0.121 C 
BRANCH  17  18
HETATM   18  C4  UNL     1       8.967   2.421  29.107  1.00  0.00     0.020 C 
BRANCH  18  19
HETATM   19  C3  UNL     1       9.124   1.066  29.804  1.00  0.00     0.001 C 
BRANCH  19  20
HETATM   20  C2  UNL     1       9.617   0.097  28.736  1.00  0.00    -0.004 C 
HETATM   21  C1  UNL     1      10.435   0.835  27.691  1.00  0.00     0.005 C 
ENDBRANCH  19  20
ENDBRANCH  18  19
ENDBRANCH  17  18
ENDBRANCH  15  17
ENDBRANCH   1  15
TORSDOF 5
ENDMDL
