MODEL 1
REMARK VINA RESULT: -8.853587579      0.000      0.000
REMARK  6 active torsions:
REMARK  status: ('A' for Active; 'I' for Inactive)
REMARK    1  A    between atoms: C1_2  and  C2_4 
REMARK    2  A    between atoms: C2_4  and  C15_20 
REMARK    3  A    between atoms: N1_11  and  C9_12 
REMARK    4  A    between atoms: C9_12  and  C10_13 
REMARK    5  A    between atoms: C10_13  and  N2_14 
REMARK    6  A    between atoms: C18_23  and  C19_24 
ROOT
HETATM    1  C2  UNL     1      26.396  12.706  38.291  1.00  0.00     0.045 C 
HETATM    2  C3  UNL     1      25.264  12.515  38.834  1.00  0.00     0.020 C 
HETATM    3  C4  UNL     1      24.308  13.661  39.150  1.00  0.00     0.057 C 
HETATM    4  C5  UNL     1      23.329  13.175  40.245  1.00  0.00     0.006 C 
HETATM    5  C6  UNL     1      24.092  12.711  41.443  1.00  0.00     0.002 C 
HETATM    6  C7  UNL     1      24.544  11.308  41.451  1.00  0.00     0.020 C 
HETATM    7  C8  UNL     1      24.348  10.489  40.211  1.00  0.00     0.123 C 
HETATM    8  N1  UNL     1      24.774  11.186  39.013  1.00  0.00    -0.382 N 
ENDROOT
BRANCH   1   9
HETATM    9  C1  UNL     1      26.728  14.132  37.924  1.00  0.00     0.207 C 
HETATM   10  O1  UNL     1      26.751  14.477  36.681  1.00  0.00    -0.644 OA
HETATM   11  O2  UNL     1      27.018  15.149  38.764  1.00  0.00    -0.644 OA
ENDBRANCH   1   9
BRANCH   1  12
HETATM   12  C15 UNL     1      27.600  11.878  38.100  1.00  0.00     0.027 C 
HETATM   13  C16 UNL     1      28.046  10.811  38.973  1.00  0.00     0.010 C 
HETATM   14  C17 UNL     1      29.507  10.415  38.602  1.00  0.00     0.014 C 
HETATM   15  C18 UNL     1      30.393  11.456  39.197  1.00  0.00     0.093 C 
HETATM   16  C20 UNL     1      29.686  12.795  39.213  1.00  0.00     0.014 C 
HETATM   17  C21 UNL     1      28.794  12.876  37.949  1.00  0.00     0.010 C 
BRANCH  15  18
HETATM   18  C19 UNL     1      30.968  11.163  40.530  1.00  0.00     0.391 C 
HETATM   19  F1  UNL     1      32.370  11.133  40.487  1.00  0.00    -0.171 F 
HETATM   20  F2  UNL     1      30.636  12.164  41.450  1.00  0.00    -0.171 F 
HETATM   21  F3  UNL     1      30.491   9.994  41.059  1.00  0.00    -0.171 F 
ENDBRANCH  15  18
ENDBRANCH   1  12
BRANCH   8  22
HETATM   22  C9  UNL     1      24.590  10.412  37.793  1.00  0.00     0.153 C 
BRANCH  22  23
HETATM   23  C10 UNL     1      24.932   8.945  38.077  1.00  0.00     0.292 C 
BRANCH  23  24
HETATM   24  N2  UNL     1      24.184   8.087  37.175  1.00  0.00     0.094 N 
HETATM   25  C11 UNL     1      24.995   6.909  36.954  1.00  0.00     0.298 C 
HETATM   26  C12 UNL     1      25.283   6.788  35.490  1.00  0.00     0.198 C 
HETATM   27  O3  UNL     1      24.127   6.716  34.718  1.00  0.00    -0.388 OA
HETATM   28  C13 UNL     1      23.251   7.740  35.002  1.00  0.00     0.198 C 
HETATM   29  C14 UNL     1      23.875   8.763  35.929  1.00  0.00     0.298 C 
ENDBRANCH  23  24
ENDBRANCH  22  23
ENDBRANCH   8  22
TORSDOF 6
ENDMDL
MODEL 2
REMARK VINA RESULT: -7.442571230      3.323      6.025
REMARK  6 active torsions:
REMARK  status: ('A' for Active; 'I' for Inactive)
REMARK    1  A    between atoms: C1_2  and  C2_4 
REMARK    2  A    between atoms: C2_4  and  C15_20 
REMARK    3  A    between atoms: N1_11  and  C9_12 
REMARK    4  A    between atoms: C9_12  and  C10_13 
REMARK    5  A    between atoms: C10_13  and  N2_14 
REMARK    6  A    between atoms: C18_23  and  C19_24 
ROOT
HETATM    1  C2  UNL     1      24.575  12.187  40.201  1.00  0.00     0.045 C 
HETATM    2  C3  UNL     1      25.541  12.920  39.825  1.00  0.00     0.020 C 
HETATM    3  C4  UNL     1      25.536  14.434  40.008  1.00  0.00     0.057 C 
HETATM    4  C5  UNL     1      26.545  15.038  39.003  1.00  0.00     0.006 C 
HETATM    5  C6  UNL     1      26.192  14.621  37.612  1.00  0.00     0.002 C 
HETATM    6  C7  UNL     1      26.733  13.336  37.136  1.00  0.00     0.020 C 
HETATM    7  C8  UNL     1      27.466  12.466  38.113  1.00  0.00     0.123 C 
HETATM    8  N1  UNL     1      26.754  12.320  39.368  1.00  0.00    -0.382 N 
ENDROOT
BRANCH   1   9
HETATM    9  C1  UNL     1      23.431  12.891  40.888  1.00  0.00     0.207 C 
HETATM   10  O1  UNL     1      23.245  12.711  42.153  1.00  0.00    -0.644 OA
HETATM   11  O2  UNL     1      22.531  13.730  40.333  1.00  0.00    -0.644 OA
ENDBRANCH   1   9
BRANCH   1  12
HETATM   12  C15 UNL     1      24.181  10.789  39.946  1.00  0.00     0.027 C 
HETATM   13  C16 UNL     1      24.910   9.610  40.366  1.00  0.00     0.010 C 
HETATM   14  C17 UNL     1      24.342   8.360  39.630  1.00  0.00     0.014 C 
HETATM   15  C18 UNL     1      24.910   8.385  38.251  1.00  0.00     0.093 C 
HETATM   16  C20 UNL     1      25.114   9.815  37.798  1.00  0.00     0.014 C 
HETATM   17  C21 UNL     1      23.971  10.671  38.401  1.00  0.00     0.010 C 
BRANCH  15  18
HETATM   18  C19 UNL     1      26.140   7.593  38.020  1.00  0.00     0.391 C 
HETATM   19  F1  UNL     1      26.045   6.321  38.602  1.00  0.00    -0.171 F 
HETATM   20  F2  UNL     1      26.346   7.374  36.653  1.00  0.00    -0.171 F 
HETATM   21  F3  UNL     1      27.265   8.231  38.471  1.00  0.00    -0.171 F 
ENDBRANCH  15  18
ENDBRANCH   1  12
BRANCH   8  22
HETATM   22  C9  UNL     1      27.448  11.482  40.337  1.00  0.00     0.153 C 
BRANCH  22  23
HETATM   23  C10 UNL     1      28.214  10.385  39.588  1.00  0.00     0.292 C 
BRANCH  23  24
HETATM   24  N2  UNL     1      29.573  10.309  40.094  1.00  0.00     0.094 N 
HETATM   25  C11 UNL     1      29.656  11.236  41.203  1.00  0.00     0.298 C 
HETATM   26  C12 UNL     1      30.714  12.252  40.904  1.00  0.00     0.198 C 
HETATM   27  O3  UNL     1      31.961  11.680  40.674  1.00  0.00    -0.388 OA
HETATM   28  C13 UNL     1      31.905  10.681  39.727  1.00  0.00     0.198 C 
HETATM   29  C14 UNL     1      30.544  10.621  39.064  1.00  0.00     0.298 C 
ENDBRANCH  23  24
ENDBRANCH  22  23
ENDBRANCH   8  22
TORSDOF 6
ENDMDL
MODEL 3
REMARK VINA RESULT: -7.364921138      1.080      1.646
REMARK  6 active torsions:
REMARK  status: ('A' for Active; 'I' for Inactive)
REMARK    1  A    between atoms: C1_2  and  C2_4 
REMARK    2  A    between atoms: C2_4  and  C15_20 
REMARK    3  A    between atoms: N1_11  and  C9_12 
REMARK    4  A    between atoms: C9_12  and  C10_13 
REMARK    5  A    between atoms: C10_13  and  N2_14 
REMARK    6  A    between atoms: C18_23  and  C19_24 
ROOT
HETATM    1  C2  UNL     1      26.554  11.971  39.115  1.00  0.00     0.045 C 
HETATM    2  C3  UNL     1      25.294  12.086  39.229  1.00  0.00     0.020 C 
HETATM    3  C4  UNL     1      24.528  13.272  38.652  1.00  0.00     0.057 C 
HETATM    4  C5  UNL     1      23.180  13.379  39.403  1.00  0.00     0.006 C 
HETATM    5  C6  UNL     1      23.423  13.505  40.873  1.00  0.00     0.002 C 
HETATM    6  C7  UNL     1      23.568  12.256  41.641  1.00  0.00     0.020 C 
HETATM    7  C8  UNL     1      23.617  10.959  40.889  1.00  0.00     0.123 C 
HETATM    8  N1  UNL     1      24.525  11.006  39.760  1.00  0.00    -0.382 N 
ENDROOT
BRANCH   1   9
HETATM    9  C1  UNL     1      27.255  13.053  38.331  1.00  0.00     0.207 C 
HETATM   10  O1  UNL     1      27.264  12.995  37.041  1.00  0.00    -0.644 OA
HETATM   11  O2  UNL     1      27.904  14.131  38.819  1.00  0.00    -0.644 OA
ENDBRANCH   1   9
BRANCH   1  12
HETATM   12  C15 UNL     1      27.572  11.117  39.753  1.00  0.00     0.027 C 
HETATM   13  C16 UNL     1      28.430  11.495  40.857  1.00  0.00     0.010 C 
HETATM   14  C17 UNL     1      29.567  10.443  41.015  1.00  0.00     0.014 C 
HETATM   15  C18 UNL     1      30.572  10.742  39.954  1.00  0.00     0.093 C 
HETATM   16  C20 UNL     1      29.885  11.307  38.729  1.00  0.00     0.014 C 
HETATM   17  C21 UNL     1      28.503  10.617  38.600  1.00  0.00     0.010 C 
BRANCH  15  18
HETATM   18  C19 UNL     1      31.717  11.598  40.340  1.00  0.00     0.391 C 
HETATM   19  F1  UNL     1      31.744  12.784  39.591  1.00  0.00    -0.171 F 
HETATM   20  F2  UNL     1      31.617  11.994  41.679  1.00  0.00    -0.171 F 
HETATM   21  F3  UNL     1      32.918  10.948  40.230  1.00  0.00    -0.171 F 
ENDBRANCH  15  18
ENDBRANCH   1  12
BRANCH   8  22
HETATM   22  C9  UNL     1      24.587   9.759  39.010  1.00  0.00     0.153 C 
BRANCH  22  23
HETATM   23  C10 UNL     1      24.174  10.030  37.559  1.00  0.00     0.292 C 
BRANCH  23  24
HETATM   24  N2  UNL     1      24.593   8.921  36.719  1.00  0.00     0.094 N 
HETATM   25  C11 UNL     1      23.727   8.930  35.558  1.00  0.00     0.298 C 
HETATM   26  C12 UNL     1      23.004   7.622  35.485  1.00  0.00     0.198 C 
HETATM   27  O3  UNL     1      23.868   6.532  35.421  1.00  0.00    -0.388 OA
HETATM   28  C13 UNL     1      24.810   6.560  36.425  1.00  0.00     0.198 C 
HETATM   29  C14 UNL     1      24.521   7.658  37.427  1.00  0.00     0.298 C 
ENDBRANCH  23  24
ENDBRANCH  22  23
ENDBRANCH   8  22
TORSDOF 6
ENDMDL
MODEL 4
REMARK VINA RESULT: -6.863131591      4.264      7.090
REMARK  6 active torsions:
REMARK  status: ('A' for Active; 'I' for Inactive)
REMARK    1  A    between atoms: C1_2  and  C2_4 
REMARK    2  A    between atoms: C2_4  and  C15_20 
REMARK    3  A    between atoms: N1_11  and  C9_12 
REMARK    4  A    between atoms: C9_12  and  C10_13 
REMARK    5  A    between atoms: C10_13  and  N2_14 
REMARK    6  A    between atoms: C18_23  and  C19_24 
ROOT
HETATM    1  C2  UNL     1      24.941  10.220  38.813  1.00  0.00     0.045 C 
HETATM    2  C3  UNL     1      25.400  11.296  39.308  1.00  0.00     0.020 C 
HETATM    3  C4  UNL     1      25.042  11.762  40.715  1.00  0.00     0.057 C 
HETATM    4  C5  UNL     1      25.303  13.285  40.793  1.00  0.00     0.006 C 
HETATM    5  C6  UNL     1      24.521  13.991  39.732  1.00  0.00     0.002 C 
HETATM    6  C7  UNL     1      25.146  14.114  38.403  1.00  0.00     0.020 C 
HETATM    7  C8  UNL     1      26.441  13.400  38.157  1.00  0.00     0.123 C 
HETATM    8  N1  UNL     1      26.413  12.025  38.614  1.00  0.00    -0.382 N 
ENDROOT
BRANCH   1   9
HETATM    9  C1  UNL     1      24.056   9.394  39.714  1.00  0.00     0.207 C 
HETATM   10  O1  UNL     1      23.050   9.953  40.297  1.00  0.00    -0.644 OA
HETATM   11  O2  UNL     1      24.179   8.082  40.006  1.00  0.00    -0.644 OA
ENDBRANCH   1   9
BRANCH   1  12
HETATM   12  C15 UNL     1      24.893   9.650  37.454  1.00  0.00     0.027 C 
HETATM   13  C16 UNL     1      23.693   9.314  36.715  1.00  0.00     0.010 C 
HETATM   14  C17 UNL     1      24.073   8.450  35.475  1.00  0.00     0.014 C 
HETATM   15  C18 UNL     1      24.313   7.067  35.980  1.00  0.00     0.093 C 
HETATM   16  C20 UNL     1      24.875   7.115  37.385  1.00  0.00     0.014 C 
HETATM   17  C21 UNL     1      25.783   8.365  37.490  1.00  0.00     0.010 C 
BRANCH  15  18
HETATM   18  C19 UNL     1      23.172   6.124  35.915  1.00  0.00     0.391 C 
HETATM   19  F1  UNL     1      22.295   6.309  36.994  1.00  0.00    -0.171 F 
HETATM   20  F2  UNL     1      22.409   6.340  34.761  1.00  0.00    -0.171 F 
HETATM   21  F3  UNL     1      23.576   4.817  35.858  1.00  0.00    -0.171 F 
ENDBRANCH  15  18
ENDBRANCH   1  12
BRANCH   8  22
HETATM   22  C9  UNL     1      27.663  11.311  38.391  1.00  0.00     0.153 C 
BRANCH  22  23
HETATM   23  C10 UNL     1      28.820  12.317  38.399  1.00  0.00     0.292 C 
BRANCH  23  24
HETATM   24  N2  UNL     1      29.433  12.341  39.715  1.00  0.00     0.094 N 
HETATM   25  C11 UNL     1      30.828  12.673  39.516  1.00  0.00     0.298 C 
HETATM   26  C12 UNL     1      31.672  11.564  40.062  1.00  0.00     0.198 C 
HETATM   27  O3  UNL     1      31.433  11.319  41.411  1.00  0.00    -0.388 OA
HETATM   28  C13 UNL     1      30.093  11.144  41.675  1.00  0.00     0.198 C 
HETATM   29  C14 UNL     1      29.280  11.072  40.399  1.00  0.00     0.298 C 
ENDBRANCH  23  24
ENDBRANCH  22  23
ENDBRANCH   8  22
TORSDOF 6
ENDMDL
MODEL 5
REMARK VINA RESULT: -6.807218877      3.108      5.017
REMARK  6 active torsions:
REMARK  status: ('A' for Active; 'I' for Inactive)
REMARK    1  A    between atoms: C1_2  and  C2_4 
REMARK    2  A    between atoms: C2_4  and  C15_20 
REMARK    3  A    between atoms: N1_11  and  C9_12 
REMARK    4  A    between atoms: C9_12  and  C10_13 
REMARK    5  A    between atoms: C10_13  and  N2_14 
REMARK    6  A    between atoms: C18_23  and  C19_24 
ROOT
HETATM    1  C2  UNL     1      27.105  11.613  39.540  1.00  0.00     0.045 C 
HETATM    2  C3  UNL     1      28.135  10.982  39.930  1.00  0.00     0.020 C 
HETATM    3  C4  UNL     1      28.347  10.590  41.389  1.00  0.00     0.057 C 
HETATM    4  C5  UNL     1      29.860  10.346  41.602  1.00  0.00     0.006 C 
HETATM    5  C6  UNL     1      30.633  11.564  41.211  1.00  0.00     0.002 C 
HETATM    6  C7  UNL     1      31.017  11.694  39.794  1.00  0.00     0.020 C 
HETATM    7  C8  UNL     1      30.484  10.688  38.818  1.00  0.00     0.123 C 
HETATM    8  N1  UNL     1      29.060  10.464  38.973  1.00  0.00    -0.382 N 
ENDROOT
BRANCH   1   9
HETATM    9  C1  UNL     1      26.067  11.914  40.593  1.00  0.00     0.207 C 
HETATM   10  O1  UNL     1      25.114  11.069  40.802  1.00  0.00    -0.644 OA
HETATM   11  O2  UNL     1      25.998  13.001  41.390  1.00  0.00    -0.644 OA
ENDBRANCH   1   9
BRANCH   1  12
HETATM   12  C15 UNL     1      26.742  12.330  38.304  1.00  0.00     0.027 C 
HETATM   13  C16 UNL     1      27.629  13.152  37.506  1.00  0.00     0.010 C 
HETATM   14  C17 UNL     1      26.791  13.978  36.485  1.00  0.00     0.014 C 
HETATM   15  C18 UNL     1      26.198  15.117  37.245  1.00  0.00     0.093 C 
HETATM   16  C20 UNL     1      25.920  14.701  38.674  1.00  0.00     0.014 C 
HETATM   17  C21 UNL     1      25.500  13.209  38.660  1.00  0.00     0.010 C 
BRANCH  15  18
HETATM   18  C19 UNL     1      26.942  16.397  37.218  1.00  0.00     0.391 C 
HETATM   19  F1  UNL     1      27.280  16.819  38.513  1.00  0.00    -0.171 F 
HETATM   20  F2  UNL     1      28.156  16.258  36.534  1.00  0.00    -0.171 F 
HETATM   21  F3  UNL     1      26.256  17.388  36.568  1.00  0.00    -0.171 F 
ENDBRANCH  15  18
ENDBRANCH   1  12
BRANCH   8  22
HETATM   22  C9  UNL     1      28.519   9.487  38.038  1.00  0.00     0.153 C 
BRANCH  22  23
HETATM   23  C10 UNL     1      27.424   8.677  38.742  1.00  0.00     0.292 C 
BRANCH  23  24
HETATM   24  N2  UNL     1      26.383   8.335  37.789  1.00  0.00     0.094 N 
HETATM   25  C11 UNL     1      25.201   9.073  38.183  1.00  0.00     0.298 C 
HETATM   26  C12 UNL     1      24.098   8.102  38.468  1.00  0.00     0.198 C 
HETATM   27  O3  UNL     1      23.804   7.286  37.379  1.00  0.00    -0.388 OA
HETATM   28  C13 UNL     1      24.930   6.674  36.873  1.00  0.00     0.198 C 
HETATM   29  C14 UNL     1      26.135   6.907  37.761  1.00  0.00     0.298 C 
ENDBRANCH  23  24
ENDBRANCH  22  23
ENDBRANCH   8  22
TORSDOF 6
ENDMDL
