MODEL 1
REMARK VINA RESULT: -7.738344480      0.000      0.000
REMARK  6 active torsions:
REMARK  status: ('A' for Active; 'I' for Inactive)
REMARK    1  A    between atoms: C4_8  and  C5_9 
REMARK    2  A    between atoms: C5_9  and  C6_10 
REMARK    3  A    between atoms: N3_13  and  C9_14 
REMARK    4  A    between atoms: N4_17  and  C12_18 
REMARK    5  A    between atoms: C12_18  and  C13_19 
REMARK    6  A    between atoms: C12_18  and  C17_24 
ROOT
HETATM    1  C9  UNL     1      25.182   8.738  37.317  1.00  0.00     0.094 C 
HETATM    2  C10 UNL     1      26.029   8.047  38.365  1.00  0.00     0.070 C 
HETATM    3  C11 UNL     1      27.216   9.005  38.538  1.00  0.00     0.066 C 
HETATM    4  N4  UNL     1      26.906  10.339  38.701  1.00  0.00    -0.358 N 
HETATM    5  C18 UNL     1      25.640  10.873  38.381  1.00  0.00     0.130 C 
HETATM    6  C19 UNL     1      24.564   9.892  38.065  1.00  0.00     0.046 C 
ENDROOT
BRANCH   1   7
HETATM    7  N3  UNL     1      24.335   7.942  36.544  1.00  0.00    -0.369 N 
HETATM    8  C8  UNL     1      24.622   6.601  36.348  1.00  0.00     0.064 C 
HETATM    9  C7  UNL     1      23.954   5.951  35.158  1.00  0.00     0.050 C 
HETATM   10  C6  UNL     1      22.687   6.616  34.785  1.00  0.00     0.001 C 
HETATM   11  C21 UNL     1      23.100   8.051  34.399  1.00  0.00     0.050 C 
HETATM   12  C20 UNL     1      23.584   8.696  35.639  1.00  0.00     0.064 C 
BRANCH  10  13
HETATM   13  C5  UNL     1      21.900   5.973  33.715  1.00  0.00     0.064 C 
BRANCH  13  14
HETATM   14  C4  UNL     1      20.714   6.653  33.220  1.00  0.00     0.032 A 
HETATM   15  C2  UNL     1      19.573   7.024  33.873  1.00  0.00     0.029 A 
HETATM   16  C1  UNL     1      19.216   6.907  35.311  1.00  0.00     0.070 C 
HETATM   17  N1  UNL     1      18.710   7.606  32.986  1.00  0.00    -0.354 N 
HETATM   18  C3  UNL     1      19.304   7.602  31.790  1.00  0.00     0.180 A 
ATOM     19  H1  UNL     1      17.783   7.975  33.198  1.00  0.00     0.166 HD
HETATM   20  N2  UNL     1      20.501   7.036  31.921  1.00  0.00    -0.354 N 
ATOM     21  H2  UNL     1      21.167   6.904  31.161  1.00  0.00     0.166 HD
ENDBRANCH  13  14
ENDBRANCH  10  13
ENDBRANCH   1   7
BRANCH   4  22
HETATM   22  C12 UNL     1      27.720  11.162  39.505  1.00  0.00     0.124 C 
BRANCH  22  23
HETATM   23  C13 UNL     1      29.179  11.076  39.298  1.00  0.00     0.176 C 
HETATM   24  C14 UNL     1      29.881  12.385  39.413  1.00  0.00     0.040 C 
HETATM   25  C15 UNL     1      31.321  11.891  39.631  1.00  0.00     0.029 C 
HETATM   26  C16 UNL     1      31.055  10.699  40.503  1.00  0.00     0.168 C 
HETATM   27  O1  UNL     1      29.802  10.240  40.246  1.00  0.00    -0.380 OA
ENDBRANCH  22  23
BRANCH  22  28
HETATM   28  C17 UNL     1      27.282  11.268  40.946  1.00  0.00     0.431 C 
HETATM   29  F1  UNL     1      26.303  12.236  41.026  1.00  0.00    -0.165 F 
HETATM   30  F2  UNL     1      28.247  11.631  41.832  1.00  0.00    -0.165 F 
HETATM   31  F3  UNL     1      26.676  10.070  41.278  1.00  0.00    -0.165 F 
ENDBRANCH  22  28
ENDBRANCH   4  22
TORSDOF 6
ENDMDL
MODEL 2
REMARK VINA RESULT: -7.607156277      4.284      9.827
REMARK  6 active torsions:
REMARK  status: ('A' for Active; 'I' for Inactive)
REMARK    1  A    between atoms: C4_8  and  C5_9 
REMARK    2  A    between atoms: C5_9  and  C6_10 
REMARK    3  A    between atoms: N3_13  and  C9_14 
REMARK    4  A    between atoms: N4_17  and  C12_18 
REMARK    5  A    between atoms: C12_18  and  C13_19 
REMARK    6  A    between atoms: C12_18  and  C17_24 
ROOT
HETATM    1  C9  UNL     1      24.418   8.295  37.148  1.00  0.00     0.094 C 
HETATM    2  C10 UNL     1      25.055   6.991  36.714  1.00  0.00     0.070 C 
HETATM    3  C11 UNL     1      23.861   6.182  36.185  1.00  0.00     0.066 C 
HETATM    4  N4  UNL     1      23.017   6.838  35.313  1.00  0.00    -0.358 N 
HETATM    5  C18 UNL     1      23.005   8.242  35.173  1.00  0.00     0.130 C 
HETATM    6  C19 UNL     1      24.106   8.987  35.846  1.00  0.00     0.046 C 
ENDROOT
BRANCH   1   7
HETATM    7  N3  UNL     1      25.073   9.036  38.132  1.00  0.00    -0.369 N 
HETATM    8  C8  UNL     1      24.782  10.379  38.307  1.00  0.00     0.064 C 
HETATM    9  C7  UNL     1      25.831  11.192  39.031  1.00  0.00     0.050 C 
HETATM   10  C6  UNL     1      26.653  10.372  39.946  1.00  0.00     0.001 C 
HETATM   11  C21 UNL     1      27.361   9.356  39.027  1.00  0.00     0.050 C 
HETATM   12  C20 UNL     1      26.305   8.476  38.481  1.00  0.00     0.064 C 
BRANCH  10  13
HETATM   13  C5  UNL     1      27.617  11.101  40.792  1.00  0.00     0.064 C 
BRANCH  13  14
HETATM   14  C4  UNL     1      29.004  11.175  40.358  1.00  0.00     0.032 A 
HETATM   15  C2  UNL     1      29.584  11.938  39.386  1.00  0.00     0.029 A 
HETATM   16  C1  UNL     1      28.989  12.983  38.511  1.00  0.00     0.070 C 
HETATM   17  N1  UNL     1      30.917  11.641  39.308  1.00  0.00    -0.354 N 
HETATM   18  C3  UNL     1      31.170  10.702  40.225  1.00  0.00     0.180 A 
ATOM     19  H1  UNL     1      31.593  12.058  38.669  1.00  0.00     0.166 HD
HETATM   20  N2  UNL     1      30.033  10.419  40.855  1.00  0.00    -0.354 N 
ATOM     21  H2  UNL     1      29.940   9.734  41.604  1.00  0.00     0.166 HD
ENDBRANCH  13  14
ENDBRANCH  10  13
ENDBRANCH   1   7
BRANCH   4  22
HETATM   22  C12 UNL     1      22.369   6.125  34.285  1.00  0.00     0.124 C 
BRANCH  22  23
HETATM   23  C13 UNL     1      20.915   5.910  34.427  1.00  0.00     0.176 C 
HETATM   24  C14 UNL     1      20.447   5.885  35.841  1.00  0.00     0.040 C 
HETATM   25  C15 UNL     1      18.945   6.134  35.623  1.00  0.00     0.029 C 
HETATM   26  C16 UNL     1      19.008   7.124  34.497  1.00  0.00     0.168 C 
HETATM   27  O1  UNL     1      20.163   6.929  33.809  1.00  0.00    -0.380 OA
ENDBRANCH  22  23
BRANCH  22  28
HETATM   28  C17 UNL     1      23.143   4.943  33.751  1.00  0.00     0.431 C 
HETATM   29  F1  UNL     1      22.747   3.822  34.450  1.00  0.00    -0.165 F 
HETATM   30  F2  UNL     1      24.494   5.014  33.880  1.00  0.00    -0.165 F 
HETATM   31  F3  UNL     1      22.741   4.750  32.441  1.00  0.00    -0.165 F 
ENDBRANCH  22  28
ENDBRANCH   4  22
TORSDOF 6
ENDMDL
MODEL 3
REMARK VINA RESULT: -7.543115093      6.854      9.442
REMARK  6 active torsions:
REMARK  status: ('A' for Active; 'I' for Inactive)
REMARK    1  A    between atoms: C4_8  and  C5_9 
REMARK    2  A    between atoms: C5_9  and  C6_10 
REMARK    3  A    between atoms: N3_13  and  C9_14 
REMARK    4  A    between atoms: N4_17  and  C12_18 
REMARK    5  A    between atoms: C12_18  and  C13_19 
REMARK    6  A    between atoms: C12_18  and  C17_24 
ROOT
HETATM    1  C9  UNL     1      22.814  13.526  40.548  1.00  0.00     0.094 C 
HETATM    2  C10 UNL     1      23.320  12.801  41.778  1.00  0.00     0.070 C 
HETATM    3  C11 UNL     1      23.984  11.546  41.191  1.00  0.00     0.066 C 
HETATM    4  N4  UNL     1      24.844  11.748  40.132  1.00  0.00    -0.358 N 
HETATM    5  C18 UNL     1      24.865  12.944  39.384  1.00  0.00     0.130 C 
HETATM    6  C19 UNL     1      24.068  14.082  39.924  1.00  0.00     0.046 C 
ENDROOT
BRANCH   1   7
HETATM    7  N3  UNL     1      21.734  14.394  40.711  1.00  0.00    -0.369 N 
HETATM    8  C8  UNL     1      21.485  15.384  39.774  1.00  0.00     0.064 C 
HETATM    9  C7  UNL     1      20.630  16.539  40.245  1.00  0.00     0.050 C 
HETATM   10  C6  UNL     1      19.719  16.157  41.346  1.00  0.00     0.001 C 
HETATM   11  C21 UNL     1      20.655  15.732  42.495  1.00  0.00     0.050 C 
HETATM   12  C20 UNL     1      21.338  14.499  42.046  1.00  0.00     0.064 C 
BRANCH  10  13
HETATM   13  C5  UNL     1      18.756  17.185  41.784  1.00  0.00     0.064 C 
BRANCH  13  14
HETATM   14  C4  UNL     1      19.256  18.340  42.513  1.00  0.00     0.032 A 
HETATM   15  C2  UNL     1      19.669  19.559  42.058  1.00  0.00     0.029 A 
HETATM   16  C1  UNL     1      19.672  20.111  40.677  1.00  0.00     0.070 C 
HETATM   17  N1  UNL     1      20.095  20.319  43.113  1.00  0.00    -0.354 N 
HETATM   18  C3  UNL     1      19.949  19.584  44.218  1.00  0.00     0.180 A 
ATOM     19  H1  UNL     1      20.458  21.271  43.064  1.00  0.00     0.166 HD
HETATM   20  N2  UNL     1      19.449  18.402  43.869  1.00  0.00    -0.354 N 
ATOM     21  H2  UNL     1      19.238  17.645  44.519  1.00  0.00     0.166 HD
ENDBRANCH  13  14
ENDBRANCH  10  13
ENDBRANCH   1   7
BRANCH   4  22
HETATM   22  C12 UNL     1      25.965  10.912  39.961  1.00  0.00     0.124 C 
BRANCH  22  23
HETATM   23  C13 UNL     1      27.270  11.568  39.745  1.00  0.00     0.176 C 
HETATM   24  C14 UNL     1      28.337  11.100  40.673  1.00  0.00     0.040 C 
HETATM   25  C15 UNL     1      29.580  11.575  39.900  1.00  0.00     0.029 C 
HETATM   26  C16 UNL     1      29.134  11.291  38.496  1.00  0.00     0.168 C 
HETATM   27  O1  UNL     1      27.777  11.331  38.452  1.00  0.00    -0.380 OA
ENDBRANCH  22  23
BRANCH  22  28
HETATM   28  C17 UNL     1      25.714   9.688  39.111  1.00  0.00     0.431 C 
HETATM   29  F1  UNL     1      24.804   8.889  39.771  1.00  0.00    -0.165 F 
HETATM   30  F2  UNL     1      26.799   8.907  38.866  1.00  0.00    -0.165 F 
HETATM   31  F3  UNL     1      25.091  10.116  37.953  1.00  0.00    -0.165 F 
ENDBRANCH  22  28
ENDBRANCH   4  22
TORSDOF 6
ENDMDL
MODEL 4
REMARK VINA RESULT: -7.485653265      2.271      2.870
REMARK  6 active torsions:
REMARK  status: ('A' for Active; 'I' for Inactive)
REMARK    1  A    between atoms: C4_8  and  C5_9 
REMARK    2  A    between atoms: C5_9  and  C6_10 
REMARK    3  A    between atoms: N3_13  and  C9_14 
REMARK    4  A    between atoms: N4_17  and  C12_18 
REMARK    5  A    between atoms: C12_18  and  C13_19 
REMARK    6  A    between atoms: C12_18  and  C17_24 
ROOT
HETATM    1  C9  UNL     1      25.141   8.058  37.033  1.00  0.00     0.094 C 
HETATM    2  C10 UNL     1      25.928   7.490  38.196  1.00  0.00     0.070 C 
HETATM    3  C11 UNL     1      26.988   8.571  38.457  1.00  0.00     0.066 C 
HETATM    4  N4  UNL     1      26.531   9.870  38.529  1.00  0.00    -0.358 N 
HETATM    5  C18 UNL     1      25.263  10.260  38.050  1.00  0.00     0.130 C 
HETATM    6  C19 UNL     1      24.332   9.164  37.660  1.00  0.00     0.046 C 
ENDROOT
BRANCH   1   7
HETATM    7  N3  UNL     1      24.471   7.155  36.207  1.00  0.00    -0.369 N 
HETATM    8  C8  UNL     1      23.156   6.808  36.472  1.00  0.00     0.064 C 
HETATM    9  C7  UNL     1      22.676   5.517  35.847  1.00  0.00     0.050 C 
HETATM   10  C6  UNL     1      23.418   5.173  34.615  1.00  0.00     0.001 C 
HETATM   11  C21 UNL     1      24.876   4.987  35.080  1.00  0.00     0.050 C 
HETATM   12  C20 UNL     1      25.351   6.317  35.517  1.00  0.00     0.064 C 
BRANCH  10  13
HETATM   13  C5  UNL     1      22.933   3.997  33.867  1.00  0.00     0.064 C 
BRANCH  13  14
HETATM   14  C4  UNL     1      23.372   3.820  32.492  1.00  0.00     0.032 A 
HETATM   15  C2  UNL     1      22.710   4.043  31.319  1.00  0.00     0.029 A 
HETATM   16  C1  UNL     1      21.352   4.601  31.081  1.00  0.00     0.070 C 
HETATM   17  N1  UNL     1      23.514   3.696  30.268  1.00  0.00    -0.354 N 
HETATM   18  C3  UNL     1      24.670   3.262  30.778  1.00  0.00     0.180 A 
ATOM     19  H1  UNL     1      23.275   3.757  29.278  1.00  0.00     0.166 HD
HETATM   20  N2  UNL     1      24.593   3.333  32.104  1.00  0.00    -0.354 N 
ATOM     21  H2  UNL     1      25.339   3.063  32.744  1.00  0.00     0.166 HD
ENDBRANCH  13  14
ENDBRANCH  10  13
ENDBRANCH   1   7
BRANCH   4  22
HETATM   22  C12 UNL     1      27.163  10.797  39.381  1.00  0.00     0.124 C 
BRANCH  22  23
HETATM   23  C13 UNL     1      28.636  10.736  39.470  1.00  0.00     0.176 C 
HETATM   24  C14 UNL     1      29.300  12.065  39.354  1.00  0.00     0.040 C 
HETATM   25  C15 UNL     1      30.675  11.721  39.951  1.00  0.00     0.029 C 
HETATM   26  C16 UNL     1      30.255  10.789  41.048  1.00  0.00     0.168 C 
HETATM   27  O1  UNL     1      29.073  10.213  40.703  1.00  0.00    -0.380 OA
ENDBRANCH  22  23
BRANCH  22  28
HETATM   28  C17 UNL     1      26.451  11.037  40.691  1.00  0.00     0.431 C 
HETATM   29  F1  UNL     1      25.333  11.802  40.436  1.00  0.00    -0.165 F 
HETATM   30  F2  UNL     1      27.162  11.708  41.636  1.00  0.00    -0.165 F 
HETATM   31  F3  UNL     1      25.993   9.811  41.138  1.00  0.00    -0.165 F 
ENDBRANCH  22  28
ENDBRANCH   4  22
TORSDOF 6
ENDMDL
MODEL 5
REMARK VINA RESULT: -7.471315777      6.029      7.951
REMARK  6 active torsions:
REMARK  status: ('A' for Active; 'I' for Inactive)
REMARK    1  A    between atoms: C4_8  and  C5_9 
REMARK    2  A    between atoms: C5_9  and  C6_10 
REMARK    3  A    between atoms: N3_13  and  C9_14 
REMARK    4  A    between atoms: N4_17  and  C12_18 
REMARK    5  A    between atoms: C12_18  and  C13_19 
REMARK    6  A    between atoms: C12_18  and  C17_24 
ROOT
HETATM    1  C9  UNL     1      25.678  12.558  39.794  1.00  0.00     0.094 C 
HETATM    2  C10 UNL     1      26.331  12.734  38.439  1.00  0.00     0.070 C 
HETATM    3  C11 UNL     1      27.782  12.302  38.696  1.00  0.00     0.066 C 
HETATM    4  N4  UNL     1      27.955  11.113  39.373  1.00  0.00    -0.358 N 
HETATM    5  C18 UNL     1      26.920  10.494  40.105  1.00  0.00     0.130 C 
HETATM    6  C19 UNL     1      25.553  11.063  39.936  1.00  0.00     0.046 C 
ENDROOT
BRANCH   1   7
HETATM    7  N3  UNL     1      24.548  13.329  40.070  1.00  0.00    -0.369 N 
HETATM    8  C8  UNL     1      23.494  12.793  40.792  1.00  0.00     0.064 C 
HETATM    9  C7  UNL     1      22.165  13.497  40.640  1.00  0.00     0.050 C 
HETATM   10  C6  UNL     1      22.316  14.924  40.283  1.00  0.00     0.001 C 
HETATM   11  C21 UNL     1      23.029  14.910  38.916  1.00  0.00     0.050 C 
HETATM   12  C20 UNL     1      24.386  14.373  39.156  1.00  0.00     0.064 C 
BRANCH  10  13
HETATM   13  C5  UNL     1      21.076  15.723  40.240  1.00  0.00     0.064 C 
BRANCH  13  14
HETATM   14  C4  UNL     1      20.547  16.252  41.487  1.00  0.00     0.032 A 
HETATM   15  C2  UNL     1      20.070  17.496  41.784  1.00  0.00     0.029 A 
HETATM   16  C1  UNL     1      19.880  18.681  40.906  1.00  0.00     0.070 C 
HETATM   17  N1  UNL     1      19.714  17.544  43.104  1.00  0.00    -0.354 N 
HETATM   18  C3  UNL     1      19.963  16.341  43.628  1.00  0.00     0.180 A 
ATOM     19  H1  UNL     1      19.329  18.350  43.598  1.00  0.00     0.166 HD
HETATM   20  N2  UNL     1      20.460  15.565  42.669  1.00  0.00    -0.354 N 
ATOM     21  H2  UNL     1      20.739  14.592  42.796  1.00  0.00     0.166 HD
ENDBRANCH  13  14
ENDBRANCH  10  13
ENDBRANCH   1   7
BRANCH   4  22
HETATM   22  C12 UNL     1      29.066  10.293  39.092  1.00  0.00     0.124 C 
BRANCH  22  23
HETATM   23  C13 UNL     1      30.269  10.477  39.928  1.00  0.00     0.176 C 
HETATM   24  C14 UNL     1      30.868  11.838  39.825  1.00  0.00     0.040 C 
HETATM   25  C15 UNL     1      31.725  11.841  41.103  1.00  0.00     0.029 C 
HETATM   26  C16 UNL     1      30.805  11.106  42.033  1.00  0.00     0.168 C 
HETATM   27  O1  UNL     1      29.997  10.297  41.298  1.00  0.00    -0.380 OA
ENDBRANCH  22  23
BRANCH  22  28
HETATM   28  C17 UNL     1      29.334  10.076  37.621  1.00  0.00     0.431 C 
HETATM   29  F1  UNL     1      30.621   9.600  37.487  1.00  0.00    -0.165 F 
HETATM   30  F2  UNL     1      29.254  11.182  36.836  1.00  0.00    -0.165 F 
HETATM   31  F3  UNL     1      28.496   9.059  37.199  1.00  0.00    -0.165 F 
ENDBRANCH  22  28
ENDBRANCH   4  22
TORSDOF 6
ENDMDL
