MODEL 1
REMARK VINA RESULT: -4.480634580      0.000      0.000
REMARK  5 active torsions:
REMARK  status: ('A' for Active; 'I' for Inactive)
REMARK    1  A    between atoms: N1_1  and  C1_5 
REMARK    2  A    between atoms: C1_5  and  C2_6 
REMARK    3  A    between atoms: C2_6  and  C3_7 
REMARK    4  A    between atoms: C5_12  and  C6_13 
REMARK    5  A    between atoms: C6_13  and  N3_14 
ROOT
HETATM    1  C3  UNL     1      95.832 -20.627  53.143  1.00  0.00     0.194 C 
HETATM    2  N2  UNL     1      95.050 -21.705  52.546  1.00  0.00    -0.070 N 
ATOM      3  H21 UNL     1      94.477 -21.538  51.718  1.00  0.00     0.277 HD
ATOM      4  H22 UNL     1      94.227 -22.076  53.019  1.00  0.00     0.277 HD
HETATM    5  C4  UNL     1      96.262 -22.476  52.461  1.00  0.00     0.241 C 
HETATM    6  C5  UNL     1      97.012 -21.518  53.366  1.00  0.00     0.067 C 
ENDROOT
BRANCH   1   7
HETATM    7  C2  UNL     1      95.132 -20.165  54.401  1.00  0.00     0.060 C 
BRANCH   7   8
HETATM    8  C1  UNL     1      95.369 -18.705  54.690  1.00  0.00     0.231 C 
BRANCH   8   9
HETATM    9  N1  UNL     1      95.738 -18.075  53.434  1.00  0.00    -0.079 N 
ATOM     10  H13 UNL     1      96.551 -17.465  53.515  1.00  0.00     0.274 HD
ATOM     11  H12 UNL     1      96.132 -18.730  52.758  1.00  0.00     0.274 HD
ATOM     12  H11 UNL     1      94.909 -17.592  53.086  1.00  0.00     0.274 HD
ENDBRANCH   8   9
ENDBRANCH   7   8
ENDBRANCH   1   7
BRANCH   6  13
HETATM   13  C6  UNL     1      98.298 -21.094  52.716  1.00  0.00     0.237 C 
BRANCH  13  14
HETATM   14  N3  UNL     1      99.001 -20.122  53.534  1.00  0.00    -0.079 N 
ATOM     15  H33 UNL     1      98.615 -19.185  53.418  1.00  0.00     0.274 HD
ATOM     16  H32 UNL     1      98.800 -20.251  54.526  1.00  0.00     0.274 HD
ATOM     17  H31 UNL     1     100.003 -20.143  53.348  1.00  0.00     0.274 HD
ENDBRANCH  13  14
ENDBRANCH   6  13
TORSDOF 5
ENDMDL
MODEL 2
REMARK VINA RESULT: -4.427343320      1.540      3.528
REMARK  5 active torsions:
REMARK  status: ('A' for Active; 'I' for Inactive)
REMARK    1  A    between atoms: N1_1  and  C1_5 
REMARK    2  A    between atoms: C1_5  and  C2_6 
REMARK    3  A    between atoms: C2_6  and  C3_7 
REMARK    4  A    between atoms: C5_12  and  C6_13 
REMARK    5  A    between atoms: C6_13  and  N3_14 
ROOT
HETATM    1  C3  UNL     1      96.254 -19.403  53.127  1.00  0.00     0.194 C 
HETATM    2  N2  UNL     1      95.703 -18.203  53.746  1.00  0.00    -0.070 N 
ATOM      3  H21 UNL     1      95.061 -17.598  53.233  1.00  0.00     0.277 HD
ATOM      4  H22 UNL     1      96.293 -17.393  53.931  1.00  0.00     0.277 HD
HETATM    5  C4  UNL     1      95.231 -19.032  54.825  1.00  0.00     0.241 C 
HETATM    6  C5  UNL     1      96.069 -20.211  54.371  1.00  0.00     0.067 C 
ENDROOT
BRANCH   1   7
HETATM    7  C2  UNL     1      97.692 -19.132  52.748  1.00  0.00     0.060 C 
BRANCH   7   8
HETATM    8  C1  UNL     1      98.654 -20.088  53.407  1.00  0.00     0.231 C 
BRANCH   8   9
HETATM    9  N1  UNL     1      99.017 -21.082  52.411  1.00  0.00    -0.079 N 
ATOM     10  H13 UNL     1      98.977 -20.725  51.457  1.00  0.00     0.274 HD
ATOM     11  H12 UNL     1     100.010 -21.316  52.423  1.00  0.00     0.274 HD
ATOM     12  H11 UNL     1      98.414 -21.891  52.562  1.00  0.00     0.274 HD
ENDBRANCH   8   9
ENDBRANCH   7   8
ENDBRANCH   1   7
BRANCH   6  13
HETATM   13  C6  UNL     1      95.211 -21.438  54.247  1.00  0.00     0.237 C 
BRANCH  13  14
HETATM   14  N3  UNL     1      95.968 -22.638  54.552  1.00  0.00    -0.079 N 
ATOM     15  H33 UNL     1      96.689 -22.815  53.852  1.00  0.00     0.274 HD
ATOM     16  H32 UNL     1      96.570 -22.507  55.365  1.00  0.00     0.274 HD
ATOM     17  H31 UNL     1      95.350 -23.442  54.667  1.00  0.00     0.274 HD
ENDBRANCH  13  14
ENDBRANCH   6  13
TORSDOF 5
ENDMDL
MODEL 3
REMARK VINA RESULT: -4.425703050      1.385      3.555
REMARK  5 active torsions:
REMARK  status: ('A' for Active; 'I' for Inactive)
REMARK    1  A    between atoms: N1_1  and  C1_5 
REMARK    2  A    between atoms: C1_5  and  C2_6 
REMARK    3  A    between atoms: C2_6  and  C3_7 
REMARK    4  A    between atoms: C5_12  and  C6_13 
REMARK    5  A    between atoms: C6_13  and  N3_14 
ROOT
HETATM    1  C3  UNL     1      96.760 -20.984  52.475  1.00  0.00     0.194 C 
HETATM    2  N2  UNL     1      98.213 -21.032  52.357  1.00  0.00    -0.070 N 
ATOM      3  H21 UNL     1      98.663 -21.029  51.441  1.00  0.00     0.277 HD
ATOM      4  H22 UNL     1      98.727 -21.882  52.587  1.00  0.00     0.277 HD
HETATM    5  C4  UNL     1      98.276 -19.878  53.214  1.00  0.00     0.241 C 
HETATM    6  C5  UNL     1      96.818 -20.012  53.609  1.00  0.00     0.067 C 
ENDROOT
BRANCH   1   7
HETATM    7  C2  UNL     1      96.260 -22.363  52.840  1.00  0.00     0.060 C 
BRANCH   7   8
HETATM    8  C1  UNL     1      95.613 -23.070  51.676  1.00  0.00     0.231 C 
BRANCH   8   9
HETATM    9  N1  UNL     1      94.847 -22.074  50.945  1.00  0.00    -0.079 N 
ATOM     10  H13 UNL     1      94.011 -21.768  51.442  1.00  0.00     0.274 HD
ATOM     11  H12 UNL     1      95.311 -21.167  50.898  1.00  0.00     0.274 HD
ATOM     12  H11 UNL     1      94.644 -22.468  50.025  1.00  0.00     0.274 HD
ENDBRANCH   8   9
ENDBRANCH   7   8
ENDBRANCH   1   7
BRANCH   6  13
HETATM   13  C6  UNL     1      96.105 -18.705  53.404  1.00  0.00     0.237 C 
BRANCH  13  14
HETATM   14  N3  UNL     1      95.415 -18.291  54.612  1.00  0.00    -0.079 N 
ATOM     15  H33 UNL     1      94.953 -19.078  55.068  1.00  0.00     0.274 HD
ATOM     16  H32 UNL     1      96.070 -18.045  55.353  1.00  0.00     0.274 HD
ATOM     17  H31 UNL     1      94.762 -17.531  54.419  1.00  0.00     0.274 HD
ENDBRANCH  13  14
ENDBRANCH   6  13
TORSDOF 5
ENDMDL
MODEL 4
REMARK VINA RESULT: -4.410812946      1.452      3.433
REMARK  5 active torsions:
REMARK  status: ('A' for Active; 'I' for Inactive)
REMARK    1  A    between atoms: N1_1  and  C1_5 
REMARK    2  A    between atoms: C1_5  and  C2_6 
REMARK    3  A    between atoms: C2_6  and  C3_7 
REMARK    4  A    between atoms: C5_12  and  C6_13 
REMARK    5  A    between atoms: C6_13  and  N3_14 
ROOT
HETATM    1  C3  UNL     1      96.814 -20.938  52.366  1.00  0.00     0.194 C 
HETATM    2  N2  UNL     1      98.271 -21.016  52.346  1.00  0.00    -0.070 N 
ATOM      3  H21 UNL     1      98.785 -20.967  51.466  1.00  0.00     0.277 HD
ATOM      4  H22 UNL     1      98.750 -21.891  52.557  1.00  0.00     0.277 HD
HETATM    5  C4  UNL     1      98.297 -19.919  53.278  1.00  0.00     0.241 C 
HETATM    6  C5  UNL     1      96.813 -20.040  53.562  1.00  0.00     0.067 C 
ENDROOT
BRANCH   1   7
HETATM    7  C2  UNL     1      96.261 -22.324  52.605  1.00  0.00     0.060 C 
BRANCH   7   8
HETATM    8  C1  UNL     1      95.709 -22.493  53.998  1.00  0.00     0.231 C 
BRANCH   8   9
HETATM    9  N1  UNL     1      94.430 -23.171  53.871  1.00  0.00    -0.079 N 
ATOM     10  H13 UNL     1      93.633 -22.537  53.938  1.00  0.00     0.274 HD
ATOM     11  H12 UNL     1      94.248 -23.510  52.926  1.00  0.00     0.274 HD
ATOM     12  H11 UNL     1      94.412 -23.912  54.572  1.00  0.00     0.274 HD
ENDBRANCH   8   9
ENDBRANCH   7   8
ENDBRANCH   1   7
BRANCH   6  13
HETATM   13  C6  UNL     1      96.144 -18.706  53.391  1.00  0.00     0.237 C 
BRANCH  13  14
HETATM   14  N3  UNL     1      95.431 -18.321  54.596  1.00  0.00    -0.079 N 
ATOM     15  H33 UNL     1      96.040 -17.831  55.252  1.00  0.00     0.274 HD
ATOM     16  H32 UNL     1      94.763 -17.573  54.415  1.00  0.00     0.274 HD
ATOM     17  H31 UNL     1      94.983 -19.129  55.030  1.00  0.00     0.274 HD
ENDBRANCH  13  14
ENDBRANCH   6  13
TORSDOF 5
ENDMDL
MODEL 5
REMARK VINA RESULT: -4.314986936      1.150      3.287
REMARK  5 active torsions:
REMARK  status: ('A' for Active; 'I' for Inactive)
REMARK    1  A    between atoms: N1_1  and  C1_5 
REMARK    2  A    between atoms: C1_5  and  C2_6 
REMARK    3  A    between atoms: C2_6  and  C3_7 
REMARK    4  A    between atoms: C5_12  and  C6_13 
REMARK    5  A    between atoms: C6_13  and  N3_14 
ROOT
HETATM    1  C3  UNL     1      96.740 -21.388  53.919  1.00  0.00     0.194 C 
HETATM    2  N2  UNL     1      96.102 -22.671  54.194  1.00  0.00    -0.070 N 
ATOM      3  H21 UNL     1      96.536 -23.346  54.824  1.00  0.00     0.277 HD
ATOM      4  H22 UNL     1      96.055 -23.394  53.478  1.00  0.00     0.277 HD
HETATM    5  C4  UNL     1      94.922 -21.947  54.589  1.00  0.00     0.241 C 
HETATM    6  C5  UNL     1      95.443 -20.649  54.004  1.00  0.00     0.067 C 
ENDROOT
BRANCH   1   7
HETATM    7  C2  UNL     1      97.356 -21.443  52.540  1.00  0.00     0.060 C 
BRANCH   7   8
HETATM    8  C1  UNL     1      98.818 -21.072  52.545  1.00  0.00     0.231 C 
BRANCH   8   9
HETATM    9  N1  UNL     1      98.999 -20.063  53.574  1.00  0.00    -0.079 N 
ATOM     10  H13 UNL     1      98.153 -19.887  54.116  1.00  0.00     0.274 HD
ATOM     11  H12 UNL     1      99.585 -20.380  54.346  1.00  0.00     0.274 HD
ATOM     12  H11 UNL     1      99.360 -19.227  53.114  1.00  0.00     0.274 HD
ENDBRANCH   8   9
ENDBRANCH   7   8
ENDBRANCH   1   7
BRANCH   6  13
HETATM   13  C6  UNL     1      95.366 -19.553  55.029  1.00  0.00     0.237 C 
BRANCH  13  14
HETATM   14  N3  UNL     1      95.404 -18.246  54.399  1.00  0.00    -0.079 N 
ATOM     15  H33 UNL     1      94.790 -17.583  54.872  1.00  0.00     0.274 HD
ATOM     16  H32 UNL     1      96.295 -17.776  54.561  1.00  0.00     0.274 HD
ATOM     17  H31 UNL     1      95.191 -18.313  53.403  1.00  0.00     0.274 HD
ENDBRANCH  13  14
ENDBRANCH   6  13
TORSDOF 5
ENDMDL
