MODEL 1
REMARK VINA RESULT: -7.113050122      0.000      0.000
REMARK  13 active torsions:
REMARK  status: ('A' for Active; 'I' for Inactive)
REMARK    1  A    between atoms: N1_2  and  S1_4 
REMARK    2  A    between atoms: S1_4  and  N2_5 
REMARK    3  A    between atoms: S1_4  and  C2_9 
REMARK    4  A    between atoms: C6_13  and  N3_14 
REMARK    5  A    between atoms: N3_14  and  C7_16 
REMARK    6  A    between atoms: C11_23  and  N5_24 
REMARK    7  A    between atoms: N5_24  and  C12_26 
REMARK    8  A    between atoms: C12_26  and  C13_27 
REMARK    9  A    between atoms: C13_27  and  C14_28 
REMARK   10  A    between atoms: C14_28  and  C15_29 
REMARK   11  A    between atoms: C15_29  and  C16_30 
REMARK   12  A    between atoms: C16_30  and  C17_31 
REMARK   13  A    between atoms: C17_31  and  N6_32 
ROOT
HETATM    1  C7  UNL     1       4.559  36.801  23.698  1.00  0.00     0.684 A 
HETATM    2  N4  UNL     1       4.586  38.038  23.173  1.00  0.00    -0.194 N 
ATOM      3  H4  UNL     1       3.745  38.397  22.722  1.00  0.00     0.184 HD
HETATM    4  C8  UNL     1       5.668  38.814  23.218  1.00  0.00     0.043 A 
HETATM    5  C9  UNL     1       5.606  40.173  22.610  1.00  0.00     0.070 C 
HETATM    6  C10 UNL     1       6.819  38.356  23.819  1.00  0.00     0.077 A 
HETATM    7 BR1  UNL     1       8.376  39.411  23.910  1.00  0.00    -0.045 Br
HETATM    8  C11 UNL     1       6.820  37.071  24.374  1.00  0.00     0.136 A 
HETATM    9  N7  UNL     1       5.697  36.359  24.287  1.00  0.00    -0.175 N 
ATOM     10  H7  UNL     1       5.693  35.422  24.689  1.00  0.00     0.186 HD
ENDROOT
BRANCH   1  11
HETATM   11  N3  UNL     1       3.500  36.053  23.649  1.00  0.00    -0.192 N 
ATOM     12  H3  UNL     1       3.453  35.230  23.049  1.00  0.00     0.184 HD
BRANCH  11  13
HETATM   13  C6  UNL     1       2.408  36.440  24.474  1.00  0.00     0.050 A 
HETATM   14  C5  UNL     1       1.144  36.664  23.967  1.00  0.00     0.030 A 
HETATM   15  C4  UNL     1       0.089  37.039  24.771  1.00  0.00     0.004 A 
HETATM   16  C3  UNL     1       0.313  37.197  26.146  1.00  0.00     0.024 A 
HETATM   17  C2  UNL     1       1.559  36.982  26.691  1.00  0.00     0.060 A 
HETATM   18  C18 UNL     1       2.585  36.609  25.853  1.00  0.00     0.053 A 
BRANCH  17  19
HETATM   19  S1  UNL     1       1.794  37.189  28.410  1.00  0.00     0.132 S 
HETATM   20  O1  UNL     1       1.399  35.867  29.055  1.00  0.00    -0.224 OA
BRANCH  19  21
HETATM   21  N1  UNL     1       0.828  38.254  28.988  1.00  0.00    -0.337 N 
HETATM   22  C1  UNL     1      -0.227  37.764  29.856  1.00  0.00     0.158 C 
ATOM     23  H1  UNL     1       0.928  39.246  28.769  1.00  0.00     0.170 HD
ENDBRANCH  19  21
BRANCH  19  24
HETATM   24  N2  UNL     1       3.428  37.489  28.810  1.00  0.00    -0.341 N 
ATOM     25  H22 UNL     1       3.705  38.107  29.573  1.00  0.00     0.167 HD
ATOM     26  H21 UNL     1       4.081  36.988  28.209  1.00  0.00     0.167 HD
ENDBRANCH  19  24
ENDBRANCH  17  19
ENDBRANCH  11  13
ENDBRANCH   1  11
BRANCH   8  27
HETATM   27  N5  UNL     1       7.904  36.658  24.933  1.00  0.00    -0.375 N 
ATOM     28  H5  UNL     1       8.710  36.544  24.318  1.00  0.00     0.161 HD
BRANCH  27  29
HETATM   29  C12 UNL     1       8.112  36.343  26.301  1.00  0.00     0.121 C 
BRANCH  29  30
HETATM   30  C13 UNL     1       9.546  35.884  26.468  1.00  0.00     0.020 C 
BRANCH  30  31
HETATM   31  C14 UNL     1       9.637  34.378  26.556  1.00  0.00     0.002 C 
BRANCH  31  32
HETATM   32  C15 UNL     1      10.343  34.022  27.831  1.00  0.00     0.002 C 
BRANCH  32  33
HETATM   33  C16 UNL     1       9.613  34.442  29.063  1.00  0.00     0.027 C 
BRANCH  33  34
HETATM   34  C17 UNL     1       9.664  33.390  30.156  1.00  0.00     0.229 C 
BRANCH  34  35
HETATM   35  N6  UNL     1      10.528  32.294  29.761  1.00  0.00    -0.079 N 
ATOM     36  H63 UNL     1      10.278  31.925  28.842  1.00  0.00     0.274 HD
ATOM     37  H62 UNL     1      11.472  32.613  29.544  1.00  0.00     0.274 HD
ATOM     38  H61 UNL     1      10.527  31.567  30.475  1.00  0.00     0.274 HD
ENDBRANCH  34  35
ENDBRANCH  33  34
ENDBRANCH  32  33
ENDBRANCH  31  32
ENDBRANCH  30  31
ENDBRANCH  29  30
ENDBRANCH  27  29
ENDBRANCH   8  27
TORSDOF 13
ENDMDL
MODEL 2
REMARK VINA RESULT: -7.061492896      0.883      1.103
REMARK  13 active torsions:
REMARK  status: ('A' for Active; 'I' for Inactive)
REMARK    1  A    between atoms: N1_2  and  S1_4 
REMARK    2  A    between atoms: S1_4  and  N2_5 
REMARK    3  A    between atoms: S1_4  and  C2_9 
REMARK    4  A    between atoms: C6_13  and  N3_14 
REMARK    5  A    between atoms: N3_14  and  C7_16 
REMARK    6  A    between atoms: C11_23  and  N5_24 
REMARK    7  A    between atoms: N5_24  and  C12_26 
REMARK    8  A    between atoms: C12_26  and  C13_27 
REMARK    9  A    between atoms: C13_27  and  C14_28 
REMARK   10  A    between atoms: C14_28  and  C15_29 
REMARK   11  A    between atoms: C15_29  and  C16_30 
REMARK   12  A    between atoms: C16_30  and  C17_31 
REMARK   13  A    between atoms: C17_31  and  N6_32 
ROOT
HETATM    1  C7  UNL     1       4.506  36.825  23.799  1.00  0.00     0.684 A 
HETATM    2  N4  UNL     1       4.580  38.042  23.233  1.00  0.00    -0.194 N 
ATOM      3  H4  UNL     1       3.747  38.427  22.788  1.00  0.00     0.184 HD
HETATM    4  C8  UNL     1       5.699  38.766  23.230  1.00  0.00     0.043 A 
HETATM    5  C9  UNL     1       5.688  40.106  22.579  1.00  0.00     0.070 C 
HETATM    6  C10 UNL     1       6.840  38.272  23.822  1.00  0.00     0.077 A 
HETATM    7 BR1  UNL     1       8.446  39.253  23.846  1.00  0.00    -0.045 Br
HETATM    8  C11 UNL     1       6.792  37.007  24.419  1.00  0.00     0.136 A 
HETATM    9  N7  UNL     1       5.634  36.347  24.379  1.00  0.00    -0.175 N 
ATOM     10  H7  UNL     1       5.595  35.425  24.812  1.00  0.00     0.186 HD
ENDROOT
BRANCH   1  11
HETATM   11  N3  UNL     1       3.411  36.128  23.797  1.00  0.00    -0.192 N 
ATOM     12  H3  UNL     1       3.301  35.306  23.204  1.00  0.00     0.184 HD
BRANCH  11  13
HETATM   13  C6  UNL     1       2.373  36.569  24.663  1.00  0.00     0.050 A 
HETATM   14  C5  UNL     1       1.076  36.747  24.228  1.00  0.00     0.030 A 
HETATM   15  C4  UNL     1       0.073  37.175  25.072  1.00  0.00     0.004 A 
HETATM   16  C3  UNL     1       0.387  37.436  26.412  1.00  0.00     0.024 A 
HETATM   17  C2  UNL     1       1.670  37.269  26.887  1.00  0.00     0.060 A 
HETATM   18  C18 UNL     1       2.641  36.841  26.010  1.00  0.00     0.053 A 
BRANCH  17  19
HETATM   19  S1  UNL     1       2.017  37.606  28.565  1.00  0.00     0.132 S 
HETATM   20  O1  UNL     1       3.219  38.542  28.570  1.00  0.00    -0.224 OA
BRANCH  19  21
HETATM   21  N1  UNL     1       2.465  36.328  29.317  1.00  0.00    -0.337 N 
HETATM   22  C1  UNL     1       1.746  36.012  30.538  1.00  0.00     0.158 C 
ATOM     23  H1  UNL     1       3.225  35.740  28.973  1.00  0.00     0.170 HD
ENDBRANCH  19  21
BRANCH  19  24
HETATM   24  N2  UNL     1       0.730  38.418  29.344  1.00  0.00    -0.341 N 
ATOM     25  H22 UNL     1      -0.202  38.014  29.436  1.00  0.00     0.167 HD
ATOM     26  H21 UNL     1       0.999  39.335  29.700  1.00  0.00     0.167 HD
ENDBRANCH  19  24
ENDBRANCH  17  19
ENDBRANCH  11  13
ENDBRANCH   1  11
BRANCH   8  27
HETATM   27  N5  UNL     1       7.867  36.560  24.968  1.00  0.00    -0.375 N 
ATOM     28  H5  UNL     1       8.628  36.320  24.334  1.00  0.00     0.161 HD
BRANCH  27  29
HETATM   29  C12 UNL     1       8.120  36.362  26.351  1.00  0.00     0.121 C 
BRANCH  29  30
HETATM   30  C13 UNL     1       9.558  35.913  26.510  1.00  0.00     0.020 C 
BRANCH  30  31
HETATM   31  C14 UNL     1       9.667  34.406  26.532  1.00  0.00     0.002 C 
BRANCH  31  32
HETATM   32  C15 UNL     1      10.352  34.002  27.804  1.00  0.00     0.002 C 
BRANCH  32  33
HETATM   33  C16 UNL     1       9.629  34.422  29.039  1.00  0.00     0.027 C 
BRANCH  33  34
HETATM   34  C17 UNL     1       9.676  33.366  30.128  1.00  0.00     0.229 C 
BRANCH  34  35
HETATM   35  N6  UNL     1      10.533  32.267  29.727  1.00  0.00    -0.079 N 
ATOM     36  H63 UNL     1      10.101  31.361  29.910  1.00  0.00     0.274 HD
ATOM     37  H62 UNL     1      10.611  32.195  28.713  1.00  0.00     0.274 HD
ATOM     38  H61 UNL     1      11.447  32.349  30.173  1.00  0.00     0.274 HD
ENDBRANCH  34  35
ENDBRANCH  33  34
ENDBRANCH  32  33
ENDBRANCH  31  32
ENDBRANCH  30  31
ENDBRANCH  29  30
ENDBRANCH  27  29
ENDBRANCH   8  27
TORSDOF 13
ENDMDL
MODEL 3
REMARK VINA RESULT: -7.034639423      0.992      1.245
REMARK  13 active torsions:
REMARK  status: ('A' for Active; 'I' for Inactive)
REMARK    1  A    between atoms: N1_2  and  S1_4 
REMARK    2  A    between atoms: S1_4  and  N2_5 
REMARK    3  A    between atoms: S1_4  and  C2_9 
REMARK    4  A    between atoms: C6_13  and  N3_14 
REMARK    5  A    between atoms: N3_14  and  C7_16 
REMARK    6  A    between atoms: C11_23  and  N5_24 
REMARK    7  A    between atoms: N5_24  and  C12_26 
REMARK    8  A    between atoms: C12_26  and  C13_27 
REMARK    9  A    between atoms: C13_27  and  C14_28 
REMARK   10  A    between atoms: C14_28  and  C15_29 
REMARK   11  A    between atoms: C15_29  and  C16_30 
REMARK   12  A    between atoms: C16_30  and  C17_31 
REMARK   13  A    between atoms: C17_31  and  N6_32 
ROOT
HETATM    1  C7  UNL     1       4.502  36.868  23.708  1.00  0.00     0.684 A 
HETATM    2  N4  UNL     1       4.587  38.113  23.209  1.00  0.00    -0.194 N 
ATOM      3  H4  UNL     1       3.760  38.523  22.774  1.00  0.00     0.184 HD
HETATM    4  C8  UNL     1       5.706  38.833  23.260  1.00  0.00     0.043 A 
HETATM    5  C9  UNL     1       5.706  40.206  22.681  1.00  0.00     0.070 C 
HETATM    6  C10 UNL     1       6.838  38.306  23.840  1.00  0.00     0.077 A 
HETATM    7 BR1  UNL     1       8.446  39.281  23.938  1.00  0.00    -0.045 Br
HETATM    8  C11 UNL     1       6.780  37.011  24.368  1.00  0.00     0.136 A 
HETATM    9  N7  UNL     1       5.622  36.357  24.277  1.00  0.00    -0.175 N 
ATOM     10  H7  UNL     1       5.575  35.413  24.660  1.00  0.00     0.186 HD
ENDROOT
BRANCH   1  11
HETATM   11  N3  UNL     1       3.407  36.175  23.654  1.00  0.00    -0.192 N 
ATOM     12  H3  UNL     1       3.293  35.403  22.997  1.00  0.00     0.184 HD
BRANCH  11  13
HETATM   13  C6  UNL     1       2.372  36.546  24.558  1.00  0.00     0.050 A 
HETATM   14  C5  UNL     1       1.069  36.735  24.148  1.00  0.00     0.030 A 
HETATM   15  C4  UNL     1       0.070  37.094  25.027  1.00  0.00     0.004 A 
HETATM   16  C3  UNL     1       0.395  37.272  26.379  1.00  0.00     0.024 A 
HETATM   17  C2  UNL     1       1.685  37.091  26.829  1.00  0.00     0.060 A 
HETATM   18  C18 UNL     1       2.651  36.733  25.917  1.00  0.00     0.053 A 
BRANCH  17  19
HETATM   19  S1  UNL     1       2.046  37.323  28.522  1.00  0.00     0.132 S 
HETATM   20  O1  UNL     1       1.372  38.628  28.925  1.00  0.00    -0.224 OA
BRANCH  19  21
HETATM   21  N1  UNL     1       3.563  37.534  28.752  1.00  0.00    -0.337 N 
HETATM   22  C1  UNL     1       4.029  38.909  28.756  1.00  0.00     0.158 C 
ATOM     23  H1  UNL     1       4.200  36.750  28.894  1.00  0.00     0.170 HD
ENDBRANCH  19  21
BRANCH  19  24
HETATM   24  N2  UNL     1       1.393  36.083  29.500  1.00  0.00    -0.341 N 
ATOM     25  H22 UNL     1       1.690  35.926  30.463  1.00  0.00     0.167 HD
ATOM     26  H21 UNL     1       0.684  35.530  29.018  1.00  0.00     0.167 HD
ENDBRANCH  19  24
ENDBRANCH  17  19
ENDBRANCH  11  13
ENDBRANCH   1  11
BRANCH   8  27
HETATM   27  N5  UNL     1       7.847  36.533  24.907  1.00  0.00    -0.375 N 
ATOM     28  H5  UNL     1       8.567  36.206  24.264  1.00  0.00     0.161 HD
BRANCH  27  29
HETATM   29  C12 UNL     1       8.141  36.408  26.290  1.00  0.00     0.121 C 
BRANCH  29  30
HETATM   30  C13 UNL     1       9.568  35.916  26.428  1.00  0.00     0.020 C 
BRANCH  30  31
HETATM   31  C14 UNL     1       9.624  34.411  26.545  1.00  0.00     0.002 C 
BRANCH  31  32
HETATM   32  C15 UNL     1      10.351  34.063  27.810  1.00  0.00     0.002 C 
BRANCH  32  33
HETATM   33  C16 UNL     1       9.613  34.436  29.052  1.00  0.00     0.027 C 
BRANCH  33  34
HETATM   34  C17 UNL     1       9.687  33.358  30.118  1.00  0.00     0.229 C 
BRANCH  34  35
HETATM   35  N6  UNL     1      10.548  32.276  29.682  1.00  0.00    -0.079 N 
ATOM     36  H63 UNL     1      10.717  32.306  28.676  1.00  0.00     0.274 HD
ATOM     37  H62 UNL     1      11.509  32.402  29.999  1.00  0.00     0.274 HD
ATOM     38  H61 UNL     1      10.167  31.378  29.976  1.00  0.00     0.274 HD
ENDBRANCH  34  35
ENDBRANCH  33  34
ENDBRANCH  32  33
ENDBRANCH  31  32
ENDBRANCH  30  31
ENDBRANCH  29  30
ENDBRANCH  27  29
ENDBRANCH   8  27
TORSDOF 13
ENDMDL
MODEL 4
REMARK VINA RESULT: -6.951606131      3.936      7.362
REMARK  13 active torsions:
REMARK  status: ('A' for Active; 'I' for Inactive)
REMARK    1  A    between atoms: N1_2  and  S1_4 
REMARK    2  A    between atoms: S1_4  and  N2_5 
REMARK    3  A    between atoms: S1_4  and  C2_9 
REMARK    4  A    between atoms: C6_13  and  N3_14 
REMARK    5  A    between atoms: N3_14  and  C7_16 
REMARK    6  A    between atoms: C11_23  and  N5_24 
REMARK    7  A    between atoms: N5_24  and  C12_26 
REMARK    8  A    between atoms: C12_26  and  C13_27 
REMARK    9  A    between atoms: C13_27  and  C14_28 
REMARK   10  A    between atoms: C14_28  and  C15_29 
REMARK   11  A    between atoms: C15_29  and  C16_30 
REMARK   12  A    between atoms: C16_30  and  C17_31 
REMARK   13  A    between atoms: C17_31  and  N6_32 
ROOT
HETATM    1  C7  UNL     1       7.720  37.744  24.177  1.00  0.00     0.684 A 
HETATM    2  N4  UNL     1       8.852  38.412  23.894  1.00  0.00    -0.194 N 
ATOM      3  H4  UNL     1       9.746  37.942  24.040  1.00  0.00     0.184 HD
HETATM    4  C8  UNL     1       8.853  39.661  23.432  1.00  0.00     0.043 A 
HETATM    5  C9  UNL     1      10.157  40.322  23.145  1.00  0.00     0.070 C 
HETATM    6  C10 UNL     1       7.661  40.320  23.226  1.00  0.00     0.077 A 
HETATM    7 BR1  UNL     1       7.606  42.085  22.575  1.00  0.00    -0.045 Br
HETATM    8  C11 UNL     1       6.466  39.649  23.513  1.00  0.00     0.136 A 
HETATM    9  N7  UNL     1       6.552  38.401  23.972  1.00  0.00    -0.175 N 
ATOM     10  H7  UNL     1       5.684  37.909  24.183  1.00  0.00     0.186 HD
ENDROOT
BRANCH   1  11
HETATM   11  N3  UNL     1       7.730  36.527  24.627  1.00  0.00    -0.192 N 
ATOM     12  H3  UNL     1       7.469  35.736  24.038  1.00  0.00     0.184 HD
BRANCH  11  13
HETATM   13  C6  UNL     1       8.123  36.352  25.983  1.00  0.00     0.050 A 
HETATM   14  C5  UNL     1       7.843  37.287  26.958  1.00  0.00     0.030 A 
HETATM   15  C4  UNL     1       8.226  37.113  28.271  1.00  0.00     0.004 A 
HETATM   16  C3  UNL     1       8.922  35.948  28.620  1.00  0.00     0.024 A 
HETATM   17  C2  UNL     1       9.221  34.989  27.676  1.00  0.00     0.060 A 
HETATM   18  C18 UNL     1       8.820  35.203  26.377  1.00  0.00     0.053 A 
BRANCH  17  19
HETATM   19  S1  UNL     1      10.090  33.552  28.155  1.00  0.00     0.132 S 
HETATM   20  O1  UNL     1      11.490  33.688  27.570  1.00  0.00    -0.224 OA
BRANCH  19  21
HETATM   21  N1  UNL     1       9.479  32.281  27.512  1.00  0.00    -0.337 N 
HETATM   22  C1  UNL     1       9.973  31.008  28.004  1.00  0.00     0.158 C 
ATOM     23  H1  UNL     1       8.768  32.336  26.782  1.00  0.00     0.170 HD
ENDBRANCH  19  21
BRANCH  19  24
HETATM   24  N2  UNL     1      10.251  33.425  29.851  1.00  0.00    -0.341 N 
ATOM     25  H22 UNL     1      11.147  33.526  30.330  1.00  0.00     0.167 HD
ATOM     26  H21 UNL     1       9.365  33.241  30.320  1.00  0.00     0.167 HD
ENDBRANCH  19  24
ENDBRANCH  17  19
ENDBRANCH  11  13
ENDBRANCH   1  11
BRANCH   8  27
HETATM   27  N5  UNL     1       5.361  40.280  23.315  1.00  0.00    -0.375 N 
ATOM     28  H5  UNL     1       5.141  41.019  23.982  1.00  0.00     0.161 HD
BRANCH  27  29
HETATM   29  C12 UNL     1       4.414  40.069  22.280  1.00  0.00     0.121 C 
BRANCH  29  30
HETATM   30  C13 UNL     1       3.247  39.293  22.856  1.00  0.00     0.020 C 
BRANCH  30  31
HETATM   31  C14 UNL     1       3.283  37.844  22.428  1.00  0.00     0.002 C 
BRANCH  31  32
HETATM   32  C15 UNL     1       3.253  36.988  23.660  1.00  0.00     0.002 C 
BRANCH  32  33
HETATM   33  C16 UNL     1       3.933  35.670  23.497  1.00  0.00     0.027 C 
BRANCH  33  34
HETATM   34  C17 UNL     1       3.050  34.640  22.816  1.00  0.00     0.229 C 
BRANCH  34  35
HETATM   35  N6  UNL     1       3.516  33.300  23.115  1.00  0.00    -0.079 N 
ATOM     36  H63 UNL     1       3.135  32.611  22.467  1.00  0.00     0.274 HD
ATOM     37  H62 UNL     1       4.505  33.182  22.894  1.00  0.00     0.274 HD
ATOM     38  H61 UNL     1       3.313  33.062  24.085  1.00  0.00     0.274 HD
ENDBRANCH  34  35
ENDBRANCH  33  34
ENDBRANCH  32  33
ENDBRANCH  31  32
ENDBRANCH  30  31
ENDBRANCH  29  30
ENDBRANCH  27  29
ENDBRANCH   8  27
TORSDOF 13
ENDMDL
MODEL 5
REMARK VINA RESULT: -6.905358230      4.017      8.466
REMARK  13 active torsions:
REMARK  status: ('A' for Active; 'I' for Inactive)
REMARK    1  A    between atoms: N1_2  and  S1_4 
REMARK    2  A    between atoms: S1_4  and  N2_5 
REMARK    3  A    between atoms: S1_4  and  C2_9 
REMARK    4  A    between atoms: C6_13  and  N3_14 
REMARK    5  A    between atoms: N3_14  and  C7_16 
REMARK    6  A    between atoms: C11_23  and  N5_24 
REMARK    7  A    between atoms: N5_24  and  C12_26 
REMARK    8  A    between atoms: C12_26  and  C13_27 
REMARK    9  A    between atoms: C13_27  and  C14_28 
REMARK   10  A    between atoms: C14_28  and  C15_29 
REMARK   11  A    between atoms: C15_29  and  C16_30 
REMARK   12  A    between atoms: C16_30  and  C17_31 
REMARK   13  A    between atoms: C17_31  and  N6_32 
ROOT
HETATM    1  C7  UNL     1       6.827  37.144  24.327  1.00  0.00     0.684 A 
HETATM    2  N4  UNL     1       5.829  36.245  24.282  1.00  0.00    -0.194 N 
ATOM      3  H4  UNL     1       6.033  35.274  24.521  1.00  0.00     0.184 HD
HETATM    4  C8  UNL     1       4.584  36.570  23.938  1.00  0.00     0.043 A 
HETATM    5  C9  UNL     1       3.541  35.507  23.916  1.00  0.00     0.070 C 
HETATM    6  C10 UNL     1       4.279  37.872  23.609  1.00  0.00     0.077 A 
HETATM    7 BR1  UNL     1       2.536  38.386  23.116  1.00  0.00    -0.045 Br
HETATM    8  C11 UNL     1       5.299  38.830  23.647  1.00  0.00     0.136 A 
HETATM    9  N7  UNL     1       6.517  38.422  24.002  1.00  0.00    -0.175 N 
ATOM     10  H7  UNL     1       7.264  39.117  24.030  1.00  0.00     0.186 HD
ENDROOT
BRANCH   1  11
HETATM   11  N3  UNL     1       8.037  36.816  24.664  1.00  0.00    -0.192 N 
ATOM     12  H3  UNL     1       8.795  36.794  23.982  1.00  0.00     0.184 HD
BRANCH  11  13
HETATM   13  C6  UNL     1       8.251  36.490  26.032  1.00  0.00     0.050 A 
HETATM   14  C5  UNL     1       7.784  37.283  27.060  1.00  0.00     0.030 A 
HETATM   15  C4  UNL     1       7.995  36.963  28.385  1.00  0.00     0.004 A 
HETATM   16  C3  UNL     1       8.706  35.795  28.690  1.00  0.00     0.024 A 
HETATM   17  C2  UNL     1       9.188  34.976  27.692  1.00  0.00     0.060 A 
HETATM   18  C18 UNL     1       8.956  35.333  26.384  1.00  0.00     0.053 A 
BRANCH  17  19
HETATM   19  S1  UNL     1      10.070  33.529  28.118  1.00  0.00     0.132 S 
HETATM   20  O1  UNL     1      11.464  33.692  27.527  1.00  0.00    -0.224 OA
BRANCH  19  21
HETATM   21  N1  UNL     1       9.460  32.276  27.440  1.00  0.00    -0.337 N 
HETATM   22  C1  UNL     1       9.945  30.990  27.907  1.00  0.00     0.158 C 
ATOM     23  H1  UNL     1       8.757  32.350  26.704  1.00  0.00     0.170 HD
ENDBRANCH  19  21
BRANCH  19  24
HETATM   24  N2  UNL     1      10.245  33.349  29.808  1.00  0.00    -0.341 N 
ATOM     25  H22 UNL     1      10.272  32.438  30.266  1.00  0.00     0.167 HD
ATOM     26  H21 UNL     1      10.319  34.241  30.295  1.00  0.00     0.167 HD
ENDBRANCH  19  24
ENDBRANCH  17  19
ENDBRANCH  11  13
ENDBRANCH   1  11
BRANCH   8  27
HETATM   27  N5  UNL     1       4.996  40.043  23.337  1.00  0.00    -0.375 N 
ATOM     28  H5  UNL     1       4.273  40.484  23.905  1.00  0.00     0.161 HD
BRANCH  27  29
HETATM   29  C12 UNL     1       5.549  40.838  22.300  1.00  0.00     0.121 C 
BRANCH  29  30
HETATM   30  C13 UNL     1       4.489  41.030  21.234  1.00  0.00     0.020 C 
BRANCH  30  31
HETATM   31  C14 UNL     1       5.057  40.830  19.848  1.00  0.00     0.002 C 
BRANCH  31  32
HETATM   32  C15 UNL     1       6.496  41.255  19.864  1.00  0.00     0.002 C 
BRANCH  32  33
HETATM   33  C16 UNL     1       7.355  40.511  18.897  1.00  0.00     0.027 C 
BRANCH  33  34
HETATM   34  C17 UNL     1       7.498  41.234  17.570  1.00  0.00     0.229 C 
BRANCH  34  35
HETATM   35  N6  UNL     1       6.473  40.794  16.643  1.00  0.00    -0.079 N 
ATOM     36  H63 UNL     1       6.509  41.310  15.764  1.00  0.00     0.274 HD
ATOM     37  H62 UNL     1       6.665  39.861  16.278  1.00  0.00     0.274 HD
ATOM     38  H61 UNL     1       5.553  40.849  17.079  1.00  0.00     0.274 HD
ENDBRANCH  34  35
ENDBRANCH  33  34
ENDBRANCH  32  33
ENDBRANCH  31  32
ENDBRANCH  30  31
ENDBRANCH  29  30
ENDBRANCH  27  29
ENDBRANCH   8  27
TORSDOF 13
ENDMDL
