MODEL 1
REMARK VINA RESULT: -8.579697026      0.000      0.000
REMARK  9 active torsions:
REMARK  status: ('A' for Active; 'I' for Inactive)
REMARK    1  A    between atoms: C1_2  and  C2_4 
REMARK    2  A    between atoms: C2_4  and  C3_5 
REMARK    3  A    between atoms: C2_4  and  N3_13 
REMARK    4  A    between atoms: C3_5  and  C4_6 
REMARK    5  A    between atoms: N3_13  and  S1_15 
REMARK    6  A    between atoms: S1_15  and  C7_18 
REMARK    7  A    between atoms: C11_22  and  C12_23 
REMARK    8  A    between atoms: C12_23  and  O5_24 
REMARK    9  A    between atoms: C12_23  and  C13_26 
ROOT
HETATM    1  S1  UNL     1       7.221  37.076  25.203  1.00  0.00     0.259 S 
HETATM    2  O3  UNL     1       7.805  37.273  23.839  1.00  0.00    -0.201 OA
HETATM    3  O4  UNL     1       7.516  38.334  25.995  1.00  0.00    -0.201 OA
ENDROOT
BRANCH   1   4
HETATM    4  N3  UNL     1       7.930  35.767  26.048  1.00  0.00    -0.300 N 
ATOM      5  H3  UNL     1       7.510  34.838  26.071  1.00  0.00     0.173 HD
BRANCH   4   6
HETATM    6  C2  UNL     1       9.147  36.072  26.716  1.00  0.00     0.199 C 
BRANCH   6   7
HETATM    7  C1  UNL     1       8.989  36.417  28.137  1.00  0.00     0.197 C 
HETATM    8  O1  UNL     1       9.893  37.073  28.712  1.00  0.00    -0.646 OA
HETATM    9  O2  UNL     1       7.889  36.055  28.891  1.00  0.00    -0.646 OA
ENDBRANCH   6   7
BRANCH   6  10
HETATM   10  C3  UNL     1      10.142  34.940  26.556  1.00  0.00     0.095 C 
BRANCH  10  11
HETATM   11  C4  UNL     1      10.053  33.907  27.591  1.00  0.00     0.028 A 
HETATM   12  C5  UNL     1       9.798  32.578  27.388  1.00  0.00     0.114 A 
HETATM   13  N1  UNL     1       9.792  31.940  28.562  1.00  0.00    -0.360 N 
HETATM   14  C6  UNL     1      10.045  32.892  29.482  1.00  0.00     0.180 A 
ATOM     15  H1  UNL     1       9.630  30.946  28.727  1.00  0.00     0.166 HD
HETATM   16  N2  UNL     1      10.204  34.076  28.905  1.00  0.00    -0.354 N 
ATOM     17  H2  UNL     1      10.405  34.956  29.380  1.00  0.00     0.166 HD
ENDBRANCH  10  11
ENDBRANCH   6  10
ENDBRANCH   4   6
ENDBRANCH   1   4
BRANCH   1  18
HETATM   18  C7  UNL     1       5.499  36.959  25.046  1.00  0.00     0.080 A 
HETATM   19  C8  UNL     1       4.716  36.841  26.169  1.00  0.00     0.025 A 
HETATM   20  C9  UNL     1       3.326  36.745  26.085  1.00  0.00     0.002 A 
HETATM   21  C10 UNL     1       2.709  36.769  24.852  1.00  0.00     0.010 A 
HETATM   22  C11 UNL     1       3.495  36.888  23.726  1.00  0.00    -0.024 A 
HETATM   23  C19 UNL     1       4.884  36.982  23.814  1.00  0.00     0.035 A 
BRANCH  22  24
HETATM   24  C12 UNL     1       2.845  36.913  22.409  1.00  0.00     0.184 C 
BRANCH  24  25
HETATM   25  O5  UNL     1       1.544  36.406  22.519  1.00  0.00    -0.386 OA
ATOM     26  H5  UNL     1       1.170  36.304  21.652  1.00  0.00     0.210 HD
ENDBRANCH  24  25
BRANCH  24  27
HETATM   27  C13 UNL     1       2.720  38.282  21.853  1.00  0.00    -0.024 A 
HETATM   28  C14 UNL     1       1.695  39.078  22.311  1.00  0.00     0.010 A 
HETATM   29  C15 UNL     1       1.518  40.378  21.830  1.00  0.00     0.002 A 
HETATM   30  C16 UNL     1       2.383  40.879  20.881  1.00  0.00     0.019 A 
HETATM   31  C17 UNL     1       3.424  40.086  20.410  1.00  0.00     0.011 A 
HETATM   32 BR1  UNL     1       4.603  40.804  19.102  1.00  0.00    -0.051 Br
HETATM   33  C18 UNL     1       3.576  38.800  20.905  1.00  0.00     0.029 A 
ENDBRANCH  24  27
ENDBRANCH  22  24
ENDBRANCH   1  18
TORSDOF 9
ENDMDL
MODEL 2
REMARK VINA RESULT: -8.451673138      1.053      1.374
REMARK  9 active torsions:
REMARK  status: ('A' for Active; 'I' for Inactive)
REMARK    1  A    between atoms: C1_2  and  C2_4 
REMARK    2  A    between atoms: C2_4  and  C3_5 
REMARK    3  A    between atoms: C2_4  and  N3_13 
REMARK    4  A    between atoms: C3_5  and  C4_6 
REMARK    5  A    between atoms: N3_13  and  S1_15 
REMARK    6  A    between atoms: S1_15  and  C7_18 
REMARK    7  A    between atoms: C11_22  and  C12_23 
REMARK    8  A    between atoms: C12_23  and  O5_24 
REMARK    9  A    between atoms: C12_23  and  C13_26 
ROOT
HETATM    1  S1  UNL     1       7.109  37.175  25.080  1.00  0.00     0.259 S 
HETATM    2  O3  UNL     1       7.740  37.379  23.739  1.00  0.00    -0.201 OA
HETATM    3  O4  UNL     1       7.352  38.441  25.878  1.00  0.00    -0.201 OA
ENDROOT
BRANCH   1   4
HETATM    4  N3  UNL     1       7.809  35.882  25.956  1.00  0.00    -0.300 N 
ATOM      5  H3  UNL     1       7.377  34.960  26.011  1.00  0.00     0.173 HD
BRANCH   4   6
HETATM    6  C2  UNL     1       9.038  36.189  26.602  1.00  0.00     0.199 C 
BRANCH   6   7
HETATM    7  C1  UNL     1       8.907  36.514  28.031  1.00  0.00     0.197 C 
HETATM    8  O1  UNL     1       9.831  37.146  28.602  1.00  0.00    -0.646 OA
HETATM    9  O2  UNL     1       7.813  36.158  28.796  1.00  0.00    -0.646 OA
ENDBRANCH   6   7
BRANCH   6  10
HETATM   10  C3  UNL     1      10.039  35.069  26.406  1.00  0.00     0.095 C 
BRANCH  10  11
HETATM   11  C4  UNL     1      10.001  34.037  27.445  1.00  0.00     0.028 A 
HETATM   12  C5  UNL     1       9.774  32.702  27.251  1.00  0.00     0.114 A 
HETATM   13  N1  UNL     1       9.814  32.067  28.426  1.00  0.00    -0.360 N 
HETATM   14  C6  UNL     1      10.066  33.027  29.338  1.00  0.00     0.180 A 
ATOM     15  H1  UNL     1       9.681  31.069  28.597  1.00  0.00     0.166 HD
HETATM   16  N2  UNL     1      10.181  34.213  28.754  1.00  0.00    -0.354 N 
ATOM     17  H2  UNL     1      10.372  35.099  29.223  1.00  0.00     0.166 HD
ENDBRANCH  10  11
ENDBRANCH   6  10
ENDBRANCH   4   6
ENDBRANCH   1   4
BRANCH   1  18
HETATM   18  C7  UNL     1       5.397  37.027  24.859  1.00  0.00     0.080 A 
HETATM   19  C8  UNL     1       4.581  36.828  25.948  1.00  0.00     0.025 A 
HETATM   20  C9  UNL     1       3.197  36.705  25.811  1.00  0.00     0.002 A 
HETATM   21  C10 UNL     1       2.620  36.782  24.561  1.00  0.00     0.010 A 
HETATM   22  C11 UNL     1       3.439  36.981  23.471  1.00  0.00    -0.024 A 
HETATM   23  C19 UNL     1       4.821  37.103  23.610  1.00  0.00     0.035 A 
BRANCH  22  24
HETATM   24  C12 UNL     1       2.832  37.064  22.136  1.00  0.00     0.184 C 
BRANCH  24  25
HETATM   25  O5  UNL     1       1.552  36.496  22.168  1.00  0.00    -0.386 OA
ATOM     26  H5  UNL     1       1.536  35.719  21.621  1.00  0.00     0.210 HD
ENDBRANCH  24  25
BRANCH  24  27
HETATM   27  C13 UNL     1       2.664  38.459  21.663  1.00  0.00    -0.024 A 
HETATM   28  C14 UNL     1       3.514  38.920  20.685  1.00  0.00     0.010 A 
HETATM   29  C15 UNL     1       3.412  40.225  20.194  1.00  0.00     0.002 A 
HETATM   30  C16 UNL     1       2.444  41.069  20.693  1.00  0.00     0.019 A 
HETATM   31  C17 UNL     1       1.577  40.615  21.682  1.00  0.00     0.011 A 
HETATM   32 BR1  UNL     1       0.250  41.802  22.352  1.00  0.00    -0.051 Br
HETATM   33  C18 UNL     1       1.701  39.317  22.151  1.00  0.00     0.029 A 
ENDBRANCH  24  27
ENDBRANCH  22  24
ENDBRANCH   1  18
TORSDOF 9
ENDMDL
MODEL 3
REMARK VINA RESULT: -8.327519766      3.163      4.619
REMARK  9 active torsions:
REMARK  status: ('A' for Active; 'I' for Inactive)
REMARK    1  A    between atoms: C1_2  and  C2_4 
REMARK    2  A    between atoms: C2_4  and  C3_5 
REMARK    3  A    between atoms: C2_4  and  N3_13 
REMARK    4  A    between atoms: C3_5  and  C4_6 
REMARK    5  A    between atoms: N3_13  and  S1_15 
REMARK    6  A    between atoms: S1_15  and  C7_18 
REMARK    7  A    between atoms: C11_22  and  C12_23 
REMARK    8  A    between atoms: C12_23  and  O5_24 
REMARK    9  A    between atoms: C12_23  and  C13_26 
ROOT
HETATM    1  S1  UNL     1       7.018  37.103  25.168  1.00  0.00     0.259 S 
HETATM    2  O3  UNL     1       7.709  37.342  23.863  1.00  0.00    -0.201 OA
HETATM    3  O4  UNL     1       7.183  38.365  25.992  1.00  0.00    -0.201 OA
ENDROOT
BRANCH   1   4
HETATM    4  N3  UNL     1       7.712  35.820  26.063  1.00  0.00    -0.300 N 
ATOM      5  H3  UNL     1       7.262  34.909  26.154  1.00  0.00     0.173 HD
BRANCH   4   6
HETATM    6  C2  UNL     1       8.962  36.118  26.671  1.00  0.00     0.199 C 
BRANCH   6   7
HETATM    7  C1  UNL     1       8.879  36.432  28.106  1.00  0.00     0.197 C 
HETATM    8  O1  UNL     1       7.841  36.120  28.743  1.00  0.00    -0.646 OA
HETATM    9  O2  UNL     1       9.889  37.062  28.808  1.00  0.00    -0.646 OA
ENDBRANCH   6   7
BRANCH   6  10
HETATM   10  C3  UNL     1       9.952  34.996  26.435  1.00  0.00     0.095 C 
BRANCH  10  11
HETATM   11  C4  UNL     1       9.955  33.964  27.473  1.00  0.00     0.028 A 
HETATM   12  C5  UNL     1       9.760  32.623  27.281  1.00  0.00     0.114 A 
HETATM   13  N1  UNL     1       9.831  31.989  28.455  1.00  0.00    -0.360 N 
HETATM   14  C6  UNL     1      10.070  32.954  29.364  1.00  0.00     0.180 A 
ATOM     15  H1  UNL     1       9.726  30.988  28.627  1.00  0.00     0.166 HD
HETATM   16  N2  UNL     1      10.146  34.143  28.780  1.00  0.00    -0.354 N 
ATOM     17  H2  UNL     1      10.319  35.034  29.247  1.00  0.00     0.166 HD
ENDBRANCH  10  11
ENDBRANCH   6  10
ENDBRANCH   4   6
ENDBRANCH   1   4
BRANCH   1  18
HETATM   18  C7  UNL     1       5.324  36.908  24.860  1.00  0.00     0.080 A 
HETATM   19  C8  UNL     1       4.904  36.082  23.844  1.00  0.00     0.025 A 
HETATM   20  C9  UNL     1       3.548  35.898  23.565  1.00  0.00     0.002 A 
HETATM   21  C10 UNL     1       2.597  36.553  24.318  1.00  0.00     0.010 A 
HETATM   22  C11 UNL     1       3.020  37.381  25.336  1.00  0.00    -0.024 A 
HETATM   23  C19 UNL     1       4.374  37.563  25.612  1.00  0.00     0.035 A 
BRANCH  22  24
HETATM   24  C12 UNL     1       2.011  38.082  26.142  1.00  0.00     0.184 C 
BRANCH  24  25
HETATM   25  O5  UNL     1       0.733  37.791  25.649  1.00  0.00    -0.386 OA
ATOM     26  H5  UNL     1       0.306  37.167  26.224  1.00  0.00     0.210 HD
ENDBRANCH  24  25
BRANCH  24  27
HETATM   27  C13 UNL     1       2.020  37.668  27.565  1.00  0.00    -0.024 A 
HETATM   28  C14 UNL     1       1.544  36.416  27.881  1.00  0.00     0.010 A 
HETATM   29  C15 UNL     1       1.522  35.962  29.203  1.00  0.00     0.002 A 
HETATM   30  C16 UNL     1       1.986  36.778  30.213  1.00  0.00     0.019 A 
HETATM   31  C17 UNL     1       2.471  38.046  29.908  1.00  0.00     0.011 A 
HETATM   32 BR1  UNL     1       3.106  39.148  31.322  1.00  0.00    -0.051 Br
HETATM   33  C18 UNL     1       2.480  38.470  28.588  1.00  0.00     0.029 A 
ENDBRANCH  24  27
ENDBRANCH  22  24
ENDBRANCH   1  18
TORSDOF 9
ENDMDL
MODEL 4
REMARK VINA RESULT: -8.169122544      3.049      4.274
REMARK  9 active torsions:
REMARK  status: ('A' for Active; 'I' for Inactive)
REMARK    1  A    between atoms: C1_2  and  C2_4 
REMARK    2  A    between atoms: C2_4  and  C3_5 
REMARK    3  A    between atoms: C2_4  and  N3_13 
REMARK    4  A    between atoms: C3_5  and  C4_6 
REMARK    5  A    between atoms: N3_13  and  S1_15 
REMARK    6  A    between atoms: S1_15  and  C7_18 
REMARK    7  A    between atoms: C11_22  and  C12_23 
REMARK    8  A    between atoms: C12_23  and  O5_24 
REMARK    9  A    between atoms: C12_23  and  C13_26 
ROOT
HETATM    1  S1  UNL     1       7.334  37.167  24.979  1.00  0.00     0.259 S 
HETATM    2  O3  UNL     1       7.780  37.534  23.599  1.00  0.00    -0.201 OA
HETATM    3  O4  UNL     1       7.656  38.347  25.875  1.00  0.00    -0.201 OA
ENDROOT
BRANCH   1   4
HETATM    4  N3  UNL     1       8.167  35.811  25.610  1.00  0.00    -0.300 N 
ATOM      5  H3  UNL     1       7.892  34.852  25.396  1.00  0.00     0.173 HD
BRANCH   4   6
HETATM    6  C2  UNL     1       9.268  36.120  26.453  1.00  0.00     0.199 C 
BRANCH   6   7
HETATM    7  C1  UNL     1       8.899  36.436  27.841  1.00  0.00     0.197 C 
HETATM    8  O1  UNL     1       9.697  37.095  28.554  1.00  0.00    -0.646 OA
HETATM    9  O2  UNL     1       7.706  36.044  28.420  1.00  0.00    -0.646 OA
ENDBRANCH   6   7
BRANCH   6  10
HETATM   10  C3  UNL     1      10.294  35.006  26.422  1.00  0.00     0.095 C 
BRANCH  10  11
HETATM   11  C4  UNL     1      10.127  34.002  27.475  1.00  0.00     0.028 A 
HETATM   12  C5  UNL     1       9.817  32.681  27.291  1.00  0.00     0.114 A 
HETATM   13  N1  UNL     1       9.747  32.070  28.478  1.00  0.00    -0.360 N 
HETATM   14  C6  UNL     1      10.016  33.029  29.385  1.00  0.00     0.180 A 
ATOM     15  H1  UNL     1       9.535  31.088  28.658  1.00  0.00     0.166 HD
HETATM   16  N2  UNL     1      10.246  34.192  28.789  1.00  0.00    -0.354 N 
ATOM     17  H2  UNL     1      10.473  35.072  29.252  1.00  0.00     0.166 HD
ENDBRANCH  10  11
ENDBRANCH   6  10
ENDBRANCH   4   6
ENDBRANCH   1   4
BRANCH   1  18
HETATM   18  C7  UNL     1       5.611  36.988  24.965  1.00  0.00     0.080 A 
HETATM   19  C8  UNL     1       4.917  37.131  23.787  1.00  0.00     0.025 A 
HETATM   20  C9  UNL     1       3.529  36.994  23.734  1.00  0.00     0.002 A 
HETATM   21  C10 UNL     1       2.823  36.706  24.882  1.00  0.00     0.010 A 
HETATM   22  C11 UNL     1       3.519  36.562  26.063  1.00  0.00    -0.024 A 
HETATM   23  C19 UNL     1       4.906  36.701  26.113  1.00  0.00     0.035 A 
BRANCH  22  24
HETATM   24  C12 UNL     1       2.773  36.257  27.291  1.00  0.00     0.184 C 
BRANCH  24  25
HETATM   25  O5  UNL     1       3.657  36.205  28.376  1.00  0.00    -0.386 OA
ATOM     26  H5  UNL     1       3.195  35.900  29.147  1.00  0.00     0.210 HD
ENDBRANCH  24  25
BRANCH  24  27
HETATM   27  C13 UNL     1       1.757  37.285  27.621  1.00  0.00    -0.024 A 
HETATM   28  C14 UNL     1       2.196  38.546  27.958  1.00  0.00     0.010 A 
HETATM   29  C15 UNL     1       1.293  39.563  28.281  1.00  0.00     0.002 A 
HETATM   30  C16 UNL     1      -0.061  39.306  28.262  1.00  0.00     0.019 A 
HETATM   31  C17 UNL     1      -0.518  38.036  27.923  1.00  0.00     0.011 A 
HETATM   32 BR1  UNL     1      -2.392  37.712  27.905  1.00  0.00    -0.051 Br
HETATM   33  C18 UNL     1       0.400  37.047  27.608  1.00  0.00     0.029 A 
ENDBRANCH  24  27
ENDBRANCH  22  24
ENDBRANCH   1  18
TORSDOF 9
ENDMDL
MODEL 5
REMARK VINA RESULT: -8.112768529      3.901      4.597
REMARK  9 active torsions:
REMARK  status: ('A' for Active; 'I' for Inactive)
REMARK    1  A    between atoms: C1_2  and  C2_4 
REMARK    2  A    between atoms: C2_4  and  C3_5 
REMARK    3  A    between atoms: C2_4  and  N3_13 
REMARK    4  A    between atoms: C3_5  and  C4_6 
REMARK    5  A    between atoms: N3_13  and  S1_15 
REMARK    6  A    between atoms: S1_15  and  C7_18 
REMARK    7  A    between atoms: C11_22  and  C12_23 
REMARK    8  A    between atoms: C12_23  and  O5_24 
REMARK    9  A    between atoms: C12_23  and  C13_26 
ROOT
HETATM    1  S1  UNL     1       7.091  37.234  25.297  1.00  0.00     0.259 S 
HETATM    2  O3  UNL     1       6.515  37.075  23.925  1.00  0.00    -0.201 OA
HETATM    3  O4  UNL     1       8.086  38.376  25.228  1.00  0.00    -0.201 OA
ENDROOT
BRANCH   1   4
HETATM    4  N3  UNL     1       7.947  35.849  25.824  1.00  0.00    -0.300 N 
ATOM      5  H3  UNL     1       7.624  34.900  25.634  1.00  0.00     0.173 HD
BRANCH   4   6
HETATM    6  C2  UNL     1       9.140  36.119  26.548  1.00  0.00     0.199 C 
BRANCH   6   7
HETATM    7  C1  UNL     1       8.928  36.448  27.966  1.00  0.00     0.197 C 
HETATM    8  O1  UNL     1       9.801  37.113  28.578  1.00  0.00    -0.646 OA
HETATM    9  O2  UNL     1       7.807  36.063  28.678  1.00  0.00    -0.646 OA
ENDBRANCH   6   7
BRANCH   6  10
HETATM   10  C3  UNL     1      10.116  34.968  26.416  1.00  0.00     0.095 C 
BRANCH  10  11
HETATM   11  C4  UNL     1      10.042  33.985  27.498  1.00  0.00     0.028 A 
HETATM   12  C5  UNL     1       9.794  32.646  27.360  1.00  0.00     0.114 A 
HETATM   13  N1  UNL     1       9.801  32.064  28.564  1.00  0.00    -0.360 N 
HETATM   14  C6  UNL     1      10.055  33.060  29.436  1.00  0.00     0.180 A 
ATOM     15  H1  UNL     1       9.647  31.078  28.776  1.00  0.00     0.166 HD
HETATM   16  N2  UNL     1      10.202  34.216  28.802  1.00  0.00    -0.354 N 
ATOM     17  H2  UNL     1      10.401  35.119  29.233  1.00  0.00     0.166 HD
ENDBRANCH  10  11
ENDBRANCH   6  10
ENDBRANCH   4   6
ENDBRANCH   1   4
BRANCH   1  18
HETATM   18  C7  UNL     1       5.820  37.724  26.368  1.00  0.00     0.080 A 
HETATM   19  C8  UNL     1       5.775  39.017  26.831  1.00  0.00     0.025 A 
HETATM   20  C9  UNL     1       4.766  39.450  27.694  1.00  0.00     0.002 A 
HETATM   21  C10 UNL     1       3.785  38.571  28.100  1.00  0.00     0.010 A 
HETATM   22  C11 UNL     1       3.832  37.274  27.636  1.00  0.00    -0.024 A 
HETATM   23  C19 UNL     1       4.841  36.845  26.774  1.00  0.00     0.035 A 
BRANCH  22  24
HETATM   24  C12 UNL     1       2.790  36.332  28.065  1.00  0.00     0.184 C 
BRANCH  24  25
HETATM   25  O5  UNL     1       2.804  36.222  29.461  1.00  0.00    -0.386 OA
ATOM     26  H5  UNL     1       2.135  35.607  29.738  1.00  0.00     0.210 HD
ENDBRANCH  24  25
BRANCH  24  27
HETATM   27  C13 UNL     1       1.424  36.770  27.689  1.00  0.00    -0.024 A 
HETATM   28  C14 UNL     1       1.128  36.895  26.351  1.00  0.00     0.010 A 
HETATM   29  C15 UNL     1      -0.140  37.305  25.926  1.00  0.00     0.002 A 
HETATM   30  C16 UNL     1      -1.114  37.587  26.859  1.00  0.00     0.019 A 
HETATM   31  C17 UNL     1      -0.828  37.464  28.215  1.00  0.00     0.011 A 
HETATM   32 BR1  UNL     1      -2.193  37.860  29.478  1.00  0.00    -0.051 Br
HETATM   33  C18 UNL     1       0.437  37.057  28.607  1.00  0.00     0.029 A 
ENDBRANCH  24  27
ENDBRANCH  22  24
ENDBRANCH   1  18
TORSDOF 9
ENDMDL
