MODEL 1
REMARK VINA RESULT: -8.381321891      0.000      0.000
REMARK  20 active torsions:
REMARK  status: ('A' for Active; 'I' for Inactive)
REMARK    1  A    between atoms: C2_2  and  C3_3 
REMARK    2  A    between atoms: C3_3  and  N1_4 
REMARK    3  A    between atoms: C3_3  and  C10_15 
REMARK       I    between atoms: N1_4  and  C4_5 
REMARK    4  A    between atoms: C4_5  and  C5_7 
REMARK    5  A    between atoms: C5_7  and  N2_8 
REMARK    6  A    between atoms: C5_7  and  C7_12 
REMARK       I    between atoms: N2_8  and  C6_9 
REMARK       I    between atoms: C10_15  and  N4_17 
REMARK    7  A    between atoms: N4_17  and  C11_19 
REMARK    8  A    between atoms: C11_19  and  C12_20 
REMARK    9  A    between atoms: C12_20  and  O4_21 
REMARK   10  A    between atoms: C12_20  and  C13_23 
REMARK   11  A    between atoms: C13_23  and  O5_24 
REMARK   12  A    between atoms: C13_23  and  C14_26 
REMARK   13  A    between atoms: C14_26  and  C16_28 
REMARK   14  A    between atoms: C21_33  and  C22_34 
REMARK   15  A    between atoms: C22_34  and  O6_35 
REMARK   16  A    between atoms: C22_34  and  N5_37 
REMARK   17  A    between atoms: N5_37  and  C23_39 
REMARK   18  A    between atoms: C25_43  and  O7_44 
REMARK   19  A    between atoms: O7_44  and  C26_45 
REMARK   20  A    between atoms: C26_45  and  C27_47 
ROOT
HETATM    1  C11 UNL     1      69.284  23.494 -66.605  1.00  0.00     0.152 A 
HETATM    2  C21 UNL     1      70.462  23.966 -67.215  1.00  0.00     0.094 A 
HETATM    3  N6  UNL     1      71.175  23.820 -66.179  1.00  0.00    -0.358 N 
ATOM      4  H6  UNL     1      72.159  23.995 -65.973  1.00  0.00     0.162 HD
HETATM    5  C25 UNL     1      70.102  23.327 -65.419  1.00  0.00     0.268 A 
ENDROOT
BRANCH   1   6
HETATM    6  N4  UNL     1      68.650  22.269 -66.990  1.00  0.00    -0.337 N 
HETATM    7  C10 UNL     1      69.101  21.291 -67.855  1.00  0.00     0.258 C 
HETATM    8  O3  UNL     1      70.183  21.232 -68.443  1.00  0.00    -0.270 OA
ATOM      9  H4  UNL     1      67.738  22.094 -66.567  1.00  0.00     0.164 HD
BRANCH   7  10
HETATM   10  C3  UNL     1      68.201  20.096 -68.196  1.00  0.00     0.280 C 
BRANCH  10  11
HETATM   11  C2  UNL     1      67.018  20.184 -67.238  1.00  0.00     0.011 C 
HETATM   12  C1  UNL     1      65.970  19.409 -67.277  1.00  0.00     0.010 C 
ENDBRANCH  10  11
BRANCH  10  13
HETATM   13  N1  UNL     1      67.785  20.021 -69.515  1.00  0.00    -0.393 NA
HETATM   14  C4  UNL     1      67.397  19.966 -70.820  1.00  0.00     0.324 C 
HETATM   15  O1  UNL     1      67.921  20.545 -71.751  1.00  0.00    -0.254 OA
BRANCH  14  16
HETATM   16  C5  UNL     1      66.193  19.050 -71.222  1.00  0.00     0.278 C 
BRANCH  16  17
HETATM   17  N2  UNL     1      66.572  18.301 -72.307  1.00  0.00    -0.382 NA
HETATM   18  C6  UNL     1      66.954  17.530 -73.393  1.00  0.00     0.401 C 
HETATM   19  N3  UNL     1      67.274  18.224 -74.662  1.00  0.00    -0.025 NA
HETATM   20  O2  UNL     1      67.107  16.311 -73.528  1.00  0.00    -0.234 OA
ENDBRANCH  16  17
BRANCH  16  21
HETATM   21  C7  UNL     1      65.099  20.075 -71.646  1.00  0.00     0.024 C 
HETATM   22  C8  UNL     1      64.256  20.453 -70.404  1.00  0.00     0.013 C 
HETATM   23  C9  UNL     1      64.049  19.393 -72.547  1.00  0.00     0.013 C 
ENDBRANCH  16  21
ENDBRANCH  14  16
ENDBRANCH  10  13
ENDBRANCH   7  10
ENDBRANCH   1   6
BRANCH   1  24
HETATM   24  C12 UNL     1      68.127  24.502 -66.454  1.00  0.00     0.186 C 
BRANCH  24  25
HETATM   25  O4  UNL     1      68.659  25.726 -66.146  1.00  0.00    -0.390 OA
ATOM     26  H4  UNL     1      67.951  26.360 -66.113  1.00  0.00     0.210 HD
ENDBRANCH  24  25
BRANCH  24  27
HETATM   27  C13 UNL     1      67.118  24.586 -67.543  1.00  0.00     0.154 C 
BRANCH  27  28
HETATM   28  O5  UNL     1      67.311  25.698 -68.305  1.00  0.00    -0.393 OA
ATOM     29  H5  UNL     1      66.501  25.977 -68.714  1.00  0.00     0.210 HD
ENDBRANCH  27  28
BRANCH  27  30
HETATM   30  C14 UNL     1      65.735  24.410 -66.960  1.00  0.00     0.017 C 
HETATM   31  C15 UNL     1      64.729  25.387 -67.520  1.00  0.00     0.013 C 
BRANCH  30  32
HETATM   32  C16 UNL     1      65.255  23.031 -66.727  1.00  0.00    -0.008 C 
HETATM   33  C17 UNL     1      65.215  22.585 -65.274  1.00  0.00     0.005 C 
HETATM   34  C18 UNL     1      63.672  22.569 -64.996  1.00  0.00     0.000 C 
HETATM   35  C19 UNL     1      63.136  21.951 -66.259  1.00  0.00     0.000 C 
HETATM   36  C20 UNL     1      63.982  22.609 -67.359  1.00  0.00     0.005 C 
ENDBRANCH  30  32
ENDBRANCH  27  30
ENDBRANCH  24  27
ENDBRANCH   1  24
BRANCH   2  37
HETATM   37  C22 UNL     1      71.000  24.511 -68.481  1.00  0.00     0.161 C 
BRANCH  37  38
HETATM   38  O6  UNL     1      70.164  25.183 -69.245  1.00  0.00    -0.345 OA
ATOM     39  H6  UNL     1      70.543  25.788 -69.872  1.00  0.00     0.219 HD
ENDBRANCH  37  38
BRANCH  37  40
HETATM   40  N5  UNL     1      72.274  24.431 -69.005  1.00  0.00    -0.370 N 
ATOM     41  H5  UNL     1      73.008  25.083 -68.725  1.00  0.00     0.161 HD
BRANCH  40  42
HETATM   42  C23 UNL     1      72.526  23.363 -69.987  1.00  0.00     0.117 C 
HETATM   43  C24 UNL     1      73.409  22.311 -69.343  1.00  0.00     0.026 C 
ENDBRANCH  40  42
ENDBRANCH  37  40
ENDBRANCH   2  37
BRANCH   5  44
HETATM   44  O7  UNL     1      70.536  22.063 -64.893  1.00  0.00    -0.292 OA
BRANCH  44  45
HETATM   45  C26 UNL     1      70.369  21.847 -63.540  1.00  0.00     0.265 C 
HETATM   46  O8  UNL     1      71.271  22.294 -62.731  1.00  0.00    -0.265 OA
BRANCH  45  47
HETATM   47  C27 UNL     1      69.253  21.123 -62.895  1.00  0.00     0.085 C 
HETATM   48  C28 UNL     1      67.978  21.874 -62.802  1.00  0.00     0.014 C 
HETATM   49  C29 UNL     1      66.893  20.872 -62.472  1.00  0.00     0.001 C 
HETATM   50  C30 UNL     1      67.296  20.033 -61.269  1.00  0.00     0.000 C 
HETATM   51  C31 UNL     1      68.511  20.641 -60.625  1.00  0.00     0.001 C 
HETATM   52  C32 UNL     1      69.689  20.558 -61.543  1.00  0.00     0.014 C 
ENDBRANCH  45  47
ENDBRANCH  44  45
ENDBRANCH   5  44
TORSDOF 20
ENDMDL
MODEL 2
REMARK VINA RESULT: -8.258114128      1.156      1.933
REMARK  20 active torsions:
REMARK  status: ('A' for Active; 'I' for Inactive)
REMARK    1  A    between atoms: C2_2  and  C3_3 
REMARK    2  A    between atoms: C3_3  and  N1_4 
REMARK    3  A    between atoms: C3_3  and  C10_15 
REMARK       I    between atoms: N1_4  and  C4_5 
REMARK    4  A    between atoms: C4_5  and  C5_7 
REMARK    5  A    between atoms: C5_7  and  N2_8 
REMARK    6  A    between atoms: C5_7  and  C7_12 
REMARK       I    between atoms: N2_8  and  C6_9 
REMARK       I    between atoms: C10_15  and  N4_17 
REMARK    7  A    between atoms: N4_17  and  C11_19 
REMARK    8  A    between atoms: C11_19  and  C12_20 
REMARK    9  A    between atoms: C12_20  and  O4_21 
REMARK   10  A    between atoms: C12_20  and  C13_23 
REMARK   11  A    between atoms: C13_23  and  O5_24 
REMARK   12  A    between atoms: C13_23  and  C14_26 
REMARK   13  A    between atoms: C14_26  and  C16_28 
REMARK   14  A    between atoms: C21_33  and  C22_34 
REMARK   15  A    between atoms: C22_34  and  O6_35 
REMARK   16  A    between atoms: C22_34  and  N5_37 
REMARK   17  A    between atoms: N5_37  and  C23_39 
REMARK   18  A    between atoms: C25_43  and  O7_44 
REMARK   19  A    between atoms: O7_44  and  C26_45 
REMARK   20  A    between atoms: C26_45  and  C27_47 
ROOT
HETATM    1  C11 UNL     1      69.337  23.412 -66.723  1.00  0.00     0.152 A 
HETATM    2  C21 UNL     1      70.538  23.886 -67.283  1.00  0.00     0.094 A 
HETATM    3  N6  UNL     1      71.197  23.779 -66.208  1.00  0.00    -0.358 N 
ATOM      4  H6  UNL     1      72.166  23.976 -65.956  1.00  0.00     0.162 HD
HETATM    5  C25 UNL     1      70.093  23.289 -65.492  1.00  0.00     0.268 A 
ENDROOT
BRANCH   1   6
HETATM    6  N4  UNL     1      68.742  22.166 -67.108  1.00  0.00    -0.337 N 
HETATM    7  C10 UNL     1      69.290  21.131 -67.840  1.00  0.00     0.258 C 
HETATM    8  O3  UNL     1      70.439  21.028 -68.276  1.00  0.00    -0.270 OA
ATOM      9  H4  UNL     1      67.781  22.024 -66.798  1.00  0.00     0.164 HD
BRANCH   7  10
HETATM   10  C3  UNL     1      68.427  19.919 -68.218  1.00  0.00     0.280 C 
BRANCH  10  11
HETATM   11  C2  UNL     1      67.045  20.201 -67.638  1.00  0.00     0.011 C 
HETATM   12  C1  UNL     1      66.138  19.295 -67.403  1.00  0.00     0.010 C 
ENDBRANCH  10  11
BRANCH  10  13
HETATM   13  N1  UNL     1      68.363  19.633 -69.571  1.00  0.00    -0.393 NA
HETATM   14  C4  UNL     1      68.321  19.332 -70.899  1.00  0.00     0.324 C 
HETATM   15  O1  UNL     1      69.002  18.503 -71.471  1.00  0.00    -0.254 OA
BRANCH  14  16
HETATM   16  C5  UNL     1      67.284  20.060 -71.817  1.00  0.00     0.278 C 
BRANCH  16  17
HETATM   17  N2  UNL     1      67.264  21.387 -71.469  1.00  0.00    -0.382 NA
HETATM   18  C6  UNL     1      67.228  22.727 -71.121  1.00  0.00     0.401 C 
HETATM   19  N3  UNL     1      68.494  23.375 -70.707  1.00  0.00    -0.025 NA
HETATM   20  O2  UNL     1      66.306  23.550 -71.098  1.00  0.00    -0.234 OA
ENDBRANCH  16  17
BRANCH  16  21
HETATM   21  C7  UNL     1      65.933  19.391 -71.419  1.00  0.00     0.024 C 
HETATM   22  C8  UNL     1      65.167  19.002 -72.707  1.00  0.00     0.013 C 
HETATM   23  C9  UNL     1      64.987  20.433 -70.789  1.00  0.00     0.013 C 
ENDBRANCH  16  21
ENDBRANCH  14  16
ENDBRANCH  10  13
ENDBRANCH   7  10
ENDBRANCH   1   6
BRANCH   1  24
HETATM   24  C12 UNL     1      68.157  24.404 -66.661  1.00  0.00     0.186 C 
BRANCH  24  25
HETATM   25  O4  UNL     1      68.666  25.675 -66.621  1.00  0.00    -0.390 OA
ATOM     26  H4  UNL     1      68.110  26.201 -66.058  1.00  0.00     0.210 HD
ENDBRANCH  24  25
BRANCH  24  27
HETATM   27  C13 UNL     1      67.066  24.266 -67.662  1.00  0.00     0.154 C 
BRANCH  27  28
HETATM   28  O5  UNL     1      67.173  25.211 -68.636  1.00  0.00    -0.393 OA
ATOM     29  H5  UNL     1      66.351  25.673 -68.757  1.00  0.00     0.210 HD
ENDBRANCH  27  28
BRANCH  27  30
HETATM   30  C14 UNL     1      65.737  24.194 -66.947  1.00  0.00     0.017 C 
HETATM   31  C15 UNL     1      64.778  25.282 -67.370  1.00  0.00     0.013 C 
BRANCH  30  32
HETATM   32  C16 UNL     1      65.153  22.856 -66.712  1.00  0.00    -0.008 C 
HETATM   33  C17 UNL     1      65.011  22.447 -65.254  1.00  0.00     0.005 C 
HETATM   34  C18 UNL     1      63.459  22.542 -65.054  1.00  0.00     0.000 C 
HETATM   35  C19 UNL     1      62.944  21.932 -66.330  1.00  0.00     0.000 C 
HETATM   36  C20 UNL     1      63.887  22.506 -67.399  1.00  0.00     0.005 C 
ENDBRANCH  30  32
ENDBRANCH  27  30
ENDBRANCH  24  27
ENDBRANCH   1  24
BRANCH   2  37
HETATM   37  C22 UNL     1      71.134  24.406 -68.534  1.00  0.00     0.161 C 
BRANCH  37  38
HETATM   38  O6  UNL     1      70.359  25.142 -69.305  1.00  0.00    -0.345 OA
ATOM     39  H6  UNL     1      69.975  24.716 -70.063  1.00  0.00     0.219 HD
ENDBRANCH  37  38
BRANCH  37  40
HETATM   40  N5  UNL     1      72.409  24.246 -69.037  1.00  0.00    -0.370 N 
ATOM     41  H5  UNL     1      73.170  24.871 -68.770  1.00  0.00     0.161 HD
BRANCH  40  42
HETATM   42  C23 UNL     1      72.620  23.133 -69.977  1.00  0.00     0.117 C 
HETATM   43  C24 UNL     1      73.633  22.177 -69.376  1.00  0.00     0.026 C 
ENDBRANCH  40  42
ENDBRANCH  37  40
ENDBRANCH   2  37
BRANCH   5  44
HETATM   44  O7  UNL     1      70.518  22.047 -64.910  1.00  0.00    -0.292 OA
BRANCH  44  45
HETATM   45  C26 UNL     1      70.319  21.880 -63.554  1.00  0.00     0.265 C 
HETATM   46  O8  UNL     1      71.207  22.349 -62.741  1.00  0.00    -0.265 OA
BRANCH  45  47
HETATM   47  C27 UNL     1      69.183  21.189 -62.908  1.00  0.00     0.085 C 
HETATM   48  C28 UNL     1      67.926  21.971 -62.828  1.00  0.00     0.014 C 
HETATM   49  C29 UNL     1      66.816  20.998 -62.495  1.00  0.00     0.001 C 
HETATM   50  C30 UNL     1      67.193  20.159 -61.283  1.00  0.00     0.000 C 
HETATM   51  C31 UNL     1      68.419  20.743 -60.638  1.00  0.00     0.001 C 
HETATM   52  C32 UNL     1      69.600  20.625 -61.550  1.00  0.00     0.014 C 
ENDBRANCH  45  47
ENDBRANCH  44  45
ENDBRANCH   5  44
TORSDOF 20
ENDMDL
MODEL 3
REMARK VINA RESULT: -8.257991097      5.848     12.333
REMARK  20 active torsions:
REMARK  status: ('A' for Active; 'I' for Inactive)
REMARK    1  A    between atoms: C2_2  and  C3_3 
REMARK    2  A    between atoms: C3_3  and  N1_4 
REMARK    3  A    between atoms: C3_3  and  C10_15 
REMARK       I    between atoms: N1_4  and  C4_5 
REMARK    4  A    between atoms: C4_5  and  C5_7 
REMARK    5  A    between atoms: C5_7  and  N2_8 
REMARK    6  A    between atoms: C5_7  and  C7_12 
REMARK       I    between atoms: N2_8  and  C6_9 
REMARK       I    between atoms: C10_15  and  N4_17 
REMARK    7  A    between atoms: N4_17  and  C11_19 
REMARK    8  A    between atoms: C11_19  and  C12_20 
REMARK    9  A    between atoms: C12_20  and  O4_21 
REMARK   10  A    between atoms: C12_20  and  C13_23 
REMARK   11  A    between atoms: C13_23  and  O5_24 
REMARK   12  A    between atoms: C13_23  and  C14_26 
REMARK   13  A    between atoms: C14_26  and  C16_28 
REMARK   14  A    between atoms: C21_33  and  C22_34 
REMARK   15  A    between atoms: C22_34  and  O6_35 
REMARK   16  A    between atoms: C22_34  and  N5_37 
REMARK   17  A    between atoms: N5_37  and  C23_39 
REMARK   18  A    between atoms: C25_43  and  O7_44 
REMARK   19  A    between atoms: O7_44  and  C26_45 
REMARK   20  A    between atoms: C26_45  and  C27_47 
ROOT
HETATM    1  C11 UNL     1      69.211  20.723 -60.396  1.00  0.00     0.152 A 
HETATM    2  C21 UNL     1      70.552  20.573 -60.798  1.00  0.00     0.094 A 
HETATM    3  N6  UNL     1      70.349  20.985 -61.978  1.00  0.00    -0.358 N 
ATOM      4  H6  UNL     1      70.953  21.114 -62.790  1.00  0.00     0.162 HD
HETATM    5  C25 UNL     1      68.979  21.195 -61.748  1.00  0.00     0.268 A 
ENDROOT
BRANCH   1   6
HETATM    6  N4  UNL     1      68.798  21.687 -59.419  1.00  0.00    -0.337 N 
HETATM    7  C10 UNL     1      69.389  22.010 -58.214  1.00  0.00     0.258 C 
HETATM    8  O3  UNL     1      70.441  21.576 -57.738  1.00  0.00    -0.270 OA
ATOM      9  H4  UNL     1      67.951  22.207 -59.646  1.00  0.00     0.164 HD
BRANCH   7  10
HETATM   10  C3  UNL     1      68.711  23.016 -57.274  1.00  0.00     0.280 C 
BRANCH  10  11
HETATM   11  C2  UNL     1      67.755  22.197 -56.414  1.00  0.00     0.011 C 
HETATM   12  C1  UNL     1      67.723  22.217 -55.111  1.00  0.00     0.010 C 
ENDBRANCH  10  11
BRANCH  10  13
HETATM   13  N1  UNL     1      69.570  23.777 -56.498  1.00  0.00    -0.393 NA
HETATM   14  C4  UNL     1      70.392  24.540 -55.725  1.00  0.00     0.324 C 
HETATM   15  O1  UNL     1      70.048  25.424 -54.964  1.00  0.00    -0.254 OA
BRANCH  14  16
HETATM   16  C5  UNL     1      71.933  24.267 -55.744  1.00  0.00     0.278 C 
BRANCH  16  17
HETATM   17  N2  UNL     1      72.477  24.818 -54.613  1.00  0.00    -0.382 NA
HETATM   18  C6  UNL     1      73.037  25.385 -53.479  1.00  0.00     0.401 C 
HETATM   19  N3  UNL     1      72.732  24.769 -52.167  1.00  0.00    -0.025 NA
HETATM   20  O2  UNL     1      73.795  26.349 -53.327  1.00  0.00    -0.234 OA
ENDBRANCH  16  17
BRANCH  16  21
HETATM   21  C7  UNL     1      72.413  25.057 -56.999  1.00  0.00     0.024 C 
HETATM   22  C8  UNL     1      73.852  24.609 -57.353  1.00  0.00     0.013 C 
HETATM   23  C9  UNL     1      72.620  26.544 -56.646  1.00  0.00     0.013 C 
ENDBRANCH  16  21
ENDBRANCH  14  16
ENDBRANCH  10  13
ENDBRANCH   7  10
ENDBRANCH   1   6
BRANCH   1  24
HETATM   24  C12 UNL     1      68.448  19.436 -60.022  1.00  0.00     0.186 C 
BRANCH  24  25
HETATM   25  O4  UNL     1      67.839  18.953 -61.150  1.00  0.00    -0.390 OA
ATOM     26  H4  UNL     1      67.398  18.141 -60.927  1.00  0.00     0.210 HD
ENDBRANCH  24  25
BRANCH  24  27
HETATM   27  C13 UNL     1      69.177  18.375 -59.278  1.00  0.00     0.154 C 
BRANCH  27  28
HETATM   28  O5  UNL     1      69.577  17.378 -60.114  1.00  0.00    -0.393 OA
ATOM     29  H5  UNL     1      70.523  17.366 -60.205  1.00  0.00     0.210 HD
ENDBRANCH  27  28
BRANCH  27  30
HETATM   30  C14 UNL     1      68.360  17.952 -58.080  1.00  0.00     0.017 C 
HETATM   31  C15 UNL     1      67.274  16.961 -58.425  1.00  0.00     0.013 C 
BRANCH  30  32
HETATM   32  C16 UNL     1      69.072  17.731 -56.803  1.00  0.00    -0.008 C 
HETATM   33  C17 UNL     1      70.411  17.018 -56.911  1.00  0.00     0.005 C 
HETATM   34  C18 UNL     1      71.411  18.190 -56.618  1.00  0.00     0.000 C 
HETATM   35  C19 UNL     1      70.732  18.899 -55.477  1.00  0.00     0.000 C 
HETATM   36  C20 UNL     1      69.251  18.880 -55.884  1.00  0.00     0.005 C 
ENDBRANCH  30  32
ENDBRANCH  27  30
ENDBRANCH  24  27
ENDBRANCH   1  24
BRANCH   2  37
HETATM   37  C22 UNL     1      71.882  20.126 -60.328  1.00  0.00     0.161 C 
BRANCH  37  38
HETATM   38  O6  UNL     1      72.339  18.992 -60.819  1.00  0.00    -0.345 OA
ATOM     39  H6  UNL     1      71.699  18.387 -61.176  1.00  0.00     0.219 HD
ENDBRANCH  37  38
BRANCH  37  40
HETATM   40  N5  UNL     1      72.751  20.725 -59.438  1.00  0.00    -0.370 N 
ATOM     41  H5  UNL     1      72.861  21.738 -59.400  1.00  0.00     0.161 HD
BRANCH  40  42
HETATM   42  C23 UNL     1      73.510  19.833 -58.546  1.00  0.00     0.117 C 
HETATM   43  C24 UNL     1      74.903  20.403 -58.362  1.00  0.00     0.026 C 
ENDBRANCH  40  42
ENDBRANCH  37  40
ENDBRANCH   2  37
BRANCH   5  44
HETATM   44  O7  UNL     1      68.722  22.561 -62.108  1.00  0.00    -0.292 OA
BRANCH  44  45
HETATM   45  C26 UNL     1      68.550  22.844 -63.448  1.00  0.00     0.265 C 
HETATM   46  O8  UNL     1      69.548  23.338 -64.104  1.00  0.00    -0.265 OA
BRANCH  45  47
HETATM   47  C27 UNL     1      67.314  22.659 -64.236  1.00  0.00     0.085 C 
HETATM   48  C28 UNL     1      66.189  22.018 -63.512  1.00  0.00     0.014 C 
HETATM   49  C29 UNL     1      64.939  22.253 -64.332  1.00  0.00     0.001 C 
HETATM   50  C30 UNL     1      65.167  21.834 -65.776  1.00  0.00     0.000 C 
HETATM   51  C31 UNL     1      66.458  21.071 -65.874  1.00  0.00     0.001 C 
HETATM   52  C32 UNL     1      67.620  21.961 -65.561  1.00  0.00     0.014 C 
ENDBRANCH  45  47
ENDBRANCH  44  45
ENDBRANCH   5  44
TORSDOF 20
ENDMDL
MODEL 4
REMARK VINA RESULT: -8.237166995      2.910      6.370
REMARK  20 active torsions:
REMARK  status: ('A' for Active; 'I' for Inactive)
REMARK    1  A    between atoms: C2_2  and  C3_3 
REMARK    2  A    between atoms: C3_3  and  N1_4 
REMARK    3  A    between atoms: C3_3  and  C10_15 
REMARK       I    between atoms: N1_4  and  C4_5 
REMARK    4  A    between atoms: C4_5  and  C5_7 
REMARK    5  A    between atoms: C5_7  and  N2_8 
REMARK    6  A    between atoms: C5_7  and  C7_12 
REMARK       I    between atoms: N2_8  and  C6_9 
REMARK       I    between atoms: C10_15  and  N4_17 
REMARK    7  A    between atoms: N4_17  and  C11_19 
REMARK    8  A    between atoms: C11_19  and  C12_20 
REMARK    9  A    between atoms: C12_20  and  O4_21 
REMARK   10  A    between atoms: C12_20  and  C13_23 
REMARK   11  A    between atoms: C13_23  and  O5_24 
REMARK   12  A    between atoms: C13_23  and  C14_26 
REMARK   13  A    between atoms: C14_26  and  C16_28 
REMARK   14  A    between atoms: C21_33  and  C22_34 
REMARK   15  A    between atoms: C22_34  and  O6_35 
REMARK   16  A    between atoms: C22_34  and  N5_37 
REMARK   17  A    between atoms: N5_37  and  C23_39 
REMARK   18  A    between atoms: C25_43  and  O7_44 
REMARK   19  A    between atoms: O7_44  and  C26_45 
REMARK   20  A    between atoms: C26_45  and  C27_47 
ROOT
HETATM    1  C11 UNL     1      67.300  22.170 -67.254  1.00  0.00     0.152 A 
HETATM    2  C21 UNL     1      67.503  23.436 -67.834  1.00  0.00     0.094 A 
HETATM    3  N6  UNL     1      68.183  22.992 -68.806  1.00  0.00    -0.358 N 
ATOM      4  H6  UNL     1      68.637  23.434 -69.605  1.00  0.00     0.162 HD
HETATM    5  C25 UNL     1      68.079  21.662 -68.367  1.00  0.00     0.268 A 
ENDROOT
BRANCH   1   6
HETATM    6  N4  UNL     1      66.011  21.550 -67.180  1.00  0.00    -0.337 N 
HETATM    7  C10 UNL     1      64.769  22.140 -67.052  1.00  0.00     0.258 C 
HETATM    8  O3  UNL     1      64.493  23.342 -67.031  1.00  0.00    -0.270 OA
ATOM      9  H4  UNL     1      66.010  20.531 -67.229  1.00  0.00     0.164 HD
BRANCH   7  10
HETATM   10  C3  UNL     1      63.518  21.265 -66.895  1.00  0.00     0.280 C 
BRANCH  10  11
HETATM   11  C2  UNL     1      62.706  21.906 -65.774  1.00  0.00     0.011 C 
HETATM   12  C1  UNL     1      61.530  21.501 -65.382  1.00  0.00     0.010 C 
ENDBRANCH  10  11
BRANCH  10  13
HETATM   13  N1  UNL     1      62.760  21.099 -68.042  1.00  0.00    -0.393 NA
HETATM   14  C4  UNL     1      62.010  20.907 -69.163  1.00  0.00     0.324 C 
HETATM   15  O1  UNL     1      61.486  19.867 -69.509  1.00  0.00    -0.254 OA
BRANCH  14  16
HETATM   16  C5  UNL     1      61.727  22.120 -70.111  1.00  0.00     0.278 C 
BRANCH  16  17
HETATM   17  N2  UNL     1      61.314  21.627 -71.322  1.00  0.00    -0.382 NA
HETATM   18  C6  UNL     1      60.888  21.143 -72.548  1.00  0.00     0.401 C 
HETATM   19  N3  UNL     1      61.295  19.772 -72.936  1.00  0.00    -0.025 NA
HETATM   20  O2  UNL     1      60.185  21.641 -73.434  1.00  0.00    -0.234 OA
ENDBRANCH  16  17
BRANCH  16  21
HETATM   21  C7  UNL     1      63.131  22.782 -70.262  1.00  0.00     0.024 C 
HETATM   22  C8  UNL     1      63.028  23.951 -71.272  1.00  0.00     0.013 C 
HETATM   23  C9  UNL     1      64.098  21.822 -70.983  1.00  0.00     0.013 C 
ENDBRANCH  16  21
ENDBRANCH  14  16
ENDBRANCH  10  13
ENDBRANCH   7  10
ENDBRANCH   1   6
BRANCH   1  24
HETATM   24  C12 UNL     1      67.928  21.932 -65.865  1.00  0.00     0.186 C 
BRANCH  24  25
HETATM   25  O4  UNL     1      69.240  21.583 -66.040  1.00  0.00    -0.390 OA
ATOM     26  H4  UNL     1      69.784  22.274 -65.679  1.00  0.00     0.210 HD
ENDBRANCH  24  25
BRANCH  24  27
HETATM   27  C13 UNL     1      67.759  22.982 -64.825  1.00  0.00     0.154 C 
BRANCH  27  28
HETATM   28  O5  UNL     1      68.892  23.725 -64.690  1.00  0.00    -0.393 OA
ATOM     29  H5  UNL     1      69.564  23.242 -64.224  1.00  0.00     0.210 HD
ENDBRANCH  27  28
BRANCH  27  30
HETATM   30  C14 UNL     1      67.220  22.353 -63.561  1.00  0.00     0.017 C 
HETATM   31  C15 UNL     1      65.758  21.984 -63.661  1.00  0.00     0.013 C 
BRANCH  30  32
HETATM   32  C16 UNL     1      68.091  21.401 -62.839  1.00  0.00    -0.008 C 
HETATM   33  C17 UNL     1      68.739  21.934 -61.571  1.00  0.00     0.005 C 
HETATM   34  C18 UNL     1      67.934  21.167 -60.465  1.00  0.00     0.000 C 
HETATM   35  C19 UNL     1      67.844  19.784 -61.050  1.00  0.00     0.000 C 
HETATM   36  C20 UNL     1      67.564  20.049 -62.537  1.00  0.00     0.005 C 
ENDBRANCH  30  32
ENDBRANCH  27  30
ENDBRANCH  24  27
ENDBRANCH   1  24
BRANCH   2  37
HETATM   37  C22 UNL     1      67.225  24.878 -67.651  1.00  0.00     0.161 C 
BRANCH  37  38
HETATM   38  O6  UNL     1      68.132  25.585 -67.009  1.00  0.00    -0.345 OA
ATOM     39  H6  UNL     1      67.858  26.428 -66.666  1.00  0.00     0.219 HD
ENDBRANCH  37  38
BRANCH  37  40
HETATM   40  N5  UNL     1      66.140  25.626 -68.061  1.00  0.00    -0.370 N 
ATOM     41  H5  UNL     1      65.587  26.171 -67.399  1.00  0.00     0.161 HD
BRANCH  40  42
HETATM   42  C23 UNL     1      65.817  25.601 -69.498  1.00  0.00     0.117 C 
HETATM   43  C24 UNL     1      66.953  26.253 -70.262  1.00  0.00     0.026 C 
ENDBRANCH  40  42
ENDBRANCH  37  40
ENDBRANCH   2  37
BRANCH   5  44
HETATM   44  O7  UNL     1      67.541  20.921 -69.473  1.00  0.00    -0.292 OA
BRANCH  44  45
HETATM   45  C26 UNL     1      68.011  19.637 -69.665  1.00  0.00     0.265 C 
HETATM   46  O8  UNL     1      68.777  19.122 -68.761  1.00  0.00    -0.265 OA
BRANCH  45  47
HETATM   47  C27 UNL     1      67.747  18.767 -70.831  1.00  0.00     0.085 C 
HETATM   48  C28 UNL     1      68.732  18.867 -71.935  1.00  0.00     0.014 C 
HETATM   49  C29 UNL     1      68.514  17.673 -72.837  1.00  0.00     0.001 C 
HETATM   50  C30 UNL     1      67.046  17.560 -73.221  1.00  0.00     0.000 C 
HETATM   51  C31 UNL     1      66.328  18.815 -72.811  1.00  0.00     0.001 C 
HETATM   52  C32 UNL     1      66.310  18.948 -71.321  1.00  0.00     0.014 C 
ENDBRANCH  45  47
ENDBRANCH  44  45
ENDBRANCH   5  44
TORSDOF 20
ENDMDL
MODEL 5
REMARK VINA RESULT: -8.235601267      1.232      1.765
REMARK  20 active torsions:
REMARK  status: ('A' for Active; 'I' for Inactive)
REMARK    1  A    between atoms: C2_2  and  C3_3 
REMARK    2  A    between atoms: C3_3  and  N1_4 
REMARK    3  A    between atoms: C3_3  and  C10_15 
REMARK       I    between atoms: N1_4  and  C4_5 
REMARK    4  A    between atoms: C4_5  and  C5_7 
REMARK    5  A    between atoms: C5_7  and  N2_8 
REMARK    6  A    between atoms: C5_7  and  C7_12 
REMARK       I    between atoms: N2_8  and  C6_9 
REMARK       I    between atoms: C10_15  and  N4_17 
REMARK    7  A    between atoms: N4_17  and  C11_19 
REMARK    8  A    between atoms: C11_19  and  C12_20 
REMARK    9  A    between atoms: C12_20  and  O4_21 
REMARK   10  A    between atoms: C12_20  and  C13_23 
REMARK   11  A    between atoms: C13_23  and  O5_24 
REMARK   12  A    between atoms: C13_23  and  C14_26 
REMARK   13  A    between atoms: C14_26  and  C16_28 
REMARK   14  A    between atoms: C21_33  and  C22_34 
REMARK   15  A    between atoms: C22_34  and  O6_35 
REMARK   16  A    between atoms: C22_34  and  N5_37 
REMARK   17  A    between atoms: N5_37  and  C23_39 
REMARK   18  A    between atoms: C25_43  and  O7_44 
REMARK   19  A    between atoms: O7_44  and  C26_45 
REMARK   20  A    between atoms: C26_45  and  C27_47 
ROOT
HETATM    1  C11 UNL     1      69.419  23.594 -66.883  1.00  0.00     0.152 A 
HETATM    2  C21 UNL     1      70.643  23.892 -67.510  1.00  0.00     0.094 A 
HETATM    3  N6  UNL     1      71.335  23.720 -66.464  1.00  0.00    -0.358 N 
ATOM      4  H6  UNL     1      72.333  23.791 -66.263  1.00  0.00     0.162 HD
HETATM    5  C25 UNL     1      70.213  23.397 -65.685  1.00  0.00     0.268 A 
ENDROOT
BRANCH   1   6
HETATM    6  N4  UNL     1      68.646  22.431 -67.205  1.00  0.00    -0.337 N 
HETATM    7  C10 UNL     1      68.974  21.370 -68.025  1.00  0.00     0.258 C 
HETATM    8  O3  UNL     1      70.036  21.161 -68.616  1.00  0.00    -0.270 OA
ATOM      9  H4  UNL     1      67.726  22.380 -66.769  1.00  0.00     0.164 HD
BRANCH   7  10
HETATM   10  C3  UNL     1      67.942  20.269 -68.303  1.00  0.00     0.280 C 
BRANCH  10  11
HETATM   11  C2  UNL     1      66.840  20.467 -67.268  1.00  0.00     0.011 C 
HETATM   12  C1  UNL     1      65.630  19.993 -67.371  1.00  0.00     0.010 C 
ENDBRANCH  10  11
BRANCH  10  13
HETATM   13  N1  UNL     1      67.433  20.242 -69.591  1.00  0.00    -0.393 NA
HETATM   14  C4  UNL     1      66.951  20.236 -70.865  1.00  0.00     0.324 C 
HETATM   15  O1  UNL     1      67.320  20.950 -71.777  1.00  0.00    -0.254 OA
BRANCH  14  16
HETATM   16  C5  UNL     1      65.844  19.203 -71.260  1.00  0.00     0.278 C 
BRANCH  16  17
HETATM   17  N2  UNL     1      66.305  18.469 -72.323  1.00  0.00    -0.382 NA
HETATM   18  C6  UNL     1      66.766  17.714 -73.388  1.00  0.00     0.401 C 
HETATM   19  N3  UNL     1      67.448  18.418 -74.499  1.00  0.00    -0.025 NA
HETATM   20  O2  UNL     1      66.740  16.498 -73.612  1.00  0.00    -0.234 OA
ENDBRANCH  16  17
BRANCH  16  21
HETATM   21  C7  UNL     1      64.664  20.112 -71.720  1.00  0.00     0.024 C 
HETATM   22  C8  UNL     1      63.689  20.308 -70.534  1.00  0.00     0.013 C 
HETATM   23  C9  UNL     1      63.780  19.364 -72.739  1.00  0.00     0.013 C 
ENDBRANCH  16  21
ENDBRANCH  14  16
ENDBRANCH  10  13
ENDBRANCH   7  10
ENDBRANCH   1   6
BRANCH   1  24
HETATM   24  C12 UNL     1      68.386  24.736 -66.793  1.00  0.00     0.186 C 
BRANCH  24  25
HETATM   25  O4  UNL     1      69.027  25.861 -66.345  1.00  0.00    -0.390 OA
ATOM     26  H4  UNL     1      69.039  26.498 -67.050  1.00  0.00     0.210 HD
ENDBRANCH  24  25
BRANCH  24  27
HETATM   27  C13 UNL     1      67.533  25.010 -67.979  1.00  0.00     0.154 C 
BRANCH  27  28
HETATM   28  O5  UNL     1      67.530  26.336 -68.286  1.00  0.00    -0.393 OA
ATOM     29  H5  UNL     1      67.102  26.844 -67.606  1.00  0.00     0.210 HD
ENDBRANCH  27  28
BRANCH  27  30
HETATM   30  C14 UNL     1      66.179  24.369 -67.780  1.00  0.00     0.017 C 
HETATM   31  C15 UNL     1      65.195  25.274 -67.075  1.00  0.00     0.013 C 
BRANCH  30  32
HETATM   32  C16 UNL     1      65.640  23.539 -68.878  1.00  0.00    -0.008 C 
HETATM   33  C17 UNL     1      64.140  23.294 -68.843  1.00  0.00     0.005 C 
HETATM   34  C18 UNL     1      63.650  24.190 -70.033  1.00  0.00     0.000 C 
HETATM   35  C19 UNL     1      64.695  23.914 -71.079  1.00  0.00     0.000 C 
HETATM   36  C20 UNL     1      66.002  23.889 -70.273  1.00  0.00     0.005 C 
ENDBRANCH  30  32
ENDBRANCH  27  30
ENDBRANCH  24  27
ENDBRANCH   1  24
BRANCH   2  37
HETATM   37  C22 UNL     1      71.240  24.302 -68.801  1.00  0.00     0.161 C 
BRANCH  37  38
HETATM   38  O6  UNL     1      72.138  25.265 -68.765  1.00  0.00    -0.345 OA
ATOM     39  H6  UNL     1      72.527  25.523 -69.593  1.00  0.00     0.219 HD
ENDBRANCH  37  38
BRANCH  37  40
HETATM   40  N5  UNL     1      71.006  23.821 -70.073  1.00  0.00    -0.370 N 
ATOM     41  H5  UNL     1      71.742  23.368 -70.616  1.00  0.00     0.161 HD
BRANCH  40  42
HETATM   42  C23 UNL     1      69.647  23.992 -70.612  1.00  0.00     0.117 C 
HETATM   43  C24 UNL     1      69.519  25.397 -71.168  1.00  0.00     0.026 C 
ENDBRANCH  40  42
ENDBRANCH  37  40
ENDBRANCH   2  37
BRANCH   5  44
HETATM   44  O7  UNL     1      70.497  22.122 -65.089  1.00  0.00    -0.292 OA
BRANCH  44  45
HETATM   45  C26 UNL     1      70.244  21.980 -63.740  1.00  0.00     0.265 C 
HETATM   46  O8  UNL     1      71.121  22.424 -62.901  1.00  0.00    -0.265 OA
BRANCH  45  47
HETATM   47  C27 UNL     1      69.060  21.343 -63.127  1.00  0.00     0.085 C 
HETATM   48  C28 UNL     1      67.862  22.209 -63.007  1.00  0.00     0.014 C 
HETATM   49  C29 UNL     1      66.684  21.304 -62.720  1.00  0.00     0.001 C 
HETATM   50  C30 UNL     1      66.997  20.382 -61.552  1.00  0.00     0.000 C 
HETATM   51  C31 UNL     1      68.260  20.842 -60.881  1.00  0.00     0.001 C 
HETATM   52  C32 UNL     1      69.431  20.684 -61.799  1.00  0.00     0.014 C 
ENDBRANCH  45  47
ENDBRANCH  44  45
ENDBRANCH   5  44
TORSDOF 20
ENDMDL
