MODEL 1
REMARK VINA RESULT: -9.920006022      0.000      0.000
REMARK  4 active torsions:
REMARK  status: ('A' for Active; 'I' for Inactive)
REMARK    1  A    between atoms: C2_2  and  C3_3 
REMARK    2  A    between atoms: C10_12  and  C11_13 
REMARK    3  A    between atoms: C14_16  and  O3_17 
REMARK    4  A    between atoms: C15_19  and  O4_20 
ROOT
HETATM    1  C3  UNL     1       5.461  56.050   1.397  1.00  0.00    -0.034 C 
HETATM    2  C4  UNL     1       4.207  56.607   1.385  1.00  0.00     0.015 C 
HETATM    3  C5  UNL     1       3.853  57.960   1.309  1.00  0.00     0.057 C 
HETATM    4  C6  UNL     1       4.668  59.012   0.975  1.00  0.00     0.189 C 
HETATM    5  O1  UNL     1       4.344  60.173   1.281  1.00  0.00    -0.287 OA
HETATM    6  C7  UNL     1       5.871  58.943   0.302  1.00  0.00     0.098 A 
HETATM    7  C8  UNL     1       6.234  60.112  -0.310  1.00  0.00     0.191 A 
HETATM    8  O2  UNL     1       5.476  61.088  -0.207  1.00  0.00    -0.287 OA
HETATM    9  C9  UNL     1       7.428  60.131  -1.007  1.00  0.00     0.094 A 
HETATM   10  C10 UNL     1       8.257  59.043  -1.112  1.00  0.00     0.090 A 
HETATM   11  O5  UNL     1       7.851  57.944  -0.500  1.00  0.00    -0.309 OA
HETATM   12  C17 UNL     1       6.732  57.859   0.178  1.00  0.00     0.095 A 
HETATM   13  C18 UNL     1       6.554  56.579   0.721  1.00  0.00     0.049 C 
ENDROOT
BRANCH  10  14
HETATM   14  C11 UNL     1       9.521  59.025  -1.837  1.00  0.00     0.001 A 
HETATM   15  C12 UNL     1      10.384  57.933  -1.746  1.00  0.00     0.017 A 
HETATM   16  C13 UNL     1      11.581  57.905  -2.427  1.00  0.00     0.040 A 
HETATM   17  C14 UNL     1      11.982  58.952  -3.230  1.00  0.00     0.098 A 
HETATM   18  C15 UNL     1      11.138  60.034  -3.327  1.00  0.00     0.099 A 
HETATM   19  C16 UNL     1       9.927  60.059  -2.636  1.00  0.00     0.053 A 
BRANCH  17  20
HETATM   20  O3  UNL     1      13.199  58.902  -3.909  1.00  0.00    -0.358 OA
ATOM     21  H3  UNL     1      13.428  59.572  -4.543  1.00  0.00     0.217 HD
ENDBRANCH  17  20
BRANCH  18  22
HETATM   22  O4  UNL     1      11.529  61.093  -4.130  1.00  0.00    -0.358 OA
ATOM     23  H4  UNL     1      10.907  61.422  -4.768  1.00  0.00     0.217 HD
ENDBRANCH  18  22
ENDBRANCH  10  14
BRANCH   1  24
HETATM   24  C2  UNL     1       5.664  54.838   2.166  1.00  0.00     0.001 C 
HETATM   25  C1  UNL     1       5.050  53.721   1.865  1.00  0.00     0.012 C 
ENDBRANCH   1  24
TORSDOF 4
ENDMDL
MODEL 2
REMARK VINA RESULT: -9.702162460      0.830      1.524
REMARK  4 active torsions:
REMARK  status: ('A' for Active; 'I' for Inactive)
REMARK    1  A    between atoms: C2_2  and  C3_3 
REMARK    2  A    between atoms: C10_12  and  C11_13 
REMARK    3  A    between atoms: C14_16  and  O3_17 
REMARK    4  A    between atoms: C15_19  and  O4_20 
ROOT
HETATM    1  C3  UNL     1       4.991  56.137   1.432  1.00  0.00    -0.034 C 
HETATM    2  C4  UNL     1       3.816  56.847   1.436  1.00  0.00     0.015 C 
HETATM    3  C5  UNL     1       3.635  58.235   1.383  1.00  0.00     0.057 C 
HETATM    4  C6  UNL     1       4.574  59.181   1.058  1.00  0.00     0.189 C 
HETATM    5  O1  UNL     1       4.399  60.369   1.383  1.00  0.00    -0.287 OA
HETATM    6  C7  UNL     1       5.756  58.972   0.376  1.00  0.00     0.098 A 
HETATM    7  C8  UNL     1       6.260  60.096  -0.221  1.00  0.00     0.191 A 
HETATM    8  O2  UNL     1       5.631  61.157  -0.099  1.00  0.00    -0.287 OA
HETATM    9  C9  UNL     1       7.443  59.975  -0.926  1.00  0.00     0.094 A 
HETATM   10  C10 UNL     1       8.129  58.793  -1.052  1.00  0.00     0.090 A 
HETATM   11  O5  UNL     1       7.591  57.745  -0.452  1.00  0.00    -0.309 OA
HETATM   12  C17 UNL     1       6.473  57.790   0.231  1.00  0.00     0.095 A 
HETATM   13  C18 UNL     1       6.139  56.535   0.757  1.00  0.00     0.049 C 
ENDROOT
BRANCH  10  14
HETATM   14  C11 UNL     1       9.377  58.628  -1.785  1.00  0.00     0.001 A 
HETATM   15  C12 UNL     1       9.987  59.711  -2.416  1.00  0.00     0.017 A 
HETATM   16  C13 UNL     1      11.167  59.566  -3.112  1.00  0.00     0.040 A 
HETATM   17  C14 UNL     1      11.800  58.346  -3.217  1.00  0.00     0.098 A 
HETATM   18  C15 UNL     1      11.207  57.270  -2.599  1.00  0.00     0.099 A 
HETATM   19  C16 UNL     1      10.012  57.421  -1.895  1.00  0.00     0.053 A 
BRANCH  17  20
HETATM   20  O3  UNL     1      12.994  58.224  -3.928  1.00  0.00    -0.358 OA
ATOM     21  H3  UNL     1      13.796  57.968  -3.487  1.00  0.00     0.217 HD
ENDBRANCH  17  20
BRANCH  18  22
HETATM   22  O4  UNL     1      11.833  56.037  -2.698  1.00  0.00    -0.358 OA
ATOM     23  H4  UNL     1      11.648  55.390  -2.028  1.00  0.00     0.217 HD
ENDBRANCH  18  22
ENDBRANCH  10  14
BRANCH   1  24
HETATM   24  C2  UNL     1       5.044  54.898   2.183  1.00  0.00     0.001 C 
HETATM   25  C1  UNL     1       5.428  53.774   1.630  1.00  0.00     0.012 C 
ENDBRANCH   1  24
TORSDOF 4
ENDMDL
MODEL 3
REMARK VINA RESULT: -9.633006860      2.786      7.012
REMARK  4 active torsions:
REMARK  status: ('A' for Active; 'I' for Inactive)
REMARK    1  A    between atoms: C2_2  and  C3_3 
REMARK    2  A    between atoms: C10_12  and  C11_13 
REMARK    3  A    between atoms: C14_16  and  O3_17 
REMARK    4  A    between atoms: C15_19  and  O4_20 
ROOT
HETATM    1  C3  UNL     1       8.576  58.973  -0.945  1.00  0.00    -0.034 C 
HETATM    2  C4  UNL     1       8.135  60.190  -0.486  1.00  0.00     0.015 C 
HETATM    3  C5  UNL     1       6.864  60.534  -0.011  1.00  0.00     0.057 C 
HETATM    4  C6  UNL     1       5.851  59.678   0.342  1.00  0.00     0.189 C 
HETATM    5  O1  UNL     1       4.680  60.092   0.407  1.00  0.00    -0.287 OA
HETATM    6  C7  UNL     1       5.973  58.339   0.653  1.00  0.00     0.098 A 
HETATM    7  C8  UNL     1       4.942  57.847   1.408  1.00  0.00     0.191 A 
HETATM    8  O2  UNL     1       4.030  58.622   1.731  1.00  0.00    -0.287 OA
HETATM    9  C9  UNL     1       4.984  56.513   1.765  1.00  0.00     0.094 A 
HETATM   10  C10 UNL     1       6.002  55.666   1.401  1.00  0.00     0.090 A 
HETATM   11  O5  UNL     1       6.967  56.200   0.672  1.00  0.00    -0.309 OA
HETATM   12  C17 UNL     1       6.987  57.457   0.299  1.00  0.00     0.095 A 
HETATM   13  C18 UNL     1       8.126  57.750  -0.464  1.00  0.00     0.049 C 
ENDROOT
BRANCH  10  14
HETATM   14  C11 UNL     1       6.081  54.256   1.757  1.00  0.00     0.001 A 
HETATM   15  C12 UNL     1       7.304  53.661   2.063  1.00  0.00     0.017 A 
HETATM   16  C13 UNL     1       7.391  52.329   2.402  1.00  0.00     0.040 A 
HETATM   17  C14 UNL     1       6.274  51.521   2.455  1.00  0.00     0.098 A 
HETATM   18  C15 UNL     1       5.062  52.098   2.155  1.00  0.00     0.099 A 
HETATM   19  C16 UNL     1       4.978  53.447   1.812  1.00  0.00     0.053 A 
BRANCH  17  20
HETATM   20  O3  UNL     1       6.387  50.174   2.799  1.00  0.00    -0.358 OA
ATOM     21  H3  UNL     1       6.476  49.508   2.127  1.00  0.00     0.217 HD
ENDBRANCH  17  20
BRANCH  18  22
HETATM   22  O4  UNL     1       3.932  51.297   2.204  1.00  0.00    -0.358 OA
ATOM     23  H4  UNL     1       3.937  50.556   2.799  1.00  0.00     0.217 HD
ENDBRANCH  18  22
ENDBRANCH  10  14
BRANCH   1  24
HETATM   24  C2  UNL     1       9.570  58.960  -2.001  1.00  0.00     0.001 C 
HETATM   25  C1  UNL     1      10.255  57.881  -2.287  1.00  0.00     0.012 C 
ENDBRANCH   1  24
TORSDOF 4
ENDMDL
MODEL 4
REMARK VINA RESULT: -9.598238667      2.672      6.870
REMARK  4 active torsions:
REMARK  status: ('A' for Active; 'I' for Inactive)
REMARK    1  A    between atoms: C2_2  and  C3_3 
REMARK    2  A    between atoms: C10_12  and  C11_13 
REMARK    3  A    between atoms: C14_16  and  O3_17 
REMARK    4  A    between atoms: C15_19  and  O4_20 
ROOT
HETATM    1  C3  UNL     1       8.545  59.001  -0.984  1.00  0.00    -0.034 C 
HETATM    2  C4  UNL     1       8.055  60.209  -0.553  1.00  0.00     0.015 C 
HETATM    3  C5  UNL     1       6.767  60.515  -0.096  1.00  0.00     0.057 C 
HETATM    4  C6  UNL     1       5.783  59.630   0.265  1.00  0.00     0.189 C 
HETATM    5  O1  UNL     1       4.597  60.002   0.311  1.00  0.00    -0.287 OA
HETATM    6  C7  UNL     1       5.951  58.302   0.603  1.00  0.00     0.098 A 
HETATM    7  C8  UNL     1       4.932  57.788   1.358  1.00  0.00     0.191 A 
HETATM    8  O2  UNL     1       3.989  58.535   1.658  1.00  0.00    -0.287 OA
HETATM    9  C9  UNL     1       5.019  56.463   1.742  1.00  0.00     0.094 A 
HETATM   10  C10 UNL     1       6.070  55.648   1.403  1.00  0.00     0.090 A 
HETATM   11  O5  UNL     1       7.022  56.202   0.673  1.00  0.00    -0.309 OA
HETATM   12  C17 UNL     1       7.000  57.452   0.276  1.00  0.00     0.095 A 
HETATM   13  C18 UNL     1       8.135  57.771  -0.483  1.00  0.00     0.049 C 
ENDROOT
BRANCH  10  14
HETATM   14  C11 UNL     1       6.197  54.248   1.788  1.00  0.00     0.001 A 
HETATM   15  C12 UNL     1       5.142  53.355   1.604  1.00  0.00     0.017 A 
HETATM   16  C13 UNL     1       5.250  52.030   1.964  1.00  0.00     0.040 A 
HETATM   17  C14 UNL     1       6.405  51.523   2.522  1.00  0.00     0.098 A 
HETATM   18  C15 UNL     1       7.453  52.396   2.708  1.00  0.00     0.099 A 
HETATM   19  C16 UNL     1       7.339  53.737   2.342  1.00  0.00     0.053 A 
BRANCH  17  20
HETATM   20  O3  UNL     1       6.492  50.179   2.879  1.00  0.00    -0.358 OA
ATOM     21  H3  UNL     1       7.194  49.871   3.440  1.00  0.00     0.217 HD
ENDBRANCH  17  20
BRANCH  18  22
HETATM   22  O4  UNL     1       8.619  51.900   3.268  1.00  0.00    -0.358 OA
ATOM     23  H4  UNL     1       9.443  52.288   2.997  1.00  0.00     0.217 HD
ENDBRANCH  18  22
ENDBRANCH  10  14
BRANCH   1  24
HETATM   24  C2  UNL     1       9.548  59.004  -2.031  1.00  0.00     0.001 C 
HETATM   25  C1  UNL     1      10.301  57.958  -2.264  1.00  0.00     0.012 C 
ENDBRANCH   1  24
TORSDOF 4
ENDMDL
MODEL 5
REMARK VINA RESULT: -9.315708136      3.623      7.684
REMARK  4 active torsions:
REMARK  status: ('A' for Active; 'I' for Inactive)
REMARK    1  A    between atoms: C2_2  and  C3_3 
REMARK    2  A    between atoms: C10_12  and  C11_13 
REMARK    3  A    between atoms: C14_16  and  O3_17 
REMARK    4  A    between atoms: C15_19  and  O4_20 
ROOT
HETATM    1  C3  UNL     1       5.841  58.408   0.526  1.00  0.00    -0.034 C 
HETATM    2  C4  UNL     1       6.657  58.937  -0.443  1.00  0.00     0.015 C 
HETATM    3  C5  UNL     1       8.025  58.717  -0.648  1.00  0.00     0.057 C 
HETATM    4  C6  UNL     1       8.799  57.732  -0.087  1.00  0.00     0.189 C 
HETATM    5  O1  UNL     1      10.037  57.850  -0.064  1.00  0.00    -0.287 OA
HETATM    6  C7  UNL     1       8.353  56.558   0.486  1.00  0.00     0.098 A 
HETATM    7  C8  UNL     1       9.297  55.568   0.531  1.00  0.00     0.191 A 
HETATM    8  O2  UNL     1      10.422  55.809   0.069  1.00  0.00    -0.287 OA
HETATM    9  C9  UNL     1       8.935  54.357   1.090  1.00  0.00     0.094 A 
HETATM   10  C10 UNL     1       7.685  54.105   1.598  1.00  0.00     0.090 A 
HETATM   11  O5  UNL     1       6.819  55.101   1.526  1.00  0.00    -0.309 OA
HETATM   12  C17 UNL     1       7.098  56.273   1.009  1.00  0.00     0.095 A 
HETATM   13  C18 UNL     1       5.994  57.136   1.063  1.00  0.00     0.049 C 
ENDROOT
BRANCH  10  14
HETATM   14  C11 UNL     1       7.267  52.843   2.195  1.00  0.00     0.001 A 
HETATM   15  C12 UNL     1       8.205  51.887   2.581  1.00  0.00     0.017 A 
HETATM   16  C13 UNL     1       7.821  50.691   3.146  1.00  0.00     0.040 A 
HETATM   17  C14 UNL     1       6.493  50.382   3.357  1.00  0.00     0.098 A 
HETATM   18  C15 UNL     1       5.559  51.319   2.979  1.00  0.00     0.099 A 
HETATM   19  C16 UNL     1       5.952  52.529   2.407  1.00  0.00     0.053 A 
BRANCH  17  20
HETATM   20  O3  UNL     1       6.128  49.165   3.930  1.00  0.00    -0.358 OA
ATOM     21  H3  UNL     1       5.212  48.930   4.027  1.00  0.00     0.217 HD
ENDBRANCH  17  20
BRANCH  18  22
HETATM   22  O4  UNL     1       4.221  51.022   3.185  1.00  0.00    -0.358 OA
ATOM     23  H4  UNL     1       3.579  51.685   2.963  1.00  0.00     0.217 HD
ENDBRANCH  18  22
ENDBRANCH  10  14
BRANCH   1  24
HETATM   24  C2  UNL     1       4.754  59.227   1.026  1.00  0.00     0.001 C 
HETATM   25  C1  UNL     1       3.685  58.695   1.565  1.00  0.00     0.012 C 
ENDBRANCH   1  24
TORSDOF 4
ENDMDL
