MODEL 1
REMARK VINA RESULT: -10.635292996      0.000      0.000
REMARK  8 active torsions:
REMARK  status: ('A' for Active; 'I' for Inactive)
REMARK    1  A    between atoms: O1_1  and  C1_3 
REMARK    2  A    between atoms: C1_3  and  N1_4 
REMARK    3  A    between atoms: C1_3  and  C9_12 
REMARK    4  A    between atoms: N1_4  and  C2_5 
REMARK    5  A    between atoms: C2_5  and  C3_6 
REMARK    6  A    between atoms: C11_14  and  C12_15 
REMARK    7  A    between atoms: C17_24  and  N4_25 
REMARK    8  A    between atoms: N4_25  and  C18_27 
ROOT
HETATM    1  C12 UNL     1      13.733  18.055-106.783  1.00  0.00    -0.019 A 
HETATM    2  C13 UNL     1      14.642  18.597-107.655  1.00  0.00     0.014 A 
HETATM    3  C14 UNL     1      15.782  17.897-108.051  1.00  0.00     0.031 A 
HETATM    4  C15 UNL     1      16.037  16.636-107.584  1.00  0.00     0.047 A 
HETATM    5  N2  UNL     1      17.131  15.941-107.933  1.00  0.00    -0.352 N 
ATOM      6  H2  UNL     1      17.796  16.365-108.579  1.00  0.00     0.166 HD
HETATM    7  C16 UNL     1      17.389  14.685-107.453  1.00  0.00     0.182 A 
HETATM    8  N3  UNL     1      16.485  14.151-106.596  1.00  0.00    -0.338 N 
ATOM      9  H3  UNL     1      16.660  13.216-106.229  1.00  0.00     0.168 HD
HETATM   10  C17 UNL     1      15.393  14.778-106.213  1.00  0.00     0.119 A 
HETATM   11  C25 UNL     1      15.128  16.062-106.700  1.00  0.00     0.035 A 
HETATM   12  C26 UNL     1      14.003  16.766-106.315  1.00  0.00     0.030 A 
ENDROOT
BRANCH   1  13
HETATM   13  C11 UNL     1      12.535  18.745-106.303  1.00  0.00     0.046 A 
HETATM   14  C10 UNL     1      12.432  19.393-105.097  1.00  0.00     0.054 A 
HETATM   15  C9  UNL     1      11.292  20.034-104.730  1.00  0.00     0.114 A 
HETATM   16  N8  UNL     1      10.245  20.015-105.599  1.00  0.00    -0.293 N 
HETATM   17  N7  UNL     1      10.304  19.399-106.769  1.00  0.00    -0.265 N 
ATOM     18  H8  UNL     1       9.383  20.493-105.338  1.00  0.00     0.187 HD
HETATM   19  C27 UNL     1      11.410  18.762-107.151  1.00  0.00     0.271 A 
ATOM     20  H7  UNL     1       9.491  19.412-107.386  1.00  0.00     0.190 HD
HETATM   21  O2  UNL     1      11.477  18.179-108.238  1.00  0.00    -0.266 OA
BRANCH  15  22
HETATM   22  C1  UNL     1      11.067  20.709-103.422  1.00  0.00     0.242 C 
BRANCH  22  23
HETATM   23  O1  UNL     1      12.099  21.447-103.110  1.00  0.00    -0.334 OA
ATOM     24  H1  UNL     1      12.891  21.159-102.671  1.00  0.00     0.220 HD
ENDBRANCH  22  23
BRANCH  22  25
HETATM   25  N1  UNL     1       9.956  20.562-102.715  1.00  0.00    -0.390 NA
BRANCH  25  26
HETATM   26  C2  UNL     1       8.799  20.407-101.976  1.00  0.00     0.197 C 
BRANCH  26  27
HETATM   27  C3  UNL     1       7.757  21.427-101.993  1.00  0.00    -0.007 A 
HETATM   28  C4  UNL     1       7.876  22.564-102.779  1.00  0.00     0.014 A 
HETATM   29  C5  UNL     1       6.898  23.562-102.787  1.00  0.00     0.001 A 
HETATM   30  C6  UNL     1       5.777  23.442-102.005  1.00  0.00     0.000 A 
HETATM   31  C7  UNL     1       5.642  22.326-101.222  1.00  0.00     0.001 A 
HETATM   32  C8  UNL     1       6.603  21.343-101.215  1.00  0.00     0.014 A 
ENDBRANCH  26  27
ENDBRANCH  25  26
ENDBRANCH  22  25
ENDBRANCH  15  22
ENDBRANCH   1  13
BRANCH  10  33
HETATM   33  N4  UNL     1      14.498  14.300-105.395  1.00  0.00    -0.342 N 
ATOM     34  H4  UNL     1      13.576  13.995-105.708  1.00  0.00     0.167 HD
BRANCH  33  35
HETATM   35  C18 UNL     1      14.908  14.234-104.023  1.00  0.00     0.034 A 
HETATM   36  C19 UNL     1      15.888  15.077-103.502  1.00  0.00     0.032 A 
HETATM   37  C20 UNL     1      16.257  14.995-102.178  1.00  0.00     0.034 A 
HETATM   38  C21 UNL     1      15.677  14.085-101.325  1.00  0.00     0.059 A 
HETATM   39  N5  UNL     1      15.826  13.779-100.013  1.00  0.00    -0.300 N 
HETATM   40  C23 UNL     1      14.713  13.244-101.809  1.00  0.00     0.011 A 
HETATM   41  N6  UNL     1      14.998  12.803 -99.713  1.00  0.00    -0.311 N 
ATOM     42  H5  UNL     1      16.473  14.231 -99.366  1.00  0.00     0.187 HD
HETATM   43  C22 UNL     1      14.278  12.428-100.788  1.00  0.00     0.120 A 
ATOM     44  H6  UNL     1      14.911  12.384 -98.787  1.00  0.00     0.186 HD
HETATM   45  C24 UNL     1      14.341  13.328-103.150  1.00  0.00     0.044 A 
ENDBRANCH  33  35
ENDBRANCH  10  33
TORSDOF 8
ENDMDL
MODEL 2
REMARK VINA RESULT: -10.405840480      1.421      1.751
REMARK  8 active torsions:
REMARK  status: ('A' for Active; 'I' for Inactive)
REMARK    1  A    between atoms: O1_1  and  C1_3 
REMARK    2  A    between atoms: C1_3  and  N1_4 
REMARK    3  A    between atoms: C1_3  and  C9_12 
REMARK    4  A    between atoms: N1_4  and  C2_5 
REMARK    5  A    between atoms: C2_5  and  C3_6 
REMARK    6  A    between atoms: C11_14  and  C12_15 
REMARK    7  A    between atoms: C17_24  and  N4_25 
REMARK    8  A    between atoms: N4_25  and  C18_27 
ROOT
HETATM    1  C12 UNL     1      12.654  18.406-106.180  1.00  0.00    -0.019 A 
HETATM    2  C13 UNL     1      13.412  19.176-107.024  1.00  0.00     0.014 A 
HETATM    3  C14 UNL     1      14.621  18.715-107.545  1.00  0.00     0.031 A 
HETATM    4  C15 UNL     1      15.099  17.471-107.235  1.00  0.00     0.047 A 
HETATM    5  N2  UNL     1      16.264  17.002-107.707  1.00  0.00    -0.352 N 
ATOM      6  H2  UNL     1      16.813  17.593-108.331  1.00  0.00     0.166 HD
HETATM    7  C16 UNL     1      16.745  15.762-107.383  1.00  0.00     0.182 A 
HETATM    8  N3  UNL     1      15.989  15.003-106.553  1.00  0.00    -0.338 N 
ATOM      9  H3  UNL     1      16.331  14.075-106.301  1.00  0.00     0.168 HD
HETATM   10  C17 UNL     1      14.839  15.401-106.054  1.00  0.00     0.119 A 
HETATM   11  C25 UNL     1      14.347  16.668-106.382  1.00  0.00     0.035 A 
HETATM   12  C26 UNL     1      13.151  17.136-105.871  1.00  0.00     0.030 A 
ENDROOT
BRANCH   1  13
HETATM   13  C11 UNL     1      11.395  18.839-105.573  1.00  0.00     0.046 A 
HETATM   14  C10 UNL     1      11.291  19.676-104.490  1.00  0.00     0.054 A 
HETATM   15  C9  UNL     1      10.083  20.055-103.997  1.00  0.00     0.114 A 
HETATM   16  N8  UNL     1       8.969  19.575-104.611  1.00  0.00    -0.293 N 
HETATM   17  N7  UNL     1       9.026  18.762-105.655  1.00  0.00    -0.265 N 
ATOM     18  H8  UNL     1       8.054  19.851-104.254  1.00  0.00     0.187 HD
HETATM   19  C27 UNL     1      10.198  18.376-106.156  1.00  0.00     0.271 A 
ATOM     20  H7  UNL     1       8.161  18.428-106.081  1.00  0.00     0.190 HD
HETATM   21  O2  UNL     1      10.267  17.615-107.126  1.00  0.00    -0.266 OA
BRANCH  15  22
HETATM   22  C1  UNL     1       9.873  20.907-102.794  1.00  0.00     0.242 C 
BRANCH  22  23
HETATM   23  O1  UNL     1      10.975  21.539-102.489  1.00  0.00    -0.334 OA
ATOM     24  H1  UNL     1      11.842  21.159-102.400  1.00  0.00     0.220 HD
ENDBRANCH  22  23
BRANCH  22  25
HETATM   25  N1  UNL     1       8.711  20.992-102.162  1.00  0.00    -0.390 NA
BRANCH  25  26
HETATM   26  C2  UNL     1       7.502  21.079-101.501  1.00  0.00     0.197 C 
BRANCH  26  27
HETATM   27  C3  UNL     1       6.247  20.822-102.198  1.00  0.00    -0.007 A 
HETATM   28  C4  UNL     1       5.129  20.359-101.521  1.00  0.00     0.014 A 
HETATM   29  C5  UNL     1       3.927  20.084-102.178  1.00  0.00     0.001 A 
HETATM   30  C6  UNL     1       3.820  20.268-103.534  1.00  0.00     0.000 A 
HETATM   31  C7  UNL     1       4.914  20.725-104.220  1.00  0.00     0.001 A 
HETATM   32  C8  UNL     1       6.096  20.997-103.573  1.00  0.00     0.014 A 
ENDBRANCH  26  27
ENDBRANCH  25  26
ENDBRANCH  22  25
ENDBRANCH  15  22
ENDBRANCH   1  13
BRANCH  10  33
HETATM   33  N4  UNL     1      14.081  14.701-105.257  1.00  0.00    -0.342 N 
ATOM     34  H4  UNL     1      13.176  14.328-105.545  1.00  0.00     0.167 HD
BRANCH  33  35
HETATM   35  C18 UNL     1      14.617  14.494-103.943  1.00  0.00     0.034 A 
HETATM   36  C19 UNL     1      15.726  15.199-103.477  1.00  0.00     0.032 A 
HETATM   37  C20 UNL     1      16.214  14.983-102.208  1.00  0.00     0.034 A 
HETATM   38  C21 UNL     1      15.631  14.072-101.357  1.00  0.00     0.059 A 
HETATM   39  N5  UNL     1      15.878  13.657-100.090  1.00  0.00    -0.300 N 
HETATM   40  C23 UNL     1      14.542  13.366-101.789  1.00  0.00     0.011 A 
HETATM   41  N6  UNL     1      14.987  12.745 -99.768  1.00  0.00    -0.311 N 
ATOM     42  H5  UNL     1      16.629  13.994 -99.489  1.00  0.00     0.187 HD
HETATM   43  C22 UNL     1      14.129  12.522-100.781  1.00  0.00     0.120 A 
ATOM     44  H6  UNL     1      14.950  12.269 -98.866  1.00  0.00     0.186 HD
HETATM   45  C24 UNL     1      14.049  13.585-103.074  1.00  0.00     0.044 A 
ENDBRANCH  33  35
ENDBRANCH  10  33
TORSDOF 8
ENDMDL
MODEL 3
REMARK VINA RESULT: -10.346341976      1.770      2.182
REMARK  8 active torsions:
REMARK  status: ('A' for Active; 'I' for Inactive)
REMARK    1  A    between atoms: O1_1  and  C1_3 
REMARK    2  A    between atoms: C1_3  and  N1_4 
REMARK    3  A    between atoms: C1_3  and  C9_12 
REMARK    4  A    between atoms: N1_4  and  C2_5 
REMARK    5  A    between atoms: C2_5  and  C3_6 
REMARK    6  A    between atoms: C11_14  and  C12_15 
REMARK    7  A    between atoms: C17_24  and  N4_25 
REMARK    8  A    between atoms: N4_25  and  C18_27 
ROOT
HETATM    1  C12 UNL     1      14.539  17.824-106.009  1.00  0.00    -0.019 A 
HETATM    2  C13 UNL     1      14.812  17.640-107.340  1.00  0.00     0.014 A 
HETATM    3  C14 UNL     1      15.774  16.725-107.769  1.00  0.00     0.031 A 
HETATM    4  C15 UNL     1      16.482  15.970-106.874  1.00  0.00     0.047 A 
HETATM    5  N2  UNL     1      17.423  15.091-107.251  1.00  0.00    -0.352 N 
ATOM      6  H2  UNL     1      17.613  14.973-108.246  1.00  0.00     0.166 HD
HETATM    7  C16 UNL     1      18.139  14.347-106.352  1.00  0.00     0.182 A 
HETATM    8  N3  UNL     1      17.861  14.528-105.038  1.00  0.00    -0.338 N 
ATOM      9  H3  UNL     1      18.383  13.982-104.353  1.00  0.00     0.168 HD
HETATM   10  C17 UNL     1      16.952  15.372-104.601  1.00  0.00     0.119 A 
HETATM   11  C25 UNL     1      16.221  16.135-105.516  1.00  0.00     0.035 A 
HETATM   12  C26 UNL     1      15.267  17.046-105.105  1.00  0.00     0.030 A 
ENDROOT
BRANCH   1  13
HETATM   13  C11 UNL     1      13.568  18.788-105.490  1.00  0.00     0.046 A 
HETATM   14  C10 UNL     1      12.295  18.478-105.081  1.00  0.00     0.054 A 
HETATM   15  C9  UNL     1      11.457  19.425-104.585  1.00  0.00     0.114 A 
HETATM   16  N8  UNL     1      11.919  20.702-104.505  1.00  0.00    -0.293 N 
HETATM   17  N7  UNL     1      13.139  21.043-104.892  1.00  0.00    -0.265 N 
ATOM     18  H8  UNL     1      11.302  21.425-104.133  1.00  0.00     0.187 HD
HETATM   19  C27 UNL     1      13.978  20.132-105.383  1.00  0.00     0.271 A 
ATOM     20  H7  UNL     1      13.439  22.015-104.813  1.00  0.00     0.190 HD
HETATM   21  O2  UNL     1      15.117  20.436-105.752  1.00  0.00    -0.266 OA
BRANCH  15  22
HETATM   22  C1  UNL     1      10.043  19.196-104.176  1.00  0.00     0.242 C 
BRANCH  22  23
HETATM   23  O1  UNL     1       9.436  18.438-105.050  1.00  0.00    -0.334 OA
ATOM     24  H1  UNL     1       9.671  17.550-105.293  1.00  0.00     0.220 HD
ENDBRANCH  22  23
BRANCH  22  25
HETATM   25  N1  UNL     1       9.522  19.698-103.066  1.00  0.00    -0.390 NA
BRANCH  25  26
HETATM   26  C2  UNL     1       8.981  20.219-101.907  1.00  0.00     0.197 C 
BRANCH  26  27
HETATM   27  C3  UNL     1       7.962  21.261-101.959  1.00  0.00    -0.007 A 
HETATM   28  C4  UNL     1       8.125  22.388-102.751  1.00  0.00     0.014 A 
HETATM   29  C5  UNL     1       7.170  23.407-102.792  1.00  0.00     0.001 A 
HETATM   30  C6  UNL     1       6.027  23.318-102.038  1.00  0.00     0.000 A 
HETATM   31  C7  UNL     1       5.848  22.212-101.250  1.00  0.00     0.001 A 
HETATM   32  C8  UNL     1       6.787  21.209-101.209  1.00  0.00     0.014 A 
ENDBRANCH  26  27
ENDBRANCH  25  26
ENDBRANCH  22  25
ENDBRANCH  15  22
ENDBRANCH   1  13
BRANCH  10  33
HETATM   33  N4  UNL     1      16.651  15.573-103.348  1.00  0.00    -0.342 N 
ATOM     34  H4  UNL     1      16.989  16.381-102.825  1.00  0.00     0.167 HD
BRANCH  33  35
HETATM   35  C18 UNL     1      15.810  14.571-102.761  1.00  0.00     0.034 A 
HETATM   36  C19 UNL     1      15.642  14.461-101.381  1.00  0.00     0.032 A 
HETATM   37  C20 UNL     1      14.823  13.493-100.847  1.00  0.00     0.034 A 
HETATM   38  C21 UNL     1      14.143  12.603-101.646  1.00  0.00     0.059 A 
HETATM   39  N5  UNL     1      13.290  11.574-101.418  1.00  0.00    -0.300 N 
HETATM   40  C23 UNL     1      14.291  12.687-103.004  1.00  0.00     0.011 A 
HETATM   41  N6  UNL     1      12.937  11.058-102.574  1.00  0.00    -0.311 N 
ATOM     42  H5  UNL     1      12.975  11.254-100.501  1.00  0.00     0.187 HD
HETATM   43  C22 UNL     1      13.525  11.707-103.597  1.00  0.00     0.120 A 
ATOM     44  H6  UNL     1      12.300  10.268-102.682  1.00  0.00     0.186 HD
HETATM   45  C24 UNL     1      15.121  13.667-103.543  1.00  0.00     0.044 A 
ENDBRANCH  33  35
ENDBRANCH  10  33
TORSDOF 8
ENDMDL
MODEL 4
REMARK VINA RESULT: -10.257314407      1.668      2.315
REMARK  8 active torsions:
REMARK  status: ('A' for Active; 'I' for Inactive)
REMARK    1  A    between atoms: O1_1  and  C1_3 
REMARK    2  A    between atoms: C1_3  and  N1_4 
REMARK    3  A    between atoms: C1_3  and  C9_12 
REMARK    4  A    between atoms: N1_4  and  C2_5 
REMARK    5  A    between atoms: C2_5  and  C3_6 
REMARK    6  A    between atoms: C11_14  and  C12_15 
REMARK    7  A    between atoms: C17_24  and  N4_25 
REMARK    8  A    between atoms: N4_25  and  C18_27 
ROOT
HETATM    1  C12 UNL     1      13.392  18.413-106.244  1.00  0.00    -0.019 A 
HETATM    2  C13 UNL     1      14.240  19.062-107.103  1.00  0.00     0.014 A 
HETATM    3  C14 UNL     1      15.365  18.431-107.634  1.00  0.00     0.031 A 
HETATM    4  C15 UNL     1      15.665  17.134-107.319  1.00  0.00     0.047 A 
HETATM    5  N2  UNL     1      16.746  16.502-107.801  1.00  0.00    -0.352 N 
ATOM      6  H2  UNL     1      17.366  17.005-108.436  1.00  0.00     0.166 HD
HETATM    7  C16 UNL     1      17.050  15.207-107.474  1.00  0.00     0.182 A 
HETATM    8  N3  UNL     1      16.205  14.568-106.628  1.00  0.00    -0.338 N 
ATOM      9  H3  UNL     1      16.414  13.603-106.373  1.00  0.00     0.168 HD
HETATM   10  C17 UNL     1      15.128  15.129-106.120  1.00  0.00     0.119 A 
HETATM   11  C25 UNL     1      14.818  16.451-106.451  1.00  0.00     0.035 A 
HETATM   12  C26 UNL     1      13.707  17.087-105.931  1.00  0.00     0.030 A 
ENDROOT
BRANCH   1  13
HETATM   13  C11 UNL     1      12.214  19.024-105.626  1.00  0.00     0.046 A 
HETATM   14  C10 UNL     1      10.914  18.747-105.968  1.00  0.00     0.054 A 
HETATM   15  C9  UNL     1       9.870  19.336-105.331  1.00  0.00     0.114 A 
HETATM   16  N8  UNL     1      10.151  20.219-104.334  1.00  0.00    -0.293 N 
HETATM   17  N7  UNL     1      11.390  20.516-103.976  1.00  0.00    -0.265 N 
ATOM     18  H8  UNL     1       9.377  20.668-103.845  1.00  0.00     0.187 HD
HETATM   19  C27 UNL     1      12.431  19.952-104.587  1.00  0.00     0.271 A 
ATOM     20  H7  UNL     1      11.550  21.185-103.223  1.00  0.00     0.190 HD
HETATM   21  O2  UNL     1      13.593  20.223-104.267  1.00  0.00    -0.266 OA
BRANCH  15  22
HETATM   22  C1  UNL     1       8.433  19.145-105.673  1.00  0.00     0.242 C 
BRANCH  22  23
HETATM   23  O1  UNL     1       8.266  18.016-106.310  1.00  0.00    -0.334 OA
ATOM     24  H1  UNL     1       7.809  17.246-105.991  1.00  0.00     0.220 HD
ENDBRANCH  22  23
BRANCH  22  25
HETATM   25  N1  UNL     1       7.490  20.016-105.346  1.00  0.00    -0.390 NA
BRANCH  25  26
HETATM   26  C2  UNL     1       6.505  20.924-105.008  1.00  0.00     0.197 C 
BRANCH  26  27
HETATM   27  C3  UNL     1       5.695  20.739-103.810  1.00  0.00    -0.007 A 
HETATM   28  C4  UNL     1       6.237  20.896-102.543  1.00  0.00     0.014 A 
HETATM   29  C5  UNL     1       5.481  20.697-101.385  1.00  0.00     0.001 A 
HETATM   30  C6  UNL     1       4.160  20.335-101.472  1.00  0.00     0.000 A 
HETATM   31  C7  UNL     1       3.607  20.175-102.715  1.00  0.00     0.001 A 
HETATM   32  C8  UNL     1       4.351  20.371-103.855  1.00  0.00     0.014 A 
ENDBRANCH  26  27
ENDBRANCH  25  26
ENDBRANCH  22  25
ENDBRANCH  15  22
ENDBRANCH   1  13
BRANCH  10  33
HETATM   33  N4  UNL     1      14.289  14.549-105.309  1.00  0.00    -0.342 N 
ATOM     34  H4  UNL     1      13.367  14.231-105.607  1.00  0.00     0.167 HD
BRANCH  33  35
HETATM   35  C18 UNL     1      14.761  14.391-103.964  1.00  0.00     0.034 A 
HETATM   36  C19 UNL     1      15.835  15.127-103.466  1.00  0.00     0.032 A 
HETATM   37  C20 UNL     1      16.262  14.958-102.167  1.00  0.00     0.034 A 
HETATM   38  C21 UNL     1      15.650  14.064-101.319  1.00  0.00     0.059 A 
HETATM   39  N5  UNL     1      15.839  13.692-100.029  1.00  0.00    -0.300 N 
HETATM   40  C23 UNL     1      14.594  13.329-101.781  1.00  0.00     0.011 A 
HETATM   41  N6  UNL     1      14.946  12.778 -99.722  1.00  0.00    -0.311 N 
ATOM     42  H5  UNL     1      16.554  14.060 -99.401  1.00  0.00     0.187 HD
HETATM   43  C22 UNL     1      14.143  12.510-100.769  1.00  0.00     0.120 A 
ATOM     44  H6  UNL     1      14.871  12.329 -98.809  1.00  0.00     0.186 HD
HETATM   45  C24 UNL     1      14.164  13.500-103.096  1.00  0.00     0.044 A 
ENDBRANCH  33  35
ENDBRANCH  10  33
TORSDOF 8
ENDMDL
MODEL 5
REMARK VINA RESULT: -10.219056881      3.430     11.160
REMARK  8 active torsions:
REMARK  status: ('A' for Active; 'I' for Inactive)
REMARK    1  A    between atoms: O1_1  and  C1_3 
REMARK    2  A    between atoms: C1_3  and  N1_4 
REMARK    3  A    between atoms: C1_3  and  C9_12 
REMARK    4  A    between atoms: N1_4  and  C2_5 
REMARK    5  A    between atoms: C2_5  and  C3_6 
REMARK    6  A    between atoms: C11_14  and  C12_15 
REMARK    7  A    between atoms: C17_24  and  N4_25 
REMARK    8  A    between atoms: N4_25  and  C18_27 
ROOT
HETATM    1  C12 UNL     1       9.706  20.765-103.114  1.00  0.00    -0.019 A 
HETATM    2  C13 UNL     1       8.977  20.026-102.218  1.00  0.00     0.014 A 
HETATM    3  C14 UNL     1       7.806  20.521-101.644  1.00  0.00     0.031 A 
HETATM    4  C15 UNL     1       7.336  21.768-101.956  1.00  0.00     0.047 A 
HETATM    5  N2  UNL     1       6.222  22.280-101.412  1.00  0.00    -0.352 N 
ATOM      6  H2  UNL     1       5.697  21.715-100.745  1.00  0.00     0.166 HD
HETATM    7  C16 UNL     1       5.762  23.533-101.717  1.00  0.00     0.182 A 
HETATM    8  N3  UNL     1       6.483  24.258-102.607  1.00  0.00    -0.338 N 
ATOM      9  H3  UNL     1       6.155  25.193-102.847  1.00  0.00     0.168 HD
HETATM   10  C17 UNL     1       7.583  23.816-103.177  1.00  0.00     0.119 A 
HETATM   11  C25 UNL     1       8.056  22.538-102.866  1.00  0.00     0.035 A 
HETATM   12  C26 UNL     1       9.215  22.036-103.427  1.00  0.00     0.030 A 
ENDROOT
BRANCH   1  13
HETATM   13  C11 UNL     1      10.957  20.320-103.728  1.00  0.00     0.046 A 
HETATM   14  C10 UNL     1      11.087  19.219-104.537  1.00  0.00     0.054 A 
HETATM   15  C9  UNL     1      12.280  18.882-105.094  1.00  0.00     0.114 A 
HETATM   16  N8  UNL     1      13.353  19.674-104.823  1.00  0.00    -0.293 N 
HETATM   17  N7  UNL     1      13.269  20.742-104.045  1.00  0.00    -0.265 N 
ATOM     18  H8  UNL     1      14.255  19.435-105.235  1.00  0.00     0.187 HD
HETATM   19  C27 UNL     1      12.111  21.092-103.488  1.00  0.00     0.271 A 
ATOM     20  H7  UNL     1      14.103  21.305-103.871  1.00  0.00     0.190 HD
HETATM   21  O2  UNL     1      12.020  22.083-102.756  1.00  0.00    -0.266 OA
BRANCH  15  22
HETATM   22  C1  UNL     1      12.530  17.676-105.931  1.00  0.00     0.242 C 
BRANCH  22  23
HETATM   23  O1  UNL     1      11.668  17.619-106.911  1.00  0.00    -0.334 OA
ATOM     24  H1  UNL     1      10.721  17.640-106.837  1.00  0.00     0.220 HD
ENDBRANCH  22  23
BRANCH  22  25
HETATM   25  N1  UNL     1      13.508  16.816-105.686  1.00  0.00    -0.390 NA
BRANCH  25  26
HETATM   26  C2  UNL     1      14.526  15.917-105.433  1.00  0.00     0.197 C 
BRANCH  26  27
HETATM   27  C3  UNL     1      14.322  14.485-105.614  1.00  0.00    -0.007 A 
HETATM   28  C4  UNL     1      13.128  13.876-105.254  1.00  0.00     0.014 A 
HETATM   29  C5  UNL     1      12.926  12.502-105.397  1.00  0.00     0.001 A 
HETATM   30  C6  UNL     1      13.919  11.703-105.906  1.00  0.00     0.000 A 
HETATM   31  C7  UNL     1      15.105  12.286-106.267  1.00  0.00     0.001 A 
HETATM   32  C8  UNL     1      15.304  13.639-106.127  1.00  0.00     0.014 A 
ENDBRANCH  26  27
ENDBRANCH  25  26
ENDBRANCH  22  25
ENDBRANCH  15  22
ENDBRANCH   1  13
BRANCH  10  33
HETATM   33  N4  UNL     1       8.302  24.478-104.040  1.00  0.00    -0.342 N 
ATOM     34  H4  UNL     1       8.234  24.322-105.045  1.00  0.00     0.167 HD
BRANCH  33  35
HETATM   35  C18 UNL     1       9.195  25.443-103.467  1.00  0.00     0.034 A 
HETATM   36  C19 UNL     1      10.576  25.257-103.455  1.00  0.00     0.032 A 
HETATM   37  C20 UNL     1      11.409  26.205-102.903  1.00  0.00     0.034 A 
HETATM   38  C21 UNL     1      10.914  27.362-102.348  1.00  0.00     0.059 A 
HETATM   39  N5  UNL     1      11.469  28.445-101.750  1.00  0.00    -0.300 N 
HETATM   40  C23 UNL     1       9.562  27.570-102.345  1.00  0.00     0.011 A 
HETATM   41  N6  UNL     1      10.505  29.270-101.401  1.00  0.00    -0.311 N 
ATOM     42  H5  UNL     1      12.466  28.596-101.597  1.00  0.00     0.187 HD
HETATM   43  C22 UNL     1       9.298  28.782-101.745  1.00  0.00     0.120 A 
ATOM     44  H6  UNL     1      10.653  30.163-100.931  1.00  0.00     0.186 HD
HETATM   45  C24 UNL     1       8.721  26.610-102.903  1.00  0.00     0.044 A 
ENDBRANCH  33  35
ENDBRANCH  10  33
TORSDOF 8
ENDMDL
