MODEL 1
REMARK VINA RESULT: -10.941254856      0.000      0.000
REMARK  6 active torsions:
REMARK  status: ('A' for Active; 'I' for Inactive)
REMARK       I    between atoms: C2_2  and  N1_4 
REMARK    1  A    between atoms: N2_6  and  C3_8 
REMARK    2  A    between atoms: C7_16  and  N5_17 
REMARK    3  A    between atoms: N5_17  and  S1_19 
REMARK    4  A    between atoms: S1_19  and  C8_22 
REMARK    5  A    between atoms: C11_25  and  N6_26 
REMARK       I    between atoms: N6_26  and  C12_28 
REMARK       I    between atoms: C12_28  and  N7_30 
REMARK    6  A    between atoms: N7_30  and  C13_32 
ROOT
HETATM    1  N5  UNL     1      14.286  17.357-105.520  1.00  0.00    -0.266 N 
ATOM      2  H5  UNL     1      13.446  16.839-105.263  1.00  0.00     0.180 HD
ENDROOT
BRANCH   1   3
HETATM    3  C7  UNL     1      15.362  16.664-105.612  1.00  0.00     0.115 A 
HETATM    4  C6  UNL     1      16.213  16.668-106.692  1.00  0.00     0.051 A 
HETATM    5  C5  UNL     1      17.351  15.884-106.696  1.00  0.00     0.037 A 
HETATM    6  C4  UNL     1      17.662  15.079-105.621  1.00  0.00     0.079 A 
HETATM    7  N4  UNL     1      18.672  14.233-105.349  1.00  0.00    -0.297 N 
HETATM    8  C21 UNL     1      16.795  15.091-104.547  1.00  0.00     0.109 A 
HETATM    9  N3  UNL     1      18.501  13.695-104.152  1.00  0.00    -0.282 N 
ATOM     10  H4  UNL     1      19.455  14.035-105.973  1.00  0.00     0.187 HD
HETATM   11  C3  UNL     1      17.366  14.198-103.639  1.00  0.00     0.164 A 
ATOM     12  H3  UNL     1      19.119  13.021-103.701  1.00  0.00     0.188 HD
HETATM   13  N8  UNL     1      15.705  15.851-104.559  1.00  0.00    -0.337 N 
ATOM     14  H8  UNL     1      15.091  15.828-103.745  1.00  0.00     0.167 HD
BRANCH  11  15
HETATM   15  N2  UNL     1      16.791  13.905-102.381  1.00  0.00    -0.280 N 
HETATM   16  N1  UNL     1      16.160  12.822-102.223  1.00  0.00    -0.269 N 
HETATM   17  C2  UNL     1      15.590  12.546-100.955  1.00  0.00     0.232 C 
ATOM     18  H1  UNL     1      16.062  12.160-102.993  1.00  0.00     0.190 HD
HETATM   19  C1  UNL     1      14.435  13.346-100.487  1.00  0.00     0.119 C 
HETATM   20  O1  UNL     1      16.097  11.614-100.262  1.00  0.00    -0.272 OA
ATOM     21  H2  UNL     1      16.885  14.564-101.608  1.00  0.00     0.188 HD
ENDBRANCH  11  15
ENDBRANCH   1   3
BRANCH   1  22
HETATM   22  S1  UNL     1      14.076  19.012-105.767  1.00  0.00     0.264 S 
HETATM   23  O2  UNL     1      15.295  19.848-105.480  1.00  0.00    -0.200 OA
HETATM   24  O3  UNL     1      13.734  19.319-107.226  1.00  0.00    -0.200 OA
BRANCH  22  25
HETATM   25  C8  UNL     1      12.742  19.573-104.759  1.00  0.00     0.080 A 
HETATM   26  C9  UNL     1      11.643  18.776-104.625  1.00  0.00     0.027 A 
HETATM   27  C10 UNL     1      10.577  19.208-103.830  1.00  0.00     0.031 A 
HETATM   28  C11 UNL     1      10.580  20.397-103.176  1.00  0.00     0.036 A 
HETATM   29  C19 UNL     1      11.736  21.207-103.334  1.00  0.00     0.031 A 
HETATM   30  C20 UNL     1      12.789  20.804-104.105  1.00  0.00     0.027 A 
BRANCH  28  31
HETATM   31  N6  UNL     1       9.540  20.854-102.355  1.00  0.00    -0.309 N 
HETATM   32  C12 UNL     1       8.182  20.938-102.719  1.00  0.00     0.325 C 
HETATM   33  O4  UNL     1       7.778  20.584-103.863  1.00  0.00    -0.247 OA
HETATM   34  N7  UNL     1       7.284  21.438-101.743  1.00  0.00    -0.309 N 
ATOM     35  H7  UNL     1       7.671  21.698-100.836  1.00  0.00     0.170 HD
ATOM     36  H6  UNL     1       9.788  21.151-101.412  1.00  0.00     0.170 HD
BRANCH  34  37
HETATM   37  C13 UNL     1       5.908  21.602-101.929  1.00  0.00     0.036 A 
HETATM   38  C14 UNL     1       5.043  20.558-101.581  1.00  0.00     0.029 A 
HETATM   39  C15 UNL     1       3.688  20.668-101.715  1.00  0.00     0.002 A 
HETATM   40  C16 UNL     1       3.105  21.812-102.198  1.00  0.00     0.000 A 
HETATM   41  C17 UNL     1       3.945  22.839-102.541  1.00  0.00     0.002 A 
HETATM   42  C18 UNL     1       5.334  22.743-102.410  1.00  0.00     0.029 A 
ENDBRANCH  34  37
ENDBRANCH  28  31
ENDBRANCH  22  25
ENDBRANCH   1  22
TORSDOF 6
ENDMDL
MODEL 2
REMARK VINA RESULT: -10.781120024      2.569      3.950
REMARK  6 active torsions:
REMARK  status: ('A' for Active; 'I' for Inactive)
REMARK       I    between atoms: C2_2  and  N1_4 
REMARK    1  A    between atoms: N2_6  and  C3_8 
REMARK    2  A    between atoms: C7_16  and  N5_17 
REMARK    3  A    between atoms: N5_17  and  S1_19 
REMARK    4  A    between atoms: S1_19  and  C8_22 
REMARK    5  A    between atoms: C11_25  and  N6_26 
REMARK       I    between atoms: N6_26  and  C12_28 
REMARK       I    between atoms: C12_28  and  N7_30 
REMARK    6  A    between atoms: N7_30  and  C13_32 
ROOT
HETATM    1  N5  UNL     1      13.855  18.303-106.525  1.00  0.00    -0.266 N 
ATOM      2  H5  UNL     1      13.305  18.506-107.359  1.00  0.00     0.180 HD
ENDROOT
BRANCH   1   3
HETATM    3  C7  UNL     1      14.155  17.068-106.343  1.00  0.00     0.115 A 
HETATM    4  C6  UNL     1      13.348  16.144-105.721  1.00  0.00     0.051 A 
HETATM    5  C5  UNL     1      13.763  14.834-105.573  1.00  0.00     0.037 A 
HETATM    6  C4  UNL     1      14.990  14.420-106.043  1.00  0.00     0.079 A 
HETATM    7  N4  UNL     1      15.643  13.243-106.043  1.00  0.00    -0.297 N 
HETATM    8  C21 UNL     1      15.784  15.364-106.665  1.00  0.00     0.109 A 
HETATM    9  N3  UNL     1      16.819  13.379-106.633  1.00  0.00    -0.282 N 
ATOM     10  H4  UNL     1      15.283  12.374-105.647  1.00  0.00     0.187 HD
HETATM   11  C3  UNL     1      16.934  14.659-107.023  1.00  0.00     0.164 A 
ATOM     12  H3  UNL     1      17.513  12.644-106.768  1.00  0.00     0.188 HD
HETATM   13  N8  UNL     1      15.371  16.619-106.799  1.00  0.00    -0.337 N 
ATOM     14  H8  UNL     1      15.988  17.285-107.264  1.00  0.00     0.167 HD
BRANCH  11  15
HETATM   15  N2  UNL     1      18.026  15.256-107.693  1.00  0.00    -0.280 N 
HETATM   16  N1  UNL     1      18.015  15.331-108.955  1.00  0.00    -0.269 N 
HETATM   17  C2  UNL     1      19.118  15.934-109.609  1.00  0.00     0.232 C 
ATOM     18  H1  UNL     1      17.228  14.965-109.491  1.00  0.00     0.190 HD
HETATM   19  C1  UNL     1      20.428  15.244-109.611  1.00  0.00     0.119 C 
HETATM   20  O1  UNL     1      18.938  17.054-110.175  1.00  0.00    -0.272 OA
ATOM     21  H2  UNL     1      18.816  15.624-107.163  1.00  0.00     0.188 HD
ENDBRANCH  11  15
ENDBRANCH   1   3
BRANCH   1  22
HETATM   22  S1  UNL     1      14.250  19.634-105.567  1.00  0.00     0.264 S 
HETATM   23  O2  UNL     1      15.439  19.426-104.667  1.00  0.00    -0.200 OA
HETATM   24  O3  UNL     1      14.624  20.845-106.423  1.00  0.00    -0.200 OA
BRANCH  22  25
HETATM   25  C8  UNL     1      12.851  20.064-104.585  1.00  0.00     0.080 A 
HETATM   26  C9  UNL     1      11.801  19.195-104.526  1.00  0.00     0.027 A 
HETATM   27  C10 UNL     1      10.684  19.523-103.752  1.00  0.00     0.031 A 
HETATM   28  C11 UNL     1      10.588  20.678-103.047  1.00  0.00     0.036 A 
HETATM   29  C19 UNL     1      11.695  21.565-103.127  1.00  0.00     0.031 A 
HETATM   30  C20 UNL     1      12.797  21.264-103.877  1.00  0.00     0.027 A 
BRANCH  28  31
HETATM   31  N6  UNL     1       9.494  21.031-102.246  1.00  0.00    -0.309 N 
HETATM   32  C12 UNL     1       8.144  21.025-102.647  1.00  0.00     0.325 C 
HETATM   33  O4  UNL     1       7.801  20.677-103.813  1.00  0.00    -0.247 OA
HETATM   34  N7  UNL     1       7.185  21.427-101.686  1.00  0.00    -0.309 N 
ATOM     35  H7  UNL     1       7.525  21.688-100.761  1.00  0.00     0.170 HD
ATOM     36  H6  UNL     1       9.693  21.318-101.287  1.00  0.00     0.170 HD
BRANCH  34  37
HETATM   37  C13 UNL     1       5.806  21.493-101.908  1.00  0.00     0.036 A 
HETATM   38  C14 UNL     1       5.011  20.381-101.610  1.00  0.00     0.029 A 
HETATM   39  C15 UNL     1       3.657  20.394-101.781  1.00  0.00     0.002 A 
HETATM   40  C16 UNL     1       3.004  21.504-102.255  1.00  0.00     0.000 A 
HETATM   41  C17 UNL     1       3.775  22.598-102.549  1.00  0.00     0.002 A 
HETATM   42  C18 UNL     1       5.162  22.601-102.379  1.00  0.00     0.029 A 
ENDBRANCH  34  37
ENDBRANCH  28  31
ENDBRANCH  22  25
ENDBRANCH   1  22
TORSDOF 6
ENDMDL
MODEL 3
REMARK VINA RESULT: -10.653172275      0.572      1.275
REMARK  6 active torsions:
REMARK  status: ('A' for Active; 'I' for Inactive)
REMARK       I    between atoms: C2_2  and  N1_4 
REMARK    1  A    between atoms: N2_6  and  C3_8 
REMARK    2  A    between atoms: C7_16  and  N5_17 
REMARK    3  A    between atoms: N5_17  and  S1_19 
REMARK    4  A    between atoms: S1_19  and  C8_22 
REMARK    5  A    between atoms: C11_25  and  N6_26 
REMARK       I    between atoms: N6_26  and  C12_28 
REMARK       I    between atoms: C12_28  and  N7_30 
REMARK    6  A    between atoms: N7_30  and  C13_32 
ROOT
HETATM    1  N5  UNL     1      14.229  16.833-105.818  1.00  0.00    -0.266 N 
ATOM      2  H5  UNL     1      13.403  16.250-105.683  1.00  0.00     0.180 HD
ENDROOT
BRANCH   1   3
HETATM    3  C7  UNL     1      15.358  16.244-105.663  1.00  0.00     0.115 A 
HETATM    4  C6  UNL     1      16.418  16.328-106.534  1.00  0.00     0.051 A 
HETATM    5  C5  UNL     1      17.597  15.653-106.277  1.00  0.00     0.037 A 
HETATM    6  C4  UNL     1      17.740  14.881-105.144  1.00  0.00     0.079 A 
HETATM    7  N4  UNL     1      18.741  14.133-104.643  1.00  0.00    -0.297 N 
HETATM    8  C21 UNL     1      16.664  14.812-104.282  1.00  0.00     0.109 A 
HETATM    9  N3  UNL     1      18.365  13.582-103.501  1.00  0.00    -0.282 N 
ATOM     10  H4  UNL     1      19.655  14.010-105.080  1.00  0.00     0.187 HD
HETATM   11  C3  UNL     1      17.105  13.977-103.254  1.00  0.00     0.164 A 
ATOM     12  H3  UNL     1      18.929  12.970-102.913  1.00  0.00     0.188 HD
HETATM   13  N8  UNL     1      15.538  15.466-104.544  1.00  0.00    -0.337 N 
ATOM     14  H8  UNL     1      14.767  15.387-103.881  1.00  0.00     0.167 HD
BRANCH  11  15
HETATM   15  N2  UNL     1      16.300  13.632-102.144  1.00  0.00    -0.280 N 
HETATM   16  N1  UNL     1      15.712  12.514-102.126  1.00  0.00    -0.269 N 
HETATM   17  C2  UNL     1      14.910  12.186-101.004  1.00  0.00     0.232 C 
ATOM     18  H1  UNL     1      15.812  11.860-102.903  1.00  0.00     0.190 HD
HETATM   19  C1  UNL     1      13.640  12.914-100.780  1.00  0.00     0.119 C 
HETATM   20  O1  UNL     1      15.315  11.270-100.227  1.00  0.00    -0.272 OA
ATOM     21  H2  UNL     1      16.195  14.282-101.364  1.00  0.00     0.188 HD
ENDBRANCH  11  15
ENDBRANCH   1   3
BRANCH   1  22
HETATM   22  S1  UNL     1      13.928  18.444-106.217  1.00  0.00     0.264 S 
HETATM   23  O2  UNL     1      15.141  19.337-106.173  1.00  0.00    -0.200 OA
HETATM   24  O3  UNL     1      13.407  18.577-107.649  1.00  0.00    -0.200 OA
BRANCH  22  25
HETATM   25  C8  UNL     1      12.702  19.082-105.123  1.00  0.00     0.080 A 
HETATM   26  C9  UNL     1      12.911  20.298-104.543  1.00  0.00     0.027 A 
HETATM   27  C10 UNL     1      11.948  20.816-103.671  1.00  0.00     0.031 A 
HETATM   28  C11 UNL     1      10.800  20.161-103.368  1.00  0.00     0.036 A 
HETATM   29  C19 UNL     1      10.608  18.896-103.985  1.00  0.00     0.031 A 
HETATM   30  C20 UNL     1      11.536  18.371-104.840  1.00  0.00     0.027 A 
BRANCH  28  31
HETATM   31  N6  UNL     1       9.803  20.657-102.517  1.00  0.00    -0.309 N 
HETATM   32  C12 UNL     1       8.440  20.801-102.841  1.00  0.00     0.325 C 
HETATM   33  O4  UNL     1       7.990  20.472-103.976  1.00  0.00    -0.247 OA
HETATM   34  N7  UNL     1       7.592  21.332-101.838  1.00  0.00    -0.309 N 
ATOM     35  H7  UNL     1       8.015  21.570-100.941  1.00  0.00     0.170 HD
ATOM     36  H6  UNL     1      10.091  20.937-101.579  1.00  0.00     0.170 HD
BRANCH  34  37
HETATM   37  C13 UNL     1       6.220  21.555-101.984  1.00  0.00     0.036 A 
HETATM   38  C14 UNL     1       5.773  22.810-102.413  1.00  0.00     0.029 A 
HETATM   39  C15 UNL     1       4.447  23.080-102.599  1.00  0.00     0.002 A 
HETATM   40  C16 UNL     1       3.483  22.130-102.374  1.00  0.00     0.000 A 
HETATM   41  C17 UNL     1       3.912  20.898-101.953  1.00  0.00     0.002 A 
HETATM   42  C18 UNL     1       5.266  20.606-101.759  1.00  0.00     0.029 A 
ENDBRANCH  34  37
ENDBRANCH  28  31
ENDBRANCH  22  25
ENDBRANCH   1  22
TORSDOF 6
ENDMDL
MODEL 4
REMARK VINA RESULT: -10.638871128      4.167      6.053
REMARK  6 active torsions:
REMARK  status: ('A' for Active; 'I' for Inactive)
REMARK       I    between atoms: C2_2  and  N1_4 
REMARK    1  A    between atoms: N2_6  and  C3_8 
REMARK    2  A    between atoms: C7_16  and  N5_17 
REMARK    3  A    between atoms: N5_17  and  S1_19 
REMARK    4  A    between atoms: S1_19  and  C8_22 
REMARK    5  A    between atoms: C11_25  and  N6_26 
REMARK       I    between atoms: N6_26  and  C12_28 
REMARK       I    between atoms: C12_28  and  N7_30 
REMARK    6  A    between atoms: N7_30  and  C13_32 
ROOT
HETATM    1  N5  UNL     1      13.754  18.562-106.686  1.00  0.00    -0.266 N 
ATOM      2  H5  UNL     1      13.197  17.777-106.349  1.00  0.00     0.180 HD
ENDROOT
BRANCH   1   3
HETATM    3  C7  UNL     1      14.028  18.553-107.940  1.00  0.00     0.115 A 
HETATM    4  C6  UNL     1      13.345  17.834-108.892  1.00  0.00     0.051 A 
HETATM    5  C5  UNL     1      13.720  17.891-110.221  1.00  0.00     0.037 A 
HETATM    6  C4  UNL     1      14.784  18.667-110.626  1.00  0.00     0.079 A 
HETATM    7  N4  UNL     1      15.361  18.913-111.817  1.00  0.00    -0.297 N 
HETATM    8  C21 UNL     1      15.455  19.382-109.654  1.00  0.00     0.109 A 
HETATM    9  N3  UNL     1      16.374  19.750-111.663  1.00  0.00    -0.282 N 
ATOM     10  H4  UNL     1      15.062  18.513-112.707  1.00  0.00     0.187 HD
HETATM   11  C3  UNL     1      16.457  20.054-110.357  1.00  0.00     0.164 A 
ATOM     12  H3  UNL     1      16.982  20.102-112.402  1.00  0.00     0.188 HD
HETATM   13  N8  UNL     1      15.083  19.316-108.381  1.00  0.00    -0.337 N 
ATOM     14  H8  UNL     1      15.607  19.859-107.695  1.00  0.00     0.167 HD
BRANCH  11  15
HETATM   15  N2  UNL     1      17.391  20.913-109.734  1.00  0.00    -0.280 N 
HETATM   16  N1  UNL     1      17.020  22.056-109.345  1.00  0.00    -0.269 N 
HETATM   17  C2  UNL     1      17.970  22.903-108.721  1.00  0.00     0.232 C 
ATOM     18  H1  UNL     1      16.056  22.364-109.476  1.00  0.00     0.190 HD
HETATM   19  C1  UNL     1      19.070  23.479-109.528  1.00  0.00     0.119 C 
HETATM   20  O1  UNL     1      17.840  23.138-107.483  1.00  0.00    -0.272 OA
ATOM     21  H2  UNL     1      18.356  20.612-109.600  1.00  0.00     0.188 HD
ENDBRANCH  11  15
ENDBRANCH   1   3
BRANCH   1  22
HETATM   22  S1  UNL     1      14.192  19.700-105.521  1.00  0.00     0.264 S 
HETATM   23  O2  UNL     1      15.318  19.270-104.618  1.00  0.00    -0.200 OA
HETATM   24  O3  UNL     1      14.690  20.995-106.165  1.00  0.00    -0.200 OA
BRANCH  22  25
HETATM   25  C8  UNL     1      12.778  20.081-104.539  1.00  0.00     0.080 A 
HETATM   26  C9  UNL     1      11.751  19.186-104.495  1.00  0.00     0.027 A 
HETATM   27  C10 UNL     1      10.622  19.475-103.722  1.00  0.00     0.031 A 
HETATM   28  C11 UNL     1      10.495  20.618-103.001  1.00  0.00     0.036 A 
HETATM   29  C19 UNL     1      11.580  21.533-103.065  1.00  0.00     0.031 A 
HETATM   30  C20 UNL     1      12.692  21.270-103.814  1.00  0.00     0.027 A 
BRANCH  28  31
HETATM   31  N6  UNL     1       9.390  20.933-102.200  1.00  0.00    -0.309 N 
HETATM   32  C12 UNL     1       8.052  21.005-102.635  1.00  0.00     0.325 C 
HETATM   33  O4  UNL     1       7.732  20.772-103.835  1.00  0.00    -0.247 OA
HETATM   34  N7  UNL     1       7.078  21.350-101.666  1.00  0.00    -0.309 N 
ATOM     35  H7  UNL     1       7.400  21.516-100.713  1.00  0.00     0.170 HD
ATOM     36  H6  UNL     1       9.570  21.127-101.215  1.00  0.00     0.170 HD
BRANCH  34  37
HETATM   37  C13 UNL     1       5.709  21.478-101.916  1.00  0.00     0.036 A 
HETATM   38  C14 UNL     1       4.868  20.381-101.698  1.00  0.00     0.029 A 
HETATM   39  C15 UNL     1       3.519  20.453-101.900  1.00  0.00     0.002 A 
HETATM   40  C16 UNL     1       2.918  21.610-102.327  1.00  0.00     0.000 A 
HETATM   41  C17 UNL     1       3.735  22.690-102.544  1.00  0.00     0.002 A 
HETATM   42  C18 UNL     1       5.117  22.632-102.342  1.00  0.00     0.029 A 
ENDBRANCH  34  37
ENDBRANCH  28  31
ENDBRANCH  22  25
ENDBRANCH   1  22
TORSDOF 6
ENDMDL
MODEL 5
REMARK VINA RESULT: -10.619937747      1.514      2.110
REMARK  6 active torsions:
REMARK  status: ('A' for Active; 'I' for Inactive)
REMARK       I    between atoms: C2_2  and  N1_4 
REMARK    1  A    between atoms: N2_6  and  C3_8 
REMARK    2  A    between atoms: C7_16  and  N5_17 
REMARK    3  A    between atoms: N5_17  and  S1_19 
REMARK    4  A    between atoms: S1_19  and  C8_22 
REMARK    5  A    between atoms: C11_25  and  N6_26 
REMARK       I    between atoms: N6_26  and  C12_28 
REMARK       I    between atoms: C12_28  and  N7_30 
REMARK    6  A    between atoms: N7_30  and  C13_32 
ROOT
HETATM    1  N5  UNL     1      14.063  18.640-106.707  1.00  0.00    -0.266 N 
ATOM      2  H5  UNL     1      13.085  18.438-106.912  1.00  0.00     0.180 HD
ENDROOT
BRANCH   1   3
HETATM    3  C7  UNL     1      14.924  17.935-107.348  1.00  0.00     0.115 A 
HETATM    4  C6  UNL     1      15.129  17.984-108.707  1.00  0.00     0.051 A 
HETATM    5  C5  UNL     1      16.083  17.182-109.304  1.00  0.00     0.037 A 
HETATM    6  C4  UNL     1      16.850  16.314-108.557  1.00  0.00     0.079 A 
HETATM    7  N4  UNL     1      17.827  15.437-108.854  1.00  0.00    -0.297 N 
HETATM    8  C21 UNL     1      16.628  16.282-107.194  1.00  0.00     0.109 A 
HETATM    9  N3  UNL     1      18.247  14.838-107.752  1.00  0.00    -0.282 N 
ATOM     10  H4  UNL     1      18.190  15.261-109.791  1.00  0.00     0.187 HD
HETATM   11  C3  UNL     1      17.536  15.331-106.724  1.00  0.00     0.164 A 
ATOM     12  H3  UNL     1      18.978  14.130-107.693  1.00  0.00     0.188 HD
HETATM   13  N8  UNL     1      15.707  17.060-106.636  1.00  0.00    -0.337 N 
ATOM     14  H8  UNL     1      15.575  17.003-105.626  1.00  0.00     0.167 HD
BRANCH  11  15
HETATM   15  N2  UNL     1      17.645  14.980-105.360  1.00  0.00    -0.280 N 
HETATM   16  N1  UNL     1      16.830  14.151-104.864  1.00  0.00    -0.269 N 
HETATM   17  C2  UNL     1      16.956  13.812-103.494  1.00  0.00     0.232 C 
ATOM     18  H1  UNL     1      16.098  13.735-105.438  1.00  0.00     0.190 HD
HETATM   19  C1  UNL     1      16.633  14.822-102.461  1.00  0.00     0.119 C 
HETATM   20  O1  UNL     1      17.344  12.641-103.201  1.00  0.00    -0.272 OA
ATOM     21  H2  UNL     1      18.376  15.394-104.779  1.00  0.00     0.188 HD
ENDBRANCH  11  15
ENDBRANCH   1   3
BRANCH   1  22
HETATM   22  S1  UNL     1      14.336  19.858-105.573  1.00  0.00     0.264 S 
HETATM   23  O2  UNL     1      15.499  19.605-104.650  1.00  0.00    -0.200 OA
HETATM   24  O3  UNL     1      14.667  21.188-106.252  1.00  0.00    -0.200 OA
BRANCH  22  25
HETATM   25  C8  UNL     1      12.874  20.079-104.613  1.00  0.00     0.080 A 
HETATM   26  C9  UNL     1      11.917  19.107-104.645  1.00  0.00     0.027 A 
HETATM   27  C10 UNL     1      10.752  19.269-103.890  1.00  0.00     0.031 A 
HETATM   28  C11 UNL     1      10.520  20.358-103.115  1.00  0.00     0.036 A 
HETATM   29  C19 UNL     1      11.532  21.355-103.101  1.00  0.00     0.031 A 
HETATM   30  C20 UNL     1      12.679  21.217-103.831  1.00  0.00     0.027 A 
BRANCH  28  31
HETATM   31  N6  UNL     1       9.375  20.546-102.330  1.00  0.00    -0.309 N 
HETATM   32  C12 UNL     1       8.097  20.895-102.809  1.00  0.00     0.325 C 
HETATM   33  O4  UNL     1       7.875  21.066-104.042  1.00  0.00    -0.247 OA
HETATM   34  N7  UNL     1       7.068  21.046-101.847  1.00  0.00    -0.309 N 
ATOM     35  H7  UNL     1       7.310  20.886-100.870  1.00  0.00     0.170 HD
ATOM     36  H6  UNL     1       9.475  20.418-101.323  1.00  0.00     0.170 HD
BRANCH  34  37
HETATM   37  C13 UNL     1       5.746  21.398-102.136  1.00  0.00     0.036 A 
HETATM   38  C14 UNL     1       4.759  20.407-102.134  1.00  0.00     0.029 A 
HETATM   39  C15 UNL     1       3.447  20.693-102.382  1.00  0.00     0.002 A 
HETATM   40  C16 UNL     1       3.029  21.973-102.647  1.00  0.00     0.000 A 
HETATM   41  C17 UNL     1       3.990  22.950-102.651  1.00  0.00     0.002 A 
HETATM   42  C18 UNL     1       5.337  22.674-102.398  1.00  0.00     0.029 A 
ENDBRANCH  34  37
ENDBRANCH  28  31
ENDBRANCH  22  25
ENDBRANCH   1  22
TORSDOF 6
ENDMDL
