MODEL 1
REMARK VINA RESULT: -9.903637292      0.000      0.000
REMARK  6 active torsions:
REMARK  status: ('A' for Active; 'I' for Inactive)
REMARK    1  A    between atoms: C6_7  and  N2_8 
REMARK    2  A    between atoms: N2_8  and  C7_10 
REMARK    3  A    between atoms: C11_14  and  S1_15 
REMARK    4  A    between atoms: S1_15  and  N3_18 
REMARK    5  A    between atoms: N3_18  and  C12_20 
REMARK    6  A    between atoms: C17_25  and  C18_26 
ROOT
HETATM    1  N1  UNL     1      16.591  16.758-105.532  1.00  0.00    -0.191 NA
HETATM    2  C1  UNL     1      15.563  17.285-105.462  1.00  0.00     0.099 C 
HETATM    3  C2  UNL     1      14.304  17.951-105.380  1.00  0.00     0.046 A 
HETATM    4  C3  UNL     1      14.200  19.200-104.769  1.00  0.00     0.024 A 
HETATM    5  C4  UNL     1      13.007  19.861-104.678  1.00  0.00     0.019 A 
HETATM    6  C5  UNL     1      11.862  19.317-105.187  1.00  0.00     0.035 A 
HETATM    7  C6  UNL     1      10.648  19.967-105.106  1.00  0.00     0.120 A 
HETATM    8  N5  UNL     1       9.587  19.354-105.633  1.00  0.00    -0.318 N 
ATOM      9  H5  UNL     1       8.681  19.819-105.582  1.00  0.00     0.170 HD
HETATM   10  C20 UNL     1       9.661  18.146-106.230  1.00  0.00     0.177 A 
HETATM   11  S2  UNL     1       8.324  17.442-106.860  1.00  0.00    -0.040 SA
HETATM   12  N6  UNL     1      10.862  17.502-106.311  1.00  0.00    -0.332 N 
ATOM     13  H6  UNL     1      10.929  16.588-106.761  1.00  0.00     0.168 HD
HETATM   14  C21 UNL     1      11.947  18.085-105.794  1.00  0.00     0.049 A 
HETATM   15  C22 UNL     1      13.152  17.403-105.894  1.00  0.00     0.053 A 
ENDROOT
BRANCH   7  16
HETATM   16  N2  UNL     1      10.583  21.135-104.528  1.00  0.00    -0.342 N 
ATOM     17  H2  UNL     1      11.271  21.864-104.719  1.00  0.00     0.167 HD
BRANCH  16  18
HETATM   18  C7  UNL     1       9.493  21.346-103.605  1.00  0.00     0.035 A 
HETATM   19  C8  UNL     1       9.369  20.547-102.489  1.00  0.00     0.029 A 
HETATM   20  C9  UNL     1       8.328  20.750-101.610  1.00  0.00     0.004 A 
HETATM   21  C10 UNL     1       7.413  21.761-101.855  1.00  0.00     0.025 A 
HETATM   22  C11 UNL     1       7.503  22.580-102.958  1.00  0.00     0.082 A 
HETATM   23  C19 UNL     1       8.572  22.348-103.832  1.00  0.00     0.054 A 
BRANCH  22  24
HETATM   24  S1  UNL     1       6.358  23.858-103.233  1.00  0.00     0.263 S 
HETATM   25  O1  UNL     1       6.167  24.699-101.985  1.00  0.00    -0.200 OA
HETATM   26  O2  UNL     1       6.871  24.729-104.359  1.00  0.00    -0.200 OA
BRANCH  24  27
HETATM   27  N3  UNL     1       4.842  23.221-103.730  1.00  0.00    -0.280 N 
ATOM     28  H3  UNL     1       4.324  23.749-104.433  1.00  0.00     0.179 HD
BRANCH  27  29
HETATM   29  C12 UNL     1       4.247  22.035-103.255  1.00  0.00     0.058 A 
HETATM   30  C13 UNL     1       3.423  22.055-102.154  1.00  0.00     0.031 A 
HETATM   31  C14 UNL     1       2.830  20.887-101.726  1.00  0.00     0.002 A 
HETATM   32  C15 UNL     1       3.024  19.676-102.359  1.00  0.00     0.001 A 
HETATM   33  C16 UNL     1       3.856  19.703-103.455  1.00  0.00     0.019 A 
HETATM   34  C17 UNL     1       4.474  20.857-103.919  1.00  0.00     0.056 A 
BRANCH  34  35
HETATM   35  C18 UNL     1       5.359  20.775-105.097  1.00  0.00     0.267 C 
HETATM   36  N4  UNL     1       5.131  21.554-106.251  1.00  0.00    -0.057 NA
HETATM   37  O3  UNL     1       6.325  20.010-105.079  1.00  0.00    -0.271 OA
ENDBRANCH  34  35
ENDBRANCH  27  29
ENDBRANCH  24  27
ENDBRANCH  22  24
ENDBRANCH  16  18
ENDBRANCH   7  16
TORSDOF 6
ENDMDL
MODEL 2
REMARK VINA RESULT: -9.745470299      3.042      9.092
REMARK  6 active torsions:
REMARK  status: ('A' for Active; 'I' for Inactive)
REMARK    1  A    between atoms: C6_7  and  N2_8 
REMARK    2  A    between atoms: N2_8  and  C7_10 
REMARK    3  A    between atoms: C11_14  and  S1_15 
REMARK    4  A    between atoms: S1_15  and  N3_18 
REMARK    5  A    between atoms: N3_18  and  C12_20 
REMARK    6  A    between atoms: C17_25  and  C18_26 
ROOT
HETATM    1  N1  UNL     1       2.365  21.430-101.379  1.00  0.00    -0.191 NA
HETATM    2  C1  UNL     1       3.495  21.560-101.596  1.00  0.00     0.099 C 
HETATM    3  C2  UNL     1       4.888  21.702-101.870  1.00  0.00     0.046 A 
HETATM    4  C3  UNL     1       5.786  20.695-101.519  1.00  0.00     0.024 A 
HETATM    5  C4  UNL     1       7.126  20.804-101.770  1.00  0.00     0.019 A 
HETATM    6  C5  UNL     1       7.637  21.914-102.380  1.00  0.00     0.035 A 
HETATM    7  C6  UNL     1       8.985  22.045-102.643  1.00  0.00     0.120 A 
HETATM    8  N5  UNL     1       9.388  23.165-103.242  1.00  0.00    -0.318 N 
ATOM      9  H5  UNL     1      10.381  23.281-103.444  1.00  0.00     0.170 HD
HETATM   10  C20 UNL     1       8.538  24.155-103.593  1.00  0.00     0.177 A 
HETATM   11  S2  UNL     1       9.091  25.510-104.327  1.00  0.00    -0.040 SA
HETATM   12  N6  UNL     1       7.205  24.027-103.333  1.00  0.00    -0.332 N 
ATOM     13  H6  UNL     1       6.554  24.768-103.594  1.00  0.00     0.168 HD
HETATM   14  C21 UNL     1       6.764  22.917-102.733  1.00  0.00     0.049 A 
HETATM   15  C22 UNL     1       5.402  22.819-102.485  1.00  0.00     0.053 A 
ENDROOT
BRANCH   7  16
HETATM   16  N2  UNL     1       9.801  21.085-102.302  1.00  0.00    -0.342 N 
ATOM     17  H2  UNL     1       9.719  20.609-101.403  1.00  0.00     0.167 HD
BRANCH  16  18
HETATM   18  C7  UNL     1      10.824  20.729-103.256  1.00  0.00     0.035 A 
HETATM   19  C8  UNL     1      12.032  21.393-103.253  1.00  0.00     0.029 A 
HETATM   20  C9  UNL     1      13.006  21.051-104.165  1.00  0.00     0.004 A 
HETATM   21  C10 UNL     1      12.764  20.038-105.078  1.00  0.00     0.025 A 
HETATM   22  C11 UNL     1      11.571  19.352-105.113  1.00  0.00     0.082 A 
HETATM   23  C19 UNL     1      10.601  19.723-104.174  1.00  0.00     0.054 A 
BRANCH  22  24
HETATM   24  S1  UNL     1      11.297  18.069-106.252  1.00  0.00     0.263 S 
HETATM   25  O1  UNL     1      10.267  17.085-105.730  1.00  0.00    -0.200 OA
HETATM   26  O2  UNL     1      10.810  18.674-107.550  1.00  0.00    -0.200 OA
BRANCH  24  27
HETATM   27  N3  UNL     1      12.761  17.235-106.594  1.00  0.00    -0.280 N 
ATOM     28  H3  UNL     1      13.217  17.445-107.482  1.00  0.00     0.179 HD
BRANCH  27  29
HETATM   29  C12 UNL     1      13.387  16.289-105.760  1.00  0.00     0.058 A 
HETATM   30  C13 UNL     1      12.723  15.148-105.369  1.00  0.00     0.031 A 
HETATM   31  C14 UNL     1      13.369  14.223-104.577  1.00  0.00     0.002 A 
HETATM   32  C15 UNL     1      14.671  14.385-104.148  1.00  0.00     0.001 A 
HETATM   33  C16 UNL     1      15.295  15.540-104.562  1.00  0.00     0.019 A 
HETATM   34  C17 UNL     1      14.682  16.498-105.360  1.00  0.00     0.056 A 
BRANCH  34  35
HETATM   35  C18 UNL     1      15.437  17.708-105.738  1.00  0.00     0.267 C 
HETATM   36  N4  UNL     1      15.814  17.959-107.074  1.00  0.00    -0.057 NA
HETATM   37  O3  UNL     1      15.748  18.526-104.871  1.00  0.00    -0.271 OA
ENDBRANCH  34  35
ENDBRANCH  27  29
ENDBRANCH  24  27
ENDBRANCH  22  24
ENDBRANCH  16  18
ENDBRANCH   7  16
TORSDOF 6
ENDMDL
MODEL 3
REMARK VINA RESULT: -9.739253113      3.862      8.062
REMARK  6 active torsions:
REMARK  status: ('A' for Active; 'I' for Inactive)
REMARK    1  A    between atoms: C6_7  and  N2_8 
REMARK    2  A    between atoms: N2_8  and  C7_10 
REMARK    3  A    between atoms: C11_14  and  S1_15 
REMARK    4  A    between atoms: S1_15  and  N3_18 
REMARK    5  A    between atoms: N3_18  and  C12_20 
REMARK    6  A    between atoms: C17_25  and  C18_26 
ROOT
HETATM    1  N1  UNL     1       4.789  20.061-101.281  1.00  0.00    -0.191 NA
HETATM    2  C1  UNL     1       5.780  20.563-101.605  1.00  0.00     0.099 C 
HETATM    3  C2  UNL     1       7.008  21.165-102.012  1.00  0.00     0.046 A 
HETATM    4  C3  UNL     1       8.209  20.467-101.907  1.00  0.00     0.024 A 
HETATM    5  C4  UNL     1       9.400  21.020-102.291  1.00  0.00     0.019 A 
HETATM    6  C5  UNL     1       9.455  22.288-102.795  1.00  0.00     0.035 A 
HETATM    7  C6  UNL     1      10.645  22.864-103.189  1.00  0.00     0.120 A 
HETATM    8  N5  UNL     1      10.596  24.107-103.669  1.00  0.00    -0.318 N 
ATOM      9  H5  UNL     1      11.466  24.551-103.964  1.00  0.00     0.170 HD
HETATM   10  C20 UNL     1       9.445  24.804-103.782  1.00  0.00     0.177 A 
HETATM   11  S2  UNL     1       9.446  26.328-104.380  1.00  0.00    -0.040 SA
HETATM   12  N6  UNL     1       8.267  24.235-103.393  1.00  0.00    -0.332 N 
ATOM     13  H6  UNL     1       7.391  24.752-103.474  1.00  0.00     0.168 HD
HETATM   14  C21 UNL     1       8.277  22.991-102.906  1.00  0.00     0.049 A 
HETATM   15  C22 UNL     1       7.062  22.442-102.521  1.00  0.00     0.053 A 
ENDROOT
BRANCH   7  16
HETATM   16  N2  UNL     1      11.754  22.185-103.078  1.00  0.00    -0.342 N 
ATOM     17  H2  UNL     1      12.089  21.855-102.173  1.00  0.00     0.167 HD
BRANCH  16  18
HETATM   18  C7  UNL     1      12.483  21.923-104.296  1.00  0.00     0.035 A 
HETATM   19  C8  UNL     1      12.567  22.893-105.272  1.00  0.00     0.029 A 
HETATM   20  C9  UNL     1      13.263  22.641-106.434  1.00  0.00     0.004 A 
HETATM   21  C10 UNL     1      13.876  21.411-106.611  1.00  0.00     0.025 A 
HETATM   22  C11 UNL     1      13.815  20.417-105.660  1.00  0.00     0.082 A 
HETATM   23  C19 UNL     1      13.100  20.705-104.491  1.00  0.00     0.054 A 
BRANCH  22  24
HETATM   24  S1  UNL     1      14.612  18.891-105.893  1.00  0.00     0.263 S 
HETATM   25  O1  UNL     1      15.465  18.906-107.147  1.00  0.00    -0.200 OA
HETATM   26  O2  UNL     1      15.483  18.615-104.688  1.00  0.00    -0.200 OA
BRANCH  24  27
HETATM   27  N3  UNL     1      13.465  17.615-105.997  1.00  0.00    -0.280 N 
ATOM     28  H3  UNL     1      13.830  16.662-105.994  1.00  0.00     0.179 HD
BRANCH  27  29
HETATM   29  C12 UNL     1      12.067  17.764-106.087  1.00  0.00     0.058 A 
HETATM   30  C13 UNL     1      11.278  17.673-104.964  1.00  0.00     0.031 A 
HETATM   31  C14 UNL     1       9.915  17.852-105.074  1.00  0.00     0.002 A 
HETATM   32  C15 UNL     1       9.292  18.124-106.276  1.00  0.00     0.001 A 
HETATM   33  C16 UNL     1      10.121  18.206-107.371  1.00  0.00     0.019 A 
HETATM   34  C17 UNL     1      11.497  18.032-107.305  1.00  0.00     0.056 A 
BRANCH  34  35
HETATM   35  C18 UNL     1      12.294  18.127-108.543  1.00  0.00     0.267 C 
HETATM   36  N4  UNL     1      12.849  16.985-109.158  1.00  0.00    -0.057 NA
HETATM   37  O3  UNL     1      12.483  19.229-109.061  1.00  0.00    -0.271 OA
ENDBRANCH  34  35
ENDBRANCH  27  29
ENDBRANCH  24  27
ENDBRANCH  22  24
ENDBRANCH  16  18
ENDBRANCH   7  16
TORSDOF 6
ENDMDL
MODEL 4
REMARK VINA RESULT: -9.629690397      1.950      2.248
REMARK  6 active torsions:
REMARK  status: ('A' for Active; 'I' for Inactive)
REMARK    1  A    between atoms: C6_7  and  N2_8 
REMARK    2  A    between atoms: N2_8  and  C7_10 
REMARK    3  A    between atoms: C11_14  and  S1_15 
REMARK    4  A    between atoms: S1_15  and  N3_18 
REMARK    5  A    between atoms: N3_18  and  C12_20 
REMARK    6  A    between atoms: C17_25  and  C18_26 
ROOT
HETATM    1  N1  UNL     1      15.092  14.372-105.667  1.00  0.00    -0.191 NA
HETATM    2  C1  UNL     1      14.322  15.224-105.814  1.00  0.00     0.099 C 
HETATM    3  C2  UNL     1      13.369  16.272-105.977  1.00  0.00     0.046 A 
HETATM    4  C3  UNL     1      12.119  16.197-105.363  1.00  0.00     0.024 A 
HETATM    5  C4  UNL     1      11.187  17.187-105.501  1.00  0.00     0.019 A 
HETATM    6  C5  UNL     1      11.449  18.297-106.254  1.00  0.00     0.035 A 
HETATM    7  C6  UNL     1      10.522  19.308-106.406  1.00  0.00     0.120 A 
HETATM    8  N5  UNL     1      10.871  20.351-107.160  1.00  0.00    -0.318 N 
ATOM      9  H5  UNL     1      10.199  21.108-107.286  1.00  0.00     0.170 HD
HETATM   10  C20 UNL     1      12.074  20.448-107.765  1.00  0.00     0.177 A 
HETATM   11  S2  UNL     1      12.447  21.754-108.679  1.00  0.00    -0.040 SA
HETATM   12  N6  UNL     1      12.991  19.449-107.614  1.00  0.00    -0.332 N 
ATOM     13  H6  UNL     1      13.904  19.512-108.067  1.00  0.00     0.168 HD
HETATM   14  C21 UNL     1      12.677  18.387-106.867  1.00  0.00     0.049 A 
HETATM   15  C22 UNL     1      13.632  17.390-106.734  1.00  0.00     0.053 A 
ENDROOT
BRANCH   7  16
HETATM   16  N2  UNL     1       9.362  19.208-105.819  1.00  0.00    -0.342 N 
ATOM     17  H2  UNL     1       8.659  18.540-106.135  1.00  0.00     0.167 HD
BRANCH  16  18
HETATM   18  C7  UNL     1       9.118  20.088-104.701  1.00  0.00     0.035 A 
HETATM   19  C8  UNL     1       9.637  19.787-103.460  1.00  0.00     0.029 A 
HETATM   20  C9  UNL     1       9.403  20.628-102.394  1.00  0.00     0.004 A 
HETATM   21  C10 UNL     1       8.647  21.774-102.579  1.00  0.00     0.025 A 
HETATM   22  C11 UNL     1       8.112  22.109-103.803  1.00  0.00     0.082 A 
HETATM   23  C19 UNL     1       8.367  21.234-104.866  1.00  0.00     0.054 A 
BRANCH  22  24
HETATM   24  S1  UNL     1       7.186  23.564-104.018  1.00  0.00     0.263 S 
HETATM   25  O1  UNL     1       7.819  24.728-103.279  1.00  0.00    -0.200 OA
HETATM   26  O2  UNL     1       7.120  23.877-105.496  1.00  0.00    -0.200 OA
BRANCH  24  27
HETATM   27  N3  UNL     1       5.573  23.347-103.469  1.00  0.00    -0.280 N 
ATOM     28  H3  UNL     1       4.940  24.142-103.562  1.00  0.00     0.179 HD
BRANCH  27  29
HETATM   29  C12 UNL     1       5.044  22.171-102.901  1.00  0.00     0.058 A 
HETATM   30  C13 UNL     1       5.222  21.895-101.565  1.00  0.00     0.031 A 
HETATM   31  C14 UNL     1       4.669  20.753-101.026  1.00  0.00     0.002 A 
HETATM   32  C15 UNL     1       3.932  19.856-101.774  1.00  0.00     0.001 A 
HETATM   33  C16 UNL     1       3.780  20.172-103.104  1.00  0.00     0.019 A 
HETATM   34  C17 UNL     1       4.320  21.312-103.687  1.00  0.00     0.056 A 
BRANCH  34  35
HETATM   35  C18 UNL     1       4.109  21.552-105.127  1.00  0.00     0.267 C 
HETATM   36  N4  UNL     1       2.891  22.065-105.622  1.00  0.00    -0.057 NA
HETATM   37  O3  UNL     1       5.014  21.302-105.924  1.00  0.00    -0.271 OA
ENDBRANCH  34  35
ENDBRANCH  27  29
ENDBRANCH  24  27
ENDBRANCH  22  24
ENDBRANCH  16  18
ENDBRANCH   7  16
TORSDOF 6
ENDMDL
MODEL 5
REMARK VINA RESULT: -9.493760179      3.964      9.196
REMARK  6 active torsions:
REMARK  status: ('A' for Active; 'I' for Inactive)
REMARK    1  A    between atoms: C6_7  and  N2_8 
REMARK    2  A    between atoms: N2_8  and  C7_10 
REMARK    3  A    between atoms: C11_14  and  S1_15 
REMARK    4  A    between atoms: S1_15  and  N3_18 
REMARK    5  A    between atoms: N3_18  and  C12_20 
REMARK    6  A    between atoms: C17_25  and  C18_26 
ROOT
HETATM    1  N1  UNL     1       3.241  21.343-101.182  1.00  0.00    -0.191 NA
HETATM    2  C1  UNL     1       4.331  21.494-101.540  1.00  0.00     0.099 C 
HETATM    3  C2  UNL     1       5.677  21.662-101.982  1.00  0.00     0.046 A 
HETATM    4  C3  UNL     1       6.697  20.861-101.470  1.00  0.00     0.024 A 
HETATM    5  C4  UNL     1       7.995  20.999-101.877  1.00  0.00     0.019 A 
HETATM    6  C5  UNL     1       8.343  21.936-102.808  1.00  0.00     0.035 A 
HETATM    7  C6  UNL     1       9.646  22.092-103.232  1.00  0.00     0.120 A 
HETATM    8  N5  UNL     1       9.886  23.033-104.145  1.00  0.00    -0.318 N 
ATOM      9  H5  UNL     1      10.844  23.165-104.470  1.00  0.00     0.170 HD
HETATM   10  C20 UNL     1       8.917  23.821-104.657  1.00  0.00     0.177 A 
HETATM   11  S2  UNL     1       9.271  24.962-105.777  1.00  0.00    -0.040 SA
HETATM   12  N6  UNL     1       7.627  23.668-104.238  1.00  0.00    -0.332 N 
ATOM     13  H6  UNL     1       6.886  24.258-104.618  1.00  0.00     0.168 HD
HETATM   14  C21 UNL     1       7.348  22.735-103.324  1.00  0.00     0.049 A 
HETATM   15  C22 UNL     1       6.027  22.604-102.921  1.00  0.00     0.053 A 
ENDROOT
BRANCH   7  16
HETATM   16  N2  UNL     1      10.579  21.327-102.734  1.00  0.00    -0.342 N 
ATOM     17  H2  UNL     1      10.943  21.473-101.792  1.00  0.00     0.167 HD
BRANCH  16  18
HETATM   18  C7  UNL     1      11.071  20.264-103.578  1.00  0.00     0.035 A 
HETATM   19  C8  UNL     1      10.288  19.156-103.819  1.00  0.00     0.029 A 
HETATM   20  C9  UNL     1      10.759  18.142-104.624  1.00  0.00     0.004 A 
HETATM   21  C10 UNL     1      12.021  18.246-105.187  1.00  0.00     0.025 A 
HETATM   22  C11 UNL     1      12.833  19.337-104.970  1.00  0.00     0.082 A 
HETATM   23  C19 UNL     1      12.325  20.349-104.147  1.00  0.00     0.054 A 
BRANCH  22  24
HETATM   24  S1  UNL     1      14.402  19.458-105.706  1.00  0.00     0.263 S 
HETATM   25  O1  UNL     1      14.623  20.838-106.297  1.00  0.00    -0.200 OA
HETATM   26  O2  UNL     1      15.450  19.183-104.651  1.00  0.00    -0.200 OA
BRANCH  24  27
HETATM   27  N3  UNL     1      14.591  18.273-106.936  1.00  0.00    -0.280 N 
ATOM     28  H3  UNL     1      15.214  17.491-106.734  1.00  0.00     0.179 HD
BRANCH  27  29
HETATM   29  C12 UNL     1      13.965  18.284-108.198  1.00  0.00     0.058 A 
HETATM   30  C13 UNL     1      12.621  18.011-108.317  1.00  0.00     0.031 A 
HETATM   31  C14 UNL     1      12.025  18.057-109.559  1.00  0.00     0.002 A 
HETATM   32  C15 UNL     1      12.720  18.368-110.710  1.00  0.00     0.001 A 
HETATM   33  C16 UNL     1      14.060  18.633-110.543  1.00  0.00     0.019 A 
HETATM   34  C17 UNL     1      14.700  18.598-109.311  1.00  0.00     0.056 A 
BRANCH  34  35
HETATM   35  C18 UNL     1      16.146  18.886-109.243  1.00  0.00     0.267 C 
HETATM   36  N4  UNL     1      17.110  17.936-109.643  1.00  0.00    -0.057 NA
HETATM   37  O3  UNL     1      16.528  19.982-108.831  1.00  0.00    -0.271 OA
ENDBRANCH  34  35
ENDBRANCH  27  29
ENDBRANCH  24  27
ENDBRANCH  22  24
ENDBRANCH  16  18
ENDBRANCH   7  16
TORSDOF 6
ENDMDL
