MODEL 1
REMARK VINA RESULT: -7.168483839      0.000      0.000
REMARK  4 active torsions:
REMARK  status: ('A' for Active; 'I' for Inactive)
REMARK    1  A    between atoms: C4_5  and  C5_6 
REMARK    2  A    between atoms: C5_6  and  C6_7 
REMARK    3  A    between atoms: C12_13  and  O1_14 
REMARK    4  A    between atoms: C12_13  and  C13_16 
ROOT
HETATM    1  C1  UNL     1       2.533  38.758  70.890  1.00  0.00     0.310 C 
HETATM    2  N1  UNL     1       1.499  39.615  71.354  1.00  0.00     0.087 N 
HETATM    3  C2  UNL     1       0.333  38.937  71.859  1.00  0.00     0.272 C 
HETATM    4  C3  UNL     1      -0.935  39.777  71.614  1.00  0.00     0.038 C 
HETATM    5  C4  UNL     1      -1.101  39.808  70.102  1.00  0.00     0.029 C 
HETATM    6  C12 UNL     1       0.110  40.321  69.437  1.00  0.00     0.146 C 
HETATM    7  C14 UNL     1       1.170  40.704  70.477  1.00  0.00     0.315 C 
ENDROOT
BRANCH   5   8
HETATM    8  C5  UNL     1      -2.427  40.240  69.646  1.00  0.00     0.012 C 
BRANCH   8   9
HETATM    9  C6  UNL     1      -3.140  41.348  70.286  1.00  0.00    -0.014 C 
HETATM   10  C7  UNL     1      -4.420  41.025  71.002  1.00  0.00     0.005 C 
HETATM   11  C8  UNL     1      -5.358  42.240  70.873  1.00  0.00     0.000 C 
HETATM   12  C9  UNL     1      -5.977  42.205  69.508  1.00  0.00     0.000 C 
HETATM   13  C10 UNL     1      -4.853  41.930  68.524  1.00  0.00     0.000 C 
HETATM   14  C11 UNL     1      -3.532  42.307  69.144  1.00  0.00     0.005 C 
ENDBRANCH   8   9
ENDBRANCH   5   8
BRANCH   6  15
HETATM   15  O1  UNL     1       0.750  39.300  68.665  1.00  0.00    -0.382 OA
ATOM     16  H1  UNL     1       1.612  39.097  69.010  1.00  0.00     0.210 HD
ENDBRANCH   6  15
BRANCH   6  17
HETATM   17  C13 UNL     1       0.014  41.488  68.529  1.00  0.00     0.389 C 
HETATM   18  F1  UNL     1      -0.439  41.245  67.269  1.00  0.00    -0.211 F 
HETATM   19  F2  UNL     1       1.346  41.921  68.350  1.00  0.00    -0.211 F 
ENDBRANCH   6  17
TORSDOF 4
ENDMDL
MODEL 2
REMARK VINA RESULT: -7.035233770      3.339      4.313
REMARK  4 active torsions:
REMARK  status: ('A' for Active; 'I' for Inactive)
REMARK    1  A    between atoms: C4_5  and  C5_6 
REMARK    2  A    between atoms: C5_6  and  C6_7 
REMARK    3  A    between atoms: C12_13  and  O1_14 
REMARK    4  A    between atoms: C12_13  and  C13_16 
ROOT
HETATM    1  C1  UNL     1      -0.395  40.442  67.202  1.00  0.00     0.310 C 
HETATM    2  N1  UNL     1      -1.184  41.623  67.168  1.00  0.00     0.087 N 
HETATM    3  C2  UNL     1      -1.332  42.286  68.438  1.00  0.00     0.272 C 
HETATM    4  C3  UNL     1      -2.693  43.003  68.523  1.00  0.00     0.038 C 
HETATM    5  C4  UNL     1      -3.727  41.886  68.519  1.00  0.00     0.029 C 
HETATM    6  C12 UNL     1      -3.570  41.009  67.346  1.00  0.00     0.146 C 
HETATM    7  C14 UNL     1      -2.424  41.507  66.456  1.00  0.00     0.315 C 
ENDROOT
BRANCH   5   8
HETATM    8  C5  UNL     1      -5.067  42.299  68.953  1.00  0.00     0.012 C 
BRANCH   8   9
HETATM    9  C6  UNL     1      -5.529  42.096  70.329  1.00  0.00    -0.014 C 
HETATM   10  C7  UNL     1      -4.818  42.848  71.416  1.00  0.00     0.005 C 
HETATM   11  C8  UNL     1      -4.835  41.978  72.687  1.00  0.00     0.000 C 
HETATM   12  C9  UNL     1      -3.767  40.935  72.550  1.00  0.00     0.000 C 
HETATM   13  C10 UNL     1      -3.903  40.349  71.155  1.00  0.00     0.000 C 
HETATM   14  C11 UNL     1      -5.293  40.602  70.631  1.00  0.00     0.005 C 
ENDBRANCH   8   9
ENDBRANCH   5   8
BRANCH   6  15
HETATM   15  O1  UNL     1      -3.149  39.697  67.732  1.00  0.00    -0.382 OA
ATOM     16  H1  UNL     1      -3.688  39.355  68.435  1.00  0.00     0.210 HD
ENDBRANCH   6  15
BRANCH   6  17
HETATM   17  C13 UNL     1      -4.713  40.794  66.429  1.00  0.00     0.389 C 
HETATM   18  F1  UNL     1      -5.002  39.503  66.106  1.00  0.00    -0.211 F 
HETATM   19  F2  UNL     1      -4.318  41.385  65.209  1.00  0.00    -0.211 F 
ENDBRANCH   6  17
TORSDOF 4
ENDMDL
MODEL 3
REMARK VINA RESULT: -6.902877067      2.077      3.062
REMARK  4 active torsions:
REMARK  status: ('A' for Active; 'I' for Inactive)
REMARK    1  A    between atoms: C4_5  and  C5_6 
REMARK    2  A    between atoms: C5_6  and  C6_7 
REMARK    3  A    between atoms: C12_13  and  O1_14 
REMARK    4  A    between atoms: C12_13  and  C13_16 
ROOT
HETATM    1  C1  UNL     1       1.218  42.178  66.150  1.00  0.00     0.310 C 
HETATM    2  N1  UNL     1       0.533  40.987  66.511  1.00  0.00     0.087 N 
HETATM    3  C2  UNL     1      -0.888  41.012  66.275  1.00  0.00     0.272 C 
HETATM    4  C3  UNL     1      -1.628  40.142  67.308  1.00  0.00     0.038 C 
HETATM    5  C4  UNL     1      -1.420  40.848  68.640  1.00  0.00     0.029 C 
HETATM    6  C12 UNL     1       0.011  41.052  68.925  1.00  0.00     0.146 C 
HETATM    7  C14 UNL     1       0.870  40.458  67.802  1.00  0.00     0.315 C 
ENDROOT
BRANCH   5   8
HETATM    8  C5  UNL     1      -2.326  40.409  69.707  1.00  0.00     0.012 C 
BRANCH   8   9
HETATM    9  C6  UNL     1      -3.159  41.357  70.451  1.00  0.00    -0.014 C 
HETATM   10  C7  UNL     1      -4.455  40.847  71.013  1.00  0.00     0.005 C 
HETATM   11  C8  UNL     1      -5.470  42.005  70.997  1.00  0.00     0.000 C 
HETATM   12  C9  UNL     1      -5.996  42.143  69.600  1.00  0.00     0.000 C 
HETATM   13  C10 UNL     1      -4.794  42.096  68.673  1.00  0.00     0.000 C 
HETATM   14  C11 UNL     1      -3.547  42.455  69.439  1.00  0.00     0.005 C 
ENDBRANCH   8   9
ENDBRANCH   5   8
BRANCH   6  15
HETATM   15  O1  UNL     1       0.350  42.443  68.907  1.00  0.00    -0.382 OA
ATOM     16  H1  UNL     1      -0.254  42.937  68.368  1.00  0.00     0.210 HD
ENDBRANCH   6  15
BRANCH   6  17
HETATM   17  C13 UNL     1       0.593  40.529  70.183  1.00  0.00     0.389 C 
HETATM   18  F1  UNL     1       1.441  41.357  70.853  1.00  0.00    -0.211 F 
HETATM   19  F2  UNL     1       1.400  39.441  69.786  1.00  0.00    -0.211 F 
ENDBRANCH   6  17
TORSDOF 4
ENDMDL
MODEL 4
REMARK VINA RESULT: -6.661261627      1.891      2.577
REMARK  4 active torsions:
REMARK  status: ('A' for Active; 'I' for Inactive)
REMARK    1  A    between atoms: C4_5  and  C5_6 
REMARK    2  A    between atoms: C5_6  and  C6_7 
REMARK    3  A    between atoms: C12_13  and  O1_14 
REMARK    4  A    between atoms: C12_13  and  C13_16 
ROOT
HETATM    1  C1  UNL     1      -0.104  36.881  73.644  1.00  0.00     0.310 C 
HETATM    2  N1  UNL     1      -0.090  38.300  73.568  1.00  0.00     0.087 N 
HETATM    3  C2  UNL     1      -1.356  38.931  73.841  1.00  0.00     0.272 C 
HETATM    4  C3  UNL     1      -1.494  40.241  73.043  1.00  0.00     0.038 C 
HETATM    5  C4  UNL     1      -1.557  39.809  71.585  1.00  0.00     0.029 C 
HETATM    6  C12 UNL     1      -0.390  38.989  71.215  1.00  0.00     0.146 C 
HETATM    7  C14 UNL     1       0.561  38.842  72.409  1.00  0.00     0.315 C 
ENDROOT
BRANCH   5   8
HETATM    8  C5  UNL     1      -2.047  40.843  70.667  1.00  0.00     0.012 C 
BRANCH   8   9
HETATM    9  C6  UNL     1      -3.314  40.696  69.945  1.00  0.00    -0.014 C 
HETATM   10  C7  UNL     1      -3.708  41.800  69.006  1.00  0.00     0.005 C 
HETATM   11  C8  UNL     1      -5.245  41.900  69.006  1.00  0.00     0.000 C 
HETATM   12  C9  UNL     1      -5.662  42.644  70.239  1.00  0.00     0.000 C 
HETATM   13  C10 UNL     1      -4.881  42.045  71.397  1.00  0.00     0.000 C 
HETATM   14  C11 UNL     1      -4.410  40.661  71.030  1.00  0.00     0.005 C 
ENDBRANCH   8   9
ENDBRANCH   5   8
BRANCH   6  15
HETATM   15  O1  UNL     1      -0.775  37.641  70.925  1.00  0.00    -0.382 OA
ATOM     16  H1  UNL     1      -0.703  37.089  71.694  1.00  0.00     0.210 HD
ENDBRANCH   6  15
BRANCH   6  17
HETATM   17  C13 UNL     1       0.468  39.397  70.079  1.00  0.00     0.389 C 
HETATM   18  F1  UNL     1       1.334  38.462  69.601  1.00  0.00    -0.211 F 
HETATM   19  F2  UNL     1       1.297  40.417  70.596  1.00  0.00    -0.211 F 
ENDBRANCH   6  17
TORSDOF 4
ENDMDL
MODEL 5
REMARK VINA RESULT: -6.659919308      2.796      3.519
REMARK  4 active torsions:
REMARK  status: ('A' for Active; 'I' for Inactive)
REMARK    1  A    between atoms: C4_5  and  C5_6 
REMARK    2  A    between atoms: C5_6  and  C6_7 
REMARK    3  A    between atoms: C12_13  and  O1_14 
REMARK    4  A    between atoms: C12_13  and  C13_16 
ROOT
HETATM    1  C1  UNL     1       2.857  38.380  70.537  1.00  0.00     0.310 C 
HETATM    2  N1  UNL     1       1.497  38.181  70.179  1.00  0.00     0.087 N 
HETATM    3  C2  UNL     1       0.910  39.254  69.418  1.00  0.00     0.272 C 
HETATM    4  C3  UNL     1      -0.597  39.374  69.719  1.00  0.00     0.038 C 
HETATM    5  C4  UNL     1      -0.674  39.812  71.174  1.00  0.00     0.029 C 
HETATM    6  C12 UNL     1       0.053  38.883  72.057  1.00  0.00     0.146 C 
HETATM    7  C14 UNL     1       0.647  37.727  71.243  1.00  0.00     0.315 C 
ENDROOT
BRANCH   5   8
HETATM    8  C5  UNL     1      -1.982  40.338  71.580  1.00  0.00     0.012 C 
BRANCH   8   9
HETATM    9  C6  UNL     1      -3.097  40.447  70.636  1.00  0.00    -0.014 C 
HETATM   10  C7  UNL     1      -3.225  41.727  69.861  1.00  0.00     0.005 C 
HETATM   11  C8  UNL     1      -4.723  41.986  69.613  1.00  0.00     0.000 C 
HETATM   12  C9  UNL     1      -5.311  42.553  70.871  1.00  0.00     0.000 C 
HETATM   13  C10 UNL     1      -4.808  41.691  72.016  1.00  0.00     0.000 C 
HETATM   14  C11 UNL     1      -4.378  40.346  71.489  1.00  0.00     0.005 C 
ENDBRANCH   8   9
ENDBRANCH   5   8
BRANCH   6  15
HETATM   15  O1  UNL     1       1.202  39.510  72.636  1.00  0.00    -0.382 OA
ATOM     16  H1  UNL     1       0.951  40.202  73.236  1.00  0.00     0.210 HD
ENDBRANCH   6  15
BRANCH   6  17
HETATM   17  C13 UNL     1      -0.651  38.242  73.192  1.00  0.00     0.389 C 
HETATM   18  F1  UNL     1      -0.934  39.036  74.260  1.00  0.00    -0.211 F 
HETATM   19  F2  UNL     1       0.259  37.285  73.692  1.00  0.00    -0.211 F 
ENDBRANCH   6  17
TORSDOF 4
ENDMDL
