MODEL 1
REMARK VINA RESULT: -8.279614031      0.000      0.000
REMARK  6 active torsions:
REMARK  status: ('A' for Active; 'I' for Inactive)
REMARK    1  A    between atoms: O1_1  and  C1_3 
REMARK    2  A    between atoms: C1_3  and  C2_4 
REMARK    3  A    between atoms: C5_7  and  C6_8 
REMARK    4  A    between atoms: N1_20  and  C15_21 
REMARK    5  A    between atoms: C15_21  and  C16_22 
REMARK    6  A    between atoms: C16_22  and  C17_23 
ROOT
HETATM    1  C1  UNL     1      -4.839   7.428   3.301  1.00  0.00     0.096 C 
HETATM    2  C12 UNL     1      -6.149   6.767   3.504  1.00  0.00     0.049 C 
HETATM    3  C13 UNL     1      -7.268   7.336   2.697  1.00  0.00     0.048 C 
HETATM    4  C14 UNL     1      -7.161   7.147   1.217  1.00  0.00     0.063 C 
HETATM    5  N1  UNL     1      -5.916   6.894   0.664  1.00  0.00    -0.374 N 
HETATM    6  C27 UNL     1      -4.852   7.787   0.888  1.00  0.00     0.066 C 
HETATM    7  C28 UNL     1      -4.869   8.483   2.204  1.00  0.00     0.088 C 
ENDROOT
BRANCH   1   8
HETATM    8  O1  UNL     1      -3.912   6.466   2.901  1.00  0.00    -0.384 OA
ATOM      9  H1  UNL     1      -3.985   5.758   3.531  1.00  0.00     0.211 HD
ENDBRANCH   1   8
BRANCH   1  10
HETATM   10  C2  UNL     1      -4.263   8.066   4.537  1.00  0.00     0.018 A 
HETATM   11  C3  UNL     1      -4.225   9.401   4.849  1.00  0.00     0.019 A 
HETATM   12  C4  UNL     1      -3.614   9.745   5.996  1.00  0.00     0.021 A 
HETATM   13  C5  UNL     1      -3.085   8.730   6.750  1.00  0.00     0.015 A 
HETATM   14  S1  UNL     1      -3.454   7.340   5.845  1.00  0.00    -0.091 SA
BRANCH  13  15
HETATM   15  C6  UNL     1      -2.339   8.827   8.020  1.00  0.00    -0.017 A 
HETATM   16  C7  UNL     1      -0.965   8.815   7.998  1.00  0.00     0.014 A 
HETATM   17  C8  UNL     1      -0.228   8.946   9.172  1.00  0.00     0.026 A 
HETATM   18  C9  UNL     1      -0.856   9.092  10.396  1.00  0.00     0.055 A 
HETATM   19 CL1  UNL     1       0.049   9.275  11.893  1.00  0.00    -0.083 Cl
HETATM   20  C10 UNL     1      -2.244   9.099  10.392  1.00  0.00     0.056 A 
HETATM   21 CL2  UNL     1      -3.051   9.272  11.943  1.00  0.00    -0.083 Cl
HETATM   22  C11 UNL     1      -2.974   8.968   9.217  1.00  0.00     0.038 A 
ENDBRANCH  13  15
ENDBRANCH   1  10
BRANCH   5  23
HETATM   23  C15 UNL     1      -5.581   5.599   0.191  1.00  0.00     0.128 C 
BRANCH  23  24
HETATM   24  C16 UNL     1      -6.716   4.655   0.495  1.00  0.00     0.029 C 
BRANCH  24  25
HETATM   25  C17 UNL     1      -6.333   3.209   0.117  1.00  0.00    -0.038 C 
HETATM   26  C18 UNL     1      -4.925   3.053   0.292  1.00  0.00     0.014 C 
HETATM   27  C19 UNL     1      -4.102   1.904  -0.053  1.00  0.00    -0.013 C 
HETATM   28  C20 UNL     1      -4.232   1.203  -1.332  1.00  0.00     0.009 C 
HETATM   29  C22 UNL     1      -4.417   0.600   0.601  1.00  0.00     0.009 C 
HETATM   30  C21 UNL     1      -5.133   0.237  -0.646  1.00  0.00    -0.013 C 
HETATM   31  C23 UNL     1      -6.558   0.371  -0.733  1.00  0.00     0.009 C 
HETATM   32  C24 UNL     1      -7.356   1.540  -0.516  1.00  0.00    -0.013 C 
HETATM   33  C25 UNL     1      -7.269   2.262   0.791  1.00  0.00     0.014 C 
HETATM   34  C26 UNL     1      -7.022   2.829  -1.150  1.00  0.00     0.014 C 
ENDBRANCH  24  25
ENDBRANCH  23  24
ENDBRANCH   5  23
TORSDOF 6
ENDMDL
MODEL 2
REMARK VINA RESULT: -8.271324003      1.175      1.398
REMARK  6 active torsions:
REMARK  status: ('A' for Active; 'I' for Inactive)
REMARK    1  A    between atoms: O1_1  and  C1_3 
REMARK    2  A    between atoms: C1_3  and  C2_4 
REMARK    3  A    between atoms: C5_7  and  C6_8 
REMARK    4  A    between atoms: N1_20  and  C15_21 
REMARK    5  A    between atoms: C15_21  and  C16_22 
REMARK    6  A    between atoms: C16_22  and  C17_23 
ROOT
HETATM    1  C1  UNL     1      -4.752   7.129   3.407  1.00  0.00     0.096 C 
HETATM    2  C12 UNL     1      -6.066   6.485   3.635  1.00  0.00     0.049 C 
HETATM    3  C13 UNL     1      -7.221   7.175   2.991  1.00  0.00     0.048 C 
HETATM    4  C14 UNL     1      -7.233   7.160   1.495  1.00  0.00     0.063 C 
HETATM    5  N1  UNL     1      -6.043   6.939   0.819  1.00  0.00    -0.374 N 
HETATM    6  C27 UNL     1      -4.933   7.770   1.060  1.00  0.00     0.066 C 
HETATM    7  C28 UNL     1      -4.826   8.307   2.445  1.00  0.00     0.088 C 
ENDROOT
BRANCH   1   8
HETATM    8  O1  UNL     1      -3.893   6.196   2.826  1.00  0.00    -0.384 OA
ATOM      9  H1  UNL     1      -4.357   5.849   2.073  1.00  0.00     0.211 HD
ENDBRANCH   1   8
BRANCH   1  10
HETATM   10  C2  UNL     1      -4.062   7.601   4.659  1.00  0.00     0.018 A 
HETATM   11  C3  UNL     1      -3.237   6.879   5.483  1.00  0.00     0.019 A 
HETATM   12  C4  UNL     1      -2.768   7.500   6.579  1.00  0.00     0.021 A 
HETATM   13  C5  UNL     1      -3.157   8.800   6.773  1.00  0.00     0.015 A 
HETATM   14  S1  UNL     1      -4.154   9.113   5.433  1.00  0.00    -0.091 SA
BRANCH  13  15
HETATM   15  C6  UNL     1      -2.822   9.696   7.897  1.00  0.00    -0.017 A 
HETATM   16  C7  UNL     1      -2.470  10.999   7.638  1.00  0.00     0.014 A 
HETATM   17  C8  UNL     1      -2.187  11.885   8.675  1.00  0.00     0.026 A 
HETATM   18  C9  UNL     1      -2.253  11.480   9.997  1.00  0.00     0.055 A 
HETATM   19 CL1  UNL     1      -1.917  12.581  11.327  1.00  0.00    -0.083 Cl
HETATM   20  C10 UNL     1      -2.609  10.160  10.232  1.00  0.00     0.056 A 
HETATM   21 CL2  UNL     1      -2.684   9.633  11.906  1.00  0.00    -0.083 Cl
HETATM   22  C11 UNL     1      -2.890   9.280   9.192  1.00  0.00     0.038 A 
ENDBRANCH  13  15
ENDBRANCH   1  10
BRANCH   5  23
HETATM   23  C15 UNL     1      -5.792   5.701   0.175  1.00  0.00     0.128 C 
BRANCH  23  24
HETATM   24  C16 UNL     1      -6.885   4.728   0.536  1.00  0.00     0.029 C 
BRANCH  24  25
HETATM   25  C17 UNL     1      -6.476   3.289   0.156  1.00  0.00    -0.038 C 
HETATM   26  C18 UNL     1      -5.055   3.184   0.247  1.00  0.00     0.014 C 
HETATM   27  C19 UNL     1      -4.215   2.058  -0.131  1.00  0.00    -0.013 C 
HETATM   28  C20 UNL     1      -4.398   1.332  -1.389  1.00  0.00     0.009 C 
HETATM   29  C22 UNL     1      -4.446   0.754   0.559  1.00  0.00     0.009 C 
HETATM   30  C21 UNL     1      -5.222   0.348  -0.637  1.00  0.00    -0.013 C 
HETATM   31  C23 UNL     1      -6.654   0.433  -0.639  1.00  0.00     0.009 C 
HETATM   32  C24 UNL     1      -7.477   1.577  -0.391  1.00  0.00    -0.013 C 
HETATM   33  C25 UNL     1      -7.337   2.323   0.899  1.00  0.00     0.014 C 
HETATM   34  C26 UNL     1      -7.226   2.866  -1.062  1.00  0.00     0.014 C 
ENDBRANCH  24  25
ENDBRANCH  23  24
ENDBRANCH   5  23
TORSDOF 6
ENDMDL
MODEL 3
REMARK VINA RESULT: -8.187815610      1.656      1.877
REMARK  6 active torsions:
REMARK  status: ('A' for Active; 'I' for Inactive)
REMARK    1  A    between atoms: O1_1  and  C1_3 
REMARK    2  A    between atoms: C1_3  and  C2_4 
REMARK    3  A    between atoms: C5_7  and  C6_8 
REMARK    4  A    between atoms: N1_20  and  C15_21 
REMARK    5  A    between atoms: C15_21  and  C16_22 
REMARK    6  A    between atoms: C16_22  and  C17_23 
ROOT
HETATM    1  C1  UNL     1      -4.715   7.253   3.387  1.00  0.00     0.096 C 
HETATM    2  C12 UNL     1      -6.039   6.628   3.614  1.00  0.00     0.049 C 
HETATM    3  C13 UNL     1      -7.175   7.304   2.921  1.00  0.00     0.048 C 
HETATM    4  C14 UNL     1      -7.158   7.232   1.427  1.00  0.00     0.063 C 
HETATM    5  N1  UNL     1      -5.957   6.977   0.784  1.00  0.00    -0.374 N 
HETATM    6  C27 UNL     1      -4.845   7.807   1.016  1.00  0.00     0.066 C 
HETATM    7  C28 UNL     1      -4.760   8.394   2.381  1.00  0.00     0.088 C 
ENDROOT
BRANCH   1   8
HETATM    8  O1  UNL     1      -3.854   6.291   2.859  1.00  0.00    -0.384 OA
ATOM      9  H1  UNL     1      -4.341   5.856   2.170  1.00  0.00     0.211 HD
ENDBRANCH   1   8
BRANCH   1  10
HETATM   10  C2  UNL     1      -4.045   7.766   4.635  1.00  0.00     0.018 A 
HETATM   11  C3  UNL     1      -3.332   7.046   5.558  1.00  0.00     0.019 A 
HETATM   12  C4  UNL     1      -2.860   7.713   6.625  1.00  0.00     0.021 A 
HETATM   13  C5  UNL     1      -3.136   9.054   6.694  1.00  0.00     0.015 A 
HETATM   14  S1  UNL     1      -4.034   9.340   5.280  1.00  0.00    -0.091 SA
BRANCH  13  15
HETATM   15  C6  UNL     1      -2.774  10.008   7.760  1.00  0.00    -0.017 A 
HETATM   16  C7  UNL     1      -2.854   9.613   9.074  1.00  0.00     0.014 A 
HETATM   17  C8  UNL     1      -2.481  10.472  10.105  1.00  0.00     0.026 A 
HETATM   18  C9  UNL     1      -2.020  11.749   9.837  1.00  0.00     0.055 A 
HETATM   19 CL1  UNL     1      -1.528  12.851  11.118  1.00  0.00    -0.083 Cl
HETATM   20  C10 UNL     1      -1.951  12.125   8.503  1.00  0.00     0.056 A 
HETATM   21 CL2  UNL     1      -1.378  13.748   8.154  1.00  0.00    -0.083 Cl
HETATM   22  C11 UNL     1      -2.324  11.262   7.479  1.00  0.00     0.038 A 
ENDBRANCH  13  15
ENDBRANCH   1  10
BRANCH   5  23
HETATM   23  C15 UNL     1      -5.705   5.714   0.191  1.00  0.00     0.128 C 
BRANCH  23  24
HETATM   24  C16 UNL     1      -6.816   4.765   0.563  1.00  0.00     0.029 C 
BRANCH  24  25
HETATM   25  C17 UNL     1      -6.441   3.317   0.182  1.00  0.00    -0.038 C 
HETATM   26  C18 UNL     1      -5.023   3.180   0.262  1.00  0.00     0.014 C 
HETATM   27  C19 UNL     1      -4.211   2.035  -0.122  1.00  0.00    -0.013 C 
HETATM   28  C20 UNL     1      -4.420   1.313  -1.378  1.00  0.00     0.009 C 
HETATM   29  C22 UNL     1      -4.465   0.737   0.572  1.00  0.00     0.009 C 
HETATM   30  C21 UNL     1      -5.260   0.348  -0.618  1.00  0.00    -0.013 C 
HETATM   31  C23 UNL     1      -6.688   0.464  -0.609  1.00  0.00     0.009 C 
HETATM   32  C24 UNL     1      -7.485   1.627  -0.356  1.00  0.00    -0.013 C 
HETATM   33  C25 UNL     1      -7.318   2.371   0.932  1.00  0.00     0.014 C 
HETATM   34  C26 UNL     1      -7.210   2.909  -1.030  1.00  0.00     0.014 C 
ENDBRANCH  24  25
ENDBRANCH  23  24
ENDBRANCH   5  23
TORSDOF 6
ENDMDL
MODEL 4
REMARK VINA RESULT: -8.085873242      3.496      4.822
REMARK  6 active torsions:
REMARK  status: ('A' for Active; 'I' for Inactive)
REMARK    1  A    between atoms: O1_1  and  C1_3 
REMARK    2  A    between atoms: C1_3  and  C2_4 
REMARK    3  A    between atoms: C5_7  and  C6_8 
REMARK    4  A    between atoms: N1_20  and  C15_21 
REMARK    5  A    between atoms: C15_21  and  C16_22 
REMARK    6  A    between atoms: C16_22  and  C17_23 
ROOT
HETATM    1  C1  UNL     1      -1.747   2.944   1.613  1.00  0.00     0.096 C 
HETATM    2  C12 UNL     1      -2.820   3.856   1.154  1.00  0.00     0.049 C 
HETATM    3  C13 UNL     1      -2.496   4.632  -0.079  1.00  0.00     0.048 C 
HETATM    4  C14 UNL     1      -2.350   3.827  -1.331  1.00  0.00     0.063 C 
HETATM    5  N1  UNL     1      -2.077   2.472  -1.228  1.00  0.00    -0.374 N 
HETATM    6  C27 UNL     1      -0.951   2.035  -0.506  1.00  0.00     0.066 C 
HETATM    7  C28 UNL     1      -0.566   2.885   0.654  1.00  0.00     0.088 C 
ENDROOT
BRANCH   1   8
HETATM    8  O1  UNL     1      -2.264   1.650   1.687  1.00  0.00    -0.384 OA
ATOM      9  H1  UNL     1      -1.583   1.079   1.350  1.00  0.00     0.211 HD
ENDBRANCH   1   8
BRANCH   1  10
HETATM   10  C2  UNL     1      -1.210   3.252   2.986  1.00  0.00     0.018 A 
HETATM   11  C3  UNL     1      -0.714   2.368   3.908  1.00  0.00     0.019 A 
HETATM   12  C4  UNL     1      -0.330   2.869   5.095  1.00  0.00     0.021 A 
HETATM   13  C5  UNL     1      -0.472   4.221   5.275  1.00  0.00     0.015 A 
HETATM   14  S1  UNL     1      -1.126   4.745   3.797  1.00  0.00    -0.091 SA
BRANCH  13  15
HETATM   15  C6  UNL     1      -0.167   5.020   6.478  1.00  0.00    -0.017 A 
HETATM   16  C7  UNL     1       1.094   4.962   7.023  1.00  0.00     0.014 A 
HETATM   17  C8  UNL     1       1.431   5.733   8.133  1.00  0.00     0.026 A 
HETATM   18  C9  UNL     1       0.507   6.579   8.721  1.00  0.00     0.055 A 
HETATM   19 CL1  UNL     1       0.908   7.575  10.114  1.00  0.00    -0.083 Cl
HETATM   20  C10 UNL     1      -0.759   6.617   8.153  1.00  0.00     0.056 A 
HETATM   21 CL2  UNL     1      -1.942   7.679   8.900  1.00  0.00    -0.083 Cl
HETATM   22  C11 UNL     1      -1.089   5.846   7.045  1.00  0.00     0.038 A 
ENDBRANCH  13  15
ENDBRANCH   1  10
BRANCH   5  23
HETATM   23  C15 UNL     1      -3.077   1.507  -1.506  1.00  0.00     0.128 C 
BRANCH  23  24
HETATM   24  C16 UNL     1      -4.294   2.203  -2.061  1.00  0.00     0.029 C 
BRANCH  24  25
HETATM   25  C17 UNL     1      -5.541   1.870  -1.216  1.00  0.00    -0.038 C 
HETATM   26  C18 UNL     1      -6.493   1.214  -2.053  1.00  0.00     0.014 C 
HETATM   27  C19 UNL     1      -7.856   0.825  -1.724  1.00  0.00    -0.013 C 
HETATM   28  C20 UNL     1      -8.778   1.719  -1.021  1.00  0.00     0.009 C 
HETATM   29  C22 UNL     1      -8.054  -0.133  -0.596  1.00  0.00     0.009 C 
HETATM   30  C21 UNL     1      -8.376   1.045   0.244  1.00  0.00    -0.013 C 
HETATM   31  C23 UNL     1      -7.383   1.622   1.101  1.00  0.00     0.009 C 
HETATM   32  C24 UNL     1      -6.088   2.123   0.751  1.00  0.00    -0.013 C 
HETATM   33  C25 UNL     1      -5.111   1.226   0.059  1.00  0.00     0.014 C 
HETATM   34  C26 UNL     1      -5.902   3.052  -0.379  1.00  0.00     0.014 C 
ENDBRANCH  24  25
ENDBRANCH  23  24
ENDBRANCH   5  23
TORSDOF 6
ENDMDL
MODEL 5
REMARK VINA RESULT: -8.002648637      1.299      1.772
REMARK  6 active torsions:
REMARK  status: ('A' for Active; 'I' for Inactive)
REMARK    1  A    between atoms: O1_1  and  C1_3 
REMARK    2  A    between atoms: C1_3  and  C2_4 
REMARK    3  A    between atoms: C5_7  and  C6_8 
REMARK    4  A    between atoms: N1_20  and  C15_21 
REMARK    5  A    between atoms: C15_21  and  C16_22 
REMARK    6  A    between atoms: C16_22  and  C17_23 
ROOT
HETATM    1  C1  UNL     1      -3.776   7.001   2.760  1.00  0.00     0.096 C 
HETATM    2  C12 UNL     1      -5.171   6.675   2.385  1.00  0.00     0.049 C 
HETATM    3  C13 UNL     1      -5.708   7.458   1.234  1.00  0.00     0.048 C 
HETATM    4  C14 UNL     1      -5.064   7.190  -0.089  1.00  0.00     0.063 C 
HETATM    5  N1  UNL     1      -3.797   6.629  -0.114  1.00  0.00    -0.374 N 
HETATM    6  C27 UNL     1      -2.737   7.256   0.568  1.00  0.00     0.066 C 
HETATM    7  C28 UNL     1      -3.119   7.989   1.806  1.00  0.00     0.088 C 
ENDROOT
BRANCH   1   8
HETATM    8  O1  UNL     1      -3.016   5.833   2.708  1.00  0.00    -0.384 OA
ATOM      9  H1  UNL     1      -3.150   5.474   1.838  1.00  0.00     0.211 HD
ENDBRANCH   1   8
BRANCH   1  10
HETATM   10  C2  UNL     1      -3.613   7.536   4.158  1.00  0.00     0.018 A 
HETATM   11  C3  UNL     1      -4.018   8.753   4.641  1.00  0.00     0.019 A 
HETATM   12  C4  UNL     1      -3.722   9.035   5.922  1.00  0.00     0.021 A 
HETATM   13  C5  UNL     1      -3.042   8.078   6.629  1.00  0.00     0.015 A 
HETATM   14  S1  UNL     1      -2.840   6.827   5.498  1.00  0.00    -0.091 SA
BRANCH  13  15
HETATM   15  C6  UNL     1      -2.565   8.139   8.025  1.00  0.00    -0.017 A 
HETATM   16  C7  UNL     1      -1.628   7.231   8.457  1.00  0.00     0.014 A 
HETATM   17  C8  UNL     1      -1.125   7.283   9.755  1.00  0.00     0.026 A 
HETATM   18  C9  UNL     1      -1.554   8.250  10.647  1.00  0.00     0.055 A 
HETATM   19 CL1  UNL     1      -0.924   8.349  12.288  1.00  0.00    -0.083 Cl
HETATM   20  C10 UNL     1      -2.502   9.153  10.188  1.00  0.00     0.056 A 
HETATM   21 CL2  UNL     1      -3.060  10.376  11.318  1.00  0.00    -0.083 Cl
HETATM   22  C11 UNL     1      -3.000   9.095   8.891  1.00  0.00     0.038 A 
ENDBRANCH  13  15
ENDBRANCH   1  10
BRANCH   5  23
HETATM   23  C15 UNL     1      -3.609   5.274  -0.489  1.00  0.00     0.128 C 
BRANCH  23  24
HETATM   24  C16 UNL     1      -4.718   4.863  -1.423  1.00  0.00     0.029 C 
BRANCH  24  25
HETATM   25  C17 UNL     1      -5.432   3.601  -0.894  1.00  0.00    -0.038 C 
HETATM   26  C18 UNL     1      -5.226   2.540  -1.826  1.00  0.00     0.014 C 
HETATM   27  C19 UNL     1      -5.808   1.207  -1.807  1.00  0.00    -0.013 C 
HETATM   28  C20 UNL     1      -7.229   0.977  -1.539  1.00  0.00     0.009 C 
HETATM   29  C22 UNL     1      -5.529   0.341  -0.623  1.00  0.00     0.009 C 
HETATM   30  C21 UNL     1      -6.864   0.739  -0.117  1.00  0.00    -0.013 C 
HETATM   31  C23 UNL     1      -6.992   1.781   0.860  1.00  0.00     0.009 C 
HETATM   32  C24 UNL     1      -6.528   3.133   0.784  1.00  0.00    -0.013 C 
HETATM   33  C25 UNL     1      -5.076   3.403   0.542  1.00  0.00     0.014 C 
HETATM   34  C26 UNL     1      -6.791   3.971  -0.401  1.00  0.00     0.014 C 
ENDBRANCH  24  25
ENDBRANCH  23  24
ENDBRANCH   5  23
TORSDOF 6
ENDMDL
