MODEL 1
REMARK VINA RESULT: -7.655083540      0.000      0.000
REMARK  6 active torsions:
REMARK  status: ('A' for Active; 'I' for Inactive)
REMARK    1  A    between atoms: C5_7  and  C6_8 
REMARK    2  A    between atoms: C9_11  and  N2_12 
REMARK    3  A    between atoms: N2_12  and  C10_14 
REMARK    4  A    between atoms: C13_17  and  C14_18 
REMARK    5  A    between atoms: C14_18  and  N3_19 
REMARK    6  A    between atoms: C17_22  and  C18_23 
ROOT
HETATM    1  C10 UNL     1      -2.661   6.402   0.604  1.00  0.00     0.035 A 
HETATM    2  C11 UNL     1      -1.959   6.480  -0.584  1.00  0.00     0.030 A 
HETATM    3  C12 UNL     1      -1.194   5.386  -0.987  1.00  0.00     0.017 A 
HETATM    4  C13 UNL     1      -1.086   4.225  -0.284  1.00  0.00     0.001 A 
HETATM    5  C28 UNL     1      -1.806   4.158   0.929  1.00  0.00     0.047 A 
HETATM    6 CL1  UNL     1      -1.719   2.694   1.909  1.00  0.00    -0.083 Cl
HETATM    7  C29 UNL     1      -2.551   5.217   1.327  1.00  0.00     0.054 A 
ENDROOT
BRANCH   1   8
HETATM    8  N2  UNL     1      -3.477   7.411   1.103  1.00  0.00    -0.342 N 
ATOM      9  H2  UNL     1      -3.597   8.245   0.529  1.00  0.00     0.167 HD
BRANCH   8  10
HETATM   10  C9  UNL     1      -4.089   7.376   2.224  1.00  0.00     0.115 A 
HETATM   11  C5  UNL     1      -5.460   7.317   2.255  1.00  0.00     0.012 A 
HETATM   12  C3  UNL     1      -6.103   7.273   3.511  1.00  0.00     0.017 A 
HETATM   13  N1  UNL     1      -5.334   7.289   4.605  1.00  0.00    -0.349 N 
HETATM   14  C4  UNL     1      -7.583   7.236   3.568  1.00  0.00     0.069 C 
HETATM   15  C2  UNL     1      -3.994   7.348   4.598  1.00  0.00     0.078 A 
ATOM     16  H1  UNL     1      -5.801   7.256   5.511  1.00  0.00     0.167 HD
HETATM   17  C1  UNL     1      -3.213   7.367   5.882  1.00  0.00     0.089 C 
HETATM   18  N4  UNL     1      -3.403   7.389   3.398  1.00  0.00    -0.332 N 
ATOM     19  H4  UNL     1      -2.384   7.433   3.362  1.00  0.00     0.168 HD
BRANCH  11  20
HETATM   20  C6  UNL     1      -6.330   7.251   1.090  1.00  0.00     0.016 C 
HETATM   21  C7  UNL     1      -5.837   7.876  -0.182  1.00  0.00     0.015 C 
HETATM   22  C8  UNL     1      -6.613   5.772   0.703  1.00  0.00     0.015 C 
ENDBRANCH  11  20
ENDBRANCH   8  10
ENDBRANCH   1   8
BRANCH   4  23
HETATM   23  C14 UNL     1      -0.328   3.017  -0.671  1.00  0.00     0.103 C 
BRANCH  23  24
HETATM   24  N3  UNL     1      -0.954   2.141  -1.528  1.00  0.00    -0.369 N 
HETATM   25  C15 UNL     1      -0.996   0.763  -1.400  1.00  0.00     0.064 C 
HETATM   26  C16 UNL     1      -2.417   0.234  -1.511  1.00  0.00     0.049 C 
HETATM   27  C17 UNL     1      -3.427   1.282  -1.819  1.00  0.00    -0.004 C 
HETATM   28  C26 UNL     1      -2.970   2.192  -2.887  1.00  0.00     0.025 C 
HETATM   29  C27 UNL     1      -1.518   2.603  -2.747  1.00  0.00     0.128 C 
BRANCH  27  30
HETATM   30  C18 UNL     1      -4.047   1.882  -0.599  1.00  0.00    -0.010 C 
HETATM   31  C19 UNL     1      -4.855   3.104  -0.799  1.00  0.00     0.005 C 
HETATM   32  C20 UNL     1      -6.045   3.055  -1.682  1.00  0.00     0.000 C 
HETATM   33  C21 UNL     1      -7.338   2.818  -0.932  1.00  0.00     0.000 C 
HETATM   34  C22 UNL     1      -7.613   1.397  -0.597  1.00  0.00     0.000 C 
HETATM   35  C23 UNL     1      -6.840   0.375  -1.322  1.00  0.00     0.000 C 
HETATM   36  C24 UNL     1      -5.647  -0.104  -0.557  1.00  0.00     0.000 C 
HETATM   37  C25 UNL     1      -4.860   0.884   0.197  1.00  0.00     0.005 C 
ENDBRANCH  27  30
ENDBRANCH  23  24
ENDBRANCH   4  23
TORSDOF 6
ENDMDL
MODEL 2
REMARK VINA RESULT: -7.502652496      1.384      2.730
REMARK  6 active torsions:
REMARK  status: ('A' for Active; 'I' for Inactive)
REMARK    1  A    between atoms: C5_7  and  C6_8 
REMARK    2  A    between atoms: C9_11  and  N2_12 
REMARK    3  A    between atoms: N2_12  and  C10_14 
REMARK    4  A    between atoms: C13_17  and  C14_18 
REMARK    5  A    between atoms: C14_18  and  N3_19 
REMARK    6  A    between atoms: C17_22  and  C18_23 
ROOT
HETATM    1  C10 UNL     1      -2.403   5.303   2.160  1.00  0.00     0.035 A 
HETATM    2  C11 UNL     1      -1.972   3.994   2.271  1.00  0.00     0.030 A 
HETATM    3  C12 UNL     1      -1.293   3.416   1.198  1.00  0.00     0.017 A 
HETATM    4  C13 UNL     1      -1.018   4.058   0.029  1.00  0.00     0.001 A 
HETATM    5  C28 UNL     1      -1.464   5.394  -0.072  1.00  0.00     0.047 A 
HETATM    6 CL1  UNL     1      -1.157   6.301  -1.553  1.00  0.00    -0.083 Cl
HETATM    7  C29 UNL     1      -2.125   5.962   0.966  1.00  0.00     0.054 A 
ENDROOT
BRANCH   1   8
HETATM    8  N2  UNL     1      -3.067   5.999   3.164  1.00  0.00    -0.342 N 
ATOM      9  H2  UNL     1      -2.630   6.026   4.084  1.00  0.00     0.167 HD
BRANCH   8  10
HETATM   10  C9  UNL     1      -4.180   6.608   3.024  1.00  0.00     0.115 A 
HETATM   11  C5  UNL     1      -4.454   7.720   3.781  1.00  0.00     0.012 A 
HETATM   12  C3  UNL     1      -5.692   8.373   3.596  1.00  0.00     0.017 A 
HETATM   13  N1  UNL     1      -6.532   7.867   2.686  1.00  0.00    -0.349 N 
HETATM   14  C4  UNL     1      -6.018   9.558   4.421  1.00  0.00     0.069 C 
HETATM   15  C2  UNL     1      -6.286   6.782   1.937  1.00  0.00     0.078 A 
ATOM     16  H1  UNL     1      -7.425   8.341   2.553  1.00  0.00     0.167 HD
HETATM   17  C1  UNL     1      -7.296   6.283   0.941  1.00  0.00     0.089 C 
HETATM   18  N4  UNL     1      -5.108   6.177   2.127  1.00  0.00    -0.332 N 
ATOM     19  H4  UNL     1      -4.893   5.350   1.570  1.00  0.00     0.168 HD
BRANCH  11  20
HETATM   20  C6  UNL     1      -3.551   8.328   4.747  1.00  0.00     0.016 C 
HETATM   21  C7  UNL     1      -3.112   7.490   5.912  1.00  0.00     0.015 C 
HETATM   22  C8  UNL     1      -2.222   8.751   4.060  1.00  0.00     0.015 C 
ENDBRANCH  11  20
ENDBRANCH   8  10
ENDBRANCH   1   8
BRANCH   4  23
HETATM   23  C14 UNL     1      -0.271   3.520  -1.127  1.00  0.00     0.103 C 
BRANCH  23  24
HETATM   24  N3  UNL     1      -0.954   2.667  -1.964  1.00  0.00    -0.369 N 
HETATM   25  C15 UNL     1      -0.886   1.285  -1.954  1.00  0.00     0.064 C 
HETATM   26  C16 UNL     1      -2.270   0.657  -1.915  1.00  0.00     0.049 C 
HETATM   27  C17 UNL     1      -3.381   1.644  -1.988  1.00  0.00    -0.004 C 
HETATM   28  C26 UNL     1      -3.142   2.668  -3.023  1.00  0.00     0.025 C 
HETATM   29  C27 UNL     1      -1.716   3.178  -3.049  1.00  0.00     0.128 C 
BRANCH  27  30
HETATM   30  C18 UNL     1      -3.858   2.097  -0.646  1.00  0.00    -0.010 C 
HETATM   31  C19 UNL     1      -4.713   3.303  -0.619  1.00  0.00     0.005 C 
HETATM   32  C20 UNL     1      -6.002   3.300  -1.351  1.00  0.00     0.000 C 
HETATM   33  C21 UNL     1      -7.185   2.943  -0.479  1.00  0.00     0.000 C 
HETATM   34  C22 UNL     1      -7.384   1.487  -0.262  1.00  0.00     0.000 C 
HETATM   35  C23 UNL     1      -6.684   0.570  -1.177  1.00  0.00     0.000 C 
HETATM   36  C24 UNL     1      -5.394   0.061  -0.616  1.00  0.00     0.000 C 
HETATM   37  C25 UNL     1      -4.543   0.995   0.135  1.00  0.00     0.005 C 
ENDBRANCH  27  30
ENDBRANCH  23  24
ENDBRANCH   4  23
TORSDOF 6
ENDMDL
MODEL 3
REMARK VINA RESULT: -7.447666020      1.239      1.567
REMARK  6 active torsions:
REMARK  status: ('A' for Active; 'I' for Inactive)
REMARK    1  A    between atoms: C5_7  and  C6_8 
REMARK    2  A    between atoms: C9_11  and  N2_12 
REMARK    3  A    between atoms: N2_12  and  C10_14 
REMARK    4  A    between atoms: C13_17  and  C14_18 
REMARK    5  A    between atoms: C14_18  and  N3_19 
REMARK    6  A    between atoms: C17_22  and  C18_23 
ROOT
HETATM    1  C10 UNL     1      -3.542   5.872   1.844  1.00  0.00     0.035 A 
HETATM    2  C11 UNL     1      -3.391   6.498   0.621  1.00  0.00     0.030 A 
HETATM    3  C12 UNL     1      -2.470   5.981  -0.291  1.00  0.00     0.017 A 
HETATM    4  C13 UNL     1      -1.696   4.885  -0.061  1.00  0.00     0.001 A 
HETATM    5  C28 UNL     1      -1.859   4.254   1.192  1.00  0.00     0.047 A 
HETATM    6 CL1  UNL     1      -0.892   2.830   1.578  1.00  0.00    -0.083 Cl
HETATM    7  C29 UNL     1      -2.750   4.751   2.083  1.00  0.00     0.054 A 
ENDROOT
BRANCH   1   8
HETATM    8  N2  UNL     1      -4.440   6.272   2.827  1.00  0.00    -0.342 N 
ATOM      9  H2  UNL     1      -5.222   5.651   3.028  1.00  0.00     0.167 HD
BRANCH   8  10
HETATM   10  C9  UNL     1      -4.362   7.355   3.498  1.00  0.00     0.115 A 
HETATM   11  C5  UNL     1      -5.458   8.176   3.604  1.00  0.00     0.012 A 
HETATM   12  C3  UNL     1      -5.339   9.362   4.360  1.00  0.00     0.017 A 
HETATM   13  N1  UNL     1      -4.159   9.620   4.934  1.00  0.00    -0.349 N 
HETATM   14  C4  UNL     1      -6.500  10.275   4.466  1.00  0.00     0.069 C 
HETATM   15  C2  UNL     1      -3.076   8.833   4.843  1.00  0.00     0.078 A 
ATOM     16  H1  UNL     1      -4.076  10.477   5.481  1.00  0.00     0.167 HD
HETATM   17  C1  UNL     1      -1.787   9.207   5.520  1.00  0.00     0.089 C 
HETATM   18  N4  UNL     1      -3.208   7.713   4.122  1.00  0.00    -0.332 N 
ATOM     19  H4  UNL     1      -2.401   7.095   4.036  1.00  0.00     0.168 HD
BRANCH  11  20
HETATM   20  C6  UNL     1      -6.771   7.911   3.035  1.00  0.00     0.016 C 
HETATM   21  C7  UNL     1      -6.826   7.390   1.629  1.00  0.00     0.015 C 
HETATM   22  C8  UNL     1      -7.521   6.836   3.870  1.00  0.00     0.015 C 
ENDBRANCH  11  20
ENDBRANCH   8  10
ENDBRANCH   1   8
BRANCH   4  23
HETATM   23  C14 UNL     1      -0.734   4.263  -0.995  1.00  0.00     0.103 C 
BRANCH  23  24
HETATM   24  N3  UNL     1      -1.225   3.287  -1.832  1.00  0.00    -0.369 N 
HETATM   25  C15 UNL     1      -0.903   1.942  -1.795  1.00  0.00     0.064 C 
HETATM   26  C16 UNL     1      -2.147   1.067  -1.777  1.00  0.00     0.049 C 
HETATM   27  C17 UNL     1      -3.419   1.831  -1.893  1.00  0.00    -0.004 C 
HETATM   28  C26 UNL     1      -3.348   2.867  -2.941  1.00  0.00     0.025 C 
HETATM   29  C27 UNL     1      -2.041   3.632  -2.943  1.00  0.00     0.128 C 
BRANCH  27  30
HETATM   30  C18 UNL     1      -4.007   2.204  -0.571  1.00  0.00    -0.010 C 
HETATM   31  C19 UNL     1      -4.989   3.310  -0.570  1.00  0.00     0.005 C 
HETATM   32  C20 UNL     1      -6.233   3.180  -1.365  1.00  0.00     0.000 C 
HETATM   33  C21 UNL     1      -7.411   2.681  -0.557  1.00  0.00     0.000 C 
HETATM   34  C22 UNL     1      -7.459   1.209  -0.369  1.00  0.00     0.000 C 
HETATM   35  C23 UNL     1      -6.620   0.390  -1.259  1.00  0.00     0.000 C 
HETATM   36  C24 UNL     1      -5.310   0.013  -0.642  1.00  0.00     0.000 C 
HETATM   37  C25 UNL     1      -4.603   1.021   0.162  1.00  0.00     0.005 C 
ENDBRANCH  27  30
ENDBRANCH  23  24
ENDBRANCH   4  23
TORSDOF 6
ENDMDL
MODEL 4
REMARK VINA RESULT: -7.447412768      2.518      7.449
REMARK  6 active torsions:
REMARK  status: ('A' for Active; 'I' for Inactive)
REMARK    1  A    between atoms: C5_7  and  C6_8 
REMARK    2  A    between atoms: C9_11  and  N2_12 
REMARK    3  A    between atoms: N2_12  and  C10_14 
REMARK    4  A    between atoms: C13_17  and  C14_18 
REMARK    5  A    between atoms: C14_18  and  N3_19 
REMARK    6  A    between atoms: C17_22  and  C18_23 
ROOT
HETATM    1  C10 UNL     1      -1.602   3.511  -3.294  1.00  0.00     0.035 A 
HETATM    2  C11 UNL     1      -0.914   3.882  -2.153  1.00  0.00     0.030 A 
HETATM    3  C12 UNL     1      -1.296   5.046  -1.486  1.00  0.00     0.017 A 
HETATM    4  C13 UNL     1      -2.314   5.858  -1.882  1.00  0.00     0.001 A 
HETATM    5  C28 UNL     1      -3.009   5.469  -3.049  1.00  0.00     0.047 A 
HETATM    6 CL1  UNL     1      -4.339   6.465  -3.639  1.00  0.00    -0.083 Cl
HETATM    7  C29 UNL     1      -2.643   4.340  -3.703  1.00  0.00     0.054 A 
ENDROOT
BRANCH   1   8
HETATM    8  N2  UNL     1      -1.337   2.364  -4.034  1.00  0.00    -0.342 N 
ATOM      9  H2  UNL     1      -1.417   2.432  -5.048  1.00  0.00     0.167 HD
BRANCH   8  10
HETATM   10  C9  UNL     1      -1.002   1.233  -3.545  1.00  0.00     0.115 A 
HETATM   11  C5  UNL     1       0.198   0.664  -3.893  1.00  0.00     0.012 A 
HETATM   12  C3  UNL     1       0.540  -0.584  -3.328  1.00  0.00     0.017 A 
HETATM   13  N1  UNL     1      -0.330  -1.142  -2.479  1.00  0.00    -0.349 N 
HETATM   14  C4  UNL     1       1.817  -1.229  -3.710  1.00  0.00     0.069 C 
HETATM   15  C2  UNL     1      -1.508  -0.605  -2.126  1.00  0.00     0.078 A 
ATOM     16  H1  UNL     1      -0.080  -2.043  -2.071  1.00  0.00     0.167 HD
HETATM   17  C1  UNL     1      -2.425  -1.310  -1.167  1.00  0.00     0.089 C 
HETATM   18  N4  UNL     1      -1.814   0.578  -2.672  1.00  0.00    -0.332 N 
ATOM     19  H4  UNL     1      -2.702   1.011  -2.421  1.00  0.00     0.168 HD
BRANCH  11  20
HETATM   20  C6  UNL     1       1.191   1.258  -4.775  1.00  0.00     0.016 C 
HETATM   21  C7  UNL     1       0.711   1.838  -6.073  1.00  0.00     0.015 C 
HETATM   22  C8  UNL     1       1.907   2.444  -4.070  1.00  0.00     0.015 C 
ENDBRANCH  11  20
ENDBRANCH   8  10
ENDBRANCH   1   8
BRANCH   4  23
HETATM   23  C14 UNL     1      -2.795   7.078  -1.202  1.00  0.00     0.103 C 
BRANCH  23  24
HETATM   24  N3  UNL     1      -3.696   6.903  -0.176  1.00  0.00    -0.369 N 
HETATM   25  C15 UNL     1      -5.023   7.297  -0.178  1.00  0.00     0.064 C 
HETATM   26  C16 UNL     1      -5.946   6.160   0.229  1.00  0.00     0.049 C 
HETATM   27  C17 UNL     1      -5.229   4.916   0.623  1.00  0.00    -0.004 C 
HETATM   28  C26 UNL     1      -4.085   5.196   1.511  1.00  0.00     0.025 C 
HETATM   29  C27 UNL     1      -3.269   6.397   1.081  1.00  0.00     0.128 C 
BRANCH  27  30
HETATM   30  C18 UNL     1      -5.025   3.967  -0.512  1.00  0.00    -0.010 C 
HETATM   31  C19 UNL     1      -4.071   2.859  -0.287  1.00  0.00     0.005 C 
HETATM   32  C20 UNL     1      -4.327   1.887   0.803  1.00  0.00     0.000 C 
HETATM   33  C21 UNL     1      -5.037   0.636   0.335  1.00  0.00     0.000 C 
HETATM   34  C22 UNL     1      -6.510   0.768   0.200  1.00  0.00     0.000 C 
HETATM   35  C23 UNL     1      -7.145   1.917   0.865  1.00  0.00     0.000 C 
HETATM   36  C24 UNL     1      -7.369   3.073  -0.059  1.00  0.00     0.000 C 
HETATM   37  C25 UNL     1      -6.323   3.394  -1.040  1.00  0.00     0.005 C 
ENDBRANCH  27  30
ENDBRANCH  23  24
ENDBRANCH   4  23
TORSDOF 6
ENDMDL
MODEL 5
REMARK VINA RESULT: -7.389997026      1.406      2.550
REMARK  6 active torsions:
REMARK  status: ('A' for Active; 'I' for Inactive)
REMARK    1  A    between atoms: C5_7  and  C6_8 
REMARK    2  A    between atoms: C9_11  and  N2_12 
REMARK    3  A    between atoms: N2_12  and  C10_14 
REMARK    4  A    between atoms: C13_17  and  C14_18 
REMARK    5  A    between atoms: C14_18  and  N3_19 
REMARK    6  A    between atoms: C17_22  and  C18_23 
ROOT
HETATM    1  C10 UNL     1      -2.333   5.913   1.956  1.00  0.00     0.035 A 
HETATM    2  C11 UNL     1      -2.364   6.575   0.743  1.00  0.00     0.030 A 
HETATM    3  C12 UNL     1      -1.721   6.000  -0.354  1.00  0.00     0.017 A 
HETATM    4  C13 UNL     1      -1.055   4.814  -0.317  1.00  0.00     0.001 A 
HETATM    5  C28 UNL     1      -1.030   4.147   0.928  1.00  0.00     0.047 A 
HETATM    6 CL1  UNL     1      -0.183   2.606   1.070  1.00  0.00    -0.083 Cl
HETATM    7  C29 UNL     1      -1.651   4.700   1.998  1.00  0.00     0.054 A 
ENDROOT
BRANCH   1   8
HETATM    8  N2  UNL     1      -2.953   6.365   3.115  1.00  0.00    -0.342 N 
ATOM      9  H2  UNL     1      -2.463   6.219   3.997  1.00  0.00     0.167 HD
BRANCH   8  10
HETATM   10  C9  UNL     1      -4.087   6.949   3.164  1.00  0.00     0.115 A 
HETATM   11  C5  UNL     1      -4.213   8.153   3.813  1.00  0.00     0.012 A 
HETATM   12  C3  UNL     1      -5.480   8.774   3.840  1.00  0.00     0.017 A 
HETATM   13  N1  UNL     1      -6.492   8.151   3.227  1.00  0.00    -0.349 N 
HETATM   14  C4  UNL     1      -5.643  10.059   4.559  1.00  0.00     0.069 C 
HETATM   15  C2  UNL     1      -6.393   6.976   2.587  1.00  0.00     0.078 A 
ATOM     16  H1  UNL     1      -7.406   8.603   3.247  1.00  0.00     0.167 HD
HETATM   17  C1  UNL     1      -7.590   6.348   1.929  1.00  0.00     0.089 C 
HETATM   18  N4  UNL     1      -5.184   6.402   2.572  1.00  0.00    -0.332 N 
ATOM     19  H4  UNL     1      -5.079   5.509   2.093  1.00  0.00     0.168 HD
BRANCH  11  20
HETATM   20  C6  UNL     1      -3.130   8.884   4.453  1.00  0.00     0.016 C 
HETATM   21  C7  UNL     1      -2.281   8.144   5.445  1.00  0.00     0.015 C 
HETATM   22  C8  UNL     1      -2.115   9.396   3.392  1.00  0.00     0.015 C 
ENDBRANCH  11  20
ENDBRANCH   8  10
ENDBRANCH   1   8
BRANCH   4  23
HETATM   23  C14 UNL     1      -0.389   4.132  -1.446  1.00  0.00     0.103 C 
BRANCH  23  24
HETATM   24  N3  UNL     1      -1.177   3.321  -2.232  1.00  0.00    -0.369 N 
HETATM   25  C15 UNL     1      -1.021   1.957  -2.412  1.00  0.00     0.064 C 
HETATM   26  C16 UNL     1      -2.323   1.208  -2.178  1.00  0.00     0.049 C 
HETATM   27  C17 UNL     1      -3.484   2.096  -1.900  1.00  0.00    -0.004 C 
HETATM   28  C26 UNL     1      -3.534   3.246  -2.823  1.00  0.00     0.025 C 
HETATM   29  C27 UNL     1      -2.181   3.880  -3.067  1.00  0.00     0.128 C 
BRANCH  27  30
HETATM   30  C18 UNL     1      -3.698   2.351  -0.443  1.00  0.00    -0.010 C 
HETATM   31  C19 UNL     1      -4.573   3.490  -0.091  1.00  0.00     0.005 C 
HETATM   32  C20 UNL     1      -5.982   3.497  -0.552  1.00  0.00     0.000 C 
HETATM   33  C21 UNL     1      -6.952   2.965   0.480  1.00  0.00     0.000 C 
HETATM   34  C22 UNL     1      -7.050   1.483   0.538  1.00  0.00     0.000 C 
HETATM   35  C23 UNL     1      -6.516   0.730  -0.608  1.00  0.00     0.000 C 
HETATM   36  C24 UNL     1      -5.122   0.236  -0.382  1.00  0.00     0.000 C 
HETATM   37  C25 UNL     1      -4.171   1.123   0.305  1.00  0.00     0.005 C 
ENDBRANCH  27  30
ENDBRANCH  23  24
ENDBRANCH   4  23
TORSDOF 6
ENDMDL
