MODEL 1
REMARK VINA RESULT: -9.375089159      0.000      0.000
REMARK  2 active torsions:
REMARK  status: ('A' for Active; 'I' for Inactive)
REMARK    1  A    between atoms: C11_17  and  N3_18 
REMARK       I    between atoms: N3_18  and  C12_20 
REMARK    2  A    between atoms: C12_20  and  C13_22 
ROOT
HETATM    1  N1  UNL     1       3.862 -39.316  36.358  1.00  0.00    -0.191 NA
HETATM    2  C1  UNL     1       3.426 -38.257  36.200  1.00  0.00     0.099 C 
HETATM    3  C2  UNL     1       2.895 -36.926  36.021  1.00  0.00     0.046 A 
HETATM    4  C3  UNL     1       3.118 -36.243  34.832  1.00  0.00     0.023 A 
HETATM    5  C4  UNL     1       2.631 -34.977  34.624  1.00  0.00     0.015 A 
HETATM    6  C5  UNL     1       1.909 -34.388  35.624  1.00  0.00    -0.002 A 
HETATM    7  C6  UNL     1       1.649 -35.033  36.850  1.00  0.00     0.092 A 
HETATM    8  C7  UNL     1       2.161 -36.308  37.012  1.00  0.00     0.048 A 
HETATM    9  S1  UNL     1       0.737 -34.485  38.233  1.00  0.00     0.260 S 
HETATM   10  O1  UNL     1       1.704 -34.096  39.328  1.00  0.00    -0.200 OA
HETATM   11  O2  UNL     1      -0.156 -35.612  38.734  1.00  0.00    -0.200 OA
HETATM   12  N2  UNL     1      -0.259 -33.154  37.923  1.00  0.00    -0.311 N 
ATOM     13  H2  UNL     1      -0.512 -32.499  38.663  1.00  0.00     0.172 HD
HETATM   14  C8  UNL     1      -0.734 -32.982  36.590  1.00  0.00     0.171 C 
HETATM   15  C9  UNL     1       0.273 -32.420  35.675  1.00  0.00    -0.026 A 
HETATM   16  C10 UNL     1      -0.000 -31.143  35.217  1.00  0.00     0.039 A 
HETATM   17  C11 UNL     1       0.857 -30.474  34.384  1.00  0.00     0.035 A 
HETATM   18  C18 UNL     1       2.032 -31.160  34.023  1.00  0.00     0.030 A 
HETATM   19  C19 UNL     1       2.352 -32.427  34.450  1.00  0.00     0.015 A 
HETATM   20  C20 UNL     1       1.459 -33.046  35.276  1.00  0.00    -0.016 A 
ENDROOT
BRANCH  17  21
HETATM   21  N3  UNL     1       0.641 -29.168  33.861  1.00  0.00    -0.323 N 
HETATM   22  C12 UNL     1      -0.002 -28.834  32.668  1.00  0.00     0.256 C 
HETATM   23  O3  UNL     1      -0.503 -29.665  31.853  1.00  0.00    -0.267 OA
ATOM     24  H3  UNL     1       0.995 -28.391  34.418  1.00  0.00     0.169 HD
BRANCH  22  25
HETATM   25  C13 UNL     1      -0.118 -27.393  32.315  1.00  0.00     0.035 A 
HETATM   26  C14 UNL     1      -0.908 -26.629  33.152  1.00  0.00     0.034 A 
HETATM   27  C15 UNL     1      -1.074 -25.276  32.886  1.00  0.00     0.088 A 
HETATM   28  N4  UNL     1      -0.461 -24.748  31.825  1.00  0.00    -0.375 N 
HETATM   29  C16 UNL     1       0.314 -25.485  31.002  1.00  0.00     0.088 A 
ATOM     30  H4  UNL     1      -0.581 -23.754  31.630  1.00  0.00     0.164 HD
HETATM   31  C17 UNL     1       0.511 -26.844  31.225  1.00  0.00     0.034 A 
ENDBRANCH  22  25
ENDBRANCH  17  21
TORSDOF 2
ENDMDL
MODEL 2
REMARK VINA RESULT: -9.052286400      2.490      3.113
REMARK  2 active torsions:
REMARK  status: ('A' for Active; 'I' for Inactive)
REMARK    1  A    between atoms: C11_17  and  N3_18 
REMARK       I    between atoms: N3_18  and  C12_20 
REMARK    2  A    between atoms: C12_20  and  C13_22 
ROOT
HETATM    1  N1  UNL     1       1.391 -38.242  40.116  1.00  0.00    -0.191 NA
HETATM    2  C1  UNL     1       1.452 -37.379  39.348  1.00  0.00     0.099 C 
HETATM    3  C2  UNL     1       1.520 -36.318  38.372  1.00  0.00     0.046 A 
HETATM    4  C3  UNL     1       0.737 -35.181  38.527  1.00  0.00     0.023 A 
HETATM    5  C4  UNL     1       0.773 -34.151  37.621  1.00  0.00     0.015 A 
HETATM    6  C5  UNL     1       1.607 -34.263  36.544  1.00  0.00    -0.002 A 
HETATM    7  C6  UNL     1       2.426 -35.391  36.337  1.00  0.00     0.092 A 
HETATM    8  C7  UNL     1       2.355 -36.403  37.277  1.00  0.00     0.048 A 
HETATM    9  S1  UNL     1       3.573 -35.725  35.064  1.00  0.00     0.260 S 
HETATM   10  O1  UNL     1       2.965 -36.736  34.118  1.00  0.00    -0.200 OA
HETATM   11  O2  UNL     1       4.846 -36.306  35.664  1.00  0.00    -0.200 OA
HETATM   12  N2  UNL     1       4.017 -34.368  34.158  1.00  0.00    -0.311 N 
ATOM     13  H2  UNL     1       4.322 -34.455  33.189  1.00  0.00     0.172 HD
HETATM   14  C8  UNL     1       3.950 -33.096  34.800  1.00  0.00     0.171 C 
HETATM   15  C9  UNL     1       2.583 -32.559  34.902  1.00  0.00    -0.026 A 
HETATM   16  C10 UNL     1       2.338 -31.432  34.138  1.00  0.00     0.039 A 
HETATM   17  C11 UNL     1       1.106 -30.835  34.103  1.00  0.00     0.035 A 
HETATM   18  C18 UNL     1       0.104 -31.436  34.887  1.00  0.00     0.030 A 
HETATM   19  C19 UNL     1       0.293 -32.555  35.662  1.00  0.00     0.015 A 
HETATM   20  C20 UNL     1       1.542 -33.106  35.661  1.00  0.00    -0.016 A 
ENDROOT
BRANCH  17  21
HETATM   21  N3  UNL     1       0.780 -29.669  33.355  1.00  0.00    -0.323 N 
HETATM   22  C12 UNL     1       0.593 -28.377  33.848  1.00  0.00     0.256 C 
HETATM   23  O3  UNL     1       0.689 -28.040  35.066  1.00  0.00    -0.267 OA
ATOM     24  H3  UNL     1       0.670 -29.790  32.349  1.00  0.00     0.169 HD
BRANCH  22  25
HETATM   25  C13 UNL     1       0.256 -27.299  32.879  1.00  0.00     0.035 A 
HETATM   26  C14 UNL     1      -0.579 -26.304  33.351  1.00  0.00     0.034 A 
HETATM   27  C15 UNL     1      -0.948 -25.266  32.506  1.00  0.00     0.088 A 
HETATM   28  N4  UNL     1      -0.482 -25.256  31.256  1.00  0.00    -0.375 N 
HETATM   29  C16 UNL     1       0.335 -26.222  30.786  1.00  0.00     0.088 A 
ATOM     30  H4  UNL     1      -0.751 -24.492  30.635  1.00  0.00     0.164 HD
HETATM   31  C17 UNL     1       0.733 -27.283  31.592  1.00  0.00     0.034 A 
ENDBRANCH  22  25
ENDBRANCH  17  21
TORSDOF 2
ENDMDL
MODEL 3
REMARK VINA RESULT: -8.829382685      1.042      1.058
REMARK  2 active torsions:
REMARK  status: ('A' for Active; 'I' for Inactive)
REMARK    1  A    between atoms: C11_17  and  N3_18 
REMARK       I    between atoms: N3_18  and  C12_20 
REMARK    2  A    between atoms: C12_20  and  C13_22 
ROOT
HETATM    1  N1  UNL     1       3.382 -39.258  37.663  1.00  0.00    -0.191 NA
HETATM    2  C1  UNL     1       2.964 -38.232  37.331  1.00  0.00     0.099 C 
HETATM    3  C2  UNL     1       2.458 -36.940  36.933  1.00  0.00     0.046 A 
HETATM    4  C3  UNL     1       2.643 -36.492  35.632  1.00  0.00     0.023 A 
HETATM    5  C4  UNL     1       2.177 -35.270  35.216  1.00  0.00     0.015 A 
HETATM    6  C5  UNL     1       1.516 -34.486  36.118  1.00  0.00    -0.002 A 
HETATM    7  C6  UNL     1       1.296 -34.889  37.451  1.00  0.00     0.092 A 
HETATM    8  C7  UNL     1       1.784 -36.129  37.823  1.00  0.00     0.048 A 
HETATM    9  S1  UNL     1       0.460 -34.071  38.746  1.00  0.00     0.260 S 
HETATM   10  O1  UNL     1       1.485 -33.520  39.711  1.00  0.00    -0.200 OA
HETATM   11  O2  UNL     1      -0.436 -35.059  39.481  1.00  0.00    -0.200 OA
HETATM   12  N2  UNL     1      -0.517 -32.788  38.238  1.00  0.00    -0.311 N 
ATOM     13  H2  UNL     1      -0.720 -32.001  38.855  1.00  0.00     0.172 HD
HETATM   14  C8  UNL     1      -1.047 -32.846  36.916  1.00  0.00     0.171 C 
HETATM   15  C9  UNL     1      -0.070 -32.491  35.874  1.00  0.00    -0.026 A 
HETATM   16  C10 UNL     1      -0.333 -31.311  35.202  1.00  0.00     0.039 A 
HETATM   17  C11 UNL     1       0.502 -30.832  34.227  1.00  0.00     0.035 A 
HETATM   18  C18 UNL     1       1.642 -31.609  33.951  1.00  0.00     0.030 A 
HETATM   19  C19 UNL     1       1.951 -32.786  34.588  1.00  0.00     0.015 A 
HETATM   20  C20 UNL     1       1.082 -33.217  35.549  1.00  0.00    -0.016 A 
ENDROOT
BRANCH  17  21
HETATM   21  N3  UNL     1       0.293 -29.637  33.482  1.00  0.00    -0.323 N 
HETATM   22  C12 UNL     1       0.412 -28.325  33.944  1.00  0.00     0.256 C 
HETATM   23  O3  UNL     1       0.730 -27.994  35.125  1.00  0.00    -0.267 OA
ATOM     24  H3  UNL     1       0.029 -29.751  32.504  1.00  0.00     0.169 HD
BRANCH  22  25
HETATM   25  C13 UNL     1       0.147 -27.218  32.985  1.00  0.00     0.035 A 
HETATM   26  C14 UNL     1      -0.718 -26.235  33.425  1.00  0.00     0.034 A 
HETATM   27  C15 UNL     1      -1.023 -25.171  32.586  1.00  0.00     0.088 A 
HETATM   28  N4  UNL     1      -0.469 -25.126  31.373  1.00  0.00    -0.375 N 
HETATM   29  C16 UNL     1       0.378 -26.081  30.935  1.00  0.00     0.088 A 
ATOM     30  H4  UNL     1      -0.691 -24.344  30.757  1.00  0.00     0.164 HD
HETATM   31  C17 UNL     1       0.715 -27.167  31.736  1.00  0.00     0.034 A 
ENDBRANCH  22  25
ENDBRANCH  17  21
TORSDOF 2
ENDMDL
MODEL 4
REMARK VINA RESULT: -8.628800106      1.615      1.726
REMARK  2 active torsions:
REMARK  status: ('A' for Active; 'I' for Inactive)
REMARK    1  A    between atoms: C11_17  and  N3_18 
REMARK       I    between atoms: N3_18  and  C12_20 
REMARK    2  A    between atoms: C12_20  and  C13_22 
ROOT
HETATM    1  N1  UNL     1       3.328 -39.226  37.366  1.00  0.00    -0.191 NA
HETATM    2  C1  UNL     1       2.887 -38.264  36.901  1.00  0.00     0.099 C 
HETATM    3  C2  UNL     1       2.330 -37.055  36.342  1.00  0.00     0.046 A 
HETATM    4  C3  UNL     1       3.142 -36.180  35.632  1.00  0.00     0.023 A 
HETATM    5  C4  UNL     1       2.651 -35.020  35.087  1.00  0.00     0.015 A 
HETATM    6  C5  UNL     1       1.326 -34.734  35.256  1.00  0.00    -0.002 A 
HETATM    7  C6  UNL     1       0.454 -35.586  35.965  1.00  0.00     0.092 A 
HETATM    8  C7  UNL     1       0.995 -36.742  36.496  1.00  0.00     0.048 A 
HETATM    9  S1  UNL     1      -1.258 -35.433  36.272  1.00  0.00     0.260 S 
HETATM   10  O1  UNL     1      -1.456 -35.018  37.711  1.00  0.00    -0.200 OA
HETATM   11  O2  UNL     1      -1.939 -36.775  36.041  1.00  0.00    -0.200 OA
HETATM   12  N2  UNL     1      -2.039 -34.298  35.291  1.00  0.00    -0.311 N 
ATOM     13  H2  UNL     1      -2.882 -33.818  35.606  1.00  0.00     0.172 HD
HETATM   14  C8  UNL     1      -1.476 -34.037  34.007  1.00  0.00     0.171 C 
HETATM   15  C9  UNL     1      -0.294 -33.161  34.050  1.00  0.00    -0.026 A 
HETATM   16  C10 UNL     1      -0.469 -31.913  33.480  1.00  0.00     0.039 A 
HETATM   17  C11 UNL     1       0.529 -30.975  33.470  1.00  0.00     0.035 A 
HETATM   18  C18 UNL     1       1.741 -31.354  34.076  1.00  0.00     0.030 A 
HETATM   19  C19 UNL     1       1.968 -32.578  34.657  1.00  0.00     0.015 A 
HETATM   20  C20 UNL     1       0.939 -33.475  34.635  1.00  0.00    -0.016 A 
ENDROOT
BRANCH  17  21
HETATM   21  N3  UNL     1       0.432 -29.678  32.893  1.00  0.00    -0.323 N 
HETATM   22  C12 UNL     1      -0.220 -28.565  33.425  1.00  0.00     0.256 C 
HETATM   23  O3  UNL     1      -0.838 -28.543  34.532  1.00  0.00    -0.267 OA
ATOM     24  H3  UNL     1       0.888 -29.547  31.990  1.00  0.00     0.169 HD
BRANCH  22  25
HETATM   25  C13 UNL     1      -0.195 -27.298  32.646  1.00  0.00     0.035 A 
HETATM   26  C14 UNL     1      -0.907 -26.244  33.186  1.00  0.00     0.034 A 
HETATM   27  C15 UNL     1      -0.941 -25.029  32.515  1.00  0.00     0.088 A 
HETATM   28  N4  UNL     1      -0.279 -24.910  31.362  1.00  0.00    -0.375 N 
HETATM   29  C16 UNL     1       0.420 -25.933  30.827  1.00  0.00     0.088 A 
ATOM     30  H4  UNL     1      -0.302 -24.017  30.869  1.00  0.00     0.164 HD
HETATM   31  C17 UNL     1       0.484 -27.170  31.460  1.00  0.00     0.034 A 
ENDBRANCH  22  25
ENDBRANCH  17  21
TORSDOF 2
ENDMDL
MODEL 5
REMARK VINA RESULT: -8.560013994      1.076      1.429
REMARK  2 active torsions:
REMARK  status: ('A' for Active; 'I' for Inactive)
REMARK    1  A    between atoms: C11_17  and  N3_18 
REMARK       I    between atoms: N3_18  and  C12_20 
REMARK    2  A    between atoms: C12_20  and  C13_22 
ROOT
HETATM    1  N1  UNL     1       1.836 -39.518  36.689  1.00  0.00    -0.191 NA
HETATM    2  C1  UNL     1       1.568 -38.401  36.550  1.00  0.00     0.099 C 
HETATM    3  C2  UNL     1       1.250 -37.002  36.392  1.00  0.00     0.046 A 
HETATM    4  C3  UNL     1       1.316 -36.413  35.136  1.00  0.00     0.023 A 
HETATM    5  C4  UNL     1       1.023 -35.086  34.945  1.00  0.00     0.015 A 
HETATM    6  C5  UNL     1       0.659 -34.339  36.029  1.00  0.00    -0.002 A 
HETATM    7  C6  UNL     1       0.573 -34.883  37.327  1.00  0.00     0.092 A 
HETATM    8  C7  UNL     1       0.878 -36.225  37.469  1.00  0.00     0.048 A 
HETATM    9  S1  UNL     1       0.104 -34.129  38.829  1.00  0.00     0.260 S 
HETATM   10  O1  UNL     1       1.345 -33.891  39.659  1.00  0.00    -0.200 OA
HETATM   11  O2  UNL     1      -0.836 -35.053  39.593  1.00  0.00    -0.200 OA
HETATM   12  N2  UNL     1      -0.688 -32.647  38.643  1.00  0.00    -0.311 N 
ATOM     13  H2  UNL     1      -0.650 -31.932  39.369  1.00  0.00     0.172 HD
HETATM   14  C8  UNL     1      -1.413 -32.434  37.433  1.00  0.00     0.171 C 
HETATM   15  C9  UNL     1      -0.556 -32.100  36.285  1.00  0.00    -0.026 A 
HETATM   16  C10 UNL     1      -0.697 -30.811  35.803  1.00  0.00     0.039 A 
HETATM   17  C11 UNL     1       0.054 -30.342  34.759  1.00  0.00     0.035 A 
HETATM   18  C18 UNL     1       0.979 -31.246  34.206  1.00  0.00     0.030 A 
HETATM   19  C19 UNL     1       1.161 -32.535  34.646  1.00  0.00     0.015 A 
HETATM   20  C20 UNL     1       0.383 -32.950  35.688  1.00  0.00    -0.016 A 
ENDROOT
BRANCH  17  21
HETATM   21  N3  UNL     1      -0.043 -29.037  34.199  1.00  0.00    -0.323 N 
HETATM   22  C12 UNL     1      -0.240 -28.708  32.857  1.00  0.00     0.256 C 
HETATM   23  O3  UNL     1      -0.365 -29.544  31.912  1.00  0.00    -0.267 OA
ATOM     24  H3  UNL     1       0.040 -28.256  34.850  1.00  0.00     0.169 HD
BRANCH  22  25
HETATM   25  C13 UNL     1      -0.312 -27.267  32.492  1.00  0.00     0.035 A 
HETATM   26  C14 UNL     1       0.406 -26.893  31.372  1.00  0.00     0.034 A 
HETATM   27  C15 UNL     1       0.398 -25.565  30.968  1.00  0.00     0.088 A 
HETATM   28  N4  UNL     1      -0.309 -24.681  31.676  1.00  0.00    -0.375 N 
HETATM   29  C16 UNL     1      -1.013 -25.036  32.771  1.00  0.00     0.088 A 
ATOM     30  H4  UNL     1      -0.317 -23.704  31.380  1.00  0.00     0.164 HD
HETATM   31  C17 UNL     1      -1.036 -26.353  33.216  1.00  0.00     0.034 A 
ENDBRANCH  22  25
ENDBRANCH  17  21
TORSDOF 2
ENDMDL
