MODEL 1
REMARK VINA RESULT: -8.508084870      0.000      0.000
REMARK  4 active torsions:
REMARK  status: ('A' for Active; 'I' for Inactive)
REMARK    1  A    between atoms: C12_15  and  C13_16 
REMARK    2  A    between atoms: C14_17  and  C15_18 
REMARK    3  A    between atoms: C15_18  and  N3_19 
REMARK       I    between atoms: N3_19  and  C16_20 
REMARK       I    between atoms: C16_20  and  N4_22 
REMARK    4  A    between atoms: N4_22  and  C17_24 
ROOT
HETATM    1  C1  UNL     1       0.664 -28.878  33.373  1.00  0.00     0.157 C 
HETATM    2  N1  UNL     1      -0.527 -29.663  33.308  1.00  0.00    -0.345 N 
HETATM    3  C2  UNL     1      -1.728 -29.134  32.940  1.00  0.00     0.183 A 
HETATM    4  N2  UNL     1      -2.670 -30.064  32.966  1.00  0.00    -0.350 N 
ATOM      5  H2  UNL     1      -3.654 -29.928  32.733  1.00  0.00     0.166 HD
HETATM    6  C3  UNL     1      -2.098 -31.229  33.355  1.00  0.00     0.072 A 
HETATM    7  C4  UNL     1      -2.630 -32.478  33.545  1.00  0.00     0.004 A 
HETATM    8  C5  UNL     1      -3.984 -32.684  33.315  1.00  0.00     0.014 A 
HETATM    9  C6  UNL     1      -4.511 -33.925  33.501  1.00  0.00     0.001 A 
HETATM   10  C7  UNL     1      -3.696 -34.971  33.918  1.00  0.00     0.001 A 
HETATM   11  C8  UNL     1      -2.352 -34.784  34.152  1.00  0.00     0.013 A 
HETATM   12  C9  UNL     1      -1.818 -33.529  33.964  1.00  0.00    -0.012 A 
HETATM   13  C10 UNL     1      -0.489 -33.238  34.165  1.00  0.00    -0.011 A 
HETATM   14  C11 UNL     1       0.365 -34.243  34.588  1.00  0.00     0.034 A 
HETATM   15  C12 UNL     1       1.729 -34.041  34.825  1.00  0.00     0.019 A 
HETATM   16  C18 UNL     1       2.212 -32.797  34.623  1.00  0.00     0.021 A 
HETATM   17  C19 UNL     1       1.397 -31.741  34.196  1.00  0.00     0.016 A 
HETATM   18  C20 UNL     1       0.074 -31.974  33.977  1.00  0.00     0.004 A 
HETATM   19  C21 UNL     1      -0.747 -30.941  33.562  1.00  0.00     0.074 A 
ENDROOT
BRANCH  15  20
HETATM   20  C13 UNL     1       2.504 -35.154  35.281  1.00  0.00    -0.060 C 
HETATM   21  C14 UNL     1       3.131 -36.098  35.682  1.00  0.00    -0.041 C 
BRANCH  21  22
HETATM   22  C15 UNL     1       3.874 -37.273  36.200  1.00  0.00     0.252 C 
BRANCH  22  23
HETATM   23  N3  UNL     1       4.732 -37.833  35.253  1.00  0.00    -0.355 NA
HETATM   24  C16 UNL     1       5.545 -38.364  34.358  1.00  0.00     0.412 C 
HETATM   25  O1  UNL     1       6.707 -38.036  34.023  1.00  0.00    -0.229 OA
HETATM   26  N4  UNL     1       5.079 -39.536  33.585  1.00  0.00    -0.126 N 
ATOM     27  H4  UNL     1       5.446 -40.464  33.796  1.00  0.00     0.190 HD
BRANCH  26  28
HETATM   28  C17 UNL     1       4.218 -39.385  32.655  1.00  0.00     0.730 A 
HETATM   29  N5  UNL     1       3.030 -38.772  32.594  1.00  0.00    -0.069 N 
HETATM   30  O2  UNL     1       2.941 -39.133  31.350  1.00  0.00    -0.127 OA
ATOM     31  H5  UNL     1       2.445 -38.248  33.245  1.00  0.00     0.215 HD
HETATM   32  N6  UNL     1       4.090 -39.738  31.367  1.00  0.00    -0.069 N 
ATOM     33  H6  UNL     1       4.652 -40.256  30.692  1.00  0.00     0.215 HD
ENDBRANCH  26  28
ENDBRANCH  22  23
ENDBRANCH  21  22
ENDBRANCH  15  20
TORSDOF 4
ENDMDL
MODEL 2
REMARK VINA RESULT: -8.406217261      1.033      1.067
REMARK  4 active torsions:
REMARK  status: ('A' for Active; 'I' for Inactive)
REMARK    1  A    between atoms: C12_15  and  C13_16 
REMARK    2  A    between atoms: C14_17  and  C15_18 
REMARK    3  A    between atoms: C15_18  and  N3_19 
REMARK       I    between atoms: N3_19  and  C16_20 
REMARK       I    between atoms: C16_20  and  N4_22 
REMARK    4  A    between atoms: N4_22  and  C17_24 
ROOT
HETATM    1  C1  UNL     1       0.612 -28.185  33.360  1.00  0.00     0.157 C 
HETATM    2  N1  UNL     1      -0.516 -29.058  33.300  1.00  0.00    -0.345 N 
HETATM    3  C2  UNL     1      -1.766 -28.610  32.993  1.00  0.00     0.183 A 
HETATM    4  N2  UNL     1      -2.632 -29.611  33.010  1.00  0.00    -0.350 N 
ATOM      5  H2  UNL     1      -3.631 -29.543  32.815  1.00  0.00     0.166 HD
HETATM    6  C3  UNL     1      -1.959 -30.742  33.332  1.00  0.00     0.072 A 
HETATM    7  C4  UNL     1      -2.386 -32.036  33.487  1.00  0.00     0.004 A 
HETATM    8  C5  UNL     1      -3.728 -32.337  33.292  1.00  0.00     0.014 A 
HETATM    9  C6  UNL     1      -4.151 -33.622  33.442  1.00  0.00     0.001 A 
HETATM   10  C7  UNL     1      -3.244 -34.617  33.789  1.00  0.00     0.001 A 
HETATM   11  C8  UNL     1      -1.910 -34.335  33.987  1.00  0.00     0.013 A 
HETATM   12  C9  UNL     1      -1.481 -33.035  33.834  1.00  0.00    -0.012 A 
HETATM   13  C10 UNL     1      -0.173 -32.649  34.005  1.00  0.00    -0.011 A 
HETATM   14  C11 UNL     1       0.770 -33.600  34.357  1.00  0.00     0.034 A 
HETATM   15  C12 UNL     1       2.123 -33.301  34.558  1.00  0.00     0.019 A 
HETATM   16  C18 UNL     1       2.501 -32.016  34.393  1.00  0.00     0.021 A 
HETATM   17  C19 UNL     1       1.592 -31.011  34.037  1.00  0.00     0.016 A 
HETATM   18  C20 UNL     1       0.285 -31.339  33.851  1.00  0.00     0.004 A 
HETATM   19  C21 UNL     1      -0.628 -30.357  33.507  1.00  0.00     0.074 A 
ENDROOT
BRANCH  15  20
HETATM   20  C13 UNL     1       2.997 -34.367  34.943  1.00  0.00    -0.060 C 
HETATM   21  C14 UNL     1       3.755 -35.242  35.265  1.00  0.00    -0.041 C 
BRANCH  21  22
HETATM   22  C15 UNL     1       4.720 -36.297  35.659  1.00  0.00     0.252 C 
BRANCH  22  23
HETATM   23  N3  UNL     1       4.788 -37.343  34.737  1.00  0.00    -0.355 NA
HETATM   24  C16 UNL     1       4.852 -38.333  33.866  1.00  0.00     0.412 C 
HETATM   25  O1  UNL     1       5.797 -38.706  33.131  1.00  0.00    -0.229 OA
HETATM   26  N4  UNL     1       3.658 -39.183  33.669  1.00  0.00    -0.126 N 
ATOM     27  H4  UNL     1       3.636 -40.128  34.051  1.00  0.00     0.190 HD
BRANCH  26  28
HETATM   28  C17 UNL     1       2.654 -38.732  33.021  1.00  0.00     0.730 A 
HETATM   29  N5  UNL     1       1.739 -37.791  33.284  1.00  0.00    -0.069 N 
HETATM   30  O2  UNL     1       1.196 -38.040  32.132  1.00  0.00    -0.127 OA
ATOM     31  H5  UNL     1       1.549 -37.154  34.057  1.00  0.00     0.215 HD
HETATM   32  N6  UNL     1       2.065 -38.959  31.838  1.00  0.00    -0.069 N 
ATOM     33  H6  UNL     1       2.228 -39.583  31.048  1.00  0.00     0.215 HD
ENDBRANCH  26  28
ENDBRANCH  22  23
ENDBRANCH  21  22
ENDBRANCH  15  20
TORSDOF 4
ENDMDL
MODEL 3
REMARK VINA RESULT: -8.391787082      2.364      2.449
REMARK  4 active torsions:
REMARK  status: ('A' for Active; 'I' for Inactive)
REMARK    1  A    between atoms: C12_15  and  C13_16 
REMARK    2  A    between atoms: C14_17  and  C15_18 
REMARK    3  A    between atoms: C15_18  and  N3_19 
REMARK       I    between atoms: N3_19  and  C16_20 
REMARK       I    between atoms: C16_20  and  N4_22 
REMARK    4  A    between atoms: N4_22  and  C17_24 
ROOT
HETATM    1  C1  UNL     1       0.648 -28.581  32.786  1.00  0.00     0.157 C 
HETATM    2  N1  UNL     1      -0.185 -29.103  33.822  1.00  0.00    -0.345 N 
HETATM    3  C2  UNL     1      -1.299 -28.450  34.257  1.00  0.00     0.183 A 
HETATM    4  N2  UNL     1      -1.889 -29.138  35.223  1.00  0.00    -0.350 N 
ATOM      5  H2  UNL     1      -2.740 -28.868  35.717  1.00  0.00     0.166 HD
HETATM    6  C3  UNL     1      -1.166 -30.263  35.438  1.00  0.00     0.072 A 
HETATM    7  C4  UNL     1      -1.342 -31.296  36.322  1.00  0.00     0.004 A 
HETATM    8  C5  UNL     1      -2.431 -31.275  37.185  1.00  0.00     0.014 A 
HETATM    9  C6  UNL     1      -2.607 -32.303  38.060  1.00  0.00     0.001 A 
HETATM   10  C7  UNL     1      -1.702 -33.357  38.087  1.00  0.00     0.001 A 
HETATM   11  C8  UNL     1      -0.616 -33.392  37.240  1.00  0.00     0.013 A 
HETATM   12  C9  UNL     1      -0.437 -32.354  36.353  1.00  0.00    -0.012 A 
HETATM   13  C10 UNL     1       0.610 -32.295  35.464  1.00  0.00    -0.011 A 
HETATM   14  C11 UNL     1       1.544 -33.317  35.454  1.00  0.00     0.034 A 
HETATM   15  C12 UNL     1       2.645 -33.340  34.590  1.00  0.00     0.019 A 
HETATM   16  C18 UNL     1       2.779 -32.305  33.734  1.00  0.00     0.021 A 
HETATM   17  C19 UNL     1       1.866 -31.244  33.698  1.00  0.00     0.016 A 
HETATM   18  C20 UNL     1       0.808 -31.254  34.554  1.00  0.00     0.004 A 
HETATM   19  C21 UNL     1      -0.099 -30.210  34.538  1.00  0.00     0.074 A 
ENDROOT
BRANCH  15  20
HETATM   20  C13 UNL     1       3.554 -34.441  34.690  1.00  0.00    -0.060 C 
HETATM   21  C14 UNL     1       4.295 -35.384  34.769  1.00  0.00    -0.041 C 
BRANCH  21  22
HETATM   22  C15 UNL     1       5.177 -36.573  34.861  1.00  0.00     0.252 C 
BRANCH  22  23
HETATM   23  N3  UNL     1       4.474 -37.777  34.797  1.00  0.00    -0.355 NA
HETATM   24  C16 UNL     1       3.809 -38.916  34.736  1.00  0.00     0.412 C 
HETATM   25  O1  UNL     1       3.945 -39.971  35.400  1.00  0.00    -0.229 OA
HETATM   26  N4  UNL     1       2.713 -39.045  33.752  1.00  0.00    -0.126 N 
ATOM     27  H4  UNL     1       1.742 -39.023  34.063  1.00  0.00     0.190 HD
BRANCH  26  28
HETATM   28  C17 UNL     1       2.983 -39.184  32.511  1.00  0.00     0.730 A 
HETATM   29  N5  UNL     1       4.105 -39.478  31.844  1.00  0.00    -0.069 N 
HETATM   30  O2  UNL     1       3.432 -39.399  30.737  1.00  0.00    -0.127 OA
ATOM     31  H5  UNL     1       5.073 -39.677  32.096  1.00  0.00     0.215 HD
HETATM   32  N6  UNL     1       2.322 -39.113  31.347  1.00  0.00    -0.069 N 
ATOM     33  H6  UNL     1       1.362 -38.918  31.062  1.00  0.00     0.215 HD
ENDBRANCH  26  28
ENDBRANCH  22  23
ENDBRANCH  21  22
ENDBRANCH  15  20
TORSDOF 4
ENDMDL
MODEL 4
REMARK VINA RESULT: -8.381422558      1.325      1.461
REMARK  4 active torsions:
REMARK  status: ('A' for Active; 'I' for Inactive)
REMARK    1  A    between atoms: C12_15  and  C13_16 
REMARK    2  A    between atoms: C14_17  and  C15_18 
REMARK    3  A    between atoms: C15_18  and  N3_19 
REMARK       I    between atoms: N3_19  and  C16_20 
REMARK       I    between atoms: C16_20  and  N4_22 
REMARK    4  A    between atoms: N4_22  and  C17_24 
ROOT
HETATM    1  C1  UNL     1       0.967 -27.916  33.740  1.00  0.00     0.157 C 
HETATM    2  N1  UNL     1      -0.175 -28.765  33.623  1.00  0.00    -0.345 N 
HETATM    3  C2  UNL     1      -1.426 -28.274  33.398  1.00  0.00     0.183 A 
HETATM    4  N2  UNL     1      -2.306 -29.261  33.337  1.00  0.00    -0.350 N 
ATOM      5  H2  UNL     1      -3.309 -29.162  33.179  1.00  0.00     0.166 HD
HETATM    6  C3  UNL     1      -1.641 -30.427  33.522  1.00  0.00     0.072 A 
HETATM    7  C4  UNL     1      -2.082 -31.725  33.556  1.00  0.00     0.004 A 
HETATM    8  C5  UNL     1      -3.433 -31.989  33.369  1.00  0.00     0.014 A 
HETATM    9  C6  UNL     1      -3.870 -33.278  33.398  1.00  0.00     0.001 A 
HETATM   10  C7  UNL     1      -2.969 -34.314  33.616  1.00  0.00     0.001 A 
HETATM   11  C8  UNL     1      -1.626 -34.068  33.804  1.00  0.00     0.013 A 
HETATM   12  C9  UNL     1      -1.183 -32.765  33.773  1.00  0.00    -0.012 A 
HETATM   13  C10 UNL     1       0.135 -32.414  33.945  1.00  0.00    -0.011 A 
HETATM   14  C11 UNL     1       1.073 -33.407  34.172  1.00  0.00     0.034 A 
HETATM   15  C12 UNL     1       2.435 -33.146  34.364  1.00  0.00     0.019 A 
HETATM   16  C18 UNL     1       2.827 -31.855  34.321  1.00  0.00     0.021 A 
HETATM   17  C19 UNL     1       1.924 -30.808  34.096  1.00  0.00     0.016 A 
HETATM   18  C20 UNL     1       0.607 -31.100  33.915  1.00  0.00     0.004 A 
HETATM   19  C21 UNL     1      -0.300 -30.078  33.699  1.00  0.00     0.074 A 
ENDROOT
BRANCH  15  20
HETATM   20  C13 UNL     1       3.304 -34.255  34.612  1.00  0.00    -0.060 C 
HETATM   21  C14 UNL     1       4.018 -35.204  34.799  1.00  0.00    -0.041 C 
BRANCH  21  22
HETATM   22  C15 UNL     1       4.876 -36.396  35.004  1.00  0.00     0.252 C 
BRANCH  22  23
HETATM   23  N3  UNL     1       4.169 -37.596  34.921  1.00  0.00    -0.355 NA
HETATM   24  C16 UNL     1       3.498 -38.731  34.842  1.00  0.00     0.412 C 
HETATM   25  O1  UNL     1       3.567 -39.764  35.550  1.00  0.00    -0.229 OA
HETATM   26  N4  UNL     1       2.488 -38.885  33.773  1.00  0.00    -0.126 N 
ATOM     27  H4  UNL     1       1.495 -38.845  34.001  1.00  0.00     0.190 HD
BRANCH  26  28
HETATM   28  C17 UNL     1       2.860 -39.068  32.566  1.00  0.00     0.730 A 
HETATM   29  N5  UNL     1       4.054 -39.262  31.992  1.00  0.00    -0.069 N 
HETATM   30  O2  UNL     1       3.456 -39.338  30.843  1.00  0.00    -0.127 OA
ATOM     31  H5  UNL     1       5.018 -39.322  32.318  1.00  0.00     0.215 HD
HETATM   32  N6  UNL     1       2.279 -39.154  31.360  1.00  0.00    -0.069 N 
ATOM     33  H6  UNL     1       1.325 -39.100  31.003  1.00  0.00     0.215 HD
ENDBRANCH  26  28
ENDBRANCH  22  23
ENDBRANCH  21  22
ENDBRANCH  15  20
TORSDOF 4
ENDMDL
MODEL 5
REMARK VINA RESULT: -8.227379010      1.397      1.709
REMARK  4 active torsions:
REMARK  status: ('A' for Active; 'I' for Inactive)
REMARK    1  A    between atoms: C12_15  and  C13_16 
REMARK    2  A    between atoms: C14_17  and  C15_18 
REMARK    3  A    between atoms: C15_18  and  N3_19 
REMARK       I    between atoms: N3_19  and  C16_20 
REMARK       I    between atoms: C16_20  and  N4_22 
REMARK    4  A    between atoms: N4_22  and  C17_24 
ROOT
HETATM    1  C1  UNL     1       0.834 -27.884  33.696  1.00  0.00     0.157 C 
HETATM    2  N1  UNL     1      -0.294 -28.753  33.587  1.00  0.00    -0.345 N 
HETATM    3  C2  UNL     1      -1.552 -28.286  33.350  1.00  0.00     0.183 A 
HETATM    4  N2  UNL     1      -2.415 -29.289  33.300  1.00  0.00    -0.350 N 
ATOM      5  H2  UNL     1      -3.419 -29.208  33.136  1.00  0.00     0.166 HD
HETATM    6  C3  UNL     1      -1.732 -30.440  33.504  1.00  0.00     0.072 A 
HETATM    7  C4  UNL     1      -2.152 -31.745  33.554  1.00  0.00     0.004 A 
HETATM    8  C5  UNL     1      -3.497 -32.034  33.366  1.00  0.00     0.014 A 
HETATM    9  C6  UNL     1      -3.913 -33.329  33.412  1.00  0.00     0.001 A 
HETATM   10  C7  UNL     1      -2.996 -34.347  33.647  1.00  0.00     0.001 A 
HETATM   11  C8  UNL     1      -1.658 -34.077  33.837  1.00  0.00     0.013 A 
HETATM   12  C9  UNL     1      -1.236 -32.767  33.789  1.00  0.00    -0.012 A 
HETATM   13  C10 UNL     1       0.075 -32.392  33.962  1.00  0.00    -0.011 A 
HETATM   14  C11 UNL     1       1.029 -33.366  34.206  1.00  0.00     0.034 A 
HETATM   15  C12 UNL     1       2.385 -33.080  34.400  1.00  0.00     0.019 A 
HETATM   16  C18 UNL     1       2.756 -31.783  34.340  1.00  0.00     0.021 A 
HETATM   17  C19 UNL     1       1.836 -30.755  34.097  1.00  0.00     0.016 A 
HETATM   18  C20 UNL     1       0.525 -31.071  33.914  1.00  0.00     0.004 A 
HETATM   19  C21 UNL     1      -0.397 -30.067  33.680  1.00  0.00     0.074 A 
ENDROOT
BRANCH  15  20
HETATM   20  C13 UNL     1       3.270 -34.171  34.667  1.00  0.00    -0.060 C 
HETATM   21  C14 UNL     1       3.992 -35.108  34.882  1.00  0.00    -0.041 C 
BRANCH  21  22
HETATM   22  C15 UNL     1       4.853 -36.289  35.138  1.00  0.00     0.252 C 
BRANCH  22  23
HETATM   23  N3  UNL     1       4.224 -37.496  34.829  1.00  0.00    -0.355 NA
HETATM   24  C16 UNL     1       3.628 -38.638  34.538  1.00  0.00     0.412 C 
HETATM   25  O1  UNL     1       2.823 -39.327  35.209  1.00  0.00    -0.229 OA
HETATM   26  N4  UNL     1       3.904 -39.268  33.228  1.00  0.00    -0.126 N 
ATOM     27  H4  UNL     1       3.201 -39.239  32.490  1.00  0.00     0.190 HD
BRANCH  26  28
HETATM   28  C17 UNL     1       5.024 -39.846  33.023  1.00  0.00     0.730 A 
HETATM   29  N5  UNL     1       6.194 -39.837  33.672  1.00  0.00    -0.069 N 
HETATM   30  O2  UNL     1       6.661 -40.655  32.779  1.00  0.00    -0.127 OA
ATOM     31  H5  UNL     1       6.562 -39.383  34.508  1.00  0.00     0.215 HD
HETATM   32  N6  UNL     1       5.543 -40.692  32.121  1.00  0.00    -0.069 N 
ATOM     33  H6  UNL     1       5.205 -41.162  31.281  1.00  0.00     0.215 HD
ENDBRANCH  26  28
ENDBRANCH  22  23
ENDBRANCH  21  22
ENDBRANCH  15  20
TORSDOF 4
ENDMDL
