MODEL 1
REMARK VINA RESULT: -7.206227018      0.000      0.000
REMARK  12 active torsions:
REMARK  status: ('A' for Active; 'I' for Inactive)
REMARK    1  A    between atoms: O1_2  and  C2_3 
REMARK    2  A    between atoms: C2_3  and  C3_4 
REMARK    3  A    between atoms: C3_4  and  O2_5 
REMARK    4  A    between atoms: O2_5  and  C4_6 
REMARK    5  A    between atoms: C4_6  and  C5_7 
REMARK    6  A    between atoms: C5_7  and  C6_8 
REMARK    7  A    between atoms: C6_8  and  O3_9 
REMARK    8  A    between atoms: O3_9  and  C7_10 
REMARK    9  A    between atoms: C9_12  and  N1_13 
REMARK   10  A    between atoms: C12_18  and  C13_19 
REMARK   11  A    between atoms: C13_19  and  C14_20 
REMARK   12  A    between atoms: C14_20  and  N2_21 
REMARK       I    between atoms: N2_21  and  C16_23 
ROOT
HETATM    1  C7  UNL     1       6.580  -7.516 -19.330  1.00  0.00     0.144 A 
HETATM    2  C8  UNL     1       5.634  -6.558 -19.516  1.00  0.00     0.086 A 
HETATM    3  C9  UNL     1       5.908  -5.187 -19.352  1.00  0.00     0.042 A 
HETATM    4  C10 UNL     1       7.165  -4.807 -18.997  1.00  0.00     0.018 A 
HETATM    5  C11 UNL     1       7.492  -3.485 -18.822  1.00  0.00     0.023 A 
HETATM    6  C12 UNL     1       8.754  -3.089 -18.465  1.00  0.00    -0.056 A 
HETATM    7  C17 UNL     1       9.706  -4.064 -18.280  1.00  0.00     0.009 A 
HETATM    8  C18 UNL     1       9.399  -5.396 -18.450  1.00  0.00     0.031 A 
HETATM    9  C19 UNL     1       8.117  -5.818 -18.815  1.00  0.00     0.046 A 
HETATM   10  N5  UNL     1       7.841  -7.114 -18.973  1.00  0.00    -0.336 N 
ATOM     11  H5  UNL     1       8.573  -7.809 -18.826  1.00  0.00     0.168 HD
ENDROOT
BRANCH   1  12
HETATM   12  O3  UNL     1       6.355  -8.875 -19.473  1.00  0.00    -0.336 OA
BRANCH  12  13
HETATM   13  C6  UNL     1       6.515  -9.803 -18.489  1.00  0.00     0.179 C 
BRANCH  13  14
HETATM   14  C5  UNL     1       5.738  -9.443 -17.249  1.00  0.00     0.053 C 
BRANCH  14  15
HETATM   15  C4  UNL     1       6.780  -9.281 -16.132  1.00  0.00     0.169 C 
BRANCH  15  16
HETATM   16  O2  UNL     1       8.030  -9.138 -16.619  1.00  0.00    -0.389 OA
BRANCH  16  17
HETATM   17  C3  UNL     1       8.964  -8.427 -15.950  1.00  0.00     0.193 C 
BRANCH  17  18
HETATM   18  C2  UNL     1      10.360  -8.436 -16.458  1.00  0.00     0.193 C 
BRANCH  18  19
HETATM   19  O1  UNL     1      11.215  -9.367 -15.955  1.00  0.00    -0.394 OA
HETATM   20  C1  UNL     1      11.293  -9.407 -14.573  1.00  0.00     0.201 C 
ENDBRANCH  18  19
ENDBRANCH  17  18
ENDBRANCH  16  17
ENDBRANCH  15  16
ENDBRANCH  14  15
ENDBRANCH  13  14
ENDBRANCH  12  13
ENDBRANCH   1  12
BRANCH   3  21
HETATM   21  N1  UNL     1       4.989  -4.336 -19.536  1.00  0.00    -0.398 N 
ATOM     22  H12 UNL     1       4.104  -4.595 -19.974  1.00  0.00     0.156 HD
ATOM     23  H11 UNL     1       5.128  -3.369 -19.244  1.00  0.00     0.156 HD
ENDBRANCH   3  21
BRANCH   6  24
HETATM   24  C13 UNL     1       9.104  -1.699 -18.277  1.00  0.00     0.058 C 
BRANCH  24  25
HETATM   25  C14 UNL     1       8.015  -0.799 -17.792  1.00  0.00     0.129 C 
BRANCH  25  26
HETATM   26  N2  UNL     1       7.527  -0.039 -18.927  1.00  0.00    -0.360 N 
HETATM   27  C15 UNL     1       8.503   0.605 -19.784  1.00  0.00     0.152 C 
HETATM   28  C16 UNL     1       6.148   0.065 -19.182  1.00  0.00     0.183 C 
HETATM   29  N3  UNL     1       5.518   1.132 -18.825  1.00  0.00    -0.374 N 
HETATM   30  N4  UNL     1       5.427  -0.976 -19.820  1.00  0.00    -0.064 NA
ATOM     31  H32 UNL     1       6.037   1.881 -18.366  1.00  0.00     0.158 HD
ATOM     32  H31 UNL     1       4.518   1.208 -19.010  1.00  0.00     0.158 HD
ENDBRANCH  25  26
ENDBRANCH  24  25
ENDBRANCH   6  24
TORSDOF 12
ENDMDL
MODEL 2
REMARK VINA RESULT: -7.197633139      1.244      2.237
REMARK  12 active torsions:
REMARK  status: ('A' for Active; 'I' for Inactive)
REMARK    1  A    between atoms: O1_2  and  C2_3 
REMARK    2  A    between atoms: C2_3  and  C3_4 
REMARK    3  A    between atoms: C3_4  and  O2_5 
REMARK    4  A    between atoms: O2_5  and  C4_6 
REMARK    5  A    between atoms: C4_6  and  C5_7 
REMARK    6  A    between atoms: C5_7  and  C6_8 
REMARK    7  A    between atoms: C6_8  and  O3_9 
REMARK    8  A    between atoms: O3_9  and  C7_10 
REMARK    9  A    between atoms: C9_12  and  N1_13 
REMARK   10  A    between atoms: C12_18  and  C13_19 
REMARK   11  A    between atoms: C13_19  and  C14_20 
REMARK   12  A    between atoms: C14_20  and  N2_21 
REMARK       I    between atoms: N2_21  and  C16_23 
ROOT
HETATM    1  C7  UNL     1       6.156  -7.252 -19.767  1.00  0.00     0.144 A 
HETATM    2  C8  UNL     1       7.448  -7.311 -19.347  1.00  0.00     0.086 A 
HETATM    3  C9  UNL     1       8.096  -6.214 -18.750  1.00  0.00     0.042 A 
HETATM    4  C10 UNL     1       7.406  -5.053 -18.584  1.00  0.00     0.018 A 
HETATM    5  C11 UNL     1       7.985  -3.950 -18.008  1.00  0.00     0.023 A 
HETATM    6  C12 UNL     1       7.301  -2.776 -17.835  1.00  0.00    -0.056 A 
HETATM    7  C17 UNL     1       5.994  -2.724 -18.260  1.00  0.00     0.009 A 
HETATM    8  C18 UNL     1       5.394  -3.820 -18.841  1.00  0.00     0.031 A 
HETATM    9  C19 UNL     1       6.076  -5.027 -19.024  1.00  0.00     0.046 A 
HETATM   10  N5  UNL     1       5.476  -6.074 -19.591  1.00  0.00    -0.336 N 
ATOM     11  H5  UNL     1       4.505  -5.998 -19.895  1.00  0.00     0.168 HD
ENDROOT
BRANCH   1  12
HETATM   12  O3  UNL     1       5.479  -8.302 -20.365  1.00  0.00    -0.336 OA
BRANCH  12  13
HETATM   13  C6  UNL     1       4.515  -9.054 -19.766  1.00  0.00     0.179 C 
BRANCH  13  14
HETATM   14  C5  UNL     1       4.574  -8.947 -18.264  1.00  0.00     0.053 C 
BRANCH  14  15
HETATM   15  C4  UNL     1       5.316 -10.203 -17.782  1.00  0.00     0.169 C 
BRANCH  15  16
HETATM   16  O2  UNL     1       6.534  -9.913 -17.281  1.00  0.00    -0.389 OA
BRANCH  16  17
HETATM   17  C3  UNL     1       6.670  -9.175 -16.158  1.00  0.00     0.193 C 
BRANCH  17  18
HETATM   18  C2  UNL     1       7.997  -8.578 -15.859  1.00  0.00     0.193 C 
BRANCH  18  19
HETATM   19  O1  UNL     1       9.069  -9.015 -16.575  1.00  0.00    -0.394 OA
HETATM   20  C1  UNL     1      10.302  -8.780 -15.988  1.00  0.00     0.201 C 
ENDBRANCH  18  19
ENDBRANCH  17  18
ENDBRANCH  16  17
ENDBRANCH  15  16
ENDBRANCH  14  15
ENDBRANCH  13  14
ENDBRANCH  12  13
ENDBRANCH   1  12
BRANCH   3  21
HETATM   21  N1  UNL     1       9.302  -6.323 -18.378  1.00  0.00    -0.398 N 
ATOM     22  H12 UNL     1       9.769  -7.230 -18.346  1.00  0.00     0.156 HD
ATOM     23  H11 UNL     1       9.824  -5.491 -18.103  1.00  0.00     0.156 HD
ENDBRANCH   3  21
BRANCH   6  24
HETATM   24  C13 UNL     1       7.906  -1.610 -17.232  1.00  0.00     0.058 C 
BRANCH  24  25
HETATM   25  C14 UNL     1       7.054  -0.386 -17.152  1.00  0.00     0.129 C 
BRANCH  25  26
HETATM   26  N2  UNL     1       7.203   0.343 -18.396  1.00  0.00    -0.360 N 
HETATM   27  C15 UNL     1       8.479   0.268 -19.079  1.00  0.00     0.152 C 
HETATM   28  C16 UNL     1       6.136   1.097 -18.919  1.00  0.00     0.183 C 
HETATM   29  N3  UNL     1       6.122   2.374 -18.746  1.00  0.00    -0.374 N 
HETATM   30  N4  UNL     1       5.073   0.488 -19.631  1.00  0.00    -0.064 NA
ATOM     31  H32 UNL     1       6.888   2.812 -18.234  1.00  0.00     0.158 HD
ATOM     32  H31 UNL     1       5.349   2.921 -19.125  1.00  0.00     0.158 HD
ENDBRANCH  25  26
ENDBRANCH  24  25
ENDBRANCH   6  24
TORSDOF 12
ENDMDL
MODEL 3
REMARK VINA RESULT: -7.098837100      1.020      1.092
REMARK  12 active torsions:
REMARK  status: ('A' for Active; 'I' for Inactive)
REMARK    1  A    between atoms: O1_2  and  C2_3 
REMARK    2  A    between atoms: C2_3  and  C3_4 
REMARK    3  A    between atoms: C3_4  and  O2_5 
REMARK    4  A    between atoms: O2_5  and  C4_6 
REMARK    5  A    between atoms: C4_6  and  C5_7 
REMARK    6  A    between atoms: C5_7  and  C6_8 
REMARK    7  A    between atoms: C6_8  and  O3_9 
REMARK    8  A    between atoms: O3_9  and  C7_10 
REMARK    9  A    between atoms: C9_12  and  N1_13 
REMARK   10  A    between atoms: C12_18  and  C13_19 
REMARK   11  A    between atoms: C13_19  and  C14_20 
REMARK   12  A    between atoms: C14_20  and  N2_21 
REMARK       I    between atoms: N2_21  and  C16_23 
ROOT
HETATM    1  C7  UNL     1       6.614  -7.133 -19.512  1.00  0.00     0.144 A 
HETATM    2  C8  UNL     1       5.626  -6.299 -19.932  1.00  0.00     0.086 A 
HETATM    3  C9  UNL     1       5.618  -4.926 -19.626  1.00  0.00     0.042 A 
HETATM    4  C10 UNL     1       6.637  -4.412 -18.884  1.00  0.00     0.018 A 
HETATM    5  C11 UNL     1       6.685  -3.081 -18.554  1.00  0.00     0.023 A 
HETATM    6  C12 UNL     1       7.705  -2.552 -17.809  1.00  0.00    -0.056 A 
HETATM    7  C17 UNL     1       8.702  -3.401 -17.389  1.00  0.00     0.009 A 
HETATM    8  C18 UNL     1       8.674  -4.741 -17.709  1.00  0.00     0.031 A 
HETATM    9  C19 UNL     1       7.641  -5.298 -18.470  1.00  0.00     0.046 A 
HETATM   10  N5  UNL     1       7.633  -6.598 -18.767  1.00  0.00    -0.336 N 
ATOM     11  H5  UNL     1       8.390  -7.198 -18.437  1.00  0.00     0.168 HD
ENDROOT
BRANCH   1  12
HETATM   12  O3  UNL     1       6.660  -8.490 -19.783  1.00  0.00    -0.336 OA
BRANCH  12  13
HETATM   13  C6  UNL     1       6.889  -9.465 -18.860  1.00  0.00     0.179 C 
BRANCH  13  14
HETATM   14  C5  UNL     1       5.826  -9.486 -17.793  1.00  0.00     0.053 C 
BRANCH  14  15
HETATM   15  C4  UNL     1       6.573  -9.393 -16.454  1.00  0.00     0.169 C 
BRANCH  15  16
HETATM   16  O2  UNL     1       7.384  -8.316 -16.398  1.00  0.00    -0.389 OA
BRANCH  16  17
HETATM   17  C3  UNL     1       8.543  -8.350 -15.706  1.00  0.00     0.193 C 
BRANCH  17  18
HETATM   18  C2  UNL     1       9.814  -8.508 -16.460  1.00  0.00     0.193 C 
BRANCH  18  19
HETATM   19  O1  UNL     1      10.729  -9.399 -15.988  1.00  0.00    -0.394 OA
HETATM   20  C1  UNL     1      11.491  -8.949 -14.923  1.00  0.00     0.201 C 
ENDBRANCH  18  19
ENDBRANCH  17  18
ENDBRANCH  16  17
ENDBRANCH  15  16
ENDBRANCH  14  15
ENDBRANCH  13  14
ENDBRANCH  12  13
ENDBRANCH   1  12
BRANCH   3  21
HETATM   21  N1  UNL     1       4.672  -4.194 -20.041  1.00  0.00    -0.398 N 
ATOM     22  H12 UNL     1       3.721  -4.554 -20.128  1.00  0.00     0.156 HD
ATOM     23  H11 UNL     1       4.856  -3.224 -20.296  1.00  0.00     0.156 HD
ENDBRANCH   3  21
BRANCH   6  24
HETATM   24  C13 UNL     1       7.759  -1.152 -17.455  1.00  0.00     0.058 C 
BRANCH  24  25
HETATM   25  C14 UNL     1       6.450  -0.436 -17.372  1.00  0.00     0.129 C 
BRANCH  25  26
HETATM   26  N2  UNL     1       6.508   0.702 -18.269  1.00  0.00    -0.360 N 
HETATM   27  C15 UNL     1       7.175   1.902 -17.803  1.00  0.00     0.152 C 
HETATM   28  C16 UNL     1       5.931   0.636 -19.550  1.00  0.00     0.183 C 
HETATM   29  N3  UNL     1       4.772   1.165 -19.750  1.00  0.00    -0.374 N 
HETATM   30  N4  UNL     1       6.591   0.001 -20.632  1.00  0.00    -0.064 NA
ATOM     31  H32 UNL     1       4.298   1.622 -18.971  1.00  0.00     0.158 HD
ATOM     32  H31 UNL     1       4.354   1.117 -20.679  1.00  0.00     0.158 HD
ENDBRANCH  25  26
ENDBRANCH  24  25
ENDBRANCH   6  24
TORSDOF 12
ENDMDL
MODEL 4
REMARK VINA RESULT: -6.860450042      4.080      7.723
REMARK  12 active torsions:
REMARK  status: ('A' for Active; 'I' for Inactive)
REMARK    1  A    between atoms: O1_2  and  C2_3 
REMARK    2  A    between atoms: C2_3  and  C3_4 
REMARK    3  A    between atoms: C3_4  and  O2_5 
REMARK    4  A    between atoms: O2_5  and  C4_6 
REMARK    5  A    between atoms: C4_6  and  C5_7 
REMARK    6  A    between atoms: C5_7  and  C6_8 
REMARK    7  A    between atoms: C6_8  and  O3_9 
REMARK    8  A    between atoms: O3_9  and  C7_10 
REMARK    9  A    between atoms: C9_12  and  N1_13 
REMARK   10  A    between atoms: C12_18  and  C13_19 
REMARK   11  A    between atoms: C13_19  and  C14_20 
REMARK   12  A    between atoms: C14_20  and  N2_21 
REMARK       I    between atoms: N2_21  and  C16_23 
ROOT
HETATM    1  C7  UNL     1       7.264  -5.192 -22.857  1.00  0.00     0.144 A 
HETATM    2  C8  UNL     1       8.268  -4.783 -22.037  1.00  0.00     0.086 A 
HETATM    3  C9  UNL     1       8.435  -5.295 -20.736  1.00  0.00     0.042 A 
HETATM    4  C10 UNL     1       7.561  -6.234 -20.283  1.00  0.00     0.018 A 
HETATM    5  C11 UNL     1       7.673  -6.769 -19.024  1.00  0.00     0.023 A 
HETATM    6  C12 UNL     1       6.800  -7.715 -18.555  1.00  0.00    -0.056 A 
HETATM    7  C17 UNL     1       5.788  -8.126 -19.391  1.00  0.00     0.009 A 
HETATM    8  C18 UNL     1       5.658  -7.602 -20.658  1.00  0.00     0.031 A 
HETATM    9  C19 UNL     1       6.539  -6.636 -21.153  1.00  0.00     0.046 A 
HETATM   10  N5  UNL     1       6.393  -6.141 -22.383  1.00  0.00    -0.336 N 
ATOM     11  H5  UNL     1       5.629  -6.468 -22.974  1.00  0.00     0.168 HD
ENDROOT
BRANCH   1  12
HETATM   12  O3  UNL     1       7.057  -4.714 -24.139  1.00  0.00    -0.336 OA
BRANCH  12  13
HETATM   13  C6  UNL     1       6.189  -5.247 -25.043  1.00  0.00     0.179 C 
BRANCH  13  14
HETATM   14  C5  UNL     1       5.526  -4.183 -25.878  1.00  0.00     0.053 C 
BRANCH  14  15
HETATM   15  C4  UNL     1       4.758  -3.292 -24.890  1.00  0.00     0.169 C 
BRANCH  15  16
HETATM   16  O2  UNL     1       3.750  -3.954 -24.284  1.00  0.00    -0.389 OA
BRANCH  16  17
HETATM   17  C3  UNL     1       3.431  -3.713 -22.995  1.00  0.00     0.193 C 
BRANCH  17  18
HETATM   18  C2  UNL     1       4.464  -3.116 -22.109  1.00  0.00     0.193 C 
BRANCH  18  19
HETATM   19  O1  UNL     1       4.663  -3.683 -20.888  1.00  0.00    -0.394 OA
HETATM   20  C1  UNL     1       5.590  -3.039 -20.086  1.00  0.00     0.201 C 
ENDBRANCH  18  19
ENDBRANCH  17  18
ENDBRANCH  16  17
ENDBRANCH  15  16
ENDBRANCH  14  15
ENDBRANCH  13  14
ENDBRANCH  12  13
ENDBRANCH   1  12
BRANCH   3  21
HETATM   21  N1  UNL     1       9.388  -4.877 -20.014  1.00  0.00    -0.398 N 
ATOM     22  H12 UNL     1      10.309  -5.315 -20.045  1.00  0.00     0.156 HD
ATOM     23  H11 UNL     1       9.238  -4.088 -19.386  1.00  0.00     0.156 HD
ENDBRANCH   3  21
BRANCH   6  24
HETATM   24  C13 UNL     1       6.911  -8.281 -17.230  1.00  0.00     0.058 C 
BRANCH  24  25
HETATM   25  C14 UNL     1       8.129  -9.103 -16.958  1.00  0.00     0.129 C 
BRANCH  25  26
HETATM   26  N2  UNL     1       9.061  -8.283 -16.209  1.00  0.00    -0.360 N 
HETATM   27  C15 UNL     1       8.533  -7.454 -15.144  1.00  0.00     0.152 C 
HETATM   28  C16 UNL     1      10.434  -8.298 -16.513  1.00  0.00     0.183 C 
HETATM   29  N3  UNL     1      10.934  -7.346 -17.225  1.00  0.00    -0.374 N 
HETATM   30  N4  UNL     1      11.287  -9.335 -16.058  1.00  0.00    -0.064 NA
ATOM     31  H32 UNL     1      10.321  -6.600 -17.551  1.00  0.00     0.158 HD
ATOM     32  H31 UNL     1      11.930  -7.357 -17.445  1.00  0.00     0.158 HD
ENDBRANCH  25  26
ENDBRANCH  24  25
ENDBRANCH   6  24
TORSDOF 12
ENDMDL
MODEL 5
REMARK VINA RESULT: -6.856609484      1.570      1.930
REMARK  12 active torsions:
REMARK  status: ('A' for Active; 'I' for Inactive)
REMARK    1  A    between atoms: O1_2  and  C2_3 
REMARK    2  A    between atoms: C2_3  and  C3_4 
REMARK    3  A    between atoms: C3_4  and  O2_5 
REMARK    4  A    between atoms: O2_5  and  C4_6 
REMARK    5  A    between atoms: C4_6  and  C5_7 
REMARK    6  A    between atoms: C5_7  and  C6_8 
REMARK    7  A    between atoms: C6_8  and  O3_9 
REMARK    8  A    between atoms: O3_9  and  C7_10 
REMARK    9  A    between atoms: C9_12  and  N1_13 
REMARK   10  A    between atoms: C12_18  and  C13_19 
REMARK   11  A    between atoms: C13_19  and  C14_20 
REMARK   12  A    between atoms: C14_20  and  N2_21 
REMARK       I    between atoms: N2_21  and  C16_23 
ROOT
HETATM    1  C7  UNL     1       6.985  -6.573 -19.479  1.00  0.00     0.144 A 
HETATM    2  C8  UNL     1       5.907  -5.965 -20.040  1.00  0.00     0.086 A 
HETATM    3  C9  UNL     1       5.587  -4.618 -19.790  1.00  0.00     0.042 A 
HETATM    4  C10 UNL     1       6.387  -3.896 -18.959  1.00  0.00     0.018 A 
HETATM    5  C11 UNL     1       6.126  -2.578 -18.677  1.00  0.00     0.023 A 
HETATM    6  C12 UNL     1       6.923  -1.841 -17.842  1.00  0.00    -0.056 A 
HETATM    7  C17 UNL     1       8.014  -2.462 -17.280  1.00  0.00     0.009 A 
HETATM    8  C18 UNL     1       8.294  -3.783 -17.549  1.00  0.00     0.031 A 
HETATM    9  C19 UNL     1       7.492  -4.551 -18.399  1.00  0.00     0.046 A 
HETATM   10  N5  UNL     1       7.781  -5.830 -18.644  1.00  0.00    -0.336 N 
ATOM     11  H5  UNL     1       8.598  -6.258 -18.207  1.00  0.00     0.168 HD
ENDROOT
BRANCH   1  12
HETATM   12  O3  UNL     1       7.335  -7.897 -19.689  1.00  0.00    -0.336 OA
BRANCH  12  13
HETATM   13  C6  UNL     1       6.630  -8.973 -19.244  1.00  0.00     0.179 C 
BRANCH  13  14
HETATM   14  C5  UNL     1       6.374  -8.900 -17.761  1.00  0.00     0.053 C 
BRANCH  14  15
HETATM   15  C4  UNL     1       7.744  -9.074 -17.089  1.00  0.00     0.169 C 
BRANCH  15  16
HETATM   16  O2  UNL     1       8.142  -7.956 -16.447  1.00  0.00    -0.389 OA
BRANCH  16  17
HETATM   17  C3  UNL     1       9.331  -7.902 -15.809  1.00  0.00     0.193 C 
BRANCH  17  18
HETATM   18  C2  UNL     1      10.546  -8.356 -16.534  1.00  0.00     0.193 C 
BRANCH  18  19
HETATM   19  O1  UNL     1      11.309  -9.323 -15.957  1.00  0.00    -0.394 OA
HETATM   20  C1  UNL     1      11.166  -9.443 -14.585  1.00  0.00     0.201 C 
ENDBRANCH  18  19
ENDBRANCH  17  18
ENDBRANCH  16  17
ENDBRANCH  15  16
ENDBRANCH  14  15
ENDBRANCH  13  14
ENDBRANCH  12  13
ENDBRANCH   1  12
BRANCH   3  21
HETATM   21  N1  UNL     1       4.569  -4.101 -20.338  1.00  0.00    -0.398 N 
ATOM     22  H12 UNL     1       3.666  -4.576 -20.335  1.00  0.00     0.156 HD
ATOM     23  H11 UNL     1       4.646  -3.191 -20.793  1.00  0.00     0.156 HD
ENDBRANCH   3  21
BRANCH   6  24
HETATM   24  C13 UNL     1       6.653  -0.454 -17.540  1.00  0.00     0.058 C 
BRANCH  24  25
HETATM   25  C14 UNL     1       7.673   0.258 -16.713  1.00  0.00     0.129 C 
BRANCH  25  26
HETATM   26  N2  UNL     1       8.299   1.265 -17.547  1.00  0.00    -0.360 N 
HETATM   27  C15 UNL     1       9.472   0.885 -18.309  1.00  0.00     0.152 C 
HETATM   28  C16 UNL     1       7.777   2.570 -17.610  1.00  0.00     0.183 C 
HETATM   29  N3  UNL     1       8.332   3.506 -16.919  1.00  0.00    -0.374 N 
HETATM   30  N4  UNL     1       6.653   2.885 -18.415  1.00  0.00    -0.064 NA
ATOM     31  H32 UNL     1       9.140   3.280 -16.340  1.00  0.00     0.158 HD
ATOM     32  H31 UNL     1       7.953   4.452 -16.964  1.00  0.00     0.158 HD
ENDBRANCH  25  26
ENDBRANCH  24  25
ENDBRANCH   6  24
TORSDOF 12
ENDMDL
