MODEL 1
REMARK VINA RESULT: -7.477660905      0.000      0.000
REMARK  10 active torsions:
REMARK  status: ('A' for Active; 'I' for Inactive)
REMARK    1  A    between atoms: C3_5  and  N2_6 
REMARK    2  A    between atoms: N2_6  and  C4_7 
REMARK    3  A    between atoms: C4_7  and  C5_8 
REMARK    4  A    between atoms: C4_7  and  C19_27 
REMARK    5  A    between atoms: C10_15  and  C11_16 
REMARK    6  A    between atoms: C11_16  and  N4_17 
REMARK    7  A    between atoms: N4_17  and  C13_19 
REMARK    8  A    between atoms: C13_19  and  C14_20 
REMARK    9  A    between atoms: C14_20  and  N5_21 
REMARK   10  A    between atoms: C25_36  and  C26_37 
ROOT
HETATM    1  C4  UNL     1       6.098  14.784  22.629  1.00  0.00     0.233 C 
ENDROOT
BRANCH   1   2
HETATM    2  N2  UNL     1       6.752  14.623  21.466  1.00  0.00    -0.402 NA
BRANCH   2   3
HETATM    3  C3  UNL     1       7.284  14.722  20.411  1.00  0.00     0.255 A 
HETATM    4  N1  UNL     1       8.405  15.445  20.160  1.00  0.00    -0.320 N 
HETATM    5  C2  UNL     1       8.947  15.576  18.938  1.00  0.00     0.018 A 
ATOM      6  H1  UNL     1       8.860  15.916  20.942  1.00  0.00     0.169 HD
HETATM    7  C1  UNL     1      10.163  16.383  18.767  1.00  0.00     0.069 C 
HETATM    8  C25 UNL     1       8.349  14.942  17.824  1.00  0.00    -0.006 A 
HETATM    9  C23 UNL     1       7.216  14.202  18.055  1.00  0.00     0.018 A 
HETATM   10  N6  UNL     1       6.739  14.124  19.311  1.00  0.00    -0.320 N 
HETATM   11  C24 UNL     1       6.520  13.449  17.004  1.00  0.00     0.069 C 
ATOM     12  H6  UNL     1       5.895  13.569  19.454  1.00  0.00     0.169 HD
BRANCH   8  13
HETATM   13  C26 UNL     1       9.000  15.110  16.552  1.00  0.00    -0.020 C 
HETATM   14  C27 UNL     1       9.139  13.742  15.808  1.00  0.00     0.019 C 
HETATM   15  C28 UNL     1       8.415  16.088  15.578  1.00  0.00     0.019 C 
HETATM   16  C29 UNL     1      10.506  15.499  16.597  1.00  0.00     0.019 C 
ENDBRANCH   8  13
ENDBRANCH   2   3
ENDBRANCH   1   2
BRANCH   1  17
HETATM   17  C5  UNL     1       5.549  16.159  22.756  1.00  0.00     0.032 A 
HETATM   18  C6  UNL     1       4.268  16.512  23.070  1.00  0.00     0.032 A 
HETATM   19  C7  UNL     1       4.255  17.907  23.110  1.00  0.00     0.094 A 
HETATM   20  N3  UNL     1       5.500  18.347  22.824  1.00  0.00    -0.329 N 
HETATM   21  C8  UNL     1       6.300  17.307  22.609  1.00  0.00     0.154 A 
HETATM   22  C10 UNL     1       6.237  19.616  22.616  1.00  0.00     0.144 C 
HETATM   23  O1  UNL     1       7.582  17.809  22.320  1.00  0.00    -0.333 OA
HETATM   24  C9  UNL     1       7.467  19.157  21.862  1.00  0.00     0.204 C 
BRANCH  22  25
HETATM   25  C11 UNL     1       5.349  20.442  21.753  1.00  0.00     0.299 C 
BRANCH  25  26
HETATM   26  N4  UNL     1       5.734  21.796  21.499  1.00  0.00     0.087 N 
HETATM   27  C12 UNL     1       4.661  22.728  21.839  1.00  0.00     0.310 C 
BRANCH  26  28
HETATM   28  C13 UNL     1       5.843  21.889  20.032  1.00  0.00     0.302 C 
BRANCH  28  29
HETATM   29  C14 UNL     1       7.263  22.119  19.645  1.00  0.00     0.302 C 
BRANCH  29  30
HETATM   30  N5  UNL     1       7.452  23.552  19.339  1.00  0.00     0.094 N 
HETATM   31  C15 UNL     1       6.856  23.869  18.036  1.00  0.00     0.298 C 
HETATM   32  C16 UNL     1       7.677  24.950  17.342  1.00  0.00     0.198 C 
HETATM   33  O2  UNL     1       8.896  24.411  16.906  1.00  0.00    -0.388 OA
HETATM   34  C17 UNL     1       9.295  23.375  17.763  1.00  0.00     0.198 C 
HETATM   35  C18 UNL     1       8.890  23.779  19.174  1.00  0.00     0.298 C 
ENDBRANCH  29  30
ENDBRANCH  28  29
ENDBRANCH  26  28
ENDBRANCH  25  26
ENDBRANCH  22  25
ENDBRANCH   1  17
BRANCH   1  36
HETATM   36  C19 UNL     1       6.980  14.442  23.842  1.00  0.00     0.162 C 
HETATM   37  C20 UNL     1       7.475  13.044  23.777  1.00  0.00     0.037 C 
HETATM   38  C21 UNL     1       7.556  12.616  25.220  1.00  0.00     0.029 C 
HETATM   39  C22 UNL     1       7.219  13.927  25.943  1.00  0.00     0.168 C 
HETATM   40  O3  UNL     1       6.424  14.631  25.043  1.00  0.00    -0.382 OA
ENDBRANCH   1  36
TORSDOF 10
ENDMDL
MODEL 2
REMARK VINA RESULT: -7.457168588      2.503      4.157
REMARK  10 active torsions:
REMARK  status: ('A' for Active; 'I' for Inactive)
REMARK    1  A    between atoms: C3_5  and  N2_6 
REMARK    2  A    between atoms: N2_6  and  C4_7 
REMARK    3  A    between atoms: C4_7  and  C5_8 
REMARK    4  A    between atoms: C4_7  and  C19_27 
REMARK    5  A    between atoms: C10_15  and  C11_16 
REMARK    6  A    between atoms: C11_16  and  N4_17 
REMARK    7  A    between atoms: N4_17  and  C13_19 
REMARK    8  A    between atoms: C13_19  and  C14_20 
REMARK    9  A    between atoms: C14_20  and  N5_21 
REMARK   10  A    between atoms: C25_36  and  C26_37 
ROOT
HETATM    1  C4  UNL     1       6.257  18.467  20.358  1.00  0.00     0.233 C 
ENDROOT
BRANCH   1   2
HETATM    2  N2  UNL     1       6.972  17.420  19.910  1.00  0.00    -0.402 NA
BRANCH   2   3
HETATM    3  C3  UNL     1       7.607  16.623  19.304  1.00  0.00     0.255 A 
HETATM    4  N1  UNL     1       8.932  16.719  19.027  1.00  0.00    -0.320 N 
HETATM    5  C2  UNL     1       9.604  15.819  18.289  1.00  0.00     0.018 A 
ATOM      6  H1  UNL     1       9.446  17.518  19.398  1.00  0.00     0.169 HD
HETATM    7  C1  UNL     1      11.039  16.012  18.042  1.00  0.00     0.069 C 
HETATM    8  C25 UNL     1       8.932  14.696  17.753  1.00  0.00    -0.006 A 
HETATM    9  C23 UNL     1       7.592  14.577  18.024  1.00  0.00     0.018 A 
HETATM   10  N6  UNL     1       6.996  15.524  18.771  1.00  0.00    -0.320 N 
HETATM   11  C24 UNL     1       6.781  13.438  17.578  1.00  0.00     0.069 C 
ATOM     12  H6  UNL     1       5.999  15.411  18.956  1.00  0.00     0.169 HD
BRANCH   8  13
HETATM   13  C26 UNL     1       9.724  13.766  16.993  1.00  0.00    -0.020 C 
HETATM   14  C27 UNL     1       9.363  13.833  15.473  1.00  0.00     0.019 C 
HETATM   15  C28 UNL     1      11.216  13.850  17.099  1.00  0.00     0.019 C 
HETATM   16  C29 UNL     1       9.426  12.257  17.231  1.00  0.00     0.019 C 
ENDBRANCH   8  13
ENDBRANCH   2   3
ENDBRANCH   1   2
BRANCH   1  17
HETATM   17  C5  UNL     1       7.081  19.703  20.409  1.00  0.00     0.032 A 
HETATM   18  C6  UNL     1       8.293  19.864  21.016  1.00  0.00     0.032 A 
HETATM   19  C7  UNL     1       8.681  21.179  20.753  1.00  0.00     0.094 A 
HETATM   20  N3  UNL     1       7.713  21.762  20.012  1.00  0.00    -0.329 N 
HETATM   21  C8  UNL     1       6.736  20.887  19.790  1.00  0.00     0.154 A 
HETATM   22  C10 UNL     1       7.368  23.079  19.425  1.00  0.00     0.144 C 
HETATM   23  O1  UNL     1       5.755  21.532  19.016  1.00  0.00    -0.333 OA
HETATM   24  C9  UNL     1       5.880  22.946  19.179  1.00  0.00     0.204 C 
BRANCH  22  25
HETATM   25  C11 UNL     1       7.654  24.068  20.499  1.00  0.00     0.299 C 
BRANCH  25  26
HETATM   26  N4  UNL     1       8.431  25.220  20.159  1.00  0.00     0.087 N 
HETATM   27  C12 UNL     1       7.638  26.199  19.421  1.00  0.00     0.310 C 
BRANCH  26  28
HETATM   28  C13 UNL     1       9.414  24.733  19.174  1.00  0.00     0.302 C 
BRANCH  28  29
HETATM   29  C14 UNL     1      10.794  24.914  19.708  1.00  0.00     0.302 C 
BRANCH  29  30
HETATM   30  N5  UNL     1      11.721  24.052  18.945  1.00  0.00     0.094 N 
HETATM   31  C15 UNL     1      11.037  22.820  18.537  1.00  0.00     0.298 C 
HETATM   32  C16 UNL     1      12.024  21.657  18.537  1.00  0.00     0.198 C 
HETATM   33  O2  UNL     1      12.344  21.310  19.857  1.00  0.00    -0.388 OA
HETATM   34  C17 UNL     1      12.272  22.442  20.681  1.00  0.00     0.198 C 
HETATM   35  C18 UNL     1      12.777  23.624  19.865  1.00  0.00     0.298 C 
ENDBRANCH  29  30
ENDBRANCH  28  29
ENDBRANCH  26  28
ENDBRANCH  25  26
ENDBRANCH  22  25
ENDBRANCH   1  17
BRANCH   1  36
HETATM   36  C19 UNL     1       5.618  18.188  21.729  1.00  0.00     0.162 C 
HETATM   37  C20 UNL     1       5.829  16.781  22.151  1.00  0.00     0.037 C 
HETATM   38  C21 UNL     1       4.590  16.444  22.940  1.00  0.00     0.029 C 
HETATM   39  C22 UNL     1       3.880  17.805  22.980  1.00  0.00     0.168 C 
HETATM   40  O3  UNL     1       4.313  18.462  21.834  1.00  0.00    -0.382 OA
ENDBRANCH   1  36
TORSDOF 10
ENDMDL
MODEL 3
REMARK VINA RESULT: -7.391563419      0.784      1.497
REMARK  10 active torsions:
REMARK  status: ('A' for Active; 'I' for Inactive)
REMARK    1  A    between atoms: C3_5  and  N2_6 
REMARK    2  A    between atoms: N2_6  and  C4_7 
REMARK    3  A    between atoms: C4_7  and  C5_8 
REMARK    4  A    between atoms: C4_7  and  C19_27 
REMARK    5  A    between atoms: C10_15  and  C11_16 
REMARK    6  A    between atoms: C11_16  and  N4_17 
REMARK    7  A    between atoms: N4_17  and  C13_19 
REMARK    8  A    between atoms: C13_19  and  C14_20 
REMARK    9  A    between atoms: C14_20  and  N5_21 
REMARK   10  A    between atoms: C25_36  and  C26_37 
ROOT
HETATM    1  C4  UNL     1       5.963  14.616  22.652  1.00  0.00     0.233 C 
ENDROOT
BRANCH   1   2
HETATM    2  N2  UNL     1       6.485  14.340  21.446  1.00  0.00    -0.402 NA
BRANCH   2   3
HETATM    3  C3  UNL     1       7.148  14.198  20.473  1.00  0.00     0.255 A 
HETATM    4  N1  UNL     1       7.262  13.050  19.758  1.00  0.00    -0.320 N 
HETATM    5  C2  UNL     1       8.068  12.914  18.692  1.00  0.00     0.018 A 
ATOM      6  H1  UNL     1       6.705  12.246  20.046  1.00  0.00     0.169 HD
HETATM    7  C1  UNL     1       8.123  11.629  17.984  1.00  0.00     0.069 C 
HETATM    8  C25 UNL     1       8.860  14.003  18.258  1.00  0.00    -0.006 A 
HETATM    9  C23 UNL     1       8.758  15.176  18.964  1.00  0.00     0.018 A 
HETATM   10  N6  UNL     1       7.926  15.225  20.020  1.00  0.00    -0.320 N 
HETATM   11  C24 UNL     1       9.480  16.400  18.596  1.00  0.00     0.069 C 
ATOM     12  H6  UNL     1       7.872  16.109  20.528  1.00  0.00     0.169 HD
BRANCH   8  13
HETATM   13  C26 UNL     1       9.681  13.788  17.096  1.00  0.00    -0.020 C 
HETATM   14  C27 UNL     1      10.041  12.275  16.935  1.00  0.00     0.019 C 
HETATM   15  C28 UNL     1       9.174  14.267  15.769  1.00  0.00     0.019 C 
HETATM   16  C29 UNL     1      11.127  14.360  17.161  1.00  0.00     0.019 C 
ENDBRANCH   8  13
ENDBRANCH   2   3
ENDBRANCH   1   2
BRANCH   1  17
HETATM   17  C5  UNL     1       5.498  16.026  22.732  1.00  0.00     0.032 A 
HETATM   18  C6  UNL     1       4.252  16.468  23.073  1.00  0.00     0.032 A 
HETATM   19  C7  UNL     1       4.320  17.861  23.045  1.00  0.00     0.094 A 
HETATM   20  N3  UNL     1       5.576  18.214  22.694  1.00  0.00    -0.329 N 
HETATM   21  C8  UNL     1       6.307  17.119  22.501  1.00  0.00     0.154 A 
HETATM   22  C10 UNL     1       6.376  19.427  22.397  1.00  0.00     0.144 C 
HETATM   23  O1  UNL     1       7.603  17.531  22.142  1.00  0.00    -0.333 OA
HETATM   24  C9  UNL     1       7.548  18.861  21.623  1.00  0.00     0.204 C 
BRANCH  22  25
HETATM   25  C11 UNL     1       5.503  20.261  21.526  1.00  0.00     0.299 C 
BRANCH  25  26
HETATM   26  N4  UNL     1       5.787  21.661  21.441  1.00  0.00     0.087 N 
HETATM   27  C12 UNL     1       4.650  22.463  21.887  1.00  0.00     0.310 C 
BRANCH  26  28
HETATM   28  C13 UNL     1       5.882  21.939  19.997  1.00  0.00     0.302 C 
BRANCH  28  29
HETATM   29  C14 UNL     1       7.305  22.179  19.622  1.00  0.00     0.302 C 
BRANCH  29  30
HETATM   30  N5  UNL     1       7.486  23.614  19.319  1.00  0.00     0.094 N 
HETATM   31  C15 UNL     1       6.876  23.932  18.023  1.00  0.00     0.298 C 
HETATM   32  C16 UNL     1       7.686  25.018  17.323  1.00  0.00     0.198 C 
HETATM   33  O2  UNL     1       8.903  24.483  16.873  1.00  0.00    -0.388 OA
HETATM   34  C17 UNL     1       9.313  23.447  17.723  1.00  0.00     0.198 C 
HETATM   35  C18 UNL     1       8.921  23.845  19.139  1.00  0.00     0.298 C 
ENDBRANCH  29  30
ENDBRANCH  28  29
ENDBRANCH  26  28
ENDBRANCH  25  26
ENDBRANCH  22  25
ENDBRANCH   1  17
BRANCH   1  36
HETATM   36  C19 UNL     1       6.947  14.309  23.794  1.00  0.00     0.162 C 
HETATM   37  C20 UNL     1       7.380  12.889  23.770  1.00  0.00     0.037 C 
HETATM   38  C21 UNL     1       7.588  12.545  25.223  1.00  0.00     0.029 C 
HETATM   39  C22 UNL     1       7.372  13.910  25.891  1.00  0.00     0.168 C 
HETATM   40  O3  UNL     1       6.519  14.593  25.029  1.00  0.00    -0.382 OA
ENDBRANCH   1  36
TORSDOF 10
ENDMDL
MODEL 4
REMARK VINA RESULT: -7.325412222      2.457      4.632
REMARK  10 active torsions:
REMARK  status: ('A' for Active; 'I' for Inactive)
REMARK    1  A    between atoms: C3_5  and  N2_6 
REMARK    2  A    between atoms: N2_6  and  C4_7 
REMARK    3  A    between atoms: C4_7  and  C5_8 
REMARK    4  A    between atoms: C4_7  and  C19_27 
REMARK    5  A    between atoms: C10_15  and  C11_16 
REMARK    6  A    between atoms: C11_16  and  N4_17 
REMARK    7  A    between atoms: N4_17  and  C13_19 
REMARK    8  A    between atoms: C13_19  and  C14_20 
REMARK    9  A    between atoms: C14_20  and  N5_21 
REMARK   10  A    between atoms: C25_36  and  C26_37 
ROOT
HETATM    1  C4  UNL     1       6.274  18.491  20.339  1.00  0.00     0.233 C 
ENDROOT
BRANCH   1   2
HETATM    2  N2  UNL     1       6.971  17.434  19.888  1.00  0.00    -0.402 NA
BRANCH   2   3
HETATM    3  C3  UNL     1       7.605  16.635  19.284  1.00  0.00     0.255 A 
HETATM    4  N1  UNL     1       8.931  16.731  19.004  1.00  0.00    -0.320 N 
HETATM    5  C2  UNL     1       9.603  15.829  18.270  1.00  0.00     0.018 A 
ATOM      6  H1  UNL     1       9.444  17.532  19.372  1.00  0.00     0.169 HD
HETATM    7  C1  UNL     1      11.037  16.022  18.021  1.00  0.00     0.069 C 
HETATM    8  C25 UNL     1       8.931  14.703  17.738  1.00  0.00    -0.006 A 
HETATM    9  C23 UNL     1       7.591  14.584  18.012  1.00  0.00     0.018 A 
HETATM   10  N6  UNL     1       6.995  15.533  18.756  1.00  0.00    -0.320 N 
HETATM   11  C24 UNL     1       6.780  13.443  17.570  1.00  0.00     0.069 C 
ATOM     12  H6  UNL     1       5.998  15.420  18.942  1.00  0.00     0.169 HD
BRANCH   8  13
HETATM   13  C26 UNL     1       9.722  13.770  16.981  1.00  0.00    -0.020 C 
HETATM   14  C27 UNL     1       9.353  13.825  15.463  1.00  0.00     0.019 C 
HETATM   15  C28 UNL     1      11.215  13.862  17.078  1.00  0.00     0.019 C 
HETATM   16  C29 UNL     1       9.432  12.262  17.232  1.00  0.00     0.019 C 
ENDBRANCH   8  13
ENDBRANCH   2   3
ENDBRANCH   1   2
BRANCH   1  17
HETATM   17  C5  UNL     1       7.116  19.715  20.385  1.00  0.00     0.032 A 
HETATM   18  C6  UNL     1       8.339  19.855  20.974  1.00  0.00     0.032 A 
HETATM   19  C7  UNL     1       8.742  21.166  20.712  1.00  0.00     0.094 A 
HETATM   20  N3  UNL     1       7.771  21.767  19.990  1.00  0.00    -0.329 N 
HETATM   21  C8  UNL     1       6.778  20.907  19.778  1.00  0.00     0.154 A 
HETATM   22  C10 UNL     1       7.437  23.092  19.415  1.00  0.00     0.144 C 
HETATM   23  O1  UNL     1       5.795  21.570  19.022  1.00  0.00    -0.333 OA
HETATM   24  C9  UNL     1       5.943  22.981  19.191  1.00  0.00     0.204 C 
BRANCH  22  25
HETATM   25  C11 UNL     1       7.752  24.071  20.490  1.00  0.00     0.299 C 
BRANCH  25  26
HETATM   26  N4  UNL     1       6.671  24.554  21.293  1.00  0.00     0.087 N 
HETATM   27  C12 UNL     1       6.628  26.014  21.307  1.00  0.00     0.310 C 
BRANCH  26  28
HETATM   28  C13 UNL     1       7.033  24.188  22.674  1.00  0.00     0.302 C 
BRANCH  28  29
HETATM   29  C14 UNL     1       6.268  22.980  23.093  1.00  0.00     0.302 C 
BRANCH  29  30
HETATM   30  N5  UNL     1       4.879  23.097  22.604  1.00  0.00     0.094 N 
HETATM   31  C15 UNL     1       4.052  23.782  23.604  1.00  0.00     0.298 C 
HETATM   32  C16 UNL     1       2.635  23.219  23.575  1.00  0.00     0.198 C 
HETATM   33  O2  UNL     1       2.628  21.928  24.123  1.00  0.00    -0.388 OA
HETATM   34  C17 UNL     1       3.860  21.303  23.889  1.00  0.00     0.198 C 
HETATM   35  C18 UNL     1       4.332  21.741  22.510  1.00  0.00     0.298 C 
ENDBRANCH  29  30
ENDBRANCH  28  29
ENDBRANCH  26  28
ENDBRANCH  25  26
ENDBRANCH  22  25
ENDBRANCH   1  17
BRANCH   1  36
HETATM   36  C19 UNL     1       5.639  18.222  21.714  1.00  0.00     0.162 C 
HETATM   37  C20 UNL     1       5.980  16.867  22.214  1.00  0.00     0.037 C 
HETATM   38  C21 UNL     1       4.765  16.451  23.003  1.00  0.00     0.029 C 
HETATM   39  C22 UNL     1       3.924  17.734  22.960  1.00  0.00     0.168 C 
HETATM   40  O3  UNL     1       4.312  18.370  21.786  1.00  0.00    -0.382 OA
ENDBRANCH   1  36
TORSDOF 10
ENDMDL
MODEL 5
REMARK VINA RESULT: -7.322757493      2.309      3.849
REMARK  10 active torsions:
REMARK  status: ('A' for Active; 'I' for Inactive)
REMARK    1  A    between atoms: C3_5  and  N2_6 
REMARK    2  A    between atoms: N2_6  and  C4_7 
REMARK    3  A    between atoms: C4_7  and  C5_8 
REMARK    4  A    between atoms: C4_7  and  C19_27 
REMARK    5  A    between atoms: C10_15  and  C11_16 
REMARK    6  A    between atoms: C11_16  and  N4_17 
REMARK    7  A    between atoms: N4_17  and  C13_19 
REMARK    8  A    between atoms: C13_19  and  C14_20 
REMARK    9  A    between atoms: C14_20  and  N5_21 
REMARK   10  A    between atoms: C25_36  and  C26_37 
ROOT
HETATM    1  C4  UNL     1       6.449  18.508  20.331  1.00  0.00     0.233 C 
ENDROOT
BRANCH   1   2
HETATM    2  N2  UNL     1       7.236  17.520  19.875  1.00  0.00    -0.402 NA
BRANCH   2   3
HETATM    3  C3  UNL     1       7.804  16.677  19.264  1.00  0.00     0.255 A 
HETATM    4  N1  UNL     1       9.117  16.706  18.918  1.00  0.00    -0.320 N 
HETATM    5  C2  UNL     1       9.711  15.756  18.177  1.00  0.00     0.018 A 
ATOM      6  H1  UNL     1       9.682  17.492  19.237  1.00  0.00     0.169 HD
HETATM    7  C1  UNL     1      11.139  15.877  17.853  1.00  0.00     0.069 C 
HETATM    8  C25 UNL     1       8.966  14.648  17.711  1.00  0.00    -0.006 A 
HETATM    9  C23 UNL     1       7.637  14.596  18.053  1.00  0.00     0.018 A 
HETATM   10  N6  UNL     1       7.121  15.591  18.798  1.00  0.00    -0.320 N 
HETATM   11  C24 UNL     1       6.756  13.481  17.683  1.00  0.00     0.069 C 
ATOM     12  H6  UNL     1       6.130  15.528  19.035  1.00  0.00     0.169 HD
BRANCH   8  13
HETATM   13  C26 UNL     1       9.677  13.661  16.943  1.00  0.00    -0.020 C 
HETATM   14  C27 UNL     1       9.209  13.667  15.451  1.00  0.00     0.019 C 
HETATM   15  C28 UNL     1      11.174  13.707  16.939  1.00  0.00     0.019 C 
HETATM   16  C29 UNL     1       9.359  12.173  17.274  1.00  0.00     0.019 C 
ENDBRANCH   8  13
ENDBRANCH   2   3
ENDBRANCH   1   2
BRANCH   1  17
HETATM   17  C5  UNL     1       7.194  19.790  20.435  1.00  0.00     0.032 A 
HETATM   18  C6  UNL     1       8.483  19.966  20.850  1.00  0.00     0.032 A 
HETATM   19  C7  UNL     1       8.739  21.333  20.732  1.00  0.00     0.094 A 
HETATM   20  N3  UNL     1       7.623  21.930  20.262  1.00  0.00    -0.329 N 
HETATM   21  C8  UNL     1       6.676  21.016  20.072  1.00  0.00     0.154 A 
HETATM   22  C10 UNL     1       7.103  23.283  19.949  1.00  0.00     0.144 C 
HETATM   23  O1  UNL     1       5.537  21.679  19.580  1.00  0.00    -0.333 OA
HETATM   24  C9  UNL     1       5.605  23.061  19.936  1.00  0.00     0.204 C 
BRANCH  22  25
HETATM   25  C11 UNL     1       7.514  24.131  21.102  1.00  0.00     0.299 C 
BRANCH  25  26
HETATM   26  N4  UNL     1       8.822  24.711  21.072  1.00  0.00     0.087 N 
HETATM   27  C12 UNL     1       9.338  24.931  22.421  1.00  0.00     0.310 C 
BRANCH  26  28
HETATM   28  C13 UNL     1       8.619  26.069  20.535  1.00  0.00     0.302 C 
BRANCH  28  29
HETATM   29  C14 UNL     1       9.810  26.479  19.737  1.00  0.00     0.302 C 
BRANCH  29  30
HETATM   30  N5  UNL     1       9.373  26.835  18.372  1.00  0.00     0.094 N 
HETATM   31  C15 UNL     1       7.940  26.563  18.218  1.00  0.00     0.298 C 
HETATM   32  C16 UNL     1       7.650  26.112  16.789  1.00  0.00     0.198 C 
HETATM   33  O2  UNL     1       8.147  24.816  16.593  1.00  0.00    -0.388 OA
HETATM   34  C17 UNL     1       9.273  24.607  17.402  1.00  0.00     0.198 C 
HETATM   35  C18 UNL     1      10.044  25.919  17.445  1.00  0.00     0.298 C 
ENDBRANCH  29  30
ENDBRANCH  28  29
ENDBRANCH  26  28
ENDBRANCH  25  26
ENDBRANCH  22  25
ENDBRANCH   1  17
BRANCH   1  36
HETATM   36  C19 UNL     1       5.795  18.155  21.677  1.00  0.00     0.162 C 
HETATM   37  C20 UNL     1       6.132  16.772  22.098  1.00  0.00     0.037 C 
HETATM   38  C21 UNL     1       4.907  16.305  22.842  1.00  0.00     0.029 C 
HETATM   39  C22 UNL     1       4.063  17.588  22.866  1.00  0.00     0.168 C 
HETATM   40  O3  UNL     1       4.466  18.296  21.739  1.00  0.00    -0.382 OA
ENDBRANCH   1  36
TORSDOF 10
ENDMDL
