MODEL 1
REMARK VINA RESULT: -6.516489731      0.000      0.000
REMARK  3 active torsions:
REMARK  status: ('A' for Active; 'I' for Inactive)
REMARK    1  A    between atoms: C2_2  and  C4_4 
REMARK    2  A    between atoms: C4_4  and  N1_5 
REMARK       I    between atoms: N1_5  and  C5_7 
REMARK       I    between atoms: C5_7  and  N2_9 
REMARK       I    between atoms: N3_12  and  C8_13 
REMARK       I    between atoms: C8_13  and  N4_15 
REMARK    3  A    between atoms: N4_15  and  N5_17 
ROOT
HETATM    1  N1  UNL     1     -15.688  14.373  34.481  1.00  0.00    -0.339 N 
ATOM      2  H1  UNL     1     -14.771  14.027  34.199  1.00  0.00     0.164 HD
HETATM    3  C5  UNL     1     -16.850  13.736  33.997  1.00  0.00     0.318 C 
HETATM    4  O1  UNL     1     -18.002  14.112  34.305  1.00  0.00    -0.247 OA
HETATM    5  N2  UNL     1     -16.725  12.631  33.132  1.00  0.00    -0.331 N 
HETATM    6  C6  UNL     1     -15.406  12.167  32.751  1.00  0.00     0.147 C 
HETATM    7  C7  UNL     1     -15.595  11.184  31.617  1.00  0.00     0.147 C 
HETATM    8  N3  UNL     1     -16.471  10.122  32.125  1.00  0.00    -0.330 N 
HETATM    9  C8  UNL     1     -16.119   8.778  31.894  1.00  0.00     0.336 C 
HETATM   10  O2  UNL     1     -15.070   8.497  31.263  1.00  0.00    -0.245 OA
HETATM   11  N4  UNL     1     -16.971   7.756  32.389  1.00  0.00    -0.258 N 
ATOM     12  H4  UNL     1     -17.822   7.986  32.901  1.00  0.00     0.191 HD
HETATM   13  C9  UNL     1     -17.680  10.469  32.854  1.00  0.00     0.147 C 
HETATM   14  C10 UNL     1     -17.915  11.954  32.622  1.00  0.00     0.147 C 
ENDROOT
BRANCH   1  15
HETATM   15  C4  UNL     1     -15.782  15.518  35.377  1.00  0.00     0.157 C 
BRANCH  15  16
HETATM   16  C2  UNL     1     -14.829  16.542  34.884  1.00  0.00    -0.075 C 
HETATM   17  C1  UNL     1     -15.163  17.800  34.697  1.00  0.00     0.015 C 
HETATM   18  C3  UNL     1     -13.432  16.072  34.599  1.00  0.00     0.044 C 
ENDBRANCH  15  16
ENDBRANCH   1  15
BRANCH  11  19
HETATM   19  N5  UNL     1     -16.611   6.429  32.154  1.00  0.00    -0.341 N 
ATOM     20  H52 UNL     1     -16.035   5.929  32.832  1.00  0.00     0.177 HD
ATOM     21  H51 UNL     1     -16.939   5.986  31.296  1.00  0.00     0.177 HD
ENDBRANCH  11  19
TORSDOF 3
ENDMDL
MODEL 2
REMARK VINA RESULT: -6.329093866      2.251      6.912
REMARK  3 active torsions:
REMARK  status: ('A' for Active; 'I' for Inactive)
REMARK    1  A    between atoms: C2_2  and  C4_4 
REMARK    2  A    between atoms: C4_4  and  N1_5 
REMARK       I    between atoms: N1_5  and  C5_7 
REMARK       I    between atoms: C5_7  and  N2_9 
REMARK       I    between atoms: N3_12  and  C8_13 
REMARK       I    between atoms: C8_13  and  N4_15 
REMARK    3  A    between atoms: N4_15  and  N5_17 
ROOT
HETATM    1  N1  UNL     1     -17.011  10.034  33.124  1.00  0.00    -0.339 N 
ATOM      2  H1  UNL     1     -16.007  10.099  33.290  1.00  0.00     0.164 HD
HETATM    3  C5  UNL     1     -17.867  11.038  33.624  1.00  0.00     0.318 C 
HETATM    4  O1  UNL     1     -19.104  11.014  33.454  1.00  0.00    -0.247 OA
HETATM    5  N2  UNL     1     -17.319  12.117  34.345  1.00  0.00    -0.331 N 
HETATM    6  C6  UNL     1     -15.888  12.178  34.565  1.00  0.00     0.147 C 
HETATM    7  C7  UNL     1     -15.644  13.262  35.592  1.00  0.00     0.147 C 
HETATM    8  N3  UNL     1     -16.211  14.497  35.038  1.00  0.00    -0.330 N 
HETATM    9  C8  UNL     1     -15.446  15.679  35.086  1.00  0.00     0.336 C 
HETATM   10  O2  UNL     1     -14.298  15.672  35.596  1.00  0.00    -0.245 OA
HETATM   11  N4  UNL     1     -16.000  16.871  34.549  1.00  0.00    -0.258 N 
ATOM     12  H4  UNL     1     -16.933  16.875  34.136  1.00  0.00     0.191 HD
HETATM   13  C9  UNL     1     -17.541  14.484  34.453  1.00  0.00     0.147 C 
HETATM   14  C10 UNL     1     -18.184  13.171  34.869  1.00  0.00     0.147 C 
ENDROOT
BRANCH   1  15
HETATM   15  C4  UNL     1     -17.545   8.904  32.373  1.00  0.00     0.157 C 
BRANCH  15  16
HETATM   16  C2  UNL     1     -16.392   8.196  31.765  1.00  0.00    -0.075 C 
HETATM   17  C1  UNL     1     -16.388   6.901  31.533  1.00  0.00     0.015 C 
HETATM   18  C3  UNL     1     -15.199   9.038  31.417  1.00  0.00     0.044 C 
ENDBRANCH  15  16
ENDBRANCH   1  15
BRANCH  11  19
HETATM   19  N5  UNL     1     -15.233  18.035  34.602  1.00  0.00    -0.341 N 
ATOM     20  H52 UNL     1     -14.230  17.994  34.424  1.00  0.00     0.177 HD
ATOM     21  H51 UNL     1     -15.706  18.912  34.821  1.00  0.00     0.177 HD
ENDBRANCH  11  19
TORSDOF 3
ENDMDL
MODEL 3
REMARK VINA RESULT: -6.189159771      2.618      7.123
REMARK  3 active torsions:
REMARK  status: ('A' for Active; 'I' for Inactive)
REMARK    1  A    between atoms: C2_2  and  C4_4 
REMARK    2  A    between atoms: C4_4  and  N1_5 
REMARK       I    between atoms: N1_5  and  C5_7 
REMARK       I    between atoms: C5_7  and  N2_9 
REMARK       I    between atoms: N3_12  and  C8_13 
REMARK       I    between atoms: C8_13  and  N4_15 
REMARK    3  A    between atoms: N4_15  and  N5_17 
ROOT
HETATM    1  N1  UNL     1     -15.300  10.486  32.766  1.00  0.00    -0.339 N 
ATOM      2  H1  UNL     1     -14.935  10.088  33.631  1.00  0.00     0.164 HD
HETATM    3  C5  UNL     1     -15.714  11.834  32.741  1.00  0.00     0.318 C 
HETATM    4  O1  UNL     1     -16.169  12.381  31.713  1.00  0.00    -0.247 OA
HETATM    5  N2  UNL     1     -15.617  12.610  33.913  1.00  0.00    -0.331 N 
HETATM    6  C6  UNL     1     -15.097  12.011  35.126  1.00  0.00     0.147 C 
HETATM    7  C7  UNL     1     -15.384  12.977  36.254  1.00  0.00     0.147 C 
HETATM    8  N3  UNL     1     -14.735  14.244  35.894  1.00  0.00    -0.330 N 
HETATM    9  C8  UNL     1     -13.961  14.913  36.863  1.00  0.00     0.336 C 
HETATM   10  O2  UNL     1     -13.831  14.429  38.015  1.00  0.00    -0.245 OA
HETATM   11  N4  UNL     1     -13.338  16.137  36.509  1.00  0.00    -0.258 N 
ATOM     12  H4  UNL     1     -13.445  16.529  35.573  1.00  0.00     0.191 HD
HETATM   13  C9  UNL     1     -14.899  14.786  34.556  1.00  0.00     0.147 C 
HETATM   14  C10 UNL     1     -16.036  14.009  33.910  1.00  0.00     0.147 C 
ENDROOT
BRANCH   1  15
HETATM   15  C4  UNL     1     -15.387   9.656  31.570  1.00  0.00     0.157 C 
BRANCH  15  16
HETATM   16  C2  UNL     1     -16.334   8.555  31.868  1.00  0.00    -0.075 C 
HETATM   17  C1  UNL     1     -16.093   7.299  31.559  1.00  0.00     0.015 C 
HETATM   18  C3  UNL     1     -17.613   8.941  32.553  1.00  0.00     0.044 C 
ENDBRANCH  15  16
ENDBRANCH   1  15
BRANCH  11  19
HETATM   19  N5  UNL     1     -12.573  16.791  37.477  1.00  0.00    -0.341 N 
ATOM     20  H52 UNL     1     -12.932  16.894  38.425  1.00  0.00     0.177 HD
ATOM     21  H51 UNL     1     -11.660  17.153  37.203  1.00  0.00     0.177 HD
ENDBRANCH  11  19
TORSDOF 3
ENDMDL
MODEL 4
REMARK VINA RESULT: -6.067821704      2.694      7.003
REMARK  3 active torsions:
REMARK  status: ('A' for Active; 'I' for Inactive)
REMARK    1  A    between atoms: C2_2  and  C4_4 
REMARK    2  A    between atoms: C4_4  and  N1_5 
REMARK       I    between atoms: N1_5  and  C5_7 
REMARK       I    between atoms: C5_7  and  N2_9 
REMARK       I    between atoms: N3_12  and  C8_13 
REMARK       I    between atoms: C8_13  and  N4_15 
REMARK    3  A    between atoms: N4_15  and  N5_17 
ROOT
HETATM    1  N1  UNL     1     -16.624   9.655  32.122  1.00  0.00    -0.339 N 
ATOM      2  H1  UNL     1     -17.641   9.588  32.098  1.00  0.00     0.164 HD
HETATM    3  C5  UNL     1     -16.012  10.707  32.834  1.00  0.00     0.318 C 
HETATM    4  O1  UNL     1     -14.772  10.844  32.902  1.00  0.00    -0.247 OA
HETATM    5  N2  UNL     1     -16.818  11.651  33.502  1.00  0.00    -0.331 N 
HETATM    6  C6  UNL     1     -18.260  11.527  33.446  1.00  0.00     0.147 C 
HETATM    7  C7  UNL     1     -18.836  12.814  33.993  1.00  0.00     0.147 C 
HETATM    8  N3  UNL     1     -18.308  12.962  35.355  1.00  0.00    -0.330 N 
HETATM    9  C8  UNL     1     -19.194  13.301  36.396  1.00  0.00     0.336 C 
HETATM   10  O2  UNL     1     -20.416  13.473  36.159  1.00  0.00    -0.245 OA
HETATM   11  N4  UNL     1     -18.677  13.443  37.710  1.00  0.00    -0.258 N 
ATOM     12  H4  UNL     1     -17.685  13.303  37.901  1.00  0.00     0.191 HD
HETATM   13  C9  UNL     1     -16.892  12.758  35.608  1.00  0.00     0.147 C 
HETATM   14  C10 UNL     1     -16.206  12.747  34.250  1.00  0.00     0.147 C 
ENDROOT
BRANCH   1  15
HETATM   15  C4  UNL     1     -15.819   8.662  31.420  1.00  0.00     0.157 C 
BRANCH  15  16
HETATM   16  C2  UNL     1     -16.414   7.333  31.706  1.00  0.00    -0.075 C 
HETATM   17  C1  UNL     1     -16.304   6.309  30.888  1.00  0.00     0.015 C 
HETATM   18  C3  UNL     1     -17.165   7.202  32.999  1.00  0.00     0.044 C 
ENDBRANCH  15  16
ENDBRANCH   1  15
BRANCH  11  19
HETATM   19  N5  UNL     1     -19.565  13.778  38.734  1.00  0.00    -0.341 N 
ATOM     20  H52 UNL     1     -20.379  13.193  38.915  1.00  0.00     0.177 HD
ATOM     21  H51 UNL     1     -19.370  14.616  39.283  1.00  0.00     0.177 HD
ENDBRANCH  11  19
TORSDOF 3
ENDMDL
MODEL 5
REMARK VINA RESULT: -6.018721469      2.358      7.037
REMARK  3 active torsions:
REMARK  status: ('A' for Active; 'I' for Inactive)
REMARK    1  A    between atoms: C2_2  and  C4_4 
REMARK    2  A    between atoms: C4_4  and  N1_5 
REMARK       I    between atoms: N1_5  and  C5_7 
REMARK       I    between atoms: C5_7  and  N2_9 
REMARK       I    between atoms: N3_12  and  C8_13 
REMARK       I    between atoms: C8_13  and  N4_15 
REMARK    3  A    between atoms: N4_15  and  N5_17 
ROOT
HETATM    1  N1  UNL     1     -16.517   9.504  31.758  1.00  0.00    -0.339 N 
ATOM      2  H1  UNL     1     -17.409   9.657  32.228  1.00  0.00     0.164 HD
HETATM    3  C5  UNL     1     -15.435  10.370  32.018  1.00  0.00     0.318 C 
HETATM    4  O1  UNL     1     -14.318  10.234  31.475  1.00  0.00    -0.247 OA
HETATM    5  N2  UNL     1     -15.604  11.435  32.925  1.00  0.00    -0.331 N 
HETATM    6  C6  UNL     1     -16.886  11.626  33.573  1.00  0.00     0.147 C 
HETATM    7  C7  UNL     1     -16.845  12.983  34.241  1.00  0.00     0.147 C 
HETATM    8  N3  UNL     1     -15.710  12.957  35.171  1.00  0.00    -0.330 N 
HETATM    9  C8  UNL     1     -15.893  13.434  36.484  1.00  0.00     0.336 C 
HETATM   10  O2  UNL     1     -17.012  13.874  36.849  1.00  0.00    -0.245 OA
HETATM   11  N4  UNL     1     -14.792  13.406  37.378  1.00  0.00    -0.258 N 
ATOM     12  H4  UNL     1     -13.884  13.049  37.080  1.00  0.00     0.191 HD
HETATM   13  C9  UNL     1     -14.424  12.443  34.729  1.00  0.00     0.147 C 
HETATM   14  C10 UNL     1     -14.496  12.342  33.214  1.00  0.00     0.147 C 
ENDROOT
BRANCH   1  15
HETATM   15  C4  UNL     1     -16.376   8.392  30.826  1.00  0.00     0.157 C 
BRANCH  15  16
HETATM   16  C2  UNL     1     -16.567   7.141  31.601  1.00  0.00    -0.075 C 
HETATM   17  C1  UNL     1     -16.302   5.949  31.114  1.00  0.00     0.015 C 
HETATM   18  C3  UNL     1     -17.088   7.297  33.000  1.00  0.00     0.044 C 
ENDBRANCH  15  16
ENDBRANCH   1  15
BRANCH  11  19
HETATM   19  N5  UNL     1     -14.985  13.881  38.676  1.00  0.00    -0.341 N 
ATOM     20  H52 UNL     1     -15.617  13.391  39.309  1.00  0.00     0.177 HD
ATOM     21  H51 UNL     1     -14.480  14.720  38.961  1.00  0.00     0.177 HD
ENDBRANCH  11  19
TORSDOF 3
ENDMDL
