MODEL 1
REMARK VINA RESULT: -6.049742835      0.000      0.000
REMARK  2 active torsions:
REMARK  status: ('A' for Active; 'I' for Inactive)
REMARK    1  A    between atoms: N1_1  and  C1_5 
REMARK    2  A    between atoms: C1_5  and  C2_6 
REMARK       I    between atoms: C2_6  and  N2_8 
ROOT
HETATM    1  C2  UNL     1     -15.361  13.470  35.518  1.00  0.00     0.249 C 
HETATM    2  O1  UNL     1     -15.910  14.266  36.337  1.00  0.00    -0.271 OA
HETATM    3  N2  UNL     1     -15.758  13.378  34.160  1.00  0.00    -0.327 N 
HETATM    4  C3  UNL     1     -16.814  14.262  33.835  1.00  0.00     0.068 C 
HETATM    5  C4  UNL     1     -18.250  13.852  33.818  1.00  0.00     0.056 C 
HETATM    6  C5  UNL     1     -18.499  12.524  33.024  1.00  0.00     0.088 C 
HETATM    7  C6  UNL     1     -17.243  11.908  32.893  1.00  0.00    -0.140 C 
HETATM    8  C7  UNL     1     -15.961  11.335  32.757  1.00  0.00     0.180 C 
HETATM    9  C8  UNL     1     -14.970  12.377  33.414  1.00  0.00     0.184 C 
HETATM   10  N3  UNL     1     -15.715  10.088  33.473  1.00  0.00    -0.373 N 
ATOM     11  H3  UNL     1     -15.488  10.078  34.468  1.00  0.00     0.160 HD
HETATM   12  C9  UNL     1     -15.807   8.899  32.726  1.00  0.00     0.077 C 
HETATM   13  C10 UNL     1     -16.662   9.009  31.496  1.00  0.00     0.166 C 
HETATM   14  N4  UNL     1     -16.012  10.007  30.666  1.00  0.00    -0.353 N 
ATOM     15  H4  UNL     1     -15.925   9.907  29.654  1.00  0.00     0.162 HD
HETATM   16  C11 UNL     1     -15.511  11.122  31.362  1.00  0.00     0.259 C 
HETATM   17  O2  UNL     1     -14.714  11.910  30.834  1.00  0.00    -0.270 OA
ENDROOT
BRANCH   1  18
HETATM   18  C1  UNL     1     -14.269  12.620  36.030  1.00  0.00     0.332 C 
BRANCH  18  19
HETATM   19  N1  UNL     1     -14.781  11.445  36.727  1.00  0.00    -0.071 N 
ATOM     20  H13 UNL     1     -14.121  11.112  37.429  1.00  0.00     0.274 HD
ATOM     21  H12 UNL     1     -15.558  11.686  37.343  1.00  0.00     0.274 HD
ATOM     22  H11 UNL     1     -15.039  10.702  36.077  1.00  0.00     0.274 HD
ENDBRANCH  18  19
ENDBRANCH   1  18
TORSDOF 2
ENDMDL
MODEL 2
REMARK VINA RESULT: -5.547907927      2.269      4.994
REMARK  2 active torsions:
REMARK  status: ('A' for Active; 'I' for Inactive)
REMARK    1  A    between atoms: N1_1  and  C1_5 
REMARK    2  A    between atoms: C1_5  and  C2_6 
REMARK       I    between atoms: C2_6  and  N2_8 
ROOT
HETATM    1  C2  UNL     1     -16.116  10.351  32.704  1.00  0.00     0.249 C 
HETATM    2  O1  UNL     1     -15.080   9.721  32.335  1.00  0.00    -0.271 OA
HETATM    3  N2  UNL     1     -16.075  11.702  33.132  1.00  0.00    -0.327 N 
HETATM    4  C3  UNL     1     -14.772  12.251  33.097  1.00  0.00     0.068 C 
HETATM    5  C4  UNL     1     -13.876  12.313  34.290  1.00  0.00     0.056 C 
HETATM    6  C5  UNL     1     -14.587  12.893  35.561  1.00  0.00     0.088 C 
HETATM    7  C6  UNL     1     -15.966  12.821  35.302  1.00  0.00    -0.140 C 
HETATM    8  C7  UNL     1     -17.342  12.760  34.993  1.00  0.00     0.180 C 
HETATM    9  C8  UNL     1     -17.409  12.208  33.513  1.00  0.00     0.184 C 
HETATM   10  N3  UNL     1     -18.152  11.829  35.772  1.00  0.00    -0.373 N 
ATOM     11  H3  UNL     1     -18.177  10.832  35.558  1.00  0.00     0.160 HD
HETATM   12  C9  UNL     1     -18.899  12.374  36.833  1.00  0.00     0.077 C 
HETATM   13  C10 UNL     1     -18.355  13.669  37.367  1.00  0.00     0.166 C 
HETATM   14  N4  UNL     1     -18.420  14.599  36.254  1.00  0.00    -0.353 N 
ATOM     15  H4  UNL     1     -18.711  15.570  36.367  1.00  0.00     0.162 HD
HETATM   16  C11 UNL     1     -18.050  14.060  35.009  1.00  0.00     0.259 C 
HETATM   17  O2  UNL     1     -18.305  14.647  33.948  1.00  0.00    -0.270 OA
ENDROOT
BRANCH   1  18
HETATM   18  C1  UNL     1     -17.397   9.621  32.674  1.00  0.00     0.332 C 
BRANCH  18  19
HETATM   19  N1  UNL     1     -17.221   8.207  32.989  1.00  0.00    -0.071 N 
ATOM     20  H13 UNL     1     -17.510   7.614  32.212  1.00  0.00     0.274 HD
ATOM     21  H12 UNL     1     -16.234   7.954  33.023  1.00  0.00     0.274 HD
ATOM     22  H11 UNL     1     -17.701   7.950  33.852  1.00  0.00     0.274 HD
ENDBRANCH  18  19
ENDBRANCH   1  18
TORSDOF 2
ENDMDL
MODEL 3
REMARK VINA RESULT: -5.511945666      2.155      2.382
REMARK  2 active torsions:
REMARK  status: ('A' for Active; 'I' for Inactive)
REMARK    1  A    between atoms: N1_1  and  C1_5 
REMARK    2  A    between atoms: C1_5  and  C2_6 
REMARK       I    between atoms: C2_6  and  N2_8 
ROOT
HETATM    1  C2  UNL     1     -14.560  14.530  36.036  1.00  0.00     0.249 C 
HETATM    2  O1  UNL     1     -14.504  15.043  37.193  1.00  0.00    -0.271 OA
HETATM    3  N2  UNL     1     -15.779  14.372  35.328  1.00  0.00    -0.327 N 
HETATM    4  C3  UNL     1     -16.899  14.845  36.051  1.00  0.00     0.068 C 
HETATM    5  C4  UNL     1     -17.778  13.960  36.871  1.00  0.00     0.056 C 
HETATM    6  C5  UNL     1     -18.234  12.669  36.108  1.00  0.00     0.088 C 
HETATM    7  C6  UNL     1     -17.363  12.539  35.013  1.00  0.00    -0.140 C 
HETATM    8  C7  UNL     1     -16.489  12.458  33.907  1.00  0.00     0.180 C 
HETATM    9  C8  UNL     1     -15.580  13.748  34.005  1.00  0.00     0.184 C 
HETATM   10  N3  UNL     1     -15.549  11.342  33.889  1.00  0.00    -0.373 N 
ATOM     11  H3  UNL     1     -14.682  11.364  34.428  1.00  0.00     0.160 HD
HETATM   12  C9  UNL     1     -15.895  10.235  33.094  1.00  0.00     0.077 C 
HETATM   13  C10 UNL     1     -17.368  10.099  32.835  1.00  0.00     0.166 C 
HETATM   14  N4  UNL     1     -17.743  11.301  32.112  1.00  0.00    -0.353 N 
ATOM     15  H4  UNL     1     -18.390  11.287  31.323  1.00  0.00     0.162 HD
HETATM   16  C11 UNL     1     -17.146  12.485  32.580  1.00  0.00     0.259 C 
HETATM   17  O2  UNL     1     -17.162  13.527  31.910  1.00  0.00    -0.270 OA
ENDROOT
BRANCH   1  18
HETATM   18  C1  UNL     1     -13.289  14.093  35.429  1.00  0.00     0.332 C 
BRANCH  18  19
HETATM   19  N1  UNL     1     -12.216  15.052  35.671  1.00  0.00    -0.071 N 
ATOM     20  H13 UNL     1     -12.490  15.750  36.362  1.00  0.00     0.274 HD
ATOM     21  H12 UNL     1     -11.441  14.624  36.177  1.00  0.00     0.274 HD
ATOM     22  H11 UNL     1     -11.899  15.490  34.806  1.00  0.00     0.274 HD
ENDBRANCH  18  19
ENDBRANCH   1  18
TORSDOF 2
ENDMDL
MODEL 4
REMARK VINA RESULT: -5.477964442      2.100      5.154
REMARK  2 active torsions:
REMARK  status: ('A' for Active; 'I' for Inactive)
REMARK    1  A    between atoms: N1_1  and  C1_5 
REMARK    2  A    between atoms: C1_5  and  C2_6 
REMARK       I    between atoms: C2_6  and  N2_8 
ROOT
HETATM    1  C2  UNL     1     -16.254  11.713  33.060  1.00  0.00     0.249 C 
HETATM    2  O1  UNL     1     -17.238  11.532  32.282  1.00  0.00    -0.271 OA
HETATM    3  N2  UNL     1     -16.379  12.379  34.306  1.00  0.00    -0.327 N 
HETATM    4  C3  UNL     1     -17.702  12.804  34.572  1.00  0.00     0.068 C 
HETATM    5  C4  UNL     1     -18.190  14.187  34.291  1.00  0.00     0.056 C 
HETATM    6  C5  UNL     1     -17.229  15.299  34.836  1.00  0.00     0.088 C 
HETATM    7  C6  UNL     1     -16.001  14.664  35.086  1.00  0.00    -0.140 C 
HETATM    8  C7  UNL     1     -14.793  13.984  35.352  1.00  0.00     0.180 C 
HETATM    9  C8  UNL     1     -15.091  12.467  35.024  1.00  0.00     0.184 C 
HETATM   10  N3  UNL     1     -13.646  14.325  34.518  1.00  0.00    -0.373 N 
ATOM     11  H3  UNL     1     -13.529  13.931  33.584  1.00  0.00     0.160 HD
HETATM   12  C9  UNL     1     -12.710  15.223  35.063  1.00  0.00     0.077 C 
HETATM   13  C10 UNL     1     -13.266  16.115  36.136  1.00  0.00     0.166 C 
HETATM   14  N4  UNL     1     -13.693  15.219  37.196  1.00  0.00    -0.353 N 
ATOM     15  H4  UNL     1     -13.540  15.426  38.183  1.00  0.00     0.162 HD
HETATM   16  C11 UNL     1     -14.332  14.046  36.758  1.00  0.00     0.259 C 
HETATM   17  O2  UNL     1     -14.509  13.083  37.518  1.00  0.00    -0.270 OA
ENDROOT
BRANCH   1  18
HETATM   18  C1  UNL     1     -14.943  11.199  32.623  1.00  0.00     0.332 C 
BRANCH  18  19
HETATM   19  N1  UNL     1     -14.642  11.586  31.248  1.00  0.00    -0.071 N 
ATOM     20  H13 UNL     1     -15.488  11.628  30.680  1.00  0.00     0.274 HD
ATOM     21  H12 UNL     1     -14.362  12.565  31.189  1.00  0.00     0.274 HD
ATOM     22  H11 UNL     1     -13.943  10.973  30.827  1.00  0.00     0.274 HD
ENDBRANCH  18  19
ENDBRANCH   1  18
TORSDOF 2
ENDMDL
MODEL 5
REMARK VINA RESULT: -5.449567725      1.996      2.323
REMARK  2 active torsions:
REMARK  status: ('A' for Active; 'I' for Inactive)
REMARK    1  A    between atoms: N1_1  and  C1_5 
REMARK    2  A    between atoms: C1_5  and  C2_6 
REMARK       I    between atoms: C2_6  and  N2_8 
ROOT
HETATM    1  C2  UNL     1     -17.216  13.465  37.051  1.00  0.00     0.249 C 
HETATM    2  O1  UNL     1     -18.123  14.187  37.562  1.00  0.00    -0.271 OA
HETATM    3  N2  UNL     1     -16.500  13.846  35.888  1.00  0.00    -0.327 N 
HETATM    4  C3  UNL     1     -16.906  15.102  35.380  1.00  0.00     0.068 C 
HETATM    5  C4  UNL     1     -17.899  15.257  34.275  1.00  0.00     0.056 C 
HETATM    6  C5  UNL     1     -17.595  14.337  33.043  1.00  0.00     0.088 C 
HETATM    7  C6  UNL     1     -16.698  13.358  33.502  1.00  0.00    -0.140 C 
HETATM    8  C7  UNL     1     -15.776  12.409  33.992  1.00  0.00     0.180 C 
HETATM    9  C8  UNL     1     -15.501  12.834  35.490  1.00  0.00     0.184 C 
HETATM   10  N3  UNL     1     -16.234  11.026  34.078  1.00  0.00    -0.373 N 
ATOM     11  H3  UNL     1     -16.808  10.700  34.856  1.00  0.00     0.160 HD
HETATM   12  C9  UNL     1     -15.845  10.164  33.037  1.00  0.00     0.077 C 
HETATM   13  C10 UNL     1     -15.517  10.863  31.748  1.00  0.00     0.166 C 
HETATM   14  N4  UNL     1     -14.389  11.724  32.057  1.00  0.00    -0.353 N 
ATOM     15  H4  UNL     1     -13.599  11.842  31.423  1.00  0.00     0.162 HD
HETATM   16  C11 UNL     1     -14.468  12.383  33.297  1.00  0.00     0.259 C 
HETATM   17  O2  UNL     1     -13.479  12.930  33.804  1.00  0.00    -0.270 OA
ENDROOT
BRANCH   1  18
HETATM   18  C1  UNL     1     -16.919  12.182  37.716  1.00  0.00     0.332 C 
BRANCH  18  19
HETATM   19  N1  UNL     1     -18.124  11.380  37.905  1.00  0.00    -0.071 N 
ATOM     20  H13 UNL     1     -18.006  10.704  38.659  1.00  0.00     0.274 HD
ATOM     21  H12 UNL     1     -18.881  11.934  38.307  1.00  0.00     0.274 HD
ATOM     22  H11 UNL     1     -18.414  10.925  37.040  1.00  0.00     0.274 HD
ENDBRANCH  18  19
ENDBRANCH   1  18
TORSDOF 2
ENDMDL
