MODEL 1
REMARK VINA RESULT: -7.438267440      0.000      0.000
REMARK  4 active torsions:
REMARK  status: ('A' for Active; 'I' for Inactive)
REMARK    1  A    between atoms: C2_2  and  C3_3 
REMARK       I    between atoms: C3_3  and  N1_5 
REMARK    2  A    between atoms: N1_5  and  C4_7 
REMARK    3  A    between atoms: N2_17  and  S1_18 
REMARK    4  A    between atoms: S1_18  and  N3_21 
ROOT
HETATM    1  C1  UNL     1      51.173  51.117  33.831  1.00  0.00     0.044 C 
HETATM    2  C2  UNL     1      50.329  49.899  34.119  1.00  0.00     0.107 C 
HETATM    3  C12 UNL     1      51.291  48.682  34.109  1.00  0.00     0.051 C 
HETATM    4  C13 UNL     1      51.335  48.983  35.601  1.00  0.00     0.113 C 
HETATM    5  N2  UNL     1      50.025  49.558  35.442  1.00  0.00    -0.175 NA
ENDROOT
BRANCH   2   6
HETATM    6  C3  UNL     1      49.283  49.709  33.098  1.00  0.00     0.241 C 
HETATM    7  O1  UNL     1      49.581  49.223  31.993  1.00  0.00    -0.271 OA
HETATM    8  N1  UNL     1      47.952  50.072  33.370  1.00  0.00    -0.354 N 
ATOM      9  H1  UNL     1      47.741  50.467  34.286  1.00  0.00     0.162 HD
BRANCH   8  10
HETATM   10  C4  UNL     1      46.863  49.920  32.428  1.00  0.00     0.088 C 
HETATM   11  C5  UNL     1      45.670  50.769  32.766  1.00  0.00     0.030 C 
HETATM   12  C6  UNL     1      44.506  49.833  32.916  1.00  0.00    -0.012 C 
HETATM   13  C7  UNL     1      43.839  49.604  31.575  1.00  0.00     0.005 C 
HETATM   14  C11 UNL     1      45.161  48.502  33.296  1.00  0.00     0.011 C 
HETATM   15  C8  UNL     1      44.863  49.265  30.518  1.00  0.00     0.001 C 
HETATM   16  C9  UNL     1      45.828  48.202  30.969  1.00  0.00     0.007 C 
HETATM   17  C10 UNL     1      46.356  48.503  32.356  1.00  0.00     0.009 C 
ENDBRANCH   8  10
ENDBRANCH   2   6
BRANCH   5  18
HETATM   18  S1  UNL     1      49.520  50.641  36.612  1.00  0.00     0.302 S 
HETATM   19  O2  UNL     1      50.532  51.715  36.923  1.00  0.00    -0.188 OA
HETATM   20  O3  UNL     1      48.334  51.417  36.030  1.00  0.00    -0.188 OA
BRANCH  18  21
HETATM   21  N3  UNL     1      48.934  49.863  37.992  1.00  0.00    -0.298 N 
HETATM   22  C14 UNL     1      48.734  50.645  39.159  1.00  0.00     0.142 C 
HETATM   23  C15 UNL     1      48.762  49.710  40.361  1.00  0.00     0.099 C 
HETATM   24  C16 UNL     1      47.704  48.660  40.229  1.00  0.00     0.246 C 
HETATM   25  F1  UNL     1      46.745  48.820  41.231  1.00  0.00    -0.206 F 
HETATM   26  F2  UNL     1      48.233  47.380  40.423  1.00  0.00    -0.206 F 
HETATM   27  C17 UNL     1      47.007  48.650  38.907  1.00  0.00     0.099 C 
HETATM   28  C18 UNL     1      47.982  48.831  37.770  1.00  0.00     0.142 C 
ENDBRANCH  18  21
ENDBRANCH   5  18
TORSDOF 4
ENDMDL
MODEL 2
REMARK VINA RESULT: -7.194707308      2.278      3.047
REMARK  4 active torsions:
REMARK  status: ('A' for Active; 'I' for Inactive)
REMARK    1  A    between atoms: C2_2  and  C3_3 
REMARK       I    between atoms: C3_3  and  N1_5 
REMARK    2  A    between atoms: N1_5  and  C4_7 
REMARK    3  A    between atoms: N2_17  and  S1_18 
REMARK    4  A    between atoms: S1_18  and  N3_21 
ROOT
HETATM    1  C1  UNL     1      50.742  50.810  33.680  1.00  0.00     0.044 C 
HETATM    2  C2  UNL     1      50.972  49.554  34.485  1.00  0.00     0.107 C 
HETATM    3  C12 UNL     1      52.397  49.667  35.084  1.00  0.00     0.051 C 
HETATM    4  C13 UNL     1      51.621  50.255  36.255  1.00  0.00     0.113 C 
HETATM    5  N2  UNL     1      50.500  49.473  35.800  1.00  0.00    -0.175 NA
ENDROOT
BRANCH   2   6
HETATM    6  C3  UNL     1      50.884  48.346  33.645  1.00  0.00     0.241 C 
HETATM    7  O1  UNL     1      51.920  47.723  33.351  1.00  0.00    -0.271 OA
HETATM    8  N1  UNL     1      49.638  47.896  33.176  1.00  0.00    -0.354 N 
ATOM      9  H1  UNL     1      48.807  48.430  33.435  1.00  0.00     0.162 HD
BRANCH   8  10
HETATM   10  C4  UNL     1      49.459  46.722  32.347  1.00  0.00     0.088 C 
HETATM   11  C5  UNL     1      49.745  46.978  30.894  1.00  0.00     0.030 C 
HETATM   12  C6  UNL     1      48.496  46.617  30.142  1.00  0.00    -0.012 C 
HETATM   13  C7  UNL     1      48.505  45.145  29.783  1.00  0.00     0.005 C 
HETATM   14  C11 UNL     1      47.386  46.792  31.182  1.00  0.00     0.011 C 
HETATM   15  C8  UNL     1      48.851  44.302  30.988  1.00  0.00     0.001 C 
HETATM   16  C9  UNL     1      48.055  44.682  32.207  1.00  0.00     0.007 C 
HETATM   17  C10 UNL     1      48.053  46.184  32.405  1.00  0.00     0.009 C 
ENDBRANCH   8  10
ENDBRANCH   2   6
BRANCH   5  18
HETATM   18  S1  UNL     1      48.980  49.958  36.300  1.00  0.00     0.302 S 
HETATM   19  O2  UNL     1      48.702  51.422  36.067  1.00  0.00    -0.188 OA
HETATM   20  O3  UNL     1      47.961  49.248  35.401  1.00  0.00    -0.188 OA
BRANCH  18  21
HETATM   21  N3  UNL     1      48.636  49.460  37.876  1.00  0.00    -0.298 N 
HETATM   22  C14 UNL     1      48.545  50.458  38.881  1.00  0.00     0.142 C 
HETATM   23  C15 UNL     1      48.794  49.792  40.227  1.00  0.00     0.099 C 
HETATM   24  C16 UNL     1      47.797  48.701  40.461  1.00  0.00     0.246 C 
HETATM   25  F1  UNL     1      46.973  49.029  41.540  1.00  0.00    -0.206 F 
HETATM   26  F2  UNL     1      48.427  47.507  40.827  1.00  0.00    -0.206 F 
HETATM   27  C17 UNL     1      46.930  48.394  39.283  1.00  0.00     0.099 C 
HETATM   28  C18 UNL     1      47.731  48.372  38.004  1.00  0.00     0.142 C 
ENDBRANCH  18  21
ENDBRANCH   5  18
TORSDOF 4
ENDMDL
MODEL 3
REMARK VINA RESULT: -7.119477416      8.655     10.437
REMARK  4 active torsions:
REMARK  status: ('A' for Active; 'I' for Inactive)
REMARK    1  A    between atoms: C2_2  and  C3_3 
REMARK       I    between atoms: C3_3  and  N1_5 
REMARK    2  A    between atoms: N1_5  and  C4_7 
REMARK    3  A    between atoms: N2_17  and  S1_18 
REMARK    4  A    between atoms: S1_18  and  N3_21 
ROOT
HETATM    1  C1  UNL     1      56.670  57.153  31.565  1.00  0.00     0.044 C 
HETATM    2  C2  UNL     1      56.528  56.778  33.020  1.00  0.00     0.107 C 
HETATM    3  C12 UNL     1      57.428  57.756  33.819  1.00  0.00     0.051 C 
HETATM    4  C13 UNL     1      56.123  58.537  33.910  1.00  0.00     0.113 C 
HETATM    5  N2  UNL     1      55.450  57.272  33.765  1.00  0.00    -0.175 NA
ENDROOT
BRANCH   2   6
HETATM    6  C3  UNL     1      56.962  55.392  33.270  1.00  0.00     0.241 C 
HETATM    7  O1  UNL     1      58.136  55.061  33.029  1.00  0.00    -0.271 OA
HETATM    8  N1  UNL     1      56.056  54.446  33.780  1.00  0.00    -0.354 N 
ATOM      9  H1  UNL     1      55.101  54.750  33.968  1.00  0.00     0.162 HD
BRANCH   8  10
HETATM   10  C4  UNL     1      56.397  53.065  34.056  1.00  0.00     0.088 C 
HETATM   11  C5  UNL     1      55.219  52.137  33.952  1.00  0.00     0.030 C 
HETATM   12  C6  UNL     1      55.095  51.452  35.282  1.00  0.00    -0.012 C 
HETATM   13  C7  UNL     1      55.952  50.203  35.313  1.00  0.00     0.005 C 
HETATM   14  C11 UNL     1      55.747  52.437  36.256  1.00  0.00     0.011 C 
HETATM   15  C8  UNL     1      57.348  50.499  34.819  1.00  0.00     0.001 C 
HETATM   16  C9  UNL     1      57.940  51.725  35.460  1.00  0.00     0.007 C 
HETATM   17  C10 UNL     1      56.954  52.874  35.443  1.00  0.00     0.009 C 
ENDBRANCH   8  10
ENDBRANCH   2   6
BRANCH   5  18
HETATM   18  S1  UNL     1      53.864  57.309  33.237  1.00  0.00     0.302 S 
HETATM   19  O2  UNL     1      53.622  58.279  32.106  1.00  0.00    -0.188 OA
HETATM   20  O3  UNL     1      53.562  55.942  32.614  1.00  0.00    -0.188 OA
BRANCH  18  21
HETATM   21  N3  UNL     1      52.770  57.491  34.511  1.00  0.00    -0.298 N 
HETATM   22  C14 UNL     1      52.809  56.537  35.559  1.00  0.00     0.142 C 
HETATM   23  C15 UNL     1      51.454  56.547  36.254  1.00  0.00     0.099 C 
HETATM   24  C16 UNL     1      51.150  57.914  36.782  1.00  0.00     0.246 C 
HETATM   25  F1  UNL     1      51.106  57.888  38.177  1.00  0.00    -0.206 F 
HETATM   26  F2  UNL     1      49.881  58.343  36.380  1.00  0.00    -0.206 F 
HETATM   27  C17 UNL     1      52.121  58.968  36.361  1.00  0.00     0.099 C 
HETATM   28  C18 UNL     1      52.486  58.827  34.903  1.00  0.00     0.142 C 
ENDBRANCH  18  21
ENDBRANCH   5  18
TORSDOF 4
ENDMDL
MODEL 4
REMARK VINA RESULT: -7.042657426      2.470      3.509
REMARK  4 active torsions:
REMARK  status: ('A' for Active; 'I' for Inactive)
REMARK    1  A    between atoms: C2_2  and  C3_3 
REMARK       I    between atoms: C3_3  and  N1_5 
REMARK    2  A    between atoms: N1_5  and  C4_7 
REMARK    3  A    between atoms: N2_17  and  S1_18 
REMARK    4  A    between atoms: S1_18  and  N3_21 
ROOT
HETATM    1  C1  UNL     1      47.318  48.857  34.849  1.00  0.00     0.044 C 
HETATM    2  C2  UNL     1      47.244  50.360  34.962  1.00  0.00     0.107 C 
HETATM    3  C12 UNL     1      45.747  50.717  35.147  1.00  0.00     0.051 C 
HETATM    4  C13 UNL     1      46.136  50.643  36.617  1.00  0.00     0.113 C 
HETATM    5  N2  UNL     1      47.472  50.978  36.197  1.00  0.00    -0.175 NA
ENDROOT
BRANCH   2   6
HETATM    6  C3  UNL     1      47.764  51.023  33.753  1.00  0.00     0.241 C 
HETATM    7  O1  UNL     1      48.992  51.097  33.570  1.00  0.00    -0.271 OA
HETATM    8  N1  UNL     1      46.879  51.568  32.806  1.00  0.00    -0.354 N 
ATOM      9  H1  UNL     1      45.878  51.489  32.985  1.00  0.00     0.162 HD
BRANCH   8  10
HETATM   10  C4  UNL     1      47.302  52.235  31.592  1.00  0.00     0.088 C 
HETATM   11  C5  UNL     1      46.152  52.641  30.713  1.00  0.00     0.030 C 
HETATM   12  C6  UNL     1      46.375  51.981  29.383  1.00  0.00    -0.012 C 
HETATM   13  C7  UNL     1      47.235  52.859  28.497  1.00  0.00     0.005 C 
HETATM   14  C11 UNL     1      47.232  50.759  29.727  1.00  0.00     0.011 C 
HETATM   15  C8  UNL     1      48.459  53.337  29.242  1.00  0.00     0.001 C 
HETATM   16  C9  UNL     1      49.170  52.222  29.960  1.00  0.00     0.007 C 
HETATM   17  C10 UNL     1      48.190  51.368  30.737  1.00  0.00     0.009 C 
ENDBRANCH   8  10
ENDBRANCH   2   6
BRANCH   5  18
HETATM   18  S1  UNL     1      48.719  50.591  37.242  1.00  0.00     0.302 S 
HETATM   19  O2  UNL     1      49.941  50.038  36.550  1.00  0.00    -0.188 OA
HETATM   20  O3  UNL     1      49.214  51.902  37.861  1.00  0.00    -0.188 OA
BRANCH  18  21
HETATM   21  N3  UNL     1      48.199  49.634  38.532  1.00  0.00    -0.298 N 
HETATM   22  C14 UNL     1      48.234  48.225  38.369  1.00  0.00     0.142 C 
HETATM   23  C15 UNL     1      47.245  47.615  39.353  1.00  0.00     0.099 C 
HETATM   24  C16 UNL     1      47.599  48.002  40.755  1.00  0.00     0.246 C 
HETATM   25  F1  UNL     1      47.980  46.872  41.481  1.00  0.00    -0.206 F 
HETATM   26  F2  UNL     1      46.491  48.522  41.432  1.00  0.00    -0.206 F 
HETATM   27  C17 UNL     1      48.690  49.018  40.857  1.00  0.00     0.099 C 
HETATM   28  C18 UNL     1      48.519  50.112  39.832  1.00  0.00     0.142 C 
ENDBRANCH  18  21
ENDBRANCH   5  18
TORSDOF 4
ENDMDL
MODEL 5
REMARK VINA RESULT: -6.994004947      3.801      5.451
REMARK  4 active torsions:
REMARK  status: ('A' for Active; 'I' for Inactive)
REMARK    1  A    between atoms: C2_2  and  C3_3 
REMARK       I    between atoms: C3_3  and  N1_5 
REMARK    2  A    between atoms: N1_5  and  C4_7 
REMARK    3  A    between atoms: N2_17  and  S1_18 
REMARK    4  A    between atoms: S1_18  and  N3_21 
ROOT
HETATM    1  C1  UNL     1      51.234  48.697  34.274  1.00  0.00     0.044 C 
HETATM    2  C2  UNL     1      50.584  50.034  34.538  1.00  0.00     0.107 C 
HETATM    3  C12 UNL     1      50.119  50.015  36.018  1.00  0.00     0.051 C 
HETATM    4  C13 UNL     1      51.484  50.656  36.226  1.00  0.00     0.113 C 
HETATM    5  N2  UNL     1      51.375  51.139  34.874  1.00  0.00    -0.175 NA
ENDROOT
BRANCH   2   6
HETATM    6  C3  UNL     1      49.423  50.257  33.659  1.00  0.00     0.241 C 
HETATM    7  O1  UNL     1      49.484  51.119  32.764  1.00  0.00    -0.271 OA
HETATM    8  N1  UNL     1      48.249  49.501  33.826  1.00  0.00    -0.354 N 
ATOM      9  H1  UNL     1      48.232  48.802  34.569  1.00  0.00     0.162 HD
BRANCH   8  10
HETATM   10  C4  UNL     1      47.064  49.654  33.009  1.00  0.00     0.088 C 
HETATM   11  C5  UNL     1      45.956  50.387  33.710  1.00  0.00     0.030 C 
HETATM   12  C6  UNL     1      44.767  49.470  33.710  1.00  0.00    -0.012 C 
HETATM   13  C7  UNL     1      43.957  49.658  32.444  1.00  0.00     0.005 C 
HETATM   14  C11 UNL     1      45.390  48.075  33.611  1.00  0.00     0.011 C 
HETATM   15  C8  UNL     1      44.851  49.627  31.227  1.00  0.00     0.001 C 
HETATM   16  C9  UNL     1      45.802  48.461  31.238  1.00  0.00     0.007 C 
HETATM   17  C10 UNL     1      46.481  48.331  32.585  1.00  0.00     0.009 C 
ENDBRANCH   8  10
ENDBRANCH   2   6
BRANCH   5  18
HETATM   18  S1  UNL     1      52.794  51.566  34.099  1.00  0.00     0.302 S 
HETATM   19  O2  UNL     1      52.616  51.875  32.633  1.00  0.00    -0.188 OA
HETATM   20  O3  UNL     1      53.253  52.899  34.699  1.00  0.00    -0.188 OA
BRANCH  18  21
HETATM   21  N3  UNL     1      54.042  50.467  34.398  1.00  0.00    -0.298 N 
HETATM   22  C14 UNL     1      54.750  49.950  33.283  1.00  0.00     0.142 C 
HETATM   23  C15 UNL     1      55.388  48.633  33.703  1.00  0.00     0.099 C 
HETATM   24  C16 UNL     1      56.302  48.845  34.869  1.00  0.00     0.246 C 
HETATM   25  F1  UNL     1      57.622  48.585  34.496  1.00  0.00    -0.206 F 
HETATM   26  F2  UNL     1      56.025  47.943  35.902  1.00  0.00    -0.206 F 
HETATM   27  C17 UNL     1      56.240  50.217  35.459  1.00  0.00     0.099 C 
HETATM   28  C18 UNL     1      54.817  50.706  35.565  1.00  0.00     0.142 C 
ENDBRANCH  18  21
ENDBRANCH   5  18
TORSDOF 4
ENDMDL
