MODEL 1
REMARK VINA RESULT: -6.727539679      0.000      0.000
REMARK  9 active torsions:
REMARK  status: ('A' for Active; 'I' for Inactive)
REMARK    1  A    between atoms: C3_3  and  O1_4 
REMARK    2  A    between atoms: C5_6  and  C6_7 
REMARK    3  A    between atoms: C6_7  and  O2_8 
REMARK    4  A    between atoms: C11_17  and  C12_18 
REMARK    5  A    between atoms: C12_18  and  O4_19 
REMARK    6  A    between atoms: C12_18  and  C13_21 
REMARK    7  A    between atoms: C13_21  and  O5_24 
REMARK    8  A    between atoms: C16_26  and  O6_27 
REMARK    9  A    between atoms: C17_29  and  O7_30 
ROOT
HETATM    1  C1  UNL     1      22.607 -43.583 -75.852  1.00  0.00     0.100 C 
HETATM    2  C2  UNL     1      22.755 -44.359 -74.921  1.00  0.00    -0.147 C 
HETATM    3  C3  UNL     1      22.969 -45.275 -73.820  1.00  0.00     0.148 C 
HETATM    4  C5  UNL     1      21.781 -45.861 -73.191  1.00  0.00     0.094 C 
HETATM    5  C7  UNL     1      21.370 -47.250 -73.578  1.00  0.00     0.098 A 
HETATM    6  N1  UNL     1      20.244 -47.713 -72.872  1.00  0.00    -0.382 N 
ATOM      7  H1  UNL     1      20.114 -47.882 -71.874  1.00  0.00     0.160 HD
HETATM    8  C8  UNL     1      19.411 -47.862 -73.873  1.00  0.00     0.095 A 
HETATM    9  C9  UNL     1      20.469 -47.411 -74.748  1.00  0.00     0.010 A 
HETATM   10  C10 UNL     1      21.044 -47.115 -75.895  1.00  0.00     0.147 C 
HETATM   11  O3  UNL     1      22.380 -46.716 -75.760  1.00  0.00    -0.343 OA
HETATM   12  C11 UNL     1      23.317 -47.434 -74.928  1.00  0.00     0.153 C 
HETATM   13  C16 UNL     1      24.044 -46.320 -74.174  1.00  0.00     0.205 C 
HETATM   14  C17 UNL     1      22.533 -48.148 -73.872  1.00  0.00     0.192 C 
ENDROOT
BRANCH   3  15
HETATM   15  O1  UNL     1      23.626 -44.486 -72.828  1.00  0.00    -0.370 OA
HETATM   16  C4  UNL     1      24.603 -43.673 -73.366  1.00  0.00     0.204 C 
ENDBRANCH   3  15
BRANCH   4  17
HETATM   17  C6  UNL     1      20.648 -44.906 -73.145  1.00  0.00     0.175 C 
BRANCH  17  18
HETATM   18  O2  UNL     1      19.959 -44.771 -71.982  1.00  0.00    -0.400 OA
ATOM     19  H2  UNL     1      19.121 -44.323 -72.000  1.00  0.00     0.209 HD
ENDBRANCH  17  18
ENDBRANCH   4  17
BRANCH  13  20
HETATM   20  O6  UNL     1      24.523 -46.755 -72.940  1.00  0.00    -0.388 OA
ATOM     21  H6  UNL     1      25.440 -46.950 -73.099  1.00  0.00     0.210 HD
ENDBRANCH  13  20
BRANCH  12  22
HETATM   22  C12 UNL     1      24.120 -48.222 -75.853  1.00  0.00     0.192 C 
BRANCH  22  23
HETATM   23  O4  UNL     1      25.255 -48.666 -75.175  1.00  0.00    -0.389 OA
ATOM     24  H4  UNL     1      25.801 -49.141 -75.790  1.00  0.00     0.210 HD
ENDBRANCH  22  23
BRANCH  22  25
HETATM   25  C13 UNL     1      24.468 -47.737 -77.186  1.00  0.00     0.079 C 
HETATM   26  C14 UNL     1      25.696 -48.550 -77.647  1.00  0.00     0.048 C 
HETATM   27  C15 UNL     1      24.887 -46.296 -77.294  1.00  0.00     0.048 C 
BRANCH  25  28
HETATM   28  O5  UNL     1      23.532 -47.959 -78.172  1.00  0.00    -0.388 OA
ATOM     29  H5  UNL     1      23.875 -48.117 -79.044  1.00  0.00     0.210 HD
ENDBRANCH  25  28
ENDBRANCH  22  25
ENDBRANCH  12  22
BRANCH  14  30
HETATM   30  O7  UNL     1      22.166 -49.429 -74.197  1.00  0.00    -0.389 OA
ATOM     31  H7  UNL     1      22.897 -49.979 -74.452  1.00  0.00     0.210 HD
ENDBRANCH  14  30
TORSDOF 9
ENDMDL
MODEL 2
REMARK VINA RESULT: -6.379986018      3.432      5.724
REMARK  9 active torsions:
REMARK  status: ('A' for Active; 'I' for Inactive)
REMARK    1  A    between atoms: C3_3  and  O1_4 
REMARK    2  A    between atoms: C5_6  and  C6_7 
REMARK    3  A    between atoms: C6_7  and  O2_8 
REMARK    4  A    between atoms: C11_17  and  C12_18 
REMARK    5  A    between atoms: C12_18  and  O4_19 
REMARK    6  A    between atoms: C12_18  and  C13_21 
REMARK    7  A    between atoms: C13_21  and  O5_24 
REMARK    8  A    between atoms: C16_26  and  O6_27 
REMARK    9  A    between atoms: C17_29  and  O7_30 
ROOT
HETATM    1  C1  UNL     1      20.420 -46.285 -76.739  1.00  0.00     0.100 C 
HETATM    2  C2  UNL     1      20.118 -46.848 -75.699  1.00  0.00    -0.147 C 
HETATM    3  C3  UNL     1      19.769 -47.548 -74.480  1.00  0.00     0.148 C 
HETATM    4  C5  UNL     1      19.318 -46.739 -73.344  1.00  0.00     0.094 C 
HETATM    5  C7  UNL     1      17.847 -46.625 -73.077  1.00  0.00     0.098 A 
HETATM    6  N1  UNL     1      17.547 -45.860 -71.934  1.00  0.00    -0.382 N 
ATOM      7  H1  UNL     1      17.779 -46.019 -70.954  1.00  0.00     0.160 HD
HETATM    8  C8  UNL     1      16.883 -44.882 -72.501  1.00  0.00     0.095 A 
HETATM    9  C9  UNL     1      17.094 -45.547 -73.767  1.00  0.00     0.010 A 
HETATM   10  C10 UNL     1      16.983 -45.735 -75.065  1.00  0.00     0.147 C 
HETATM   11  O3  UNL     1      17.596 -46.913 -75.511  1.00  0.00    -0.343 OA
HETATM   12  C11 UNL     1      17.425 -48.174 -74.829  1.00  0.00     0.153 C 
HETATM   13  C16 UNL     1      18.843 -48.743 -74.778  1.00  0.00     0.205 C 
HETATM   14  C17 UNL     1      17.091 -47.878 -73.401  1.00  0.00     0.192 C 
ENDROOT
BRANCH   3  15
HETATM   15  O1  UNL     1      20.981 -48.192 -74.085  1.00  0.00    -0.370 OA
HETATM   16  C4  UNL     1      21.947 -48.144 -75.070  1.00  0.00     0.204 C 
ENDBRANCH   3  15
BRANCH   4  17
HETATM   17  C6  UNL     1      20.030 -45.441 -73.268  1.00  0.00     0.175 C 
BRANCH  17  18
HETATM   18  O2  UNL     1      20.362 -44.952 -72.045  1.00  0.00    -0.400 OA
ATOM     19  H2  UNL     1      19.945 -44.153 -71.747  1.00  0.00     0.209 HD
ENDBRANCH  17  18
ENDBRANCH   4  17
BRANCH  13  20
HETATM   20  O6  UNL     1      19.022 -49.598 -73.693  1.00  0.00    -0.388 OA
ATOM     21  H6  UNL     1      18.887 -50.467 -74.052  1.00  0.00     0.210 HD
ENDBRANCH  13  20
BRANCH  12  22
HETATM   22  C12 UNL     1      16.459 -48.912 -75.632  1.00  0.00     0.192 C 
BRANCH  22  23
HETATM   23  O4  UNL     1      16.293 -50.175 -75.063  1.00  0.00    -0.389 OA
ATOM     24  H4  UNL     1      15.370 -50.397 -75.099  1.00  0.00     0.210 HD
ENDBRANCH  22  23
BRANCH  22  25
HETATM   25  C13 UNL     1      16.571 -49.008 -77.085  1.00  0.00     0.079 C 
HETATM   26  C14 UNL     1      15.430 -48.153 -77.675  1.00  0.00     0.048 C 
HETATM   27  C15 UNL     1      16.394 -50.374 -77.689  1.00  0.00     0.048 C 
BRANCH  25  28
HETATM   28  O5  UNL     1      17.712 -48.468 -77.639  1.00  0.00    -0.388 OA
ATOM     29  H5  UNL     1      18.486 -48.476 -77.089  1.00  0.00     0.210 HD
ENDBRANCH  25  28
ENDBRANCH  22  25
ENDBRANCH  12  22
BRANCH  14  30
HETATM   30  O7  UNL     1      15.749 -47.791 -73.130  1.00  0.00    -0.389 OA
ATOM     31  H7  UNL     1      15.269 -48.583 -73.343  1.00  0.00     0.210 HD
ENDBRANCH  14  30
TORSDOF 9
ENDMDL
MODEL 3
REMARK VINA RESULT: -6.259736742      2.338      5.406
REMARK  9 active torsions:
REMARK  status: ('A' for Active; 'I' for Inactive)
REMARK    1  A    between atoms: C3_3  and  O1_4 
REMARK    2  A    between atoms: C5_6  and  C6_7 
REMARK    3  A    between atoms: C6_7  and  O2_8 
REMARK    4  A    between atoms: C11_17  and  C12_18 
REMARK    5  A    between atoms: C12_18  and  O4_19 
REMARK    6  A    between atoms: C12_18  and  C13_21 
REMARK    7  A    between atoms: C13_21  and  O5_24 
REMARK    8  A    between atoms: C16_26  and  O6_27 
REMARK    9  A    between atoms: C17_29  and  O7_30 
ROOT
HETATM    1  C1  UNL     1      20.403 -45.822 -74.968  1.00  0.00     0.100 C 
HETATM    2  C2  UNL     1      21.580 -46.100 -74.803  1.00  0.00    -0.147 C 
HETATM    3  C3  UNL     1      22.971 -46.431 -74.572  1.00  0.00     0.148 C 
HETATM    4  C5  UNL     1      23.843 -46.537 -75.745  1.00  0.00     0.094 C 
HETATM    5  C7  UNL     1      24.724 -45.375 -76.097  1.00  0.00     0.098 A 
HETATM    6  N1  UNL     1      25.543 -45.618 -77.215  1.00  0.00    -0.382 N 
ATOM      7  H1  UNL     1      26.284 -46.306 -77.354  1.00  0.00     0.160 HD
HETATM    8  C8  UNL     1      25.075 -44.702 -78.027  1.00  0.00     0.095 A 
HETATM    9  C9  UNL     1      24.164 -44.315 -76.974  1.00  0.00     0.010 A 
HETATM   10  C10 UNL     1      23.222 -43.600 -76.393  1.00  0.00     0.147 C 
HETATM   11  O3  UNL     1      22.957 -43.995 -75.075  1.00  0.00    -0.343 OA
HETATM   12  C11 UNL     1      24.012 -44.257 -74.125  1.00  0.00     0.153 C 
HETATM   13  C16 UNL     1      23.565 -45.556 -73.452  1.00  0.00     0.205 C 
HETATM   14  C17 UNL     1      25.235 -44.639 -74.896  1.00  0.00     0.192 C 
ENDROOT
BRANCH   3  15
HETATM   15  O1  UNL     1      22.928 -47.721 -73.961  1.00  0.00    -0.370 OA
HETATM   16  C4  UNL     1      21.663 -48.051 -73.516  1.00  0.00     0.204 C 
ENDBRANCH   3  15
BRANCH   4  17
HETATM   17  C6  UNL     1      23.135 -47.110 -76.915  1.00  0.00     0.175 C 
BRANCH  17  18
HETATM   18  O2  UNL     1      22.974 -48.457 -76.980  1.00  0.00    -0.400 OA
ATOM     19  H2  UNL     1      22.325 -48.809 -77.578  1.00  0.00     0.209 HD
ENDBRANCH  17  18
ENDBRANCH   4  17
BRANCH  13  20
HETATM   20  O6  UNL     1      24.647 -46.292 -72.975  1.00  0.00    -0.388 OA
ATOM     21  H6  UNL     1      25.247 -45.638 -72.636  1.00  0.00     0.210 HD
ENDBRANCH  13  20
BRANCH  12  22
HETATM   22  C12 UNL     1      24.063 -43.073 -73.278  1.00  0.00     0.192 C 
BRANCH  22  23
HETATM   23  O4  UNL     1      25.232 -43.130 -72.519  1.00  0.00    -0.389 OA
ATOM     24  H4  UNL     1      24.990 -43.112 -71.601  1.00  0.00     0.210 HD
ENDBRANCH  22  23
BRANCH  22  25
HETATM   25  C13 UNL     1      22.929 -42.658 -72.456  1.00  0.00     0.079 C 
HETATM   26  C14 UNL     1      22.818 -41.125 -72.594  1.00  0.00     0.048 C 
HETATM   27  C15 UNL     1      23.036 -42.914 -70.977  1.00  0.00     0.048 C 
BRANCH  25  28
HETATM   28  O5  UNL     1      21.693 -43.118 -72.856  1.00  0.00    -0.388 OA
ATOM     29  H5  UNL     1      20.991 -42.478 -72.857  1.00  0.00     0.210 HD
ENDBRANCH  25  28
ENDBRANCH  22  25
ENDBRANCH  12  22
BRANCH  14  30
HETATM   30  O7  UNL     1      26.067 -43.594 -75.210  1.00  0.00    -0.389 OA
ATOM     31  H7  UNL     1      26.227 -43.007 -74.480  1.00  0.00     0.210 HD
ENDBRANCH  14  30
TORSDOF 9
ENDMDL
MODEL 4
REMARK VINA RESULT: -6.238164062      4.042      7.668
REMARK  9 active torsions:
REMARK  status: ('A' for Active; 'I' for Inactive)
REMARK    1  A    between atoms: C3_3  and  O1_4 
REMARK    2  A    between atoms: C5_6  and  C6_7 
REMARK    3  A    between atoms: C6_7  and  O2_8 
REMARK    4  A    between atoms: C11_17  and  C12_18 
REMARK    5  A    between atoms: C12_18  and  O4_19 
REMARK    6  A    between atoms: C12_18  and  C13_21 
REMARK    7  A    between atoms: C13_21  and  O5_24 
REMARK    8  A    between atoms: C16_26  and  O6_27 
REMARK    9  A    between atoms: C17_29  and  O7_30 
ROOT
HETATM    1  C1  UNL     1      16.684 -45.248 -77.173  1.00  0.00     0.100 C 
HETATM    2  C2  UNL     1      16.887 -45.953 -76.197  1.00  0.00    -0.147 C 
HETATM    3  C3  UNL     1      17.091 -46.795 -75.037  1.00  0.00     0.148 C 
HETATM    4  C5  UNL     1      18.467 -46.957 -74.556  1.00  0.00     0.094 C 
HETATM    5  C7  UNL     1      18.926 -46.136 -73.387  1.00  0.00     0.098 A 
HETATM    6  N1  UNL     1      20.248 -46.418 -72.997  1.00  0.00    -0.382 N 
ATOM      7  H1  UNL     1      20.661 -47.279 -72.638  1.00  0.00     0.160 HD
HETATM    8  C8  UNL     1      20.792 -45.248 -73.229  1.00  0.00     0.095 A 
HETATM    9  C9  UNL     1      19.491 -44.790 -73.659  1.00  0.00     0.010 A 
HETATM   10  C10 UNL     1      18.597 -43.925 -74.090  1.00  0.00     0.147 C 
HETATM   11  O3  UNL     1      17.308 -44.464 -74.195  1.00  0.00    -0.343 OA
HETATM   12  C11 UNL     1      16.725 -45.272 -73.150  1.00  0.00     0.153 C 
HETATM   13  C16 UNL     1      16.097 -46.437 -73.916  1.00  0.00     0.205 C 
HETATM   14  C17 UNL     1      17.845 -45.894 -72.378  1.00  0.00     0.192 C 
ENDROOT
BRANCH   3  15
HETATM   15  O1  UNL     1      16.635 -48.082 -75.451  1.00  0.00    -0.370 OA
HETATM   16  C4  UNL     1      15.446 -48.018 -76.151  1.00  0.00     0.204 C 
ENDBRANCH   3  15
BRANCH   4  17
HETATM   17  C6  UNL     1      19.445 -46.989 -75.670  1.00  0.00     0.175 C 
BRANCH  17  18
HETATM   18  O2  UNL     1      20.430 -47.923 -75.643  1.00  0.00    -0.400 OA
ATOM     19  H2  UNL     1      20.469 -48.522 -74.906  1.00  0.00     0.209 HD
ENDBRANCH  17  18
ENDBRANCH   4  17
BRANCH  13  20
HETATM   20  O6  UNL     1      16.024 -47.591 -73.137  1.00  0.00    -0.388 OA
ATOM     21  H6  UNL     1      16.605 -47.418 -72.406  1.00  0.00     0.210 HD
ENDBRANCH  13  20
BRANCH  12  22
HETATM   22  C12 UNL     1      15.805 -44.384 -72.452  1.00  0.00     0.192 C 
BRANCH  22  23
HETATM   23  O4  UNL     1      15.192 -45.109 -71.430  1.00  0.00    -0.389 OA
ATOM     24  H4  UNL     1      14.416 -44.635 -71.155  1.00  0.00     0.210 HD
ENDBRANCH  22  23
BRANCH  22  25
HETATM   25  C13 UNL     1      14.830 -43.562 -73.163  1.00  0.00     0.079 C 
HETATM   26  C14 UNL     1      15.470 -42.169 -73.342  1.00  0.00     0.048 C 
HETATM   27  C15 UNL     1      13.521 -43.309 -72.467  1.00  0.00     0.048 C 
BRANCH  25  28
HETATM   28  O5  UNL     1      14.531 -43.958 -74.450  1.00  0.00    -0.388 OA
ATOM     29  H5  UNL     1      13.986 -44.732 -74.531  1.00  0.00     0.210 HD
ENDBRANCH  25  28
ENDBRANCH  22  25
ENDBRANCH  12  22
BRANCH  14  30
HETATM   30  O7  UNL     1      18.266 -45.171 -71.291  1.00  0.00    -0.389 OA
ATOM     31  H7  UNL     1      18.874 -44.476 -71.513  1.00  0.00     0.210 HD
ENDBRANCH  14  30
TORSDOF 9
ENDMDL
MODEL 5
REMARK VINA RESULT: -6.194666609      3.372      6.057
REMARK  9 active torsions:
REMARK  status: ('A' for Active; 'I' for Inactive)
REMARK    1  A    between atoms: C3_3  and  O1_4 
REMARK    2  A    between atoms: C5_6  and  C6_7 
REMARK    3  A    between atoms: C6_7  and  O2_8 
REMARK    4  A    between atoms: C11_17  and  C12_18 
REMARK    5  A    between atoms: C12_18  and  O4_19 
REMARK    6  A    between atoms: C12_18  and  C13_21 
REMARK    7  A    between atoms: C13_21  and  O5_24 
REMARK    8  A    between atoms: C16_26  and  O6_27 
REMARK    9  A    between atoms: C17_29  and  O7_30 
ROOT
HETATM    1  C1  UNL     1      20.451 -46.249 -76.227  1.00  0.00     0.100 C 
HETATM    2  C2  UNL     1      20.092 -46.421 -75.073  1.00  0.00    -0.147 C 
HETATM    3  C3  UNL     1      19.665 -46.662 -73.710  1.00  0.00     0.148 C 
HETATM    4  C5  UNL     1      19.448 -45.491 -72.855  1.00  0.00     0.094 C 
HETATM    5  C7  UNL     1      18.047 -44.997 -72.649  1.00  0.00     0.098 A 
HETATM    6  N1  UNL     1      17.969 -43.897 -71.774  1.00  0.00    -0.382 N 
ATOM      7  H1  UNL     1      18.211 -43.822 -70.786  1.00  0.00     0.160 HD
HETATM    8  C8  UNL     1      17.495 -42.999 -72.602  1.00  0.00     0.095 A 
HETATM    9  C9  UNL     1      17.501 -44.019 -73.625  1.00  0.00     0.010 A 
HETATM   10  C10 UNL     1      17.290 -44.535 -74.818  1.00  0.00     0.147 C 
HETATM   11  O3  UNL     1      17.623 -45.893 -74.904  1.00  0.00    -0.343 OA
HETATM   12  C11 UNL     1      17.228 -46.847 -73.894  1.00  0.00     0.153 C 
HETATM   13  C16 UNL     1      18.498 -47.667 -73.668  1.00  0.00     0.205 C 
HETATM   14  C17 UNL     1      17.033 -46.100 -72.613  1.00  0.00     0.192 C 
ENDROOT
BRANCH   3  15
HETATM   15  O1  UNL     1      20.735 -47.412 -73.134  1.00  0.00    -0.370 OA
HETATM   16  C4  UNL     1      21.339 -48.253 -74.048  1.00  0.00     0.204 C 
ENDBRANCH   3  15
BRANCH   4  17
HETATM   17  C6  UNL     1      20.416 -44.405 -73.142  1.00  0.00     0.175 C 
BRANCH  17  18
HETATM   18  O2  UNL     1      21.642 -44.457 -72.561  1.00  0.00    -0.400 OA
ATOM     19  H2  UNL     1      22.012 -43.657 -72.208  1.00  0.00     0.209 HD
ENDBRANCH  17  18
ENDBRANCH   4  17
BRANCH  13  20
HETATM   20  O6  UNL     1      18.549 -48.202 -72.382  1.00  0.00    -0.388 OA
ATOM     21  H6  UNL     1      18.796 -47.469 -71.831  1.00  0.00     0.210 HD
ENDBRANCH  13  20
BRANCH  12  22
HETATM   22  C12 UNL     1      16.092 -47.557 -74.467  1.00  0.00     0.192 C 
BRANCH  22  23
HETATM   23  O4  UNL     1      15.561 -48.393 -73.485  1.00  0.00    -0.389 OA
ATOM     24  H4  UNL     1      14.629 -48.485 -73.647  1.00  0.00     0.210 HD
ENDBRANCH  22  23
BRANCH  22  25
HETATM   25  C13 UNL     1      16.177 -48.251 -75.749  1.00  0.00     0.079 C 
HETATM   26  C14 UNL     1      14.735 -48.370 -76.286  1.00  0.00     0.048 C 
HETATM   27  C15 UNL     1      16.705 -49.659 -75.723  1.00  0.00     0.048 C 
BRANCH  25  28
HETATM   28  O5  UNL     1      16.852 -47.587 -76.751  1.00  0.00    -0.388 OA
ATOM     29  H5  UNL     1      16.379 -47.475 -77.568  1.00  0.00     0.210 HD
ENDBRANCH  25  28
ENDBRANCH  22  25
ENDBRANCH  12  22
BRANCH  14  30
HETATM   30  O7  UNL     1      15.754 -45.657 -72.394  1.00  0.00    -0.389 OA
ATOM     31  H7  UNL     1      15.506 -45.656 -71.477  1.00  0.00     0.210 HD
ENDBRANCH  14  30
TORSDOF 9
ENDMDL
