MODEL 1
REMARK VINA RESULT: -6.618435247      0.000      0.000
REMARK  8 active torsions:
REMARK  status: ('A' for Active; 'I' for Inactive)
REMARK    1  A    between atoms: C2_2  and  N1_3 
REMARK    2  A    between atoms: N1_3  and  C3_4 
REMARK    3  A    between atoms: C5_6  and  O1_7 
REMARK    4  A    between atoms: C6_9  and  N2_10 
REMARK    5  A    between atoms: C11_18  and  O5_19 
REMARK    6  A    between atoms: C12_21  and  O6_22 
REMARK    7  A    between atoms: C13_24  and  O7_25 
REMARK    8  A    between atoms: C14_27  and  O8_28 
ROOT
HETATM    1  N1  UNL     1      22.643 -46.232 -74.471  1.00  0.00     0.024 N 
HETATM    2  C10 UNL     1      22.921 -45.556 -75.710  1.00  0.00     0.281 C 
HETATM    3  C11 UNL     1      24.318 -45.787 -76.235  1.00  0.00     0.176 C 
HETATM    4  C12 UNL     1      24.442 -47.254 -76.531  1.00  0.00     0.181 C 
HETATM    5  C13 UNL     1      24.101 -48.068 -75.323  1.00  0.00     0.206 C 
HETATM    6  C14 UNL     1      23.529 -47.335 -74.186  1.00  0.00     0.361 C 
ENDROOT
BRANCH   1   7
HETATM    7  C2  UNL     1      22.847 -45.286 -73.410  1.00  0.00     0.243 C 
HETATM    8  C1  UNL     1      22.756 -43.862 -73.752  1.00  0.00     0.035 C 
ENDBRANCH   1   7
BRANCH   1   9
HETATM    9  C3  UNL     1      21.302 -46.747 -74.559  1.00  0.00     0.375 C 
HETATM   10  C4  UNL     1      20.366 -45.982 -75.428  1.00  0.00     0.138 C 
HETATM   11  C5  UNL     1      19.073 -46.808 -75.537  1.00  0.00     0.152 C 
HETATM   12  C6  UNL     1      18.671 -47.374 -74.212  1.00  0.00     0.166 C 
HETATM   13  C9  UNL     1      19.854 -47.804 -73.373  1.00  0.00     0.327 C 
HETATM   14  O2  UNL     1      20.579 -48.749 -74.045  1.00  0.00    -0.201 OA
HETATM   15  O4  UNL     1      20.733 -46.750 -73.271  1.00  0.00    -0.295 OA
HETATM   16  O3  UNL     1      21.245 -48.081 -74.922  1.00  0.00    -0.166 OA
BRANCH  11  17
HETATM   17  O1  UNL     1      19.350 -47.800 -76.472  1.00  0.00    -0.393 OA
ATOM     18  H1  UNL     1      19.486 -48.592 -75.964  1.00  0.00     0.210 HD
ENDBRANCH  11  17
BRANCH  12  19
HETATM   19  N2  UNL     1      17.690 -48.362 -74.359  1.00  0.00    -0.410 N 
HETATM   20  C7  UNL     1      17.772 -49.560 -73.631  1.00  0.00     0.143 C 
HETATM   21  C8  UNL     1      16.611 -48.163 -75.242  1.00  0.00     0.143 C 
ENDBRANCH  12  19
ENDBRANCH   1   9
BRANCH   6  22
HETATM   22  O8  UNL     1      24.590 -46.936 -73.339  1.00  0.00    -0.367 OA
ATOM     23  H8  UNL     1      25.432 -47.182 -73.703  1.00  0.00     0.212 HD
ENDBRANCH   6  22
BRANCH   3  24
HETATM   24  O5  UNL     1      24.362 -45.128 -77.486  1.00  0.00    -0.391 OA
ATOM     25  H5  UNL     1      25.209 -45.349 -77.857  1.00  0.00     0.210 HD
ENDBRANCH   3  24
BRANCH   5  26
HETATM   26  O7  UNL     1      25.319 -48.664 -74.900  1.00  0.00    -0.388 OA
ATOM     27  H7  UNL     1      25.074 -49.359 -74.300  1.00  0.00     0.210 HD
ENDBRANCH   5  26
BRANCH   4  28
HETATM   28  O6  UNL     1      25.689 -47.584 -77.069  1.00  0.00    -0.390 OA
ATOM     29  H6  UNL     1      25.850 -48.520 -77.061  1.00  0.00     0.210 HD
ENDBRANCH   4  28
TORSDOF 8
ENDMDL
MODEL 2
REMARK VINA RESULT: -6.602691457      1.402      1.735
REMARK  8 active torsions:
REMARK  status: ('A' for Active; 'I' for Inactive)
REMARK    1  A    between atoms: C2_2  and  N1_3 
REMARK    2  A    between atoms: N1_3  and  C3_4 
REMARK    3  A    between atoms: C5_6  and  O1_7 
REMARK    4  A    between atoms: C6_9  and  N2_10 
REMARK    5  A    between atoms: C11_18  and  O5_19 
REMARK    6  A    between atoms: C12_21  and  O6_22 
REMARK    7  A    between atoms: C13_24  and  O7_25 
REMARK    8  A    between atoms: C14_27  and  O8_28 
ROOT
HETATM    1  N1  UNL     1      21.975 -47.234 -74.417  1.00  0.00     0.024 N 
HETATM    2  C10 UNL     1      22.586 -47.240 -75.720  1.00  0.00     0.281 C 
HETATM    3  C11 UNL     1      23.864 -48.042 -75.793  1.00  0.00     0.176 C 
HETATM    4  C12 UNL     1      23.507 -49.471 -75.500  1.00  0.00     0.181 C 
HETATM    5  C13 UNL     1      22.793 -49.579 -74.190  1.00  0.00     0.206 C 
HETATM    6  C14 UNL     1      22.398 -48.313 -73.559  1.00  0.00     0.361 C 
ENDROOT
BRANCH   1   7
HETATM    7  C2  UNL     1      22.386 -46.027 -73.756  1.00  0.00     0.243 C 
HETATM    8  C1  UNL     1      22.845 -44.920 -74.601  1.00  0.00     0.035 C 
ENDBRANCH   1   7
BRANCH   1   9
HETATM    9  C3  UNL     1      20.553 -47.350 -74.613  1.00  0.00     0.375 C 
HETATM   10  C4  UNL     1      19.984 -46.555 -75.736  1.00  0.00     0.138 C 
HETATM   11  C5  UNL     1      18.514 -46.979 -75.890  1.00  0.00     0.152 C 
HETATM   12  C6  UNL     1      17.838 -47.107 -74.562  1.00  0.00     0.166 C 
HETATM   13  C9  UNL     1      18.749 -47.666 -73.491  1.00  0.00     0.327 C 
HETATM   14  O2  UNL     1      19.201 -48.901 -73.867  1.00  0.00    -0.201 OA
HETATM   15  O4  UNL     1      19.898 -46.912 -73.447  1.00  0.00    -0.295 OA
HETATM   16  O3  UNL     1      20.118 -48.657 -74.738  1.00  0.00    -0.166 OA
BRANCH  11  17
HETATM   17  O1  UNL     1      18.552 -48.187 -76.581  1.00  0.00    -0.393 OA
ATOM     18  H1  UNL     1      18.991 -48.795 -75.997  1.00  0.00     0.210 HD
ENDBRANCH  11  17
BRANCH  12  19
HETATM   19  N2  UNL     1      16.616 -47.781 -74.677  1.00  0.00    -0.410 N 
HETATM   20  C7  UNL     1      16.276 -48.798 -73.771  1.00  0.00     0.143 C 
HETATM   21  C8  UNL     1      15.716 -47.444 -75.706  1.00  0.00     0.143 C 
ENDBRANCH  12  19
ENDBRANCH   1   9
BRANCH   6  22
HETATM   22  O8  UNL     1      23.445 -47.905 -72.697  1.00  0.00    -0.367 OA
ATOM     23  H8  UNL     1      23.263 -48.145 -71.796  1.00  0.00     0.212 HD
ENDBRANCH   6  22
BRANCH   3  24
HETATM   24  O5  UNL     1      24.251 -48.005 -77.153  1.00  0.00    -0.391 OA
ATOM     25  H5  UNL     1      24.430 -47.090 -77.339  1.00  0.00     0.210 HD
ENDBRANCH   3  24
BRANCH   5  26
HETATM   26  O7  UNL     1      23.686 -50.253 -73.315  1.00  0.00    -0.388 OA
ATOM     27  H7  UNL     1      24.057 -49.582 -72.755  1.00  0.00     0.210 HD
ENDBRANCH   5  26
BRANCH   4  28
HETATM   28  O6  UNL     1      24.612 -50.323 -75.584  1.00  0.00    -0.390 OA
ATOM     29  H6  UNL     1      24.361 -51.227 -75.730  1.00  0.00     0.210 HD
ENDBRANCH   4  28
TORSDOF 8
ENDMDL
MODEL 3
REMARK VINA RESULT: -6.445101504      1.669      2.504
REMARK  8 active torsions:
REMARK  status: ('A' for Active; 'I' for Inactive)
REMARK    1  A    between atoms: C2_2  and  N1_3 
REMARK    2  A    between atoms: N1_3  and  C3_4 
REMARK    3  A    between atoms: C5_6  and  O1_7 
REMARK    4  A    between atoms: C6_9  and  N2_10 
REMARK    5  A    between atoms: C11_18  and  O5_19 
REMARK    6  A    between atoms: C12_21  and  O6_22 
REMARK    7  A    between atoms: C13_24  and  O7_25 
REMARK    8  A    between atoms: C14_27  and  O8_28 
ROOT
HETATM    1  N1  UNL     1      21.561 -47.224 -74.429  1.00  0.00     0.024 N 
HETATM    2  C10 UNL     1      22.019 -47.226 -75.793  1.00  0.00     0.281 C 
HETATM    3  C11 UNL     1      23.368 -47.877 -75.985  1.00  0.00     0.176 C 
HETATM    4  C12 UNL     1      23.221 -49.321 -75.600  1.00  0.00     0.181 C 
HETATM    5  C13 UNL     1      22.676 -49.445 -74.212  1.00  0.00     0.206 C 
HETATM    6  C14 UNL     1      22.204 -48.203 -73.586  1.00  0.00     0.361 C 
ENDROOT
BRANCH   1   7
HETATM    7  C2  UNL     1      21.894 -45.946 -73.865  1.00  0.00     0.243 C 
HETATM    8  C1  UNL     1      22.189 -44.855 -74.799  1.00  0.00     0.035 C 
ENDBRANCH   1   7
BRANCH   1   9
HETATM    9  C3  UNL     1      20.151 -47.514 -74.453  1.00  0.00     0.375 C 
HETATM   10  C4  UNL     1      19.680 -48.541 -73.483  1.00  0.00     0.138 C 
HETATM   11  C5  UNL     1      18.143 -48.543 -73.539  1.00  0.00     0.152 C 
HETATM   12  C6  UNL     1      17.645 -48.468 -74.947  1.00  0.00     0.166 C 
HETATM   13  C9  UNL     1      18.499 -47.581 -75.825  1.00  0.00     0.327 C 
HETATM   14  O2  UNL     1      18.532 -46.314 -75.311  1.00  0.00    -0.201 OA
HETATM   15  O4  UNL     1      19.809 -47.991 -75.732  1.00  0.00    -0.295 OA
HETATM   16  O3  UNL     1      19.354 -46.390 -74.322  1.00  0.00    -0.166 OA
BRANCH  11  17
HETATM   17  O1  UNL     1      17.748 -47.445 -72.780  1.00  0.00    -0.393 OA
ATOM     18  H1  UNL     1      17.195 -46.930 -73.355  1.00  0.00     0.210 HD
ENDBRANCH  11  17
BRANCH  12  19
HETATM   19  N2  UNL     1      16.279 -48.162 -74.986  1.00  0.00    -0.410 N 
HETATM   20  C7  UNL     1      15.825 -47.027 -75.676  1.00  0.00     0.143 C 
HETATM   21  C8  UNL     1      15.348 -48.991 -74.331  1.00  0.00     0.143 C 
ENDBRANCH  12  19
ENDBRANCH   1   9
BRANCH   6  22
HETATM   22  O8  UNL     1      23.283 -47.634 -72.868  1.00  0.00    -0.367 OA
ATOM     23  H8  UNL     1      23.428 -48.088 -72.047  1.00  0.00     0.212 HD
ENDBRANCH   6  22
BRANCH   3  24
HETATM   24  O5  UNL     1      23.595 -47.864 -77.382  1.00  0.00    -0.391 OA
ATOM     25  H5  UNL     1      22.744 -48.018 -77.776  1.00  0.00     0.210 HD
ENDBRANCH   3  24
BRANCH   5  26
HETATM   26  O7  UNL     1      23.736 -49.966 -73.424  1.00  0.00    -0.388 OA
ATOM     27  H7  UNL     1      23.332 -50.292 -72.628  1.00  0.00     0.210 HD
ENDBRANCH   5  26
BRANCH   4  28
HETATM   28  O6  UNL     1      24.405 -50.042 -75.781  1.00  0.00    -0.390 OA
ATOM     29  H6  UNL     1      25.064 -49.543 -76.247  1.00  0.00     0.210 HD
ENDBRANCH   4  28
TORSDOF 8
ENDMDL
MODEL 4
REMARK VINA RESULT: -6.415745001      1.027      1.103
REMARK  8 active torsions:
REMARK  status: ('A' for Active; 'I' for Inactive)
REMARK    1  A    between atoms: C2_2  and  N1_3 
REMARK    2  A    between atoms: N1_3  and  C3_4 
REMARK    3  A    between atoms: C5_6  and  O1_7 
REMARK    4  A    between atoms: C6_9  and  N2_10 
REMARK    5  A    between atoms: C11_18  and  O5_19 
REMARK    6  A    between atoms: C12_21  and  O6_22 
REMARK    7  A    between atoms: C13_24  and  O7_25 
REMARK    8  A    between atoms: C14_27  and  O8_28 
ROOT
HETATM    1  N1  UNL     1      22.753 -45.915 -74.119  1.00  0.00     0.024 N 
HETATM    2  C10 UNL     1      22.941 -45.321 -75.416  1.00  0.00     0.281 C 
HETATM    3  C11 UNL     1      24.266 -45.658 -76.058  1.00  0.00     0.176 C 
HETATM    4  C12 UNL     1      24.286 -47.143 -76.280  1.00  0.00     0.181 C 
HETATM    5  C13 UNL     1      24.025 -47.872 -75.000  1.00  0.00     0.206 C 
HETATM    6  C14 UNL     1      23.605 -47.050 -73.857  1.00  0.00     0.361 C 
ENDROOT
BRANCH   1   7
HETATM    7  C2  UNL     1      23.108 -44.928 -73.138  1.00  0.00     0.243 C 
HETATM    8  C1  UNL     1      23.295 -43.551 -73.607  1.00  0.00     0.035 C 
ENDBRANCH   1   7
BRANCH   1   9
HETATM    9  C3  UNL     1      21.385 -46.359 -74.048  1.00  0.00     0.375 C 
HETATM   10  C4  UNL     1      20.432 -45.427 -73.384  1.00  0.00     0.138 C 
HETATM   11  C5  UNL     1      19.020 -45.997 -73.597  1.00  0.00     0.152 C 
HETATM   12  C6  UNL     1      18.988 -47.477 -73.386  1.00  0.00     0.166 C 
HETATM   13  C9  UNL     1      20.239 -48.168 -73.882  1.00  0.00     0.327 C 
HETATM   14  O2  UNL     1      20.402 -47.927 -75.218  1.00  0.00    -0.201 OA
HETATM   15  O4  UNL     1      21.336 -47.561 -73.317  1.00  0.00    -0.295 OA
HETATM   16  O3  UNL     1      20.858 -46.723 -75.274  1.00  0.00    -0.166 OA
BRANCH  11  17
HETATM   17  O1  UNL     1      18.676 -45.643 -74.899  1.00  0.00    -0.393 OA
ATOM     18  H1  UNL     1      18.542 -46.466 -75.355  1.00  0.00     0.210 HD
ENDBRANCH  11  17
BRANCH  12  19
HETATM   19  N2  UNL     1      17.799 -48.034 -73.873  1.00  0.00    -0.410 N 
HETATM   20  C7  UNL     1      17.793 -49.324 -74.428  1.00  0.00     0.143 C 
HETATM   21  C8  UNL     1      16.598 -47.303 -73.812  1.00  0.00     0.143 C 
ENDBRANCH  12  19
ENDBRANCH   1   9
BRANCH   6  22
HETATM   22  O8  UNL     1      24.765 -46.667 -73.140  1.00  0.00    -0.367 OA
ATOM     23  H8  UNL     1      25.297 -47.422 -72.919  1.00  0.00     0.212 HD
ENDBRANCH   6  22
BRANCH   3  24
HETATM   24  O5  UNL     1      24.219 -45.068 -77.343  1.00  0.00    -0.391 OA
ATOM     25  H5  UNL     1      25.045 -44.609 -77.440  1.00  0.00     0.210 HD
ENDBRANCH   3  24
BRANCH   5  26
HETATM   26  O7  UNL     1      25.247 -48.513 -74.662  1.00  0.00    -0.388 OA
ATOM     27  H7  UNL     1      25.023 -49.415 -74.468  1.00  0.00     0.210 HD
ENDBRANCH   5  26
BRANCH   4  28
HETATM   28  O6  UNL     1      25.455 -47.569 -76.915  1.00  0.00    -0.390 OA
ATOM     29  H6  UNL     1      25.526 -48.516 -76.944  1.00  0.00     0.210 HD
ENDBRANCH   4  28
TORSDOF 8
ENDMDL
MODEL 5
REMARK VINA RESULT: -6.385563220      1.018      1.809
REMARK  8 active torsions:
REMARK  status: ('A' for Active; 'I' for Inactive)
REMARK    1  A    between atoms: C2_2  and  N1_3 
REMARK    2  A    between atoms: N1_3  and  C3_4 
REMARK    3  A    between atoms: C5_6  and  O1_7 
REMARK    4  A    between atoms: C6_9  and  N2_10 
REMARK    5  A    between atoms: C11_18  and  O5_19 
REMARK    6  A    between atoms: C12_21  and  O6_22 
REMARK    7  A    between atoms: C13_24  and  O7_25 
REMARK    8  A    between atoms: C14_27  and  O8_28 
ROOT
HETATM    1  N1  UNL     1      22.587 -45.970 -74.109  1.00  0.00     0.024 N 
HETATM    2  C10 UNL     1      22.793 -45.308 -75.370  1.00  0.00     0.281 C 
HETATM    3  C11 UNL     1      24.157 -45.547 -75.971  1.00  0.00     0.176 C 
HETATM    4  C12 UNL     1      24.263 -47.017 -76.258  1.00  0.00     0.181 C 
HETATM    5  C13 UNL     1      23.992 -47.817 -75.023  1.00  0.00     0.206 C 
HETATM    6  C14 UNL     1      23.487 -47.070 -73.863  1.00  0.00     0.361 C 
ENDROOT
BRANCH   1   7
HETATM    7  C2  UNL     1      22.852 -45.012 -73.073  1.00  0.00     0.243 C 
HETATM    8  C1  UNL     1      22.821 -43.593 -73.444  1.00  0.00     0.035 C 
ENDBRANCH   1   7
BRANCH   1   9
HETATM    9  C3  UNL     1      21.242 -46.485 -74.113  1.00  0.00     0.375 C 
HETATM   10  C4  UNL     1      21.101 -47.939 -73.826  1.00  0.00     0.138 C 
HETATM   11  C5  UNL     1      19.597 -48.227 -73.680  1.00  0.00     0.152 C 
HETATM   12  C6  UNL     1      18.801 -47.527 -74.735  1.00  0.00     0.166 C 
HETATM   13  C9  UNL     1      19.348 -46.158 -75.073  1.00  0.00     0.327 C 
HETATM   14  O2  UNL     1      19.361 -45.375 -73.952  1.00  0.00    -0.201 OA
HETATM   15  O4  UNL     1      20.682 -46.277 -75.387  1.00  0.00    -0.295 OA
HETATM   16  O3  UNL     1      20.382 -45.789 -73.283  1.00  0.00    -0.166 OA
BRANCH  11  17
HETATM   17  O1  UNL     1      19.265 -47.799 -72.398  1.00  0.00    -0.393 OA
ATOM     18  H1  UNL     1      18.496 -47.253 -72.508  1.00  0.00     0.210 HD
ENDBRANCH  11  17
BRANCH  12  19
HETATM   19  N2  UNL     1      17.435 -47.533 -74.427  1.00  0.00    -0.410 N 
HETATM   20  C7  UNL     1      16.703 -46.335 -74.418  1.00  0.00     0.143 C 
HETATM   21  C8  UNL     1      16.783 -48.743 -74.121  1.00  0.00     0.143 C 
ENDBRANCH  12  19
ENDBRANCH   1   9
BRANCH   6  22
HETATM   22  O8  UNL     1      24.596 -46.663 -73.083  1.00  0.00    -0.367 OA
ATOM     23  H8  UNL     1      24.541 -47.008 -72.200  1.00  0.00     0.212 HD
ENDBRANCH   6  22
BRANCH   3  24
HETATM   24  O5  UNL     1      24.129 -44.902 -77.231  1.00  0.00    -0.391 OA
ATOM     25  H5  UNL     1      24.236 -45.596 -77.871  1.00  0.00     0.210 HD
ENDBRANCH   3  24
BRANCH   5  26
HETATM   26  O7  UNL     1      25.233 -48.410 -74.664  1.00  0.00    -0.388 OA
ATOM     27  H7  UNL     1      25.526 -47.948 -73.887  1.00  0.00     0.210 HD
ENDBRANCH   5  26
BRANCH   4  28
HETATM   28  O6  UNL     1      25.477 -47.354 -76.863  1.00  0.00    -0.390 OA
ATOM     29  H6  UNL     1      25.531 -48.278 -77.075  1.00  0.00     0.210 HD
ENDBRANCH   4  28
TORSDOF 8
ENDMDL
