MODEL 1
REMARK VINA RESULT: -9.884965076      0.000      0.000
REMARK  11 active torsions:
REMARK  status: ('A' for Active; 'I' for Inactive)
REMARK    1  A    between atoms: C3_3  and  O1_4 
REMARK    2  A    between atoms: C3_3  and  C4_6 
REMARK    3  A    between atoms: C8_10  and  N1_11 
REMARK    4  A    between atoms: N1_11  and  C9_13 
REMARK    5  A    between atoms: C10_16  and  N3_17 
REMARK    6  A    between atoms: N3_17  and  C11_19 
REMARK    7  A    between atoms: C14_22  and  O2_23 
REMARK    8  A    between atoms: O2_23  and  C15_24 
REMARK    9  A    between atoms: C15_24  and  C16_25 
REMARK   10  A    between atoms: C16_25  and  N4_26 
REMARK   11  A    between atoms: C20_30  and  O3_31 
ROOT
HETATM    1  C1  UNL     1      22.013  37.196   1.267  1.00  0.00     0.015 C 
HETATM    2  C2  UNL     1      21.798  37.878   2.212  1.00  0.00    -0.081 C 
HETATM    3  C3  UNL     1      21.511  38.705   3.376  1.00  0.00     0.229 C 
ENDROOT
BRANCH   3   4
HETATM    4  O1  UNL     1      20.133  38.881   3.520  1.00  0.00    -0.379 OA
ATOM      5  H1  UNL     1      19.895  39.785   3.350  1.00  0.00     0.211 HD
ENDBRANCH   3   4
BRANCH   3   6
HETATM    6  C4  UNL     1      22.111  40.063   3.266  1.00  0.00    -0.016 A 
HETATM    7  C5  UNL     1      23.123  40.452   4.125  1.00  0.00     0.011 A 
HETATM    8  C6  UNL     1      23.700  41.697   4.049  1.00  0.00     0.003 A 
HETATM    9  C7  UNL     1      23.259  42.579   3.095  1.00  0.00     0.030 A 
HETATM   10  C8  UNL     1      22.247  42.224   2.217  1.00  0.00     0.049 A 
HETATM   11  C26 UNL     1      21.682  40.964   2.313  1.00  0.00     0.040 A 
BRANCH  10  12
HETATM   12  N1  UNL     1      21.835  43.167   1.259  1.00  0.00    -0.192 N 
ATOM     13  H1  UNL     1      21.140  42.880   0.570  1.00  0.00     0.184 HD
BRANCH  12  14
HETATM   14  C9  UNL     1      22.287  44.378   1.201  1.00  0.00     0.685 A 
HETATM   15  N2  UNL     1      23.251  44.644   0.302  1.00  0.00    -0.175 N 
HETATM   16  C10 UNL     1      23.764  45.881   0.190  1.00  0.00     0.137 A 
ATOM     17  H2  UNL     1      23.597  43.898  -0.302  1.00  0.00     0.186 HD
HETATM   18  C22 UNL     1      23.322  46.910   0.986  1.00  0.00     0.071 A 
HETATM   19  C23 UNL     1      23.605  48.249   1.143  1.00  0.00     0.126 A 
HETATM   20  C25 UNL     1      22.318  46.626   1.918  1.00  0.00     0.152 A 
HETATM   21  N5  UNL     1      22.814  48.728   2.112  1.00  0.00    -0.307 N 
HETATM   22  N6  UNL     1      22.036  47.771   2.590  1.00  0.00    -0.280 N 
ATOM     23  H5  UNL     1      22.811  49.695   2.436  1.00  0.00     0.186 HD
HETATM   24  C24 UNL     1      21.055  47.927   3.646  1.00  0.00     0.179 C 
HETATM   25  N7  UNL     1      21.845  45.371   1.985  1.00  0.00    -0.174 N 
ATOM     26  H7  UNL     1      21.114  45.165   2.666  1.00  0.00     0.186 HD
BRANCH  16  27
HETATM   27  N3  UNL     1      24.689  46.149  -0.668  1.00  0.00    -0.339 N 
ATOM     28  H3  UNL     1      25.655  45.983  -0.389  1.00  0.00     0.167 HD
BRANCH  27  29
HETATM   29  C11 UNL     1      24.460  46.655  -1.963  1.00  0.00     0.067 A 
HETATM   30  C12 UNL     1      24.475  47.987  -2.309  1.00  0.00     0.035 A 
HETATM   31  C13 UNL     1      24.245  48.420  -3.587  1.00  0.00     0.039 A 
HETATM   32  C14 UNL     1      23.979  47.520  -4.627  1.00  0.00     0.071 A 
HETATM   33  C19 UNL     1      23.967  46.204  -4.268  1.00  0.00     0.075 A 
HETATM   34  C20 UNL     1      24.196  45.738  -2.982  1.00  0.00     0.097 A 
BRANCH  32  35
HETATM   35  O2  UNL     1      23.750  47.988  -5.894  1.00  0.00    -0.349 OA
BRANCH  35  36
HETATM   36  C15 UNL     1      23.934  49.281  -6.335  1.00  0.00     0.206 C 
BRANCH  36  37
HETATM   37  C16 UNL     1      22.707  50.095  -6.585  1.00  0.00     0.297 C 
BRANCH  37  38
HETATM   38  N4  UNL     1      22.701  51.328  -5.815  1.00  0.00     0.082 N 
HETATM   39  C17 UNL     1      24.106  51.622  -5.507  1.00  0.00     0.309 C 
HETATM   40  C18 UNL     1      21.968  51.176  -4.575  1.00  0.00     0.309 C 
ENDBRANCH  37  38
ENDBRANCH  36  37
ENDBRANCH  35  36
ENDBRANCH  32  35
BRANCH  34  41
HETATM   41  O3  UNL     1      24.165  44.374  -2.707  1.00  0.00    -0.354 OA
HETATM   42  C21 UNL     1      24.416  43.475  -3.765  1.00  0.00     0.210 C 
ENDBRANCH  34  41
ENDBRANCH  27  29
ENDBRANCH  16  27
ENDBRANCH  12  14
ENDBRANCH  10  12
ENDBRANCH   3   6
TORSDOF 11
ENDMDL
MODEL 2
REMARK VINA RESULT: -9.663832815      3.096      6.822
REMARK  11 active torsions:
REMARK  status: ('A' for Active; 'I' for Inactive)
REMARK    1  A    between atoms: C3_3  and  O1_4 
REMARK    2  A    between atoms: C3_3  and  C4_6 
REMARK    3  A    between atoms: C8_10  and  N1_11 
REMARK    4  A    between atoms: N1_11  and  C9_13 
REMARK    5  A    between atoms: C10_16  and  N3_17 
REMARK    6  A    between atoms: N3_17  and  C11_19 
REMARK    7  A    between atoms: C14_22  and  O2_23 
REMARK    8  A    between atoms: O2_23  and  C15_24 
REMARK    9  A    between atoms: C15_24  and  C16_25 
REMARK   10  A    between atoms: C16_25  and  N4_26 
REMARK   11  A    between atoms: C20_30  and  O3_31 
ROOT
HETATM    1  C1  UNL     1      22.020  37.078   1.261  1.00  0.00     0.015 C 
HETATM    2  C2  UNL     1      21.944  37.832   2.172  1.00  0.00    -0.081 C 
HETATM    3  C3  UNL     1      21.830  38.748   3.300  1.00  0.00     0.229 C 
ENDROOT
BRANCH   3   4
HETATM    4  O1  UNL     1      20.504  38.820   3.735  1.00  0.00    -0.379 OA
ATOM      5  H1  UNL     1      20.235  39.726   3.823  1.00  0.00     0.211 HD
ENDBRANCH   3   4
BRANCH   3   6
HETATM    6  C4  UNL     1      22.247  40.133   2.948  1.00  0.00    -0.016 A 
HETATM    7  C5  UNL     1      23.129  40.825   3.758  1.00  0.00     0.011 A 
HETATM    8  C6  UNL     1      23.535  42.104   3.461  1.00  0.00     0.003 A 
HETATM    9  C7  UNL     1      23.051  42.711   2.330  1.00  0.00     0.030 A 
HETATM   10  C8  UNL     1      22.165  42.048   1.495  1.00  0.00     0.049 A 
HETATM   11  C26 UNL     1      21.771  40.760   1.815  1.00  0.00     0.040 A 
BRANCH  10  12
HETATM   12  N1  UNL     1      21.701  42.719   0.349  1.00  0.00    -0.192 N 
ATOM     13  H1  UNL     1      20.740  42.552   0.051  1.00  0.00     0.184 HD
BRANCH  12  14
HETATM   14  C9  UNL     1      22.423  43.535  -0.349  1.00  0.00     0.685 A 
HETATM   15  N2  UNL     1      22.632  44.767   0.149  1.00  0.00    -0.175 N 
HETATM   16  C10 UNL     1      23.374  45.663  -0.525  1.00  0.00     0.137 A 
ATOM     17  H2  UNL     1      22.223  45.025   1.047  1.00  0.00     0.186 HD
HETATM   18  C22 UNL     1      23.940  45.350  -1.738  1.00  0.00     0.071 A 
HETATM   19  C23 UNL     1      24.727  45.989  -2.671  1.00  0.00     0.126 A 
HETATM   20  C25 UNL     1      23.719  44.067  -2.247  1.00  0.00     0.152 A 
HETATM   21  N5  UNL     1      24.956  45.131  -3.674  1.00  0.00    -0.307 N 
HETATM   22  N6  UNL     1      24.361  43.974  -3.440  1.00  0.00    -0.280 N 
ATOM     23  H5  UNL     1      25.513  45.341  -4.502  1.00  0.00     0.186 HD
HETATM   24  C24 UNL     1      24.394  42.815  -4.309  1.00  0.00     0.179 C 
HETATM   25  N7  UNL     1      22.969  43.214  -1.530  1.00  0.00    -0.174 N 
ATOM     26  H7  UNL     1      22.807  42.279  -1.903  1.00  0.00     0.186 HD
BRANCH  16  27
HETATM   27  N3  UNL     1      23.582  46.847  -0.061  1.00  0.00    -0.339 N 
ATOM     28  H3  UNL     1      24.083  47.508  -0.655  1.00  0.00     0.167 HD
BRANCH  27  29
HETATM   29  C11 UNL     1      23.167  47.296   1.209  1.00  0.00     0.067 A 
HETATM   30  C12 UNL     1      21.936  47.839   1.496  1.00  0.00     0.035 A 
HETATM   31  C13 UNL     1      21.588  48.258   2.752  1.00  0.00     0.039 A 
HETATM   32  C14 UNL     1      22.478  48.154   3.830  1.00  0.00     0.071 A 
HETATM   33  C19 UNL     1      23.694  47.613   3.529  1.00  0.00     0.075 A 
HETATM   34  C20 UNL     1      24.072  47.182   2.267  1.00  0.00     0.097 A 
BRANCH  32  35
HETATM   35  O2  UNL     1      22.098  48.586   5.073  1.00  0.00    -0.349 OA
BRANCH  35  36
HETATM   36  C15 UNL     1      20.904  48.315   5.705  1.00  0.00     0.206 C 
BRANCH  36  37
HETATM   37  C16 UNL     1      20.628  46.889   6.053  1.00  0.00     0.297 C 
BRANCH  37  38
HETATM   38  N4  UNL     1      20.276  46.725   7.454  1.00  0.00     0.082 N 
HETATM   39  C17 UNL     1      20.847  47.882   8.156  1.00  0.00     0.309 C 
HETATM   40  C18 UNL     1      20.844  45.511   8.005  1.00  0.00     0.309 C 
ENDBRANCH  37  38
ENDBRANCH  36  37
ENDBRANCH  35  36
ENDBRANCH  32  35
BRANCH  34  41
HETATM   41  O3  UNL     1      25.336  46.641   2.053  1.00  0.00    -0.354 OA
HETATM   42  C21 UNL     1      25.665  45.436   2.707  1.00  0.00     0.210 C 
ENDBRANCH  34  41
ENDBRANCH  27  29
ENDBRANCH  16  27
ENDBRANCH  12  14
ENDBRANCH  10  12
ENDBRANCH   3   6
TORSDOF 11
ENDMDL
MODEL 3
REMARK VINA RESULT: -9.609935073      3.284      7.685
REMARK  11 active torsions:
REMARK  status: ('A' for Active; 'I' for Inactive)
REMARK    1  A    between atoms: C3_3  and  O1_4 
REMARK    2  A    between atoms: C3_3  and  C4_6 
REMARK    3  A    between atoms: C8_10  and  N1_11 
REMARK    4  A    between atoms: N1_11  and  C9_13 
REMARK    5  A    between atoms: C10_16  and  N3_17 
REMARK    6  A    between atoms: N3_17  and  C11_19 
REMARK    7  A    between atoms: C14_22  and  O2_23 
REMARK    8  A    between atoms: O2_23  and  C15_24 
REMARK    9  A    between atoms: C15_24  and  C16_25 
REMARK   10  A    between atoms: C16_25  and  N4_26 
REMARK   11  A    between atoms: C20_30  and  O3_31 
ROOT
HETATM    1  C1  UNL     1      24.249  48.130  -0.932  1.00  0.00     0.015 C 
HETATM    2  C2  UNL     1      24.355  47.424  -1.878  1.00  0.00    -0.081 C 
HETATM    3  C3  UNL     1      24.477  46.574  -3.056  1.00  0.00     0.229 C 
ENDROOT
BRANCH   3   4
HETATM    4  O1  UNL     1      23.617  47.015  -4.064  1.00  0.00    -0.379 OA
ATOM      5  H1  UNL     1      22.822  47.373  -3.687  1.00  0.00     0.211 HD
ENDBRANCH   3   4
BRANCH   3   6
HETATM    6  C4  UNL     1      24.119  45.158  -2.769  1.00  0.00    -0.016 A 
HETATM    7  C5  UNL     1      24.707  44.130  -3.486  1.00  0.00     0.011 A 
HETATM    8  C6  UNL     1      24.399  42.812  -3.246  1.00  0.00     0.003 A 
HETATM    9  C7  UNL     1      23.484  42.507  -2.269  1.00  0.00     0.030 A 
HETATM   10  C8  UNL     1      22.876  43.511  -1.532  1.00  0.00     0.049 A 
HETATM   11  C26 UNL     1      23.202  44.831  -1.792  1.00  0.00     0.040 A 
BRANCH  10  12
HETATM   12  N1  UNL     1      21.947  43.141  -0.544  1.00  0.00    -0.192 N 
ATOM     13  H1  UNL     1      20.957  43.302  -0.732  1.00  0.00     0.184 HD
BRANCH  12  14
HETATM   14  C9  UNL     1      22.275  42.609   0.589  1.00  0.00     0.685 A 
HETATM   15  N2  UNL     1      23.039  43.337   1.424  1.00  0.00    -0.175 N 
HETATM   16  C10 UNL     1      23.415  42.844   2.616  1.00  0.00     0.137 A 
ATOM     17  H2  UNL     1      23.336  44.273   1.149  1.00  0.00     0.186 HD
HETATM   18  C22 UNL     1      23.032  41.587   3.020  1.00  0.00     0.071 A 
HETATM   19  C23 UNL     1      23.221  40.789   4.126  1.00  0.00     0.126 A 
HETATM   20  C25 UNL     1      22.237  40.838   2.146  1.00  0.00     0.152 A 
HETATM   21  N5  UNL     1      22.575  39.634   3.918  1.00  0.00    -0.307 N 
HETATM   22  N6  UNL     1      21.979  39.643   2.738  1.00  0.00    -0.280 N 
ATOM     23  H5  UNL     1      22.546  38.857   4.578  1.00  0.00     0.186 HD
HETATM   24  C24 UNL     1      21.190  38.562   2.180  1.00  0.00     0.179 C 
HETATM   25  N7  UNL     1      21.893  41.382   0.968  1.00  0.00    -0.174 N 
ATOM     26  H7  UNL     1      21.314  40.834   0.331  1.00  0.00     0.186 HD
BRANCH  16  27
HETATM   27  N3  UNL     1      24.146  43.530   3.426  1.00  0.00    -0.339 N 
ATOM     28  H3  UNL     1      24.344  43.128   4.342  1.00  0.00     0.167 HD
BRANCH  27  29
HETATM   29  C11 UNL     1      24.693  44.796   3.136  1.00  0.00     0.067 A 
HETATM   30  C12 UNL     1      26.006  45.035   2.800  1.00  0.00     0.035 A 
HETATM   31  C13 UNL     1      26.481  46.290   2.528  1.00  0.00     0.039 A 
HETATM   32  C14 UNL     1      25.647  47.415   2.577  1.00  0.00     0.071 A 
HETATM   33  C19 UNL     1      24.349  47.160   2.913  1.00  0.00     0.075 A 
HETATM   34  C20 UNL     1      23.842  45.901   3.193  1.00  0.00     0.097 A 
BRANCH  32  35
HETATM   35  O2  UNL     1      26.157  48.656   2.303  1.00  0.00    -0.349 OA
BRANCH  35  36
HETATM   36  C15 UNL     1      27.105  48.960   1.351  1.00  0.00     0.206 C 
BRANCH  36  37
HETATM   37  C16 UNL     1      28.319  49.698   1.813  1.00  0.00     0.297 C 
BRANCH  37  38
HETATM   38  N4  UNL     1      29.514  48.870   1.769  1.00  0.00     0.082 N 
HETATM   39  C17 UNL     1      29.323  47.939   0.649  1.00  0.00     0.309 C 
HETATM   40  C18 UNL     1      29.676  48.110   2.992  1.00  0.00     0.309 C 
ENDBRANCH  37  38
ENDBRANCH  36  37
ENDBRANCH  35  36
ENDBRANCH  32  35
BRANCH  34  41
HETATM   41  O3  UNL     1      22.500  45.736   3.527  1.00  0.00    -0.354 OA
HETATM   42  C21 UNL     1      21.533  46.398   2.743  1.00  0.00     0.210 C 
ENDBRANCH  34  41
ENDBRANCH  27  29
ENDBRANCH  16  27
ENDBRANCH  12  14
ENDBRANCH  10  12
ENDBRANCH   3   6
TORSDOF 11
ENDMDL
MODEL 4
REMARK VINA RESULT: -9.438386924      2.843      7.308
REMARK  11 active torsions:
REMARK  status: ('A' for Active; 'I' for Inactive)
REMARK    1  A    between atoms: C3_3  and  O1_4 
REMARK    2  A    between atoms: C3_3  and  C4_6 
REMARK    3  A    between atoms: C8_10  and  N1_11 
REMARK    4  A    between atoms: N1_11  and  C9_13 
REMARK    5  A    between atoms: C10_16  and  N3_17 
REMARK    6  A    between atoms: N3_17  and  C11_19 
REMARK    7  A    between atoms: C14_22  and  O2_23 
REMARK    8  A    between atoms: O2_23  and  C15_24 
REMARK    9  A    between atoms: C15_24  and  C16_25 
REMARK   10  A    between atoms: C16_25  and  N4_26 
REMARK   11  A    between atoms: C20_30  and  O3_31 
ROOT
HETATM    1  C1  UNL     1      24.252  48.264  -3.822  1.00  0.00     0.015 C 
HETATM    2  C2  UNL     1      24.215  47.650  -2.809  1.00  0.00    -0.081 C 
HETATM    3  C3  UNL     1      24.189  46.910  -1.554  1.00  0.00     0.229 C 
ENDROOT
BRANCH   3   4
HETATM    4  O1  UNL     1      25.412  47.031  -0.892  1.00  0.00    -0.379 OA
ATOM      5  H1  UNL     1      25.547  46.293  -0.310  1.00  0.00     0.211 HD
ENDBRANCH   3   4
BRANCH   3   6
HETATM    6  C4  UNL     1      23.950  45.455  -1.762  1.00  0.00    -0.016 A 
HETATM    7  C5  UNL     1      24.608  44.776  -2.773  1.00  0.00     0.011 A 
HETATM    8  C6  UNL     1      24.412  43.434  -2.991  1.00  0.00     0.003 A 
HETATM    9  C7  UNL     1      23.538  42.748  -2.185  1.00  0.00     0.030 A 
HETATM   10  C8  UNL     1      22.862  43.395  -1.163  1.00  0.00     0.049 A 
HETATM   11  C26 UNL     1      23.076  44.748  -0.962  1.00  0.00     0.040 A 
BRANCH  10  12
HETATM   12  N1  UNL     1      21.979  42.643  -0.368  1.00  0.00    -0.192 N 
ATOM     13  H1  UNL     1      21.041  42.467  -0.727  1.00  0.00     0.184 HD
BRANCH  12  14
HETATM   14  C9  UNL     1      22.288  42.163   0.793  1.00  0.00     0.685 A 
HETATM   15  N2  UNL     1      23.010  42.941   1.619  1.00  0.00    -0.175 N 
HETATM   16  C10 UNL     1      23.365  42.503   2.840  1.00  0.00     0.137 A 
ATOM     17  H2  UNL     1      23.292  43.873   1.317  1.00  0.00     0.186 HD
HETATM   18  C22 UNL     1      23.002  41.253   3.281  1.00  0.00     0.071 A 
HETATM   19  C23 UNL     1      23.180  40.502   4.422  1.00  0.00     0.126 A 
HETATM   20  C25 UNL     1      22.251  40.451   2.415  1.00  0.00     0.152 A 
HETATM   21  N5  UNL     1      22.569  39.324   4.240  1.00  0.00    -0.307 N 
HETATM   22  N6  UNL     1      22.007  39.273   3.045  1.00  0.00    -0.280 N 
ATOM     23  H5  UNL     1      22.541  38.571   4.928  1.00  0.00     0.186 HD
HETATM   24  C24 UNL     1      21.261  38.151   2.508  1.00  0.00     0.179 C 
HETATM   25  N7  UNL     1      21.927  40.941   1.208  1.00  0.00    -0.174 N 
ATOM     26  H7  UNL     1      21.380  40.355   0.577  1.00  0.00     0.186 HD
BRANCH  16  27
HETATM   27  N3  UNL     1      24.056  43.238   3.642  1.00  0.00    -0.339 N 
ATOM     28  H3  UNL     1      24.257  42.866   4.570  1.00  0.00     0.167 HD
BRANCH  27  29
HETATM   29  C11 UNL     1      24.554  44.519   3.329  1.00  0.00     0.067 A 
HETATM   30  C12 UNL     1      25.861  44.805   3.010  1.00  0.00     0.035 A 
HETATM   31  C13 UNL     1      26.288  46.072   2.714  1.00  0.00     0.039 A 
HETATM   32  C14 UNL     1      25.406  47.161   2.719  1.00  0.00     0.071 A 
HETATM   33  C19 UNL     1      24.114  46.859   3.039  1.00  0.00     0.075 A 
HETATM   34  C20 UNL     1      23.655  45.587   3.342  1.00  0.00     0.097 A 
BRANCH  32  35
HETATM   35  O2  UNL     1      25.867  48.415   2.422  1.00  0.00    -0.349 OA
BRANCH  35  36
HETATM   36  C15 UNL     1      25.118  49.571   2.364  1.00  0.00     0.206 C 
BRANCH  36  37
HETATM   37  C16 UNL     1      24.460  49.890   1.062  1.00  0.00     0.297 C 
BRANCH  37  38
HETATM   38  N4  UNL     1      25.399  50.431   0.092  1.00  0.00     0.082 N 
HETATM   39  C17 UNL     1      26.068  51.557   0.756  1.00  0.00     0.309 C 
HETATM   40  C18 UNL     1      24.718  50.917  -1.091  1.00  0.00     0.309 C 
ENDBRANCH  37  38
ENDBRANCH  36  37
ENDBRANCH  35  36
ENDBRANCH  32  35
BRANCH  34  41
HETATM   41  O3  UNL     1      22.316  45.373   3.656  1.00  0.00    -0.354 OA
HETATM   42  C21 UNL     1      21.336  45.921   2.803  1.00  0.00     0.210 C 
ENDBRANCH  34  41
ENDBRANCH  27  29
ENDBRANCH  16  27
ENDBRANCH  12  14
ENDBRANCH  10  12
ENDBRANCH   3   6
TORSDOF 11
ENDMDL
MODEL 5
REMARK VINA RESULT: -9.405240773      3.276      8.648
REMARK  11 active torsions:
REMARK  status: ('A' for Active; 'I' for Inactive)
REMARK    1  A    between atoms: C3_3  and  O1_4 
REMARK    2  A    between atoms: C3_3  and  C4_6 
REMARK    3  A    between atoms: C8_10  and  N1_11 
REMARK    4  A    between atoms: N1_11  and  C9_13 
REMARK    5  A    between atoms: C10_16  and  N3_17 
REMARK    6  A    between atoms: N3_17  and  C11_19 
REMARK    7  A    between atoms: C14_22  and  O2_23 
REMARK    8  A    between atoms: O2_23  and  C15_24 
REMARK    9  A    between atoms: C15_24  and  C16_25 
REMARK   10  A    between atoms: C16_25  and  N4_26 
REMARK   11  A    between atoms: C20_30  and  O3_31 
ROOT
HETATM    1  C1  UNL     1      24.255  48.138  -0.799  1.00  0.00     0.015 C 
HETATM    2  C2  UNL     1      24.362  47.546  -1.821  1.00  0.00    -0.081 C 
HETATM    3  C3  UNL     1      24.484  46.838  -3.088  1.00  0.00     0.229 C 
ENDROOT
BRANCH   3   4
HETATM    4  O1  UNL     1      23.586  47.357  -4.023  1.00  0.00    -0.379 OA
ATOM      5  H1  UNL     1      23.920  47.238  -4.904  1.00  0.00     0.211 HD
ENDBRANCH   3   4
BRANCH   3   6
HETATM    6  C4  UNL     1      24.181  45.386  -2.956  1.00  0.00    -0.016 A 
HETATM    7  C5  UNL     1      24.875  44.456  -3.708  1.00  0.00     0.011 A 
HETATM    8  C6  UNL     1      24.621  43.109  -3.609  1.00  0.00     0.003 A 
HETATM    9  C7  UNL     1      23.651  42.675  -2.740  1.00  0.00     0.030 A 
HETATM   10  C8  UNL     1      22.936  43.579  -1.970  1.00  0.00     0.049 A 
HETATM   11  C26 UNL     1      23.210  44.931  -2.087  1.00  0.00     0.040 A 
BRANCH  10  12
HETATM   12  N1  UNL     1      21.954  43.079  -1.097  1.00  0.00    -0.192 N 
ATOM     13  H1  UNL     1      20.990  43.043  -1.428  1.00  0.00     0.184 HD
BRANCH  12  14
HETATM   14  C9  UNL     1      22.203  42.663   0.103  1.00  0.00     0.685 A 
HETATM   15  N2  UNL     1      22.715  43.547   0.978  1.00  0.00    -0.175 N 
HETATM   16  C10 UNL     1      22.997  43.180   2.240  1.00  0.00     0.137 A 
ATOM     17  H2  UNL     1      22.892  44.507   0.680  1.00  0.00     0.186 HD
HETATM   18  C22 UNL     1      22.771  41.896   2.675  1.00  0.00     0.071 A 
HETATM   19  C23 UNL     1      22.932  41.193   3.849  1.00  0.00     0.126 A 
HETATM   20  C25 UNL     1      22.237  40.983   1.759  1.00  0.00     0.152 A 
HETATM   21  N5  UNL     1      22.517  39.937   3.637  1.00  0.00    -0.307 N 
HETATM   22  N6  UNL     1      22.098  39.790   2.392  1.00  0.00    -0.280 N 
ATOM     23  H5  UNL     1      22.523  39.196   4.339  1.00  0.00     0.186 HD
HETATM   24  C24 UNL     1      21.580  38.567   1.811  1.00  0.00     0.179 C 
HETATM   25  N7  UNL     1      21.977  41.407   0.512  1.00  0.00    -0.174 N 
ATOM     26  H7  UNL     1      21.590  40.740  -0.156  1.00  0.00     0.186 HD
BRANCH  16  27
HETATM   27  N3  UNL     1      23.488  44.017   3.089  1.00  0.00    -0.339 N 
ATOM     28  H3  UNL     1      24.381  43.783   3.521  1.00  0.00     0.167 HD
BRANCH  27  29
HETATM   29  C11 UNL     1      22.878  45.231   3.463  1.00  0.00     0.067 A 
HETATM   30  C12 UNL     1      21.720  45.345   4.196  1.00  0.00     0.035 A 
HETATM   31  C13 UNL     1      21.174  46.556   4.530  1.00  0.00     0.039 A 
HETATM   32  C14 UNL     1      21.773  47.761   4.140  1.00  0.00     0.071 A 
HETATM   33  C19 UNL     1      22.921  47.630   3.413  1.00  0.00     0.075 A 
HETATM   34  C20 UNL     1      23.494  46.418   3.061  1.00  0.00     0.097 A 
BRANCH  32  35
HETATM   35  O2  UNL     1      21.198  48.954   4.488  1.00  0.00    -0.349 OA
BRANCH  35  36
HETATM   36  C15 UNL     1      20.629  49.265   5.705  1.00  0.00     0.206 C 
BRANCH  36  37
HETATM   37  C16 UNL     1      21.514  49.905   6.724  1.00  0.00     0.297 C 
BRANCH  37  38
HETATM   38  N4  UNL     1      21.946  48.962   7.744  1.00  0.00     0.082 N 
HETATM   39  C17 UNL     1      20.792  48.094   8.010  1.00  0.00     0.309 C 
HETATM   40  C18 UNL     1      22.319  49.640   8.968  1.00  0.00     0.309 C 
ENDBRANCH  37  38
ENDBRANCH  36  37
ENDBRANCH  35  36
ENDBRANCH  32  35
BRANCH  34  41
HETATM   41  O3  UNL     1      24.671  46.381   2.317  1.00  0.00    -0.354 OA
HETATM   42  C21 UNL     1      25.793  47.077   2.810  1.00  0.00     0.210 C 
ENDBRANCH  34  41
ENDBRANCH  27  29
ENDBRANCH  16  27
ENDBRANCH  12  14
ENDBRANCH  10  12
ENDBRANCH   3   6
TORSDOF 11
ENDMDL
