MODEL 1
REMARK VINA RESULT: -7.639448228      0.000      0.000
REMARK  13 active torsions:
REMARK  status: ('A' for Active; 'I' for Inactive)
REMARK    1  A    between atoms: C2_2  and  O1_3 
REMARK    2  A    between atoms: O1_3  and  C3_4 
REMARK    3  A    between atoms: C3_4  and  C4_6 
REMARK    4  A    between atoms: C4_6  and  O3_7 
REMARK    5  A    between atoms: O3_7  and  C5_8 
REMARK    6  A    between atoms: C5_8  and  O4_9 
REMARK    7  A    between atoms: C5_8  and  C7_13 
REMARK    8  A    between atoms: O4_9  and  C6_10 
REMARK    9  A    between atoms: C6_10  and  O5_11 
REMARK   10  A    between atoms: C18_25  and  O7_26 
REMARK   11  A    between atoms: C23_33  and  C24_34 
REMARK   12  A    between atoms: C24_34  and  C25_35 
REMARK   13  A    between atoms: C25_35  and  O9_36 
ROOT
HETATM    1  C7  UNL     1      23.602  44.787   1.556  1.00  0.00     0.120 C 
HETATM    2  C8  UNL     1      23.055  46.103   1.884  1.00  0.00     0.122 C 
HETATM    3  C9  UNL     1      21.825  45.974   2.655  1.00  0.00     0.017 C 
HETATM    4  C10 UNL     1      21.362  46.640   3.695  1.00  0.00    -0.085 C 
HETATM    5  C11 UNL     1      20.039  46.152   4.162  1.00  0.00     0.043 C 
HETATM    6  C12 UNL     1      21.909  47.760   4.448  1.00  0.00     0.034 C 
HETATM    7  C13 UNL     1      22.757  48.728   3.718  1.00  0.00     0.015 C 
HETATM    8  C14 UNL     1      23.378  48.321   2.451  1.00  0.00     0.057 C 
HETATM    9  C15 UNL     1      22.587  48.214   1.217  1.00  0.00     0.062 C 
HETATM   10  C16 UNL     1      23.271  49.066   0.126  1.00  0.00     0.046 C 
HETATM   11  C17 UNL     1      21.176  48.744   1.243  1.00  0.00     0.046 C 
HETATM   12  O6  UNL     1      22.687  46.900   0.781  1.00  0.00    -0.362 OA
HETATM   13  C18 UNL     1      24.107  46.980   2.495  1.00  0.00     0.100 C 
HETATM   14  C19 UNL     1      25.381  47.050   1.794  1.00  0.00     0.045 C 
HETATM   15  C20 UNL     1      25.890  46.024   0.890  1.00  0.00     0.044 C 
HETATM   16  C21 UNL     1      25.015  45.546  -0.238  1.00  0.00     0.090 A 
HETATM   17  C22 UNL     1      25.388  46.029  -1.636  1.00  0.00     0.049 C 
HETATM   18  O8  UNL     1      25.083  44.035  -0.304  1.00  0.00    -0.363 OA
HETATM   19  C23 UNL     1      23.907  44.658   0.070  1.00  0.00     0.106 A 
ENDROOT
BRANCH   1  20
HETATM   20  C5  UNL     1      23.174  43.552   2.265  1.00  0.00     0.273 C 
BRANCH  20  21
HETATM   21  O3  UNL     1      23.040  42.559   1.319  1.00  0.00    -0.351 OA
BRANCH  21  22
HETATM   22  C4  UNL     1      22.026  41.758   1.164  1.00  0.00     0.282 C 
BRANCH  22  23
HETATM   23  C3  UNL     1      21.877  40.584   2.036  1.00  0.00     0.282 C 
HETATM   24  O2  UNL     1      22.343  40.454   3.184  1.00  0.00    -0.263 OA
BRANCH  23  25
HETATM   25  O1  UNL     1      21.145  39.460   1.583  1.00  0.00    -0.320 OA
BRANCH  25  26
HETATM   26  C2  UNL     1      21.287  38.223   2.233  1.00  0.00     0.174 C 
HETATM   27  C1  UNL     1      22.142  37.340   1.334  1.00  0.00     0.034 C 
ENDBRANCH  25  26
ENDBRANCH  23  25
ENDBRANCH  22  23
ENDBRANCH  21  22
ENDBRANCH  20  21
BRANCH  20  28
HETATM   28  O4  UNL     1      24.394  43.083   2.929  1.00  0.00    -0.337 OA
BRANCH  28  29
HETATM   29  C6  UNL     1      24.331  43.009   4.262  1.00  0.00     0.337 C 
BRANCH  29  30
HETATM   30  O5  UNL     1      24.216  44.197   4.982  1.00  0.00    -0.377 OA
ATOM     31  H5  UNL     1      23.440  44.324   5.516  1.00  0.00     0.212 HD
ENDBRANCH  29  30
ENDBRANCH  28  29
ENDBRANCH  20  28
ENDBRANCH   1  20
BRANCH  19  32
HETATM   32  C24 UNL     1      22.763  44.484  -0.843  1.00  0.00     0.068 C 
BRANCH  32  33
HETATM   33  C25 UNL     1      22.893  43.593  -2.026  1.00  0.00     0.167 C 
BRANCH  33  34
HETATM   34  O9  UNL     1      23.534  42.384  -1.773  1.00  0.00    -0.401 OA
ATOM     35  H9  UNL     1      23.036  41.613  -2.019  1.00  0.00     0.209 HD
ENDBRANCH  33  34
ENDBRANCH  32  33
ENDBRANCH  19  32
BRANCH  13  36
HETATM   36  O7  UNL     1      24.228  46.661   3.841  1.00  0.00    -0.386 OA
ATOM     37  H7  UNL     1      24.165  47.460   4.352  1.00  0.00     0.210 HD
ENDBRANCH  13  36
TORSDOF 13
ENDMDL
MODEL 2
REMARK VINA RESULT: -7.434467979      2.570      6.102
REMARK  13 active torsions:
REMARK  status: ('A' for Active; 'I' for Inactive)
REMARK    1  A    between atoms: C2_2  and  O1_3 
REMARK    2  A    between atoms: O1_3  and  C3_4 
REMARK    3  A    between atoms: C3_4  and  C4_6 
REMARK    4  A    between atoms: C4_6  and  O3_7 
REMARK    5  A    between atoms: O3_7  and  C5_8 
REMARK    6  A    between atoms: C5_8  and  O4_9 
REMARK    7  A    between atoms: C5_8  and  C7_13 
REMARK    8  A    between atoms: O4_9  and  C6_10 
REMARK    9  A    between atoms: C6_10  and  O5_11 
REMARK   10  A    between atoms: C18_25  and  O7_26 
REMARK   11  A    between atoms: C23_33  and  C24_34 
REMARK   12  A    between atoms: C24_34  and  C25_35 
REMARK   13  A    between atoms: C25_35  and  O9_36 
ROOT
HETATM    1  C7  UNL     1      23.423  46.657   2.654  1.00  0.00     0.120 C 
HETATM    2  C8  UNL     1      23.882  46.478   1.277  1.00  0.00     0.122 C 
HETATM    3  C9  UNL     1      23.519  47.628   0.458  1.00  0.00     0.017 C 
HETATM    4  C10 UNL     1      24.175  48.287  -0.477  1.00  0.00    -0.085 C 
HETATM    5  C11 UNL     1      23.399  49.415  -1.052  1.00  0.00     0.043 C 
HETATM    6  C12 UNL     1      25.504  48.098  -1.042  1.00  0.00     0.034 C 
HETATM    7  C13 UNL     1      26.035  46.718  -1.100  1.00  0.00     0.015 C 
HETATM    8  C14 UNL     1      25.457  45.692  -0.222  1.00  0.00     0.057 C 
HETATM    9  C15 UNL     1      24.139  45.106  -0.503  1.00  0.00     0.062 C 
HETATM   10  C16 UNL     1      24.288  43.570  -0.537  1.00  0.00     0.046 C 
HETATM   11  C17 UNL     1      23.500  45.426  -1.831  1.00  0.00     0.046 C 
HETATM   12  O6  UNL     1      23.329  45.378   0.591  1.00  0.00    -0.362 OA
HETATM   13  C18 UNL     1      25.333  46.099   1.244  1.00  0.00     0.100 C 
HETATM   14  C19 UNL     1      25.741  45.016   2.128  1.00  0.00     0.045 C 
HETATM   15  C20 UNL     1      25.033  44.620   3.340  1.00  0.00     0.044 C 
HETATM   16  C21 UNL     1      23.558  44.333   3.265  1.00  0.00     0.090 A 
HETATM   17  C22 UNL     1      23.149  42.865   3.339  1.00  0.00     0.049 C 
HETATM   18  O8  UNL     1      22.868  45.002   4.434  1.00  0.00    -0.363 OA
HETATM   19  C23 UNL     1      22.637  45.451   3.147  1.00  0.00     0.106 A 
ENDROOT
BRANCH   1  20
HETATM   20  C5  UNL     1      23.025  47.986   3.191  1.00  0.00     0.273 C 
BRANCH  20  21
HETATM   21  O3  UNL     1      22.469  47.778   4.434  1.00  0.00    -0.351 OA
BRANCH  21  22
HETATM   22  C4  UNL     1      21.600  48.535   5.039  1.00  0.00     0.282 C 
BRANCH  22  23
HETATM   23  C3  UNL     1      21.502  48.514   6.505  1.00  0.00     0.282 C 
HETATM   24  O2  UNL     1      22.288  49.054   7.306  1.00  0.00    -0.263 OA
BRANCH  23  25
HETATM   25  O1  UNL     1      20.432  47.826   7.128  1.00  0.00    -0.320 OA
BRANCH  25  26
HETATM   26  C2  UNL     1      20.614  47.246   8.394  1.00  0.00     0.174 C 
HETATM   27  C1  UNL     1      20.756  45.744   8.181  1.00  0.00     0.034 C 
ENDBRANCH  25  26
ENDBRANCH  23  25
ENDBRANCH  22  23
ENDBRANCH  21  22
ENDBRANCH  20  21
BRANCH  20  28
HETATM   28  O4  UNL     1      24.293  48.599   3.598  1.00  0.00    -0.337 OA
BRANCH  28  29
HETATM   29  C6  UNL     1      24.562  49.785   3.044  1.00  0.00     0.337 C 
BRANCH  29  30
HETATM   30  O5  UNL     1      25.703  49.898   2.253  1.00  0.00    -0.377 OA
ATOM     31  H5  UNL     1      26.270  49.140   2.173  1.00  0.00     0.212 HD
ENDBRANCH  29  30
ENDBRANCH  28  29
ENDBRANCH  20  28
ENDBRANCH   1  20
BRANCH  19  32
HETATM   32  C24 UNL     1      21.263  45.286   2.640  1.00  0.00     0.068 C 
BRANCH  32  33
HETATM   33  C25 UNL     1      20.163  44.955   3.585  1.00  0.00     0.167 C 
BRANCH  33  34
HETATM   34  O9  UNL     1      20.104  45.767   4.713  1.00  0.00    -0.401 OA
ATOM     35  H9  UNL     1      20.643  45.476   5.439  1.00  0.00     0.209 HD
ENDBRANCH  33  34
ENDBRANCH  32  33
ENDBRANCH  19  32
BRANCH  13  36
HETATM   36  O7  UNL     1      26.099  47.248   1.383  1.00  0.00    -0.386 OA
ATOM     37  H7  UNL     1      26.999  47.046   1.154  1.00  0.00     0.210 HD
ENDBRANCH  13  36
TORSDOF 13
ENDMDL
MODEL 3
REMARK VINA RESULT: -7.180741538      1.219      1.375
REMARK  13 active torsions:
REMARK  status: ('A' for Active; 'I' for Inactive)
REMARK    1  A    between atoms: C2_2  and  O1_3 
REMARK    2  A    between atoms: O1_3  and  C3_4 
REMARK    3  A    between atoms: C3_4  and  C4_6 
REMARK    4  A    between atoms: C4_6  and  O3_7 
REMARK    5  A    between atoms: O3_7  and  C5_8 
REMARK    6  A    between atoms: C5_8  and  O4_9 
REMARK    7  A    between atoms: C5_8  and  C7_13 
REMARK    8  A    between atoms: O4_9  and  C6_10 
REMARK    9  A    between atoms: C6_10  and  O5_11 
REMARK   10  A    between atoms: C18_25  and  O7_26 
REMARK   11  A    between atoms: C23_33  and  C24_34 
REMARK   12  A    between atoms: C24_34  and  C25_35 
REMARK   13  A    between atoms: C25_35  and  O9_36 
ROOT
HETATM    1  C7  UNL     1      23.485  44.969   1.980  1.00  0.00     0.120 C 
HETATM    2  C8  UNL     1      23.501  46.427   1.874  1.00  0.00     0.122 C 
HETATM    3  C9  UNL     1      22.387  47.011   2.610  1.00  0.00     0.017 C 
HETATM    4  C10 UNL     1      22.302  48.076   3.383  1.00  0.00    -0.085 C 
HETATM    5  C11 UNL     1      20.940  48.292   3.936  1.00  0.00     0.043 C 
HETATM    6  C12 UNL     1      23.293  49.069   3.774  1.00  0.00     0.034 C 
HETATM    7  C13 UNL     1      24.372  49.378   2.810  1.00  0.00     0.015 C 
HETATM    8  C14 UNL     1      24.679  48.413   1.747  1.00  0.00     0.057 C 
HETATM    9  C15 UNL     1      23.797  48.260   0.581  1.00  0.00     0.062 C 
HETATM   10  C16 UNL     1      24.648  48.425  -0.696  1.00  0.00     0.046 C 
HETATM   11  C17 UNL     1      22.694  49.272   0.401  1.00  0.00     0.046 C 
HETATM   12  O6  UNL     1      23.359  46.943   0.570  1.00  0.00    -0.362 OA
HETATM   13  C18 UNL     1      24.855  46.972   2.220  1.00  0.00     0.100 C 
HETATM   14  C19 UNL     1      25.994  46.339   1.570  1.00  0.00     0.045 C 
HETATM   15  C20 UNL     1      25.999  44.981   1.038  1.00  0.00     0.044 C 
HETATM   16  C21 UNL     1      24.912  44.566   0.084  1.00  0.00     0.090 A 
HETATM   17  C22 UNL     1      25.310  44.437  -1.383  1.00  0.00     0.049 C 
HETATM   18  O8  UNL     1      24.405  43.198   0.485  1.00  0.00    -0.363 OA
HETATM   19  C23 UNL     1      23.585  44.303   0.615  1.00  0.00     0.106 A 
ENDROOT
BRANCH   1  20
HETATM   20  C5  UNL     1      22.693  44.258   3.020  1.00  0.00     0.273 C 
BRANCH  20  21
HETATM   21  O3  UNL     1      22.771  42.910   2.746  1.00  0.00    -0.351 OA
BRANCH  21  22
HETATM   22  C4  UNL     1      21.853  42.013   2.965  1.00  0.00     0.282 C 
BRANCH  22  23
HETATM   23  C3  UNL     1      22.202  40.586   2.946  1.00  0.00     0.282 C 
HETATM   24  O2  UNL     1      22.806  39.961   3.839  1.00  0.00    -0.263 OA
BRANCH  23  25
HETATM   25  O1  UNL     1      21.843  39.789   1.832  1.00  0.00    -0.320 OA
BRANCH  25  26
HETATM   26  C2  UNL     1      21.163  38.575   2.028  1.00  0.00     0.174 C 
HETATM   27  C1  UNL     1      22.021  37.477   1.413  1.00  0.00     0.034 C 
ENDBRANCH  25  26
ENDBRANCH  23  25
ENDBRANCH  22  23
ENDBRANCH  21  22
ENDBRANCH  20  21
BRANCH  20  28
HETATM   28  O4  UNL     1      23.546  44.306   4.210  1.00  0.00    -0.337 OA
BRANCH  28  29
HETATM   29  C6  UNL     1      24.666  43.579   4.145  1.00  0.00     0.337 C 
BRANCH  29  30
HETATM   30  O5  UNL     1      25.875  44.204   4.447  1.00  0.00    -0.377 OA
ATOM     31  H5  UNL     1      26.033  44.463   5.348  1.00  0.00     0.212 HD
ENDBRANCH  29  30
ENDBRANCH  28  29
ENDBRANCH  20  28
ENDBRANCH   1  20
BRANCH  19  32
HETATM   32  C24 UNL     1      22.382  44.321  -0.236  1.00  0.00     0.068 C 
BRANCH  32  33
HETATM   33  C25 UNL     1      22.001  43.104  -1.001  1.00  0.00     0.167 C 
BRANCH  33  34
HETATM   34  O9  UNL     1      21.656  42.009  -0.214  1.00  0.00    -0.401 OA
ATOM     35  H9  UNL     1      22.394  41.543   0.160  1.00  0.00     0.209 HD
ENDBRANCH  33  34
ENDBRANCH  32  33
ENDBRANCH  19  32
BRANCH  13  36
HETATM   36  O7  UNL     1      24.970  47.040   3.602  1.00  0.00    -0.386 OA
ATOM     37  H7  UNL     1      25.538  47.768   3.826  1.00  0.00     0.210 HD
ENDBRANCH  13  36
TORSDOF 13
ENDMDL
MODEL 4
REMARK VINA RESULT: -7.083841271      2.454      5.654
REMARK  13 active torsions:
REMARK  status: ('A' for Active; 'I' for Inactive)
REMARK    1  A    between atoms: C2_2  and  O1_3 
REMARK    2  A    between atoms: O1_3  and  C3_4 
REMARK    3  A    between atoms: C3_4  and  C4_6 
REMARK    4  A    between atoms: C4_6  and  O3_7 
REMARK    5  A    between atoms: O3_7  and  C5_8 
REMARK    6  A    between atoms: C5_8  and  O4_9 
REMARK    7  A    between atoms: C5_8  and  C7_13 
REMARK    8  A    between atoms: O4_9  and  C6_10 
REMARK    9  A    between atoms: C6_10  and  O5_11 
REMARK   10  A    between atoms: C18_25  and  O7_26 
REMARK   11  A    between atoms: C23_33  and  C24_34 
REMARK   12  A    between atoms: C24_34  and  C25_35 
REMARK   13  A    between atoms: C25_35  and  O9_36 
ROOT
HETATM    1  C7  UNL     1      22.803  46.052   3.276  1.00  0.00     0.120 C 
HETATM    2  C8  UNL     1      23.431  46.363   1.992  1.00  0.00     0.122 C 
HETATM    3  C9  UNL     1      22.768  47.492   1.353  1.00  0.00     0.017 C 
HETATM    4  C10 UNL     1      23.238  48.530   0.688  1.00  0.00    -0.085 C 
HETATM    5  C11 UNL     1      22.175  49.449   0.207  1.00  0.00     0.043 C 
HETATM    6  C12 UNL     1      24.598  48.921   0.340  1.00  0.00     0.034 C 
HETATM    7  C13 UNL     1      25.586  47.842   0.118  1.00  0.00     0.015 C 
HETATM    8  C14 UNL     1      25.324  46.508   0.672  1.00  0.00     0.057 C 
HETATM    9  C15 UNL     1      24.335  45.611   0.059  1.00  0.00     0.062 C 
HETATM   10  C16 UNL     1      25.020  44.259  -0.235  1.00  0.00     0.046 C 
HETATM   11  C17 UNL     1      23.760  46.011  -1.276  1.00  0.00     0.046 C 
HETATM   12  O6  UNL     1      23.375  45.339   1.025  1.00  0.00    -0.362 OA
HETATM   13  C18 UNL     1      24.917  46.493   2.144  1.00  0.00     0.100 C 
HETATM   14  C19 UNL     1      25.592  45.423   2.866  1.00  0.00     0.045 C 
HETATM   15  C20 UNL     1      24.952  44.545   3.840  1.00  0.00     0.044 C 
HETATM   16  C21 UNL     1      23.690  43.823   3.454  1.00  0.00     0.090 A 
HETATM   17  C22 UNL     1      23.823  42.328   3.177  1.00  0.00     0.049 C 
HETATM   18  O8  UNL     1      22.694  43.935   4.588  1.00  0.00    -0.363 OA
HETATM   19  C23 UNL     1      22.450  44.576   3.388  1.00  0.00     0.106 A 
ENDROOT
BRANCH   1  20
HETATM   20  C5  UNL     1      21.908  47.014   3.974  1.00  0.00     0.273 C 
BRANCH  20  21
HETATM   21  O3  UNL     1      21.619  46.483   5.212  1.00  0.00    -0.351 OA
BRANCH  21  22
HETATM   22  C4  UNL     1      20.443  46.358   5.754  1.00  0.00     0.282 C 
BRANCH  22  23
HETATM   23  C3  UNL     1      20.312  46.280   7.216  1.00  0.00     0.282 C 
HETATM   24  O2  UNL     1      20.167  45.242   7.890  1.00  0.00    -0.263 OA
BRANCH  23  25
HETATM   25  O1  UNL     1      20.346  47.466   7.990  1.00  0.00    -0.320 OA
BRANCH  25  26
HETATM   26  C2  UNL     1      20.619  47.397   9.366  1.00  0.00     0.174 C 
HETATM   27  C1  UNL     1      21.356  48.676   9.740  1.00  0.00     0.034 C 
ENDBRANCH  25  26
ENDBRANCH  23  25
ENDBRANCH  22  23
ENDBRANCH  21  22
ENDBRANCH  20  21
BRANCH  20  28
HETATM   28  O4  UNL     1      22.804  48.099   4.385  1.00  0.00    -0.337 OA
BRANCH  28  29
HETATM   29  C6  UNL     1      22.220  49.114   5.029  1.00  0.00     0.337 C 
BRANCH  29  30
HETATM   30  O5  UNL     1      22.340  49.169   6.416  1.00  0.00    -0.377 OA
ATOM     31  H5  UNL     1      21.549  49.109   6.938  1.00  0.00     0.212 HD
ENDBRANCH  29  30
ENDBRANCH  28  29
ENDBRANCH  20  28
ENDBRANCH   1  20
BRANCH  19  32
HETATM   32  C24 UNL     1      21.281  44.101   2.625  1.00  0.00     0.068 C 
BRANCH  32  33
HETATM   33  C25 UNL     1      21.365  42.824   1.868  1.00  0.00     0.167 C 
BRANCH  33  34
HETATM   34  O9  UNL     1      21.678  42.968   0.520  1.00  0.00    -0.401 OA
ATOM     35  H9  UNL     1      21.677  42.158   0.024  1.00  0.00     0.209 HD
ENDBRANCH  33  34
ENDBRANCH  32  33
ENDBRANCH  19  32
BRANCH  13  36
HETATM   36  O7  UNL     1      25.209  47.761   2.628  1.00  0.00    -0.386 OA
ATOM     37  H7  UNL     1      24.489  48.052   3.176  1.00  0.00     0.210 HD
ENDBRANCH  13  36
TORSDOF 13
ENDMDL
MODEL 5
REMARK VINA RESULT: -6.818748193      2.435      5.019
REMARK  13 active torsions:
REMARK  status: ('A' for Active; 'I' for Inactive)
REMARK    1  A    between atoms: C2_2  and  O1_3 
REMARK    2  A    between atoms: O1_3  and  C3_4 
REMARK    3  A    between atoms: C3_4  and  C4_6 
REMARK    4  A    between atoms: C4_6  and  O3_7 
REMARK    5  A    between atoms: O3_7  and  C5_8 
REMARK    6  A    between atoms: C5_8  and  O4_9 
REMARK    7  A    between atoms: C5_8  and  C7_13 
REMARK    8  A    between atoms: O4_9  and  C6_10 
REMARK    9  A    between atoms: C6_10  and  O5_11 
REMARK   10  A    between atoms: C18_25  and  O7_26 
REMARK   11  A    between atoms: C23_33  and  C24_34 
REMARK   12  A    between atoms: C24_34  and  C25_35 
REMARK   13  A    between atoms: C25_35  and  O9_36 
ROOT
HETATM    1  C7  UNL     1      24.904  47.135   1.898  1.00  0.00     0.120 C 
HETATM    2  C8  UNL     1      25.876  48.175   1.562  1.00  0.00     0.122 C 
HETATM    3  C9  UNL     1      27.054  48.076   2.414  1.00  0.00     0.017 C 
HETATM    4  C10 UNL     1      28.341  48.205   2.157  1.00  0.00    -0.085 C 
HETATM    5  C11 UNL     1      29.200  48.015   3.355  1.00  0.00     0.043 C 
HETATM    6  C12 UNL     1      29.057  48.506   0.925  1.00  0.00     0.034 C 
HETATM    7  C13 UNL     1      28.379  49.367  -0.069  1.00  0.00     0.015 C 
HETATM    8  C14 UNL     1      26.918  49.508  -0.014  1.00  0.00     0.057 C 
HETATM    9  C15 UNL     1      26.273  50.334   1.016  1.00  0.00     0.062 C 
HETATM   10  C16 UNL     1      25.345  51.349   0.314  1.00  0.00     0.046 C 
HETATM   11  C17 UNL     1      27.160  51.204   1.871  1.00  0.00     0.046 C 
HETATM   12  O6  UNL     1      25.432  49.501   1.741  1.00  0.00    -0.362 OA
HETATM   13  C18 UNL     1      26.149  48.193   0.087  1.00  0.00     0.100 C 
HETATM   14  C19 UNL     1      24.986  48.194  -0.788  1.00  0.00     0.045 C 
HETATM   15  C20 UNL     1      23.666  47.697  -0.417  1.00  0.00     0.044 C 
HETATM   16  C21 UNL     1      23.023  48.204   0.846  1.00  0.00     0.090 A 
HETATM   17  C22 UNL     1      21.875  49.194   0.671  1.00  0.00     0.049 C 
HETATM   18  O8  UNL     1      22.431  47.032   1.599  1.00  0.00    -0.363 OA
HETATM   19  C23 UNL     1      23.514  47.714   2.121  1.00  0.00     0.106 A 
ENDROOT
BRANCH   1  20
HETATM   20  C5  UNL     1      25.272  45.936   2.697  1.00  0.00     0.273 C 
BRANCH  20  21
HETATM   21  O3  UNL     1      24.119  45.207   2.899  1.00  0.00    -0.351 OA
BRANCH  21  22
HETATM   22  C4  UNL     1      23.842  44.449   3.920  1.00  0.00     0.282 C 
BRANCH  22  23
HETATM   23  C3  UNL     1      23.814  42.988   3.764  1.00  0.00     0.282 C 
HETATM   24  O2  UNL     1      24.352  42.154   4.517  1.00  0.00    -0.263 OA
BRANCH  23  25
HETATM   25  O1  UNL     1      23.124  42.411   2.670  1.00  0.00    -0.320 OA
BRANCH  25  26
HETATM   26  C2  UNL     1      22.142  41.433   2.898  1.00  0.00     0.174 C 
HETATM   27  C1  UNL     1      21.827  40.792   1.554  1.00  0.00     0.034 C 
ENDBRANCH  25  26
ENDBRANCH  23  25
ENDBRANCH  22  23
ENDBRANCH  21  22
ENDBRANCH  20  21
BRANCH  20  28
HETATM   28  O4  UNL     1      25.941  45.058   1.733  1.00  0.00    -0.337 OA
BRANCH  28  29
HETATM   29  C6  UNL     1      25.179  44.629   0.722  1.00  0.00     0.337 C 
BRANCH  29  30
HETATM   30  O5  UNL     1      25.754  44.544  -0.545  1.00  0.00    -0.377 OA
ATOM     31  H5  UNL     1      26.472  45.132  -0.752  1.00  0.00     0.212 HD
ENDBRANCH  29  30
ENDBRANCH  28  29
ENDBRANCH  20  28
ENDBRANCH   1  20
BRANCH  19  32
HETATM   32  C24 UNL     1      23.278  48.436   3.384  1.00  0.00     0.068 C 
BRANCH  32  33
HETATM   33  C25 UNL     1      22.141  48.041   4.258  1.00  0.00     0.167 C 
BRANCH  33  34
HETATM   34  O9  UNL     1      20.883  48.342   3.744  1.00  0.00    -0.401 OA
ATOM     35  H9  UNL     1      20.421  49.030   4.208  1.00  0.00     0.209 HD
ENDBRANCH  33  34
ENDBRANCH  32  33
ENDBRANCH  19  32
BRANCH  13  36
HETATM   36  O7  UNL     1      27.068  47.195  -0.209  1.00  0.00    -0.386 OA
ATOM     37  H7  UNL     1      27.936  47.581  -0.250  1.00  0.00     0.210 HD
ENDBRANCH  13  36
TORSDOF 13
ENDMDL
