MODEL 1
REMARK VINA RESULT: -4.581800198      0.000      0.000
REMARK  2 active torsions:
REMARK  status: ('A' for Active; 'I' for Inactive)
REMARK    1  A    between atoms: C2_4  and  N2_5 
REMARK    2  A    between atoms: C6_9  and  O1_11 
ROOT
HETATM    1  N2  UNL     1      26.012  -4.917   5.481  1.00  0.00    -0.374 N 
HETATM    2  C3  UNL     1      25.565  -5.076   6.816  1.00  0.00     0.123 C 
HETATM    3  C4  UNL     1      25.521  -6.476   7.321  1.00  0.00     0.023 C 
HETATM    4  C5  UNL     1      26.558  -7.397   6.844  1.00  0.00     0.041 C 
HETATM    5  C6  UNL     1      27.265  -7.033   5.585  1.00  0.00     0.070 C 
HETATM    6  C7  UNL     1      28.642  -6.491   5.919  1.00  0.00     0.047 C 
HETATM    7  C8  UNL     1      26.557  -6.007   4.751  1.00  0.00     0.161 C 
ENDROOT
BRANCH   1   8
HETATM    8  C2  UNL     1      25.921  -3.659   4.853  1.00  0.00     0.173 C 
HETATM    9  N1  UNL     1      25.322  -2.714   5.500  1.00  0.00    -0.391 N 
HETATM   10  C1  UNL     1      25.160  -1.377   4.968  1.00  0.00     0.147 C 
ATOM     11  H1  UNL     1      24.946  -2.919   6.426  1.00  0.00     0.159 HD
ENDBRANCH   1   8
BRANCH   5  12
HETATM   12  O1  UNL     1      27.475  -8.148   4.747  1.00  0.00    -0.389 OA
ATOM     13  H1  UNL     1      28.116  -7.974   4.068  1.00  0.00     0.210 HD
ENDBRANCH   5  12
TORSDOF 2
ENDMDL
MODEL 2
REMARK VINA RESULT: -4.508908006      9.891     10.677
REMARK  2 active torsions:
REMARK  status: ('A' for Active; 'I' for Inactive)
REMARK    1  A    between atoms: C2_4  and  N2_5 
REMARK    2  A    between atoms: C6_9  and  O1_11 
ROOT
HETATM    1  N2  UNL     1      33.106  -0.781  11.670  1.00  0.00    -0.374 N 
HETATM    2  C3  UNL     1      32.819   0.583  11.921  1.00  0.00     0.123 C 
HETATM    3  C4  UNL     1      31.577   0.851  12.697  1.00  0.00     0.023 C 
HETATM    4  C5  UNL     1      31.209  -0.117  13.735  1.00  0.00     0.041 C 
HETATM    5  C6  UNL     1      31.801  -1.481  13.636  1.00  0.00     0.070 C 
HETATM    6  C7  UNL     1      32.925  -1.618  14.645  1.00  0.00     0.047 C 
HETATM    7  C8  UNL     1      32.353  -1.818  12.283  1.00  0.00     0.161 C 
ENDROOT
BRANCH   1   8
HETATM    8  C2  UNL     1      34.156  -1.131  10.797  1.00  0.00     0.173 C 
HETATM    9  N1  UNL     1      34.052  -2.251  10.161  1.00  0.00    -0.391 N 
HETATM   10  C1  UNL     1      35.059  -2.727   9.236  1.00  0.00     0.147 C 
ATOM     11  H1  UNL     1      33.224  -2.826  10.318  1.00  0.00     0.159 HD
ENDBRANCH   1   8
BRANCH   5  12
HETATM   12  O1  UNL     1      30.868  -2.492  13.946  1.00  0.00    -0.389 OA
ATOM     13  H1  UNL     1      31.142  -3.020  14.686  1.00  0.00     0.210 HD
ENDBRANCH   5  12
TORSDOF 2
ENDMDL
MODEL 3
REMARK VINA RESULT: -4.412821498      9.974     11.022
REMARK  2 active torsions:
REMARK  status: ('A' for Active; 'I' for Inactive)
REMARK    1  A    between atoms: C2_4  and  N2_5 
REMARK    2  A    between atoms: C6_9  and  O1_11 
ROOT
HETATM    1  N2  UNL     1      33.757  -2.436  11.955  1.00  0.00    -0.374 N 
HETATM    2  C3  UNL     1      34.553  -3.047  12.955  1.00  0.00     0.123 C 
HETATM    3  C4  UNL     1      34.620  -2.329  14.257  1.00  0.00     0.023 C 
HETATM    4  C5  UNL     1      33.414  -1.618  14.697  1.00  0.00     0.041 C 
HETATM    5  C6  UNL     1      32.409  -1.272  13.653  1.00  0.00     0.070 C 
HETATM    6  C7  UNL     1      31.238  -2.232  13.743  1.00  0.00     0.047 C 
HETATM    7  C8  UNL     1      32.934  -1.316  12.249  1.00  0.00     0.161 C 
ENDROOT
BRANCH   1   8
HETATM    8  C2  UNL     1      33.772  -2.939  10.638  1.00  0.00     0.173 C 
HETATM    9  N1  UNL     1      34.324  -4.092  10.449  1.00  0.00    -0.391 N 
HETATM   10  C1  UNL     1      34.405  -4.721   9.147  1.00  0.00     0.147 C 
ATOM     11  H1  UNL     1      34.719  -4.582  11.252  1.00  0.00     0.159 HD
ENDBRANCH   1   8
BRANCH   5  12
HETATM   12  O1  UNL     1      31.873   0.020  13.835  1.00  0.00    -0.389 OA
ATOM     13  H1  UNL     1      31.171   0.208  13.223  1.00  0.00     0.210 HD
ENDBRANCH   5  12
TORSDOF 2
ENDMDL
MODEL 4
REMARK VINA RESULT: -4.409903209     10.333     10.728
REMARK  2 active torsions:
REMARK  status: ('A' for Active; 'I' for Inactive)
REMARK    1  A    between atoms: C2_4  and  N2_5 
REMARK    2  A    between atoms: C6_9  and  O1_11 
ROOT
HETATM    1  N2  UNL     1      32.199   0.002  12.565  1.00  0.00    -0.374 N 
HETATM    2  C3  UNL     1      31.389  -0.128  13.721  1.00  0.00     0.123 C 
HETATM    3  C4  UNL     1      31.109  -1.522  14.161  1.00  0.00     0.023 C 
HETATM    4  C5  UNL     1      32.169  -2.516  13.967  1.00  0.00     0.041 C 
HETATM    5  C6  UNL     1      33.222  -2.201  12.960  1.00  0.00     0.070 C 
HETATM    6  C7  UNL     1      34.487  -1.764  13.674  1.00  0.00     0.047 C 
HETATM    7  C8  UNL     1      32.847  -1.123  11.988  1.00  0.00     0.161 C 
ENDROOT
BRANCH   1   8
HETATM    8  C2  UNL     1      32.375   1.266  11.966  1.00  0.00     0.173 C 
HETATM    9  N1  UNL     1      33.588   1.670  11.776  1.00  0.00    -0.391 N 
HETATM   10  C1  UNL     1      33.905   2.947  11.171  1.00  0.00     0.147 C 
ATOM     11  H1  UNL     1      34.355   1.063  12.065  1.00  0.00     0.159 HD
ENDBRANCH   1   8
BRANCH   5  12
HETATM   12  O1  UNL     1      33.576  -3.326  12.187  1.00  0.00    -0.389 OA
ATOM     13  H1  UNL     1      33.714  -4.101  12.719  1.00  0.00     0.210 HD
ENDBRANCH   5  12
TORSDOF 2
ENDMDL
MODEL 5
REMARK VINA RESULT: -4.395717984      1.475      2.321
REMARK  2 active torsions:
REMARK  status: ('A' for Active; 'I' for Inactive)
REMARK    1  A    between atoms: C2_4  and  N2_5 
REMARK    2  A    between atoms: C6_9  and  O1_11 
ROOT
HETATM    1  N2  UNL     1      26.905  -4.815   5.531  1.00  0.00    -0.374 N 
HETATM    2  C3  UNL     1      28.067  -5.024   4.748  1.00  0.00     0.123 C 
HETATM    3  C4  UNL     1      29.125  -5.865   5.372  1.00  0.00     0.023 C 
HETATM    4  C5  UNL     1      28.687  -6.967   6.235  1.00  0.00     0.041 C 
HETATM    5  C6  UNL     1      27.308  -6.889   6.793  1.00  0.00     0.070 C 
HETATM    6  C7  UNL     1      26.399  -7.829   6.023  1.00  0.00     0.047 C 
HETATM    7  C8  UNL     1      26.698  -5.520   6.747  1.00  0.00     0.161 C 
ENDROOT
BRANCH   1   8
HETATM    8  C2  UNL     1      25.926  -3.892   5.108  1.00  0.00     0.173 C 
HETATM    9  N1  UNL     1      26.129  -2.645   5.380  1.00  0.00    -0.391 N 
HETATM   10  C1  UNL     1      25.204  -1.598   5.002  1.00  0.00     0.147 C 
ATOM     11  H1  UNL     1      26.978  -2.387   5.884  1.00  0.00     0.159 HD
ENDBRANCH   1   8
BRANCH   5  12
HETATM   12  O1  UNL     1      27.251  -7.303   8.140  1.00  0.00    -0.389 OA
ATOM     13  H1  UNL     1      28.105  -7.292   8.556  1.00  0.00     0.210 HD
ENDBRANCH   5  12
TORSDOF 2
ENDMDL
