MODEL 1
REMARK VINA RESULT: -7.214283880      0.000      0.000
REMARK  6 active torsions:
REMARK  status: ('A' for Active; 'I' for Inactive)
REMARK    1  A    between atoms: C4_6  and  C5_7 
REMARK    2  A    between atoms: C5_7  and  N2_8 
REMARK    3  A    between atoms: C8_13  and  C9_14 
REMARK    4  A    between atoms: C9_14  and  C10_15 
REMARK    5  A    between atoms: C10_15  and  N4_16 
REMARK       I    between atoms: C11_18  and  N5_19 
REMARK       I    between atoms: C11_18  and  N7_23 
REMARK    6  A    between atoms: N7_23  and  C13_25 
ROOT
HETATM    1  C1  UNL     1      81.419   8.594  28.824  1.00  0.00     0.014 C 
HETATM    2  C2  UNL     1      80.403   8.364  28.203  1.00  0.00    -0.090 C 
HETATM    3  C3  UNL     1      79.175   8.104  27.460  1.00  0.00     0.184 C 
HETATM    4  N1  UNL     1      79.501   7.317  26.285  1.00  0.00    -0.361 N 
ATOM      5  H1  UNL     1      79.660   7.656  25.336  1.00  0.00     0.162 HD
HETATM    6  C4  UNL     1      79.549   5.973  26.744  1.00  0.00     0.103 C 
HETATM    7  N3  UNL     1      78.837   5.862  27.832  1.00  0.00    -0.371 N 
ATOM      8  H3  UNL     1      78.708   4.999  28.361  1.00  0.00     0.161 HD
HETATM    9  C8  UNL     1      78.255   7.141  28.179  1.00  0.00     0.119 C 
ENDROOT
BRANCH   9  10
HETATM   10  C9  UNL     1      78.260   7.284  29.665  1.00  0.00     0.048 C 
BRANCH  10  11
HETATM   11  C10 UNL     1      78.586   6.004  30.399  1.00  0.00     0.140 C 
BRANCH  11  12
HETATM   12  N4  UNL     1      79.584   6.179  31.406  1.00  0.00    -0.226 N 
HETATM   13  C11 UNL     1      80.747   5.639  31.271  1.00  0.00     0.683 C 
HETATM   14  N5  UNL     1      81.089   4.855  30.136  1.00  0.00    -0.126 N 
HETATM   15  N7  UNL     1      81.774   5.792  32.260  1.00  0.00    -0.221 N 
HETATM   16  C12 UNL     1      82.206   5.094  29.360  1.00  0.00     0.196 C 
ATOM     17  H5  UNL     1      80.480   4.078  29.882  1.00  0.00     0.197 HD
HETATM   18  N6  UNL     1      83.145   5.293  28.728  1.00  0.00    -0.171 NA
ATOM     19  H7  UNL     1      81.896   6.698  32.711  1.00  0.00     0.178 HD
ATOM     20  H4  UNL     1      79.376   6.735  32.236  1.00  0.00     0.177 HD
BRANCH  15  21
HETATM   21  C13 UNL     1      82.642   4.696  32.636  1.00  0.00     0.099 C 
HETATM   22  C14 UNL     1      83.927   5.274  33.146  1.00  0.00     0.026 C 
HETATM   23  C15 UNL     1      84.237   4.900  34.565  1.00  0.00     0.002 C 
HETATM   24  C16 UNL     1      83.083   4.958  35.499  1.00  0.00     0.000 C 
HETATM   25  C17 UNL     1      81.739   4.746  34.886  1.00  0.00     0.002 C 
HETATM   26  C18 UNL     1      81.926   3.861  33.669  1.00  0.00     0.026 C 
ENDBRANCH  15  21
ENDBRANCH  11  12
ENDBRANCH  10  11
ENDBRANCH   9  10
BRANCH   6  27
HETATM   27  C5  UNL     1      80.283   4.859  26.089  1.00  0.00     0.346 C 
BRANCH  27  28
HETATM   28  N2  UNL     1      79.424   3.781  25.658  1.00  0.00     0.086 N 
HETATM   29  C6  UNL     1      80.118   3.173  24.509  1.00  0.00     0.309 C 
HETATM   30  C7  UNL     1      78.139   4.250  25.161  1.00  0.00     0.309 C 
ENDBRANCH  27  28
ENDBRANCH   6  27
TORSDOF 6
ENDMDL
MODEL 2
REMARK VINA RESULT: -6.669120185      2.114      3.734
REMARK  6 active torsions:
REMARK  status: ('A' for Active; 'I' for Inactive)
REMARK    1  A    between atoms: C4_6  and  C5_7 
REMARK    2  A    between atoms: C5_7  and  N2_8 
REMARK    3  A    between atoms: C8_13  and  C9_14 
REMARK    4  A    between atoms: C9_14  and  C10_15 
REMARK    5  A    between atoms: C10_15  and  N4_16 
REMARK       I    between atoms: C11_18  and  N5_19 
REMARK       I    between atoms: C11_18  and  N7_23 
REMARK    6  A    between atoms: N7_23  and  C13_25 
ROOT
HETATM    1  C1  UNL     1      82.969   5.100  30.706  1.00  0.00     0.014 C 
HETATM    2  C2  UNL     1      81.951   5.673  30.379  1.00  0.00    -0.090 C 
HETATM    3  C3  UNL     1      80.729   6.374  29.999  1.00  0.00     0.184 C 
HETATM    4  N1  UNL     1      80.633   6.390  28.552  1.00  0.00    -0.361 N 
ATOM      5  H1  UNL     1      80.915   7.139  27.919  1.00  0.00     0.162 HD
HETATM    6  C4  UNL     1      80.061   5.135  28.208  1.00  0.00     0.103 C 
HETATM    7  N3  UNL     1      79.397   4.668  29.230  1.00  0.00    -0.371 N 
ATOM      8  H3  UNL     1      78.892   3.782  29.243  1.00  0.00     0.161 HD
HETATM    9  C8  UNL     1      79.480   5.591  30.342  1.00  0.00     0.119 C 
ENDROOT
BRANCH   9  10
HETATM   10  C9  UNL     1      79.577   4.809  31.609  1.00  0.00     0.048 C 
BRANCH  10  11
HETATM   11  C10 UNL     1      79.811   5.662  32.835  1.00  0.00     0.140 C 
BRANCH  11  12
HETATM   12  N4  UNL     1      80.745   5.081  33.747  1.00  0.00    -0.226 N 
HETATM   13  C11 UNL     1      81.340   5.815  34.624  1.00  0.00     0.683 C 
HETATM   14  N5  UNL     1      81.103   7.212  34.728  1.00  0.00    -0.126 N 
HETATM   15  N7  UNL     1      82.283   5.268  35.556  1.00  0.00    -0.221 N 
HETATM   16  C12 UNL     1      80.741   7.834  35.906  1.00  0.00     0.196 C 
ATOM     17  H5  UNL     1      81.207   7.785  33.889  1.00  0.00     0.197 HD
HETATM   18  N6  UNL     1      80.453   8.345  36.895  1.00  0.00    -0.171 NA
ATOM     19  H7  UNL     1      82.092   4.360  35.979  1.00  0.00     0.178 HD
ATOM     20  H4  UNL     1      80.941   4.081  33.704  1.00  0.00     0.177 HD
BRANCH  15  21
HETATM   21  C13 UNL     1      83.498   5.970  35.913  1.00  0.00     0.099 C 
HETATM   22  C14 UNL     1      84.115   5.266  37.083  1.00  0.00     0.026 C 
HETATM   23  C15 UNL     1      85.494   4.741  36.816  1.00  0.00     0.002 C 
HETATM   24  C16 UNL     1      85.673   4.083  35.495  1.00  0.00     0.000 C 
HETATM   25  C17 UNL     1      84.764   4.551  34.408  1.00  0.00     0.002 C 
HETATM   26  C18 UNL     1      84.401   5.993  34.703  1.00  0.00     0.026 C 
ENDBRANCH  15  21
ENDBRANCH  11  12
ENDBRANCH  10  11
ENDBRANCH   9  10
BRANCH   6  27
HETATM   27  C5  UNL     1      80.184   4.458  26.890  1.00  0.00     0.346 C 
BRANCH  27  28
HETATM   28  N2  UNL     1      78.919   4.282  26.215  1.00  0.00     0.086 N 
HETATM   29  C6  UNL     1      79.255   3.657  24.925  1.00  0.00     0.309 C 
HETATM   30  C7  UNL     1      78.267   5.545  25.903  1.00  0.00     0.309 C 
ENDBRANCH  27  28
ENDBRANCH   6  27
TORSDOF 6
ENDMDL
MODEL 3
REMARK VINA RESULT: -6.647039451      2.226      3.570
REMARK  6 active torsions:
REMARK  status: ('A' for Active; 'I' for Inactive)
REMARK    1  A    between atoms: C4_6  and  C5_7 
REMARK    2  A    between atoms: C5_7  and  N2_8 
REMARK    3  A    between atoms: C8_13  and  C9_14 
REMARK    4  A    between atoms: C9_14  and  C10_15 
REMARK    5  A    between atoms: C10_15  and  N4_16 
REMARK       I    between atoms: C11_18  and  N5_19 
REMARK       I    between atoms: C11_18  and  N7_23 
REMARK    6  A    between atoms: N7_23  and  C13_25 
ROOT
HETATM    1  C1  UNL     1      78.088   7.306  29.582  1.00  0.00     0.014 C 
HETATM    2  C2  UNL     1      78.772   6.308  29.671  1.00  0.00    -0.090 C 
HETATM    3  C3  UNL     1      79.591   5.107  29.794  1.00  0.00     0.184 C 
HETATM    4  N1  UNL     1      79.456   4.325  28.580  1.00  0.00    -0.361 N 
ATOM      5  H1  UNL     1      78.833   3.533  28.417  1.00  0.00     0.162 HD
HETATM    6  C4  UNL     1      80.378   4.902  27.666  1.00  0.00     0.103 C 
HETATM    7  N3  UNL     1      81.311   5.528  28.330  1.00  0.00    -0.371 N 
ATOM      8  H3  UNL     1      82.095   6.027  27.909  1.00  0.00     0.161 HD
HETATM    9  C8  UNL     1      81.074   5.409  29.753  1.00  0.00     0.119 C 
ENDROOT
BRANCH   9  10
HETATM   10  C9  UNL     1      81.455   6.692  30.413  1.00  0.00     0.048 C 
BRANCH  10  11
HETATM   11  C10 UNL     1      82.841   6.679  31.016  1.00  0.00     0.140 C 
BRANCH  11  12
HETATM   12  N4  UNL     1      82.883   7.251  32.325  1.00  0.00    -0.226 N 
HETATM   13  C11 UNL     1      82.730   6.506  33.366  1.00  0.00     0.683 C 
HETATM   14  N5  UNL     1      82.514   5.105  33.269  1.00  0.00    -0.126 N 
HETATM   15  N7  UNL     1      82.766   7.045  34.695  1.00  0.00    -0.221 N 
HETATM   16  C12 UNL     1      83.280   4.172  33.939  1.00  0.00     0.196 C 
ATOM     17  H5  UNL     1      81.754   4.772  32.675  1.00  0.00     0.197 HD
HETATM   18  N6  UNL     1      83.915   3.404  34.511  1.00  0.00    -0.171 NA
ATOM     19  H7  UNL     1      83.452   7.766  34.919  1.00  0.00     0.178 HD
ATOM     20  H4  UNL     1      83.037   8.254  32.436  1.00  0.00     0.177 HD
BRANCH  15  21
HETATM   21  C13 UNL     1      81.857   6.593  35.727  1.00  0.00     0.099 C 
HETATM   22  C14 UNL     1      82.669   6.218  36.930  1.00  0.00     0.026 C 
HETATM   23  C15 UNL     1      82.334   7.013  38.157  1.00  0.00     0.002 C 
HETATM   24  C16 UNL     1      82.141   8.469  37.932  1.00  0.00     0.000 C 
HETATM   25  C17 UNL     1      81.678   8.860  36.568  1.00  0.00     0.002 C 
HETATM   26  C18 UNL     1      80.874   7.704  36.008  1.00  0.00     0.026 C 
ENDBRANCH  15  21
ENDBRANCH  11  12
ENDBRANCH  10  11
ENDBRANCH   9  10
BRANCH   6  27
HETATM   27  C5  UNL     1      80.307   4.806  26.184  1.00  0.00     0.346 C 
BRANCH  27  28
HETATM   28  N2  UNL     1      79.338   3.842  25.717  1.00  0.00     0.086 N 
HETATM   29  C6  UNL     1      79.958   3.212  24.539  1.00  0.00     0.309 C 
HETATM   30  C7  UNL     1      78.107   4.463  25.252  1.00  0.00     0.309 C 
ENDBRANCH  27  28
ENDBRANCH   6  27
TORSDOF 6
ENDMDL
MODEL 4
REMARK VINA RESULT: -6.640586735      3.537      8.870
REMARK  6 active torsions:
REMARK  status: ('A' for Active; 'I' for Inactive)
REMARK    1  A    between atoms: C4_6  and  C5_7 
REMARK    2  A    between atoms: C5_7  and  N2_8 
REMARK    3  A    between atoms: C8_13  and  C9_14 
REMARK    4  A    between atoms: C9_14  and  C10_15 
REMARK    5  A    between atoms: C10_15  and  N4_16 
REMARK       I    between atoms: C11_18  and  N5_19 
REMARK       I    between atoms: C11_18  and  N7_23 
REMARK    6  A    between atoms: N7_23  and  C13_25 
ROOT
HETATM    1  C1  UNL     1      84.619   7.351  36.452  1.00  0.00     0.014 C 
HETATM    2  C2  UNL     1      83.492   6.905  36.426  1.00  0.00    -0.090 C 
HETATM    3  C3  UNL     1      82.142   6.353  36.390  1.00  0.00     0.184 C 
HETATM    4  N1  UNL     1      81.362   6.961  37.452  1.00  0.00    -0.361 N 
ATOM      5  H1  UNL     1      81.180   6.584  38.382  1.00  0.00     0.162 HD
HETATM    6  C4  UNL     1      80.908   8.195  36.914  1.00  0.00     0.103 C 
HETATM    7  N3  UNL     1      80.902   8.123  35.611  1.00  0.00    -0.371 N 
ATOM      8  H3  UNL     1      80.618   8.877  34.985  1.00  0.00     0.161 HD
HETATM    9  C8  UNL     1      81.357   6.818  35.182  1.00  0.00     0.119 C 
ENDROOT
BRANCH   9  10
HETATM   10  C9  UNL     1      82.175   6.975  33.944  1.00  0.00     0.048 C 
BRANCH  10  11
HETATM   11  C10 UNL     1      81.891   5.932  32.889  1.00  0.00     0.140 C 
BRANCH  11  12
HETATM   12  N4  UNL     1      81.661   6.496  31.596  1.00  0.00    -0.226 N 
HETATM   13  C11 UNL     1      80.752   6.004  30.824  1.00  0.00     0.683 C 
HETATM   14  N5  UNL     1      79.949   4.898  31.210  1.00  0.00    -0.126 N 
HETATM   15  N7  UNL     1      80.493   6.543  29.521  1.00  0.00    -0.221 N 
HETATM   16  C12 UNL     1      78.569   4.914  31.173  1.00  0.00     0.196 C 
ATOM     17  H5  UNL     1      80.415   4.049  31.531  1.00  0.00     0.197 HD
HETATM   18  N6  UNL     1      77.420   4.933  31.126  1.00  0.00    -0.171 NA
ATOM     19  H7  UNL     1      80.506   7.554  29.391  1.00  0.00     0.178 HD
ATOM     20  H4  UNL     1      82.217   7.291  31.283  1.00  0.00     0.177 HD
BRANCH  15  21
HETATM   21  C13 UNL     1      80.212   5.691  28.384  1.00  0.00     0.099 C 
HETATM   22  C14 UNL     1      78.896   6.111  27.802  1.00  0.00     0.026 C 
HETATM   23  C15 UNL     1      78.983   6.563  26.375  1.00  0.00     0.002 C 
HETATM   24  C16 UNL     1      80.141   7.440  26.060  1.00  0.00     0.000 C 
HETATM   25  C17 UNL     1      81.346   7.259  26.923  1.00  0.00     0.002 C 
HETATM   26  C18 UNL     1      81.353   5.822  27.405  1.00  0.00     0.026 C 
ENDBRANCH  15  21
ENDBRANCH  11  12
ENDBRANCH  10  11
ENDBRANCH   9  10
BRANCH   6  27
HETATM   27  C5  UNL     1      80.493   9.385  37.703  1.00  0.00     0.346 C 
BRANCH  27  28
HETATM   28  N2  UNL     1      79.637   9.062  38.820  1.00  0.00     0.086 N 
HETATM   29  C6  UNL     1      78.264   9.246  38.319  1.00  0.00     0.309 C 
HETATM   30  C7  UNL     1      79.796   9.984  39.935  1.00  0.00     0.309 C 
ENDBRANCH  27  28
ENDBRANCH   6  27
TORSDOF 6
ENDMDL
MODEL 5
REMARK VINA RESULT: -6.637209020      2.880      8.643
REMARK  6 active torsions:
REMARK  status: ('A' for Active; 'I' for Inactive)
REMARK    1  A    between atoms: C4_6  and  C5_7 
REMARK    2  A    between atoms: C5_7  and  N2_8 
REMARK    3  A    between atoms: C8_13  and  C9_14 
REMARK    4  A    between atoms: C9_14  and  C10_15 
REMARK    5  A    between atoms: C10_15  and  N4_16 
REMARK       I    between atoms: C11_18  and  N5_19 
REMARK       I    between atoms: C11_18  and  N7_23 
REMARK    6  A    between atoms: N7_23  and  C13_25 
ROOT
HETATM    1  C1  UNL     1      85.210   4.894  36.701  1.00  0.00     0.014 C 
HETATM    2  C2  UNL     1      84.000   4.812  36.714  1.00  0.00    -0.090 C 
HETATM    3  C3  UNL     1      82.546   4.697  36.728  1.00  0.00     0.184 C 
HETATM    4  N1  UNL     1      82.008   5.710  37.615  1.00  0.00    -0.361 N 
ATOM      5  H1  UNL     1      81.736   5.599  38.593  1.00  0.00     0.162 HD
HETATM    6  C4  UNL     1      81.941   6.891  36.828  1.00  0.00     0.103 C 
HETATM    7  N3  UNL     1      81.889   6.566  35.564  1.00  0.00    -0.371 N 
ATOM      8  H3  UNL     1      81.835   7.230  34.792  1.00  0.00     0.161 HD
HETATM    9  C8  UNL     1      81.917   5.127  35.420  1.00  0.00     0.119 C 
ENDROOT
BRANCH   9  10
HETATM   10  C9  UNL     1      82.722   4.781  34.211  1.00  0.00     0.048 C 
BRANCH  10  11
HETATM   11  C10 UNL     1      81.885   4.439  33.000  1.00  0.00     0.140 C 
BRANCH  11  12
HETATM   12  N4  UNL     1      81.777   5.523  32.075  1.00  0.00    -0.226 N 
HETATM   13  C11 UNL     1      80.833   5.537  31.197  1.00  0.00     0.683 C 
HETATM   14  N5  UNL     1      79.871   4.496  31.103  1.00  0.00    -0.126 N 
HETATM   15  N7  UNL     1      80.692   6.607  30.252  1.00  0.00    -0.221 N 
HETATM   16  C12 UNL     1      78.508   4.719  31.120  1.00  0.00     0.196 C 
ATOM     17  H5  UNL     1      80.203   3.535  31.020  1.00  0.00     0.197 HD
HETATM   18  N6  UNL     1      77.376   4.917  31.121  1.00  0.00    -0.171 NA
ATOM     19  H7  UNL     1      80.851   7.566  30.562  1.00  0.00     0.178 HD
ATOM     20  H4  UNL     1      82.449   6.290  32.110  1.00  0.00     0.177 HD
BRANCH  15  21
HETATM   21  C13 UNL     1      80.330   6.365  28.871  1.00  0.00     0.099 C 
HETATM   22  C14 UNL     1      79.175   7.257  28.530  1.00  0.00     0.026 C 
HETATM   23  C15 UNL     1      79.459   8.212  27.410  1.00  0.00     0.002 C 
HETATM   24  C16 UNL     1      80.792   8.868  27.463  1.00  0.00     0.000 C 
HETATM   25  C17 UNL     1      81.866   8.101  28.159  1.00  0.00     0.002 C 
HETATM   26  C18 UNL     1      81.544   6.626  28.014  1.00  0.00     0.026 C 
ENDBRANCH  15  21
ENDBRANCH  11  12
ENDBRANCH  10  11
ENDBRANCH   9  10
BRANCH   6  27
HETATM   27  C5  UNL     1      81.921   8.283  37.350  1.00  0.00     0.346 C 
BRANCH  27  28
HETATM   28  N2  UNL     1      80.618   8.903  37.282  1.00  0.00     0.086 N 
HETATM   29  C6  UNL     1      80.865  10.259  36.763  1.00  0.00     0.309 C 
HETATM   30  C7  UNL     1      80.005   9.068  38.591  1.00  0.00     0.309 C 
ENDBRANCH  27  28
ENDBRANCH   6  27
TORSDOF 6
ENDMDL
