MODEL 1
REMARK VINA RESULT: -6.312081513      0.000      0.000
REMARK  17 active torsions:
REMARK  status: ('A' for Active; 'I' for Inactive)
REMARK    1  A    between atoms: N1_1  and  C1_5 
REMARK    2  A    between atoms: C2_8  and  N4_9 
REMARK    3  A    between atoms: C5_14  and  N6_15 
REMARK       I    between atoms: N6_15  and  C6_17 
REMARK    4  A    between atoms: C6_17  and  C7_19 
REMARK    5  A    between atoms: C7_19  and  N7_20 
REMARK    6  A    between atoms: C7_19  and  C8_24 
REMARK    7  A    between atoms: C8_24  and  N8_25 
REMARK    8  A    between atoms: C8_24  and  N9_29 
REMARK       I    between atoms: N9_29  and  C9_31 
REMARK    9  A    between atoms: C9_31  and  O3_33 
REMARK   10  A    between atoms: O3_33  and  C10_34 
REMARK   11  A    between atoms: C10_34  and  C11_35 
REMARK   12  A    between atoms: C10_34  and  C12_38 
REMARK   13  A    between atoms: C12_38  and  O6_39 
REMARK   14  A    between atoms: C12_38  and  C13_41 
REMARK   15  A    between atoms: C13_41  and  O7_42 
REMARK   16  A    between atoms: C13_41  and  C14_44 
REMARK   17  A    between atoms: C14_44  and  O8_45 
ROOT
HETATM    1  C7  UNL     1      57.857   0.028  45.710  1.00  0.00     0.324 C 
ENDROOT
BRANCH   1   2
HETATM    2  C6  UNL     1      56.778   0.879  46.234  1.00  0.00     0.257 C 
HETATM    3  N6  UNL     1      56.721   1.177  47.630  1.00  0.00    -0.309 N 
ATOM      4  H6  UNL     1      56.123   0.629  48.249  1.00  0.00     0.170 HD
HETATM    5  O1  UNL     1      55.895   1.362  45.504  1.00  0.00    -0.271 OA
BRANCH   3   6
HETATM    6  C5  UNL     1      57.433   2.147  48.099  1.00  0.00     0.140 A 
HETATM    7  C4  UNL     1      57.649   2.254  49.453  1.00  0.00     0.122 A 
HETATM    8  N5  UNL     1      57.250   1.511  50.493  1.00  0.00    -0.346 N 
HETATM    9  C16 UNL     1      58.407   3.276  50.015  1.00  0.00     0.142 A 
HETATM   10  C3  UNL     1      57.736   2.045  51.631  1.00  0.00     0.188 A 
ATOM     11  H5  UNL     1      56.671   0.675  50.434  1.00  0.00     0.167 HD
HETATM   12  N4  UNL     1      58.452   3.138  51.339  1.00  0.00    -0.298 N 
HETATM   13  N11 UNL     1      58.925   4.168  49.151  1.00  0.00    -0.336 N 
HETATM   14  C15 UNL     1      58.721   4.071  47.824  1.00  0.00     0.183 A 
ATOM     15  H11 UNL     1      59.488   4.938  49.512  1.00  0.00     0.168 HD
HETATM   16  N10 UNL     1      57.987   3.082  47.285  1.00  0.00    -0.337 N 
ATOM     17  H10 UNL     1      57.847   3.034  46.276  1.00  0.00     0.168 HD
BRANCH  12  18
HETATM   18  C2  UNL     1      59.121   3.970  52.287  1.00  0.00     0.267 C 
HETATM   19  N3  UNL     1      59.138   5.358  51.789  1.00  0.00    -0.108 NA
HETATM   20  N2  UNL     1      59.346   6.183  52.874  1.00  0.00    -0.101 NA
HETATM   21  C1  UNL     1      58.154   6.072  53.734  1.00  0.00     0.356 C 
HETATM   22  S1  UNL     1      58.036   4.232  53.753  1.00  0.00    -0.075 SA
BRANCH  21  23
HETATM   23  N1  UNL     1      58.442   6.585  55.036  1.00  0.00    -0.051 N 
ATOM     24  H13 UNL     1      59.169   6.045  55.507  1.00  0.00     0.277 HD
ATOM     25  H12 UNL     1      58.926   7.482  54.996  1.00  0.00     0.277 HD
ATOM     26  H11 UNL     1      57.586   6.636  55.588  1.00  0.00     0.277 HD
ENDBRANCH  21  23
ENDBRANCH  12  18
ENDBRANCH   3   6
ENDBRANCH   1   2
BRANCH   1  27
HETATM   27  N7  UNL     1      57.461  -1.370  45.810  1.00  0.00    -0.063 N 
ATOM     28  H73 UNL     1      56.455  -1.495  45.696  1.00  0.00     0.275 HD
ATOM     29  H72 UNL     1      57.769  -1.916  45.005  1.00  0.00     0.275 HD
ATOM     30  H71 UNL     1      57.801  -1.755  46.691  1.00  0.00     0.275 HD
ENDBRANCH   1  27
BRANCH   1  31
HETATM   31  C8  UNL     1      58.166   0.347  44.256  1.00  0.00     0.325 C 
BRANCH  31  32
HETATM   32  N8  UNL     1      57.148  -0.204  43.405  1.00  0.00    -0.056 N 
ATOM     33  H83 UNL     1      57.320  -1.186  43.189  1.00  0.00     0.276 HD
ATOM     34  H82 UNL     1      56.258  -0.314  43.893  1.00  0.00     0.276 HD
ATOM     35  H81 UNL     1      57.054   0.362  42.561  1.00  0.00     0.276 HD
ENDBRANCH  31  32
BRANCH  31  36
HETATM   36  N9  UNL     1      58.336   1.745  44.006  1.00  0.00    -0.307 N 
HETATM   37  C9  UNL     1      58.992   2.211  42.803  1.00  0.00     0.363 C 
HETATM   38  O2  UNL     1      59.414   1.388  41.970  1.00  0.00    -0.238 OA
ATOM     39  H9  UNL     1      57.990   2.423  44.686  1.00  0.00     0.167 HD
BRANCH  37  40
HETATM   40  O3  UNL     1      59.149   3.551  42.576  1.00  0.00    -0.285 OA
BRANCH  40  41
HETATM   41  C10 UNL     1      58.674   4.506  43.511  1.00  0.00     0.265 C 
BRANCH  41  42
HETATM   42  C11 UNL     1      59.774   5.426  43.876  1.00  0.00     0.206 C 
HETATM   43  O4  UNL     1      59.864   5.864  45.074  1.00  0.00    -0.646 OA
HETATM   44  O5  UNL     1      60.684   5.796  42.913  1.00  0.00    -0.646 OA
ENDBRANCH  41  42
BRANCH  41  45
HETATM   45  C12 UNL     1      57.492   5.208  42.925  1.00  0.00     0.189 C 
BRANCH  45  46
HETATM   46  O6  UNL     1      57.578   6.574  43.095  1.00  0.00    -0.390 OA
ATOM     47  H6  UNL     1      56.852   7.024  42.679  1.00  0.00     0.210 HD
ENDBRANCH  45  46
BRANCH  45  48
HETATM   48  C13 UNL     1      56.166   4.659  43.364  1.00  0.00     0.173 C 
BRANCH  48  49
HETATM   49  O7  UNL     1      56.269   4.013  44.597  1.00  0.00    -0.391 OA
ATOM     50  H7  UNL     1      55.415   3.892  44.994  1.00  0.00     0.210 HD
ENDBRANCH  48  49
BRANCH  48  51
HETATM   51  C14 UNL     1      55.696   3.575  42.385  1.00  0.00     0.198 C 
BRANCH  51  52
HETATM   52  O8  UNL     1      55.493   2.378  43.029  1.00  0.00    -0.398 OA
ATOM     53  H8  UNL     1      56.114   1.722  42.737  1.00  0.00     0.209 HD
ENDBRANCH  51  52
ENDBRANCH  48  51
ENDBRANCH  45  48
ENDBRANCH  41  45
ENDBRANCH  40  41
ENDBRANCH  37  40
ENDBRANCH  31  36
ENDBRANCH   1  31
TORSDOF 17
ENDMDL
MODEL 2
REMARK VINA RESULT: -6.282305683      4.334      5.059
REMARK  17 active torsions:
REMARK  status: ('A' for Active; 'I' for Inactive)
REMARK    1  A    between atoms: N1_1  and  C1_5 
REMARK    2  A    between atoms: C2_8  and  N4_9 
REMARK    3  A    between atoms: C5_14  and  N6_15 
REMARK       I    between atoms: N6_15  and  C6_17 
REMARK    4  A    between atoms: C6_17  and  C7_19 
REMARK    5  A    between atoms: C7_19  and  N7_20 
REMARK    6  A    between atoms: C7_19  and  C8_24 
REMARK    7  A    between atoms: C8_24  and  N8_25 
REMARK    8  A    between atoms: C8_24  and  N9_29 
REMARK       I    between atoms: N9_29  and  C9_31 
REMARK    9  A    between atoms: C9_31  and  O3_33 
REMARK   10  A    between atoms: O3_33  and  C10_34 
REMARK   11  A    between atoms: C10_34  and  C11_35 
REMARK   12  A    between atoms: C10_34  and  C12_38 
REMARK   13  A    between atoms: C12_38  and  O6_39 
REMARK   14  A    between atoms: C12_38  and  C13_41 
REMARK   15  A    between atoms: C13_41  and  O7_42 
REMARK   16  A    between atoms: C13_41  and  C14_44 
REMARK   17  A    between atoms: C14_44  and  O8_45 
ROOT
HETATM    1  C7  UNL     1      58.884   1.083  47.205  1.00  0.00     0.324 C 
ENDROOT
BRANCH   1   2
HETATM    2  C6  UNL     1      59.535   1.806  48.308  1.00  0.00     0.257 C 
HETATM    3  N6  UNL     1      60.929   1.619  48.557  1.00  0.00    -0.309 N 
ATOM      4  H6  UNL     1      61.241   0.953  49.264  1.00  0.00     0.170 HD
HETATM    5  O1  UNL     1      58.917   2.589  49.049  1.00  0.00    -0.271 OA
BRANCH   3   6
HETATM    6  C5  UNL     1      61.790   2.300  47.876  1.00  0.00     0.140 A 
HETATM    7  C4  UNL     1      62.621   3.194  48.511  1.00  0.00     0.122 A 
HETATM    8  N5  UNL     1      62.753   3.552  49.794  1.00  0.00    -0.346 N 
HETATM    9  C16 UNL     1      63.567   3.953  47.831  1.00  0.00     0.142 A 
HETATM   10  C3  UNL     1      63.724   4.479  49.899  1.00  0.00     0.188 A 
ATOM     11  H5  UNL     1      62.204   3.182  50.570  1.00  0.00     0.167 HD
HETATM   12  N4  UNL     1      64.231   4.731  48.685  1.00  0.00    -0.298 N 
HETATM   13  N11 UNL     1      63.626   3.767  46.500  1.00  0.00    -0.336 N 
HETATM   14  C15 UNL     1      62.818   2.893  45.870  1.00  0.00     0.183 A 
ATOM     15  H11 UNL     1      64.302   4.301  45.953  1.00  0.00     0.168 HD
HETATM   16  N10 UNL     1      61.905   2.161  46.531  1.00  0.00    -0.337 N 
ATOM     17  H10 UNL     1      61.304   1.508  46.027  1.00  0.00     0.168 HD
BRANCH  12  18
HETATM   18  C2  UNL     1      65.278   5.658  48.398  1.00  0.00     0.267 C 
HETATM   19  N3  UNL     1      64.987   6.941  49.064  1.00  0.00    -0.108 NA
HETATM   20  N2  UNL     1      66.177   7.630  49.171  1.00  0.00    -0.101 NA
HETATM   21  C1  UNL     1      67.031   6.871  50.102  1.00  0.00     0.356 C 
HETATM   22  S1  UNL     1      66.785   5.203  49.357  1.00  0.00    -0.075 SA
BRANCH  21  23
HETATM   23  N1  UNL     1      68.389   7.298  49.975  1.00  0.00    -0.051 N 
ATOM     24  H13 UNL     1      69.023   6.515  49.820  1.00  0.00     0.277 HD
ATOM     25  H12 UNL     1      68.553   7.798  49.101  1.00  0.00     0.277 HD
ATOM     26  H11 UNL     1      68.657   7.851  50.789  1.00  0.00     0.277 HD
ENDBRANCH  21  23
ENDBRANCH  12  18
ENDBRANCH   3   6
ENDBRANCH   1   2
BRANCH   1  27
HETATM   27  N7  UNL     1      58.120  -0.034  47.743  1.00  0.00    -0.063 N 
ATOM     28  H73 UNL     1      58.161  -0.073  48.762  1.00  0.00     0.275 HD
ATOM     29  H72 UNL     1      57.115   0.102  47.643  1.00  0.00     0.275 HD
ATOM     30  H71 UNL     1      58.438  -0.901  47.310  1.00  0.00     0.275 HD
ENDBRANCH   1  27
BRANCH   1  31
HETATM   31  C8  UNL     1      57.945   1.985  46.421  1.00  0.00     0.325 C 
BRANCH  31  32
HETATM   32  N8  UNL     1      56.755   2.239  47.184  1.00  0.00    -0.056 N 
ATOM     33  H83 UNL     1      56.513   1.453  47.789  1.00  0.00     0.276 HD
ATOM     34  H82 UNL     1      56.906   2.942  47.908  1.00  0.00     0.276 HD
ATOM     35  H81 UNL     1      55.987   2.491  46.561  1.00  0.00     0.276 HD
ENDBRANCH  31  32
BRANCH  31  36
HETATM   36  N9  UNL     1      58.553   3.211  46.005  1.00  0.00    -0.307 N 
HETATM   37  C9  UNL     1      57.768   4.258  45.384  1.00  0.00     0.363 C 
HETATM   38  O2  UNL     1      56.547   4.094  45.209  1.00  0.00    -0.238 OA
ATOM     39  H9  UNL     1      59.554   3.350  46.147  1.00  0.00     0.167 HD
BRANCH  37  40
HETATM   40  O3  UNL     1      58.363   5.425  44.989  1.00  0.00    -0.285 OA
BRANCH  40  41
HETATM   41  C10 UNL     1      58.760   5.619  43.642  1.00  0.00     0.265 C 
BRANCH  41  42
HETATM   42  C11 UNL     1      60.213   5.361  43.516  1.00  0.00     0.206 C 
HETATM   43  O4  UNL     1      60.777   4.518  44.297  1.00  0.00    -0.646 OA
HETATM   44  O5  UNL     1      60.932   6.036  42.558  1.00  0.00    -0.646 OA
ENDBRANCH  41  42
BRANCH  41  45
HETATM   45  C12 UNL     1      57.931   4.739  42.764  1.00  0.00     0.189 C 
BRANCH  45  46
HETATM   46  O6  UNL     1      58.713   3.999  41.902  1.00  0.00    -0.390 OA
ATOM     47  H6  UNL     1      58.367   3.123  41.781  1.00  0.00     0.210 HD
ENDBRANCH  45  46
BRANCH  45  48
HETATM   48  C13 UNL     1      56.814   5.449  42.055  1.00  0.00     0.173 C 
BRANCH  48  49
HETATM   49  O7  UNL     1      56.241   6.428  42.869  1.00  0.00    -0.391 OA
ATOM     50  H7  UNL     1      56.147   7.250  42.403  1.00  0.00     0.210 HD
ENDBRANCH  48  49
BRANCH  48  51
HETATM   51  C14 UNL     1      55.675   4.466  41.754  1.00  0.00     0.198 C 
BRANCH  51  52
HETATM   52  O8  UNL     1      55.802   3.316  42.495  1.00  0.00    -0.398 OA
ATOM     53  H8  UNL     1      55.457   3.434  43.373  1.00  0.00     0.209 HD
ENDBRANCH  51  52
ENDBRANCH  48  51
ENDBRANCH  45  48
ENDBRANCH  41  45
ENDBRANCH  40  41
ENDBRANCH  37  40
ENDBRANCH  31  36
ENDBRANCH   1  31
TORSDOF 17
ENDMDL
MODEL 3
REMARK VINA RESULT: -6.199303548      2.201      3.987
REMARK  17 active torsions:
REMARK  status: ('A' for Active; 'I' for Inactive)
REMARK    1  A    between atoms: N1_1  and  C1_5 
REMARK    2  A    between atoms: C2_8  and  N4_9 
REMARK    3  A    between atoms: C5_14  and  N6_15 
REMARK       I    between atoms: N6_15  and  C6_17 
REMARK    4  A    between atoms: C6_17  and  C7_19 
REMARK    5  A    between atoms: C7_19  and  N7_20 
REMARK    6  A    between atoms: C7_19  and  C8_24 
REMARK    7  A    between atoms: C8_24  and  N8_25 
REMARK    8  A    between atoms: C8_24  and  N9_29 
REMARK       I    between atoms: N9_29  and  C9_31 
REMARK    9  A    between atoms: C9_31  and  O3_33 
REMARK   10  A    between atoms: O3_33  and  C10_34 
REMARK   11  A    between atoms: C10_34  and  C11_35 
REMARK   12  A    between atoms: C10_34  and  C12_38 
REMARK   13  A    between atoms: C12_38  and  O6_39 
REMARK   14  A    between atoms: C12_38  and  C13_41 
REMARK   15  A    between atoms: C13_41  and  O7_42 
REMARK   16  A    between atoms: C13_41  and  C14_44 
REMARK   17  A    between atoms: C14_44  and  O8_45 
ROOT
HETATM    1  C7  UNL     1      55.119   0.848  41.325  1.00  0.00     0.324 C 
ENDROOT
BRANCH   1   2
HETATM    2  C6  UNL     1      54.910  -0.027  42.489  1.00  0.00     0.257 C 
HETATM    3  N6  UNL     1      55.946  -0.179  43.460  1.00  0.00    -0.309 N 
ATOM      4  H6  UNL     1      56.587  -0.971  43.411  1.00  0.00     0.170 HD
HETATM    5  O1  UNL     1      53.853  -0.654  42.670  1.00  0.00    -0.271 OA
BRANCH   3   6
HETATM    6  C5  UNL     1      56.063   0.698  44.401  1.00  0.00     0.140 A 
HETATM    7  C4  UNL     1      57.304   1.007  44.908  1.00  0.00     0.122 A 
HETATM    8  N5  UNL     1      58.534   0.562  44.620  1.00  0.00    -0.346 N 
HETATM    9  C16 UNL     1      57.491   1.942  45.920  1.00  0.00     0.142 A 
HETATM   10  C3  UNL     1      59.427   1.188  45.410  1.00  0.00     0.188 A 
ATOM     11  H5  UNL     1      58.758  -0.139  43.916  1.00  0.00     0.167 HD
HETATM   12  N4  UNL     1      58.786   2.044  46.217  1.00  0.00    -0.298 N 
HETATM   13  N11 UNL     1      56.378   2.537  46.385  1.00  0.00    -0.336 N 
HETATM   14  C15 UNL     1      55.159   2.243  45.895  1.00  0.00     0.183 A 
ATOM     15  H11 UNL     1      56.460   3.230  47.129  1.00  0.00     0.168 HD
HETATM   16  N10 UNL     1      54.983   1.338  44.917  1.00  0.00    -0.337 N 
ATOM     17  H10 UNL     1      54.047   1.133  44.566  1.00  0.00     0.168 HD
BRANCH  12  18
HETATM   18  C2  UNL     1      59.401   2.885  47.193  1.00  0.00     0.267 C 
HETATM   19  N3  UNL     1      58.603   4.116  47.344  1.00  0.00    -0.108 NA
HETATM   20  N2  UNL     1      58.924   4.667  48.567  1.00  0.00    -0.101 NA
HETATM   21  C1  UNL     1      58.437   3.736  49.600  1.00  0.00     0.356 C 
HETATM   22  S1  UNL     1      59.122   2.186  48.875  1.00  0.00    -0.075 SA
BRANCH  21  23
HETATM   23  N1  UNL     1      59.052   4.035  50.855  1.00  0.00    -0.051 N 
ATOM     24  H13 UNL     1      60.058   3.867  50.837  1.00  0.00     0.277 HD
ATOM     25  H12 UNL     1      59.071   5.037  51.042  1.00  0.00     0.277 HD
ATOM     26  H11 UNL     1      58.591   3.514  51.601  1.00  0.00     0.277 HD
ENDBRANCH  21  23
ENDBRANCH  12  18
ENDBRANCH   3   6
ENDBRANCH   1   2
BRANCH   1  27
HETATM   27  N7  UNL     1      54.470   2.130  41.561  1.00  0.00    -0.063 N 
ATOM     28  H73 UNL     1      53.510   2.145  41.216  1.00  0.00     0.275 HD
ATOM     29  H72 UNL     1      54.273   2.286  42.549  1.00  0.00     0.275 HD
ATOM     30  H71 UNL     1      55.037   2.875  41.158  1.00  0.00     0.275 HD
ENDBRANCH   1  27
BRANCH   1  31
HETATM   31  C8  UNL     1      56.597   1.087  41.063  1.00  0.00     0.325 C 
BRANCH  31  32
HETATM   32  N8  UNL     1      56.913   0.766  39.699  1.00  0.00    -0.056 N 
ATOM     33  H83 UNL     1      57.382  -0.136  39.617  1.00  0.00     0.276 HD
ATOM     34  H82 UNL     1      56.078   0.549  39.153  1.00  0.00     0.276 HD
ATOM     35  H81 UNL     1      57.458   1.519  39.280  1.00  0.00     0.276 HD
ENDBRANCH  31  32
BRANCH  31  36
HETATM   36  N9  UNL     1      57.022   2.414  41.385  1.00  0.00    -0.307 N 
HETATM   37  C9  UNL     1      58.371   2.672  41.844  1.00  0.00     0.363 C 
HETATM   38  O2  UNL     1      59.175   1.730  41.961  1.00  0.00    -0.238 OA
ATOM     39  H9  UNL     1      56.366   3.190  41.289  1.00  0.00     0.167 HD
BRANCH  37  40
HETATM   40  O3  UNL     1      58.765   3.947  42.150  1.00  0.00    -0.285 OA
BRANCH  40  41
HETATM   41  C10 UNL     1      58.593   4.465  43.458  1.00  0.00     0.265 C 
BRANCH  41  42
HETATM   42  C11 UNL     1      59.689   5.414  43.758  1.00  0.00     0.206 C 
HETATM   43  O4  UNL     1      59.737   5.987  44.901  1.00  0.00    -0.646 OA
HETATM   44  O5  UNL     1      60.641   5.663  42.797  1.00  0.00    -0.646 OA
ENDBRANCH  41  42
BRANCH  41  45
HETATM   45  C12 UNL     1      57.238   5.086  43.557  1.00  0.00     0.189 C 
BRANCH  45  46
HETATM   46  O6  UNL     1      56.238   4.139  43.486  1.00  0.00    -0.390 OA
ATOM     47  H6  UNL     1      56.581   3.260  43.599  1.00  0.00     0.210 HD
ENDBRANCH  45  46
BRANCH  45  48
HETATM   48  C13 UNL     1      57.010   6.230  42.612  1.00  0.00     0.173 C 
BRANCH  48  49
HETATM   49  O7  UNL     1      56.525   7.353  43.285  1.00  0.00    -0.391 OA
ATOM     50  H7  UNL     1      57.179   8.041  43.322  1.00  0.00     0.210 HD
ENDBRANCH  48  49
BRANCH  48  51
HETATM   51  C14 UNL     1      55.914   5.867  41.603  1.00  0.00     0.198 C 
BRANCH  51  52
HETATM   52  O8  UNL     1      56.420   5.120  40.566  1.00  0.00    -0.398 OA
ATOM     53  H8  UNL     1      56.580   4.223  40.835  1.00  0.00     0.209 HD
ENDBRANCH  51  52
ENDBRANCH  48  51
ENDBRANCH  45  48
ENDBRANCH  41  45
ENDBRANCH  40  41
ENDBRANCH  37  40
ENDBRANCH  31  36
ENDBRANCH   1  31
TORSDOF 17
ENDMDL
MODEL 4
REMARK VINA RESULT: -6.143894569      2.440      3.704
REMARK  17 active torsions:
REMARK  status: ('A' for Active; 'I' for Inactive)
REMARK    1  A    between atoms: N1_1  and  C1_5 
REMARK    2  A    between atoms: C2_8  and  N4_9 
REMARK    3  A    between atoms: C5_14  and  N6_15 
REMARK       I    between atoms: N6_15  and  C6_17 
REMARK    4  A    between atoms: C6_17  and  C7_19 
REMARK    5  A    between atoms: C7_19  and  N7_20 
REMARK    6  A    between atoms: C7_19  and  C8_24 
REMARK    7  A    between atoms: C8_24  and  N8_25 
REMARK    8  A    between atoms: C8_24  and  N9_29 
REMARK       I    between atoms: N9_29  and  C9_31 
REMARK    9  A    between atoms: C9_31  and  O3_33 
REMARK   10  A    between atoms: O3_33  and  C10_34 
REMARK   11  A    between atoms: C10_34  and  C11_35 
REMARK   12  A    between atoms: C10_34  and  C12_38 
REMARK   13  A    between atoms: C12_38  and  O6_39 
REMARK   14  A    between atoms: C12_38  and  C13_41 
REMARK   15  A    between atoms: C13_41  and  O7_42 
REMARK   16  A    between atoms: C13_41  and  C14_44 
REMARK   17  A    between atoms: C14_44  and  O8_45 
ROOT
HETATM    1  C7  UNL     1      61.886   2.198  47.273  1.00  0.00     0.324 C 
ENDROOT
BRANCH   1   2
HETATM    2  C6  UNL     1      60.645   1.540  47.708  1.00  0.00     0.257 C 
HETATM    3  N6  UNL     1      60.391   1.348  49.100  1.00  0.00    -0.309 N 
ATOM      4  H6  UNL     1      60.615   0.458  49.547  1.00  0.00     0.170 HD
HETATM    5  O1  UNL     1      59.788   1.135  46.905  1.00  0.00    -0.271 OA
BRANCH   3   6
HETATM    6  C5  UNL     1      59.877   2.312  49.788  1.00  0.00     0.140 A 
HETATM    7  C4  UNL     1      60.417   2.660  51.005  1.00  0.00     0.122 A 
HETATM    8  N5  UNL     1      61.453   2.179  51.703  1.00  0.00    -0.346 N 
HETATM    9  C16 UNL     1      59.906   3.688  51.788  1.00  0.00     0.142 A 
HETATM   10  C3  UNL     1      61.574   2.872  52.851  1.00  0.00     0.188 A 
ATOM     11  H5  UNL     1      62.055   1.409  51.413  1.00  0.00     0.167 HD
HETATM   12  N4  UNL     1      60.617   3.809  52.908  1.00  0.00    -0.298 N 
HETATM   13  N11 UNL     1      58.839   4.336  51.287  1.00  0.00    -0.336 N 
HETATM   14  C15 UNL     1      58.303   4.005  50.097  1.00  0.00     0.183 A 
ATOM     15  H11 UNL     1      58.425   5.099  51.822  1.00  0.00     0.168 HD
HETATM   16  N10 UNL     1      58.800   3.009  49.343  1.00  0.00    -0.337 N 
ATOM     17  H10 UNL     1      58.373   2.779  48.446  1.00  0.00     0.168 HD
BRANCH  12  18
HETATM   18  C2  UNL     1      60.426   4.737  53.976  1.00  0.00     0.267 C 
HETATM   19  N3  UNL     1      60.072   6.055  53.416  1.00  0.00    -0.108 NA
HETATM   20  N2  UNL     1      59.453   6.774  54.416  1.00  0.00    -0.101 NA
HETATM   21  C1  UNL     1      58.176   6.097  54.706  1.00  0.00     0.356 C 
HETATM   22  S1  UNL     1      58.832   4.379  54.828  1.00  0.00    -0.075 SA
BRANCH  21  23
HETATM   23  N1  UNL     1      57.662   6.545  55.962  1.00  0.00    -0.051 N 
ATOM     24  H13 UNL     1      58.333   6.412  56.719  1.00  0.00     0.277 HD
ATOM     25  H12 UNL     1      57.587   7.561  56.005  1.00  0.00     0.277 HD
ATOM     26  H11 UNL     1      56.771   6.086  56.157  1.00  0.00     0.277 HD
ENDBRANCH  21  23
ENDBRANCH  12  18
ENDBRANCH   3   6
ENDBRANCH   1   2
BRANCH   1  27
HETATM   27  N7  UNL     1      62.099   1.941  45.856  1.00  0.00    -0.063 N 
ATOM     28  H73 UNL     1      63.084   1.792  45.634  1.00  0.00     0.275 HD
ATOM     29  H72 UNL     1      61.746   1.027  45.573  1.00  0.00     0.275 HD
ATOM     30  H71 UNL     1      61.690   2.698  45.309  1.00  0.00     0.275 HD
ENDBRANCH   1  27
BRANCH   1  31
HETATM   31  C8  UNL     1      61.831   3.700  47.495  1.00  0.00     0.325 C 
BRANCH  31  32
HETATM   32  N8  UNL     1      63.112   4.179  47.937  1.00  0.00    -0.056 N 
ATOM     33  H83 UNL     1      63.844   3.480  47.815  1.00  0.00     0.276 HD
ATOM     34  H82 UNL     1      63.487   4.897  47.315  1.00  0.00     0.276 HD
ATOM     35  H81 UNL     1      63.050   4.504  48.902  1.00  0.00     0.276 HD
ENDBRANCH  31  32
BRANCH  31  36
HETATM   36  N9  UNL     1      61.383   4.427  46.348  1.00  0.00    -0.307 N 
HETATM   37  C9  UNL     1      60.169   5.216  46.394  1.00  0.00     0.363 C 
HETATM   38  O2  UNL     1      59.504   5.265  47.445  1.00  0.00    -0.238 OA
ATOM     39  H9  UNL     1      61.927   4.390  45.485  1.00  0.00     0.167 HD
BRANCH  37  40
HETATM   40  O3  UNL     1      59.751   5.906  45.289  1.00  0.00    -0.285 OA
BRANCH  40  41
HETATM   41  C10 UNL     1      58.918   5.291  44.321  1.00  0.00     0.265 C 
BRANCH  41  42
HETATM   42  C11 UNL     1      59.581   5.341  42.998  1.00  0.00     0.206 C 
HETATM   43  O4  UNL     1      58.991   4.852  41.974  1.00  0.00    -0.646 OA
HETATM   44  O5  UNL     1      60.826   5.917  42.895  1.00  0.00    -0.646 OA
ENDBRANCH  41  42
BRANCH  41  45
HETATM   45  C12 UNL     1      58.606   3.899  44.767  1.00  0.00     0.189 C 
BRANCH  45  46
HETATM   46  O6  UNL     1      59.524   2.992  44.280  1.00  0.00    -0.390 OA
ATOM     47  H6  UNL     1      60.218   2.826  44.908  1.00  0.00     0.210 HD
ENDBRANCH  45  46
BRANCH  45  48
HETATM   48  C13 UNL     1      57.190   3.471  44.515  1.00  0.00     0.173 C 
BRANCH  48  49
HETATM   49  O7  UNL     1      56.409   4.541  44.074  1.00  0.00    -0.391 OA
ATOM     50  H7  UNL     1      55.498   4.288  43.985  1.00  0.00     0.210 HD
ENDBRANCH  48  49
BRANCH  48  51
HETATM   51  C14 UNL     1      56.537   3.017  45.827  1.00  0.00     0.198 C 
BRANCH  51  52
HETATM   52  O8  UNL     1      57.465   2.917  46.836  1.00  0.00    -0.398 OA
ATOM     53  H8  UNL     1      57.696   3.773  47.177  1.00  0.00     0.209 HD
ENDBRANCH  51  52
ENDBRANCH  48  51
ENDBRANCH  45  48
ENDBRANCH  41  45
ENDBRANCH  40  41
ENDBRANCH  37  40
ENDBRANCH  31  36
ENDBRANCH   1  31
TORSDOF 17
ENDMDL
MODEL 5
REMARK VINA RESULT: -6.026927172      0.715      1.208
REMARK  17 active torsions:
REMARK  status: ('A' for Active; 'I' for Inactive)
REMARK    1  A    between atoms: N1_1  and  C1_5 
REMARK    2  A    between atoms: C2_8  and  N4_9 
REMARK    3  A    between atoms: C5_14  and  N6_15 
REMARK       I    between atoms: N6_15  and  C6_17 
REMARK    4  A    between atoms: C6_17  and  C7_19 
REMARK    5  A    between atoms: C7_19  and  N7_20 
REMARK    6  A    between atoms: C7_19  and  C8_24 
REMARK    7  A    between atoms: C8_24  and  N8_25 
REMARK    8  A    between atoms: C8_24  and  N9_29 
REMARK       I    between atoms: N9_29  and  C9_31 
REMARK    9  A    between atoms: C9_31  and  O3_33 
REMARK   10  A    between atoms: O3_33  and  C10_34 
REMARK   11  A    between atoms: C10_34  and  C11_35 
REMARK   12  A    between atoms: C10_34  and  C12_38 
REMARK   13  A    between atoms: C12_38  and  O6_39 
REMARK   14  A    between atoms: C12_38  and  C13_41 
REMARK   15  A    between atoms: C13_41  and  O7_42 
REMARK   16  A    between atoms: C13_41  and  C14_44 
REMARK   17  A    between atoms: C14_44  and  O8_45 
ROOT
HETATM    1  C7  UNL     1      57.893  -0.117  45.940  1.00  0.00     0.324 C 
ENDROOT
BRANCH   1   2
HETATM    2  C6  UNL     1      56.822   0.787  46.386  1.00  0.00     0.257 C 
HETATM    3  N6  UNL     1      56.721   1.146  47.765  1.00  0.00    -0.309 N 
ATOM      4  H6  UNL     1      56.085   0.642  48.383  1.00  0.00     0.170 HD
HETATM    5  O1  UNL     1      55.983   1.264  45.604  1.00  0.00    -0.271 OA
BRANCH   3   6
HETATM    6  C5  UNL     1      57.445   2.114  48.221  1.00  0.00     0.140 A 
HETATM    7  C4  UNL     1      57.649   2.246  49.575  1.00  0.00     0.122 A 
HETATM    8  N5  UNL     1      57.228   1.533  50.626  1.00  0.00    -0.346 N 
HETATM    9  C16 UNL     1      58.418   3.267  50.122  1.00  0.00     0.142 A 
HETATM   10  C3  UNL     1      57.711   2.082  51.757  1.00  0.00     0.188 A 
ATOM     11  H5  UNL     1      56.635   0.704  50.579  1.00  0.00     0.167 HD
HETATM   12  N4  UNL     1      58.448   3.157  51.450  1.00  0.00    -0.298 N 
HETATM   13  N11 UNL     1      58.960   4.132  49.246  1.00  0.00    -0.336 N 
HETATM   14  C15 UNL     1      58.767   4.010  47.919  1.00  0.00     0.183 A 
ATOM     15  H11 UNL     1      59.532   4.900  49.595  1.00  0.00     0.168 HD
HETATM   16  N10 UNL     1      58.022   3.022  47.394  1.00  0.00    -0.337 N 
ATOM     17  H10 UNL     1      57.892   2.955  46.384  1.00  0.00     0.168 HD
BRANCH  12  18
HETATM   18  C2  UNL     1      59.122   3.998  52.387  1.00  0.00     0.267 C 
HETATM   19  N3  UNL     1      59.170   5.374  51.857  1.00  0.00    -0.108 NA
HETATM   20  N2  UNL     1      59.380   6.219  52.927  1.00  0.00    -0.101 NA
HETATM   21  C1  UNL     1      58.176   6.150  53.774  1.00  0.00     0.356 C 
HETATM   22  S1  UNL     1      58.024   4.314  53.833  1.00  0.00    -0.075 SA
BRANCH  21  23
HETATM   23  N1  UNL     1      58.459   6.687  55.067  1.00  0.00    -0.051 N 
ATOM     24  H13 UNL     1      59.353   6.357  55.431  1.00  0.00     0.277 HD
ATOM     25  H12 UNL     1      58.672   7.684  55.030  1.00  0.00     0.277 HD
ATOM     26  H11 UNL     1      57.689   6.483  55.705  1.00  0.00     0.277 HD
ENDBRANCH  21  23
ENDBRANCH  12  18
ENDBRANCH   3   6
ENDBRANCH   1   2
BRANCH   1  27
HETATM   27  N7  UNL     1      57.418  -1.492  45.993  1.00  0.00    -0.063 N 
ATOM     28  H73 UNL     1      57.835  -2.015  46.764  1.00  0.00     0.275 HD
ATOM     29  H72 UNL     1      56.443  -1.552  46.287  1.00  0.00     0.275 HD
ATOM     30  H71 UNL     1      57.578  -1.941  45.092  1.00  0.00     0.275 HD
ENDBRANCH   1  27
BRANCH   1  31
HETATM   31  C8  UNL     1      58.333   0.195  44.519  1.00  0.00     0.325 C 
BRANCH  31  32
HETATM   32  N8  UNL     1      57.468  -0.464  43.581  1.00  0.00    -0.056 N 
ATOM     33  H83 UNL     1      57.513  -0.037  42.655  1.00  0.00     0.276 HD
ATOM     34  H82 UNL     1      57.808  -1.393  43.333  1.00  0.00     0.276 HD
ATOM     35  H81 UNL     1      56.515  -0.490  43.943  1.00  0.00     0.276 HD
ENDBRANCH  31  32
BRANCH  31  36
HETATM   36  N9  UNL     1      58.410   1.596  44.244  1.00  0.00    -0.307 N 
HETATM   37  C9  UNL     1      59.069   2.085  43.051  1.00  0.00     0.363 C 
HETATM   38  O2  UNL     1      59.576   1.279  42.250  1.00  0.00    -0.238 OA
ATOM     39  H9  UNL     1      57.995   2.261  44.898  1.00  0.00     0.167 HD
BRANCH  37  40
HETATM   40  O3  UNL     1      59.137   3.429  42.800  1.00  0.00    -0.285 OA
BRANCH  40  41
HETATM   41  C10 UNL     1      58.697   4.370  43.766  1.00  0.00     0.265 C 
BRANCH  41  42
HETATM   42  C11 UNL     1      59.754   5.385  43.979  1.00  0.00     0.206 C 
HETATM   43  O4  UNL     1      59.888   5.928  45.130  1.00  0.00    -0.646 OA
HETATM   44  O5  UNL     1      60.576   5.726  42.931  1.00  0.00    -0.646 OA
ENDBRANCH  41  42
BRANCH  41  45
HETATM   45  C12 UNL     1      57.402   4.960  43.309  1.00  0.00     0.189 C 
BRANCH  45  46
HETATM   46  O6  UNL     1      56.361   4.606  44.142  1.00  0.00    -0.390 OA
ATOM     47  H6  UNL     1      55.522   4.869  43.783  1.00  0.00     0.210 HD
ENDBRANCH  45  46
BRANCH  45  48
HETATM   48  C13 UNL     1      57.086   4.715  41.863  1.00  0.00     0.173 C 
BRANCH  48  49
HETATM   49  O7  UNL     1      58.099   5.202  41.035  1.00  0.00    -0.391 OA
ATOM     50  H7  UNL     1      58.824   4.590  40.982  1.00  0.00     0.210 HD
ENDBRANCH  48  49
BRANCH  48  51
HETATM   51  C14 UNL     1      55.831   5.500  41.459  1.00  0.00     0.198 C 
BRANCH  51  52
HETATM   52  O8  UNL     1      55.759   6.699  42.127  1.00  0.00    -0.398 OA
ATOM     53  H8  UNL     1      54.975   7.179  41.887  1.00  0.00     0.209 HD
ENDBRANCH  51  52
ENDBRANCH  48  51
ENDBRANCH  45  48
ENDBRANCH  41  45
ENDBRANCH  40  41
ENDBRANCH  37  40
ENDBRANCH  31  36
ENDBRANCH   1  31
TORSDOF 17
ENDMDL
