MODEL 1
REMARK VINA RESULT: -6.889122494      0.000      0.000
REMARK  11 active torsions:
REMARK  status: ('A' for Active; 'I' for Inactive)
REMARK    1  A    between atoms: C2_2  and  O1_4 
REMARK    2  A    between atoms: C2_2  and  N1_6 
REMARK       I    between atoms: N1_6  and  C4_8 
REMARK    3  A    between atoms: C4_8  and  C5_10 
REMARK    4  A    between atoms: C7_14  and  C8_15 
REMARK    5  A    between atoms: C8_15  and  N3_16 
REMARK       I    between atoms: N3_16  and  C9_18 
REMARK       I    between atoms: C9_18  and  N4_20 
REMARK    6  A    between atoms: C11_22  and  C12_23 
REMARK    7  A    between atoms: C12_23  and  N7_29 
REMARK    8  A    between atoms: N5_24  and  N6_26 
REMARK    9  A    between atoms: N7_29  and  N8_31 
REMARK   10  A    between atoms: N11_38  and  N12_39 
REMARK   11  A    between atoms: N12_39  and  C13_41 
ROOT
HETATM    1  C5  UNL     1     -37.333  -0.808  45.523  1.00  0.00     0.141 A 
HETATM    2  C6  UNL     1     -36.688  -1.831  44.783  1.00  0.00     0.127 A 
HETATM    3  N2  UNL     1     -36.194  -2.685  45.653  1.00  0.00    -0.350 N 
ATOM      4  H2  UNL     1     -35.672  -3.533  45.433  1.00  0.00     0.166 HD
HETATM    5  C7  UNL     1     -36.495  -2.253  46.860  1.00  0.00     0.122 A 
HETATM    6  N11 UNL     1     -37.212  -1.078  46.830  1.00  0.00    -0.233 N 
ENDROOT
BRANCH   5   7
HETATM    7  C8  UNL     1     -36.108  -2.955  48.107  1.00  0.00     0.203 C 
BRANCH   7   8
HETATM    8  N3  UNL     1     -34.697  -2.728  48.367  1.00  0.00    -0.334 N 
HETATM    9  C9  UNL     1     -34.282  -1.566  49.056  1.00  0.00     0.342 C 
HETATM   10  O3  UNL     1     -35.145  -0.733  49.440  1.00  0.00    -0.245 OA
HETATM   11  N4  UNL     1     -32.899  -1.367  49.297  1.00  0.00    -0.200 N 
HETATM   12  C10 UNL     1     -32.385  -0.305  49.939  1.00  0.00     0.158 A 
HETATM   13  N10 UNL     1     -31.884  -2.141  48.961  1.00  0.00    -0.232 N 
HETATM   14  C11 UNL     1     -31.013  -0.448  49.989  1.00  0.00     0.113 A 
HETATM   15  N9  UNL     1     -30.736  -1.596  49.374  1.00  0.00    -0.281 N 
ATOM     16  H9  UNL     1     -29.805  -1.992  49.242  1.00  0.00     0.188 HD
ATOM     17  H10 UNL     1     -31.964  -3.026  48.459  1.00  0.00     0.209 HD
ATOM     18  H3  UNL     1     -34.005  -3.408  48.052  1.00  0.00     0.164 HD
BRANCH  14  19
HETATM   19  C12 UNL     1     -30.121   0.517  50.613  1.00  0.00     0.164 C 
HETATM   20  N5  UNL     1     -30.412   1.779  50.558  1.00  0.00    -0.289 N 
ATOM     21  H5  UNL     1     -31.260   2.081  50.080  1.00  0.00     0.188 HD
BRANCH  20  22
HETATM   22  N6  UNL     1     -29.578   2.724  51.146  1.00  0.00    -0.344 N 
ATOM     23  H62 UNL     1     -28.572   2.651  50.996  1.00  0.00     0.176 HD
ATOM     24  H61 UNL     1     -29.965   3.476  51.716  1.00  0.00     0.176 HD
ENDBRANCH  20  22
BRANCH  19  25
HETATM   25  N7  UNL     1     -28.951   0.058  51.268  1.00  0.00    -0.289 N 
ATOM     26  H7  UNL     1     -28.960  -0.007  52.286  1.00  0.00     0.188 HD
BRANCH  25  27
HETATM   27  N8  UNL     1     -27.803  -0.304  50.599  1.00  0.00    -0.344 N 
ATOM     28  H82 UNL     1     -27.069  -0.761  51.142  1.00  0.00     0.176 HD
ATOM     29  H81 UNL     1     -27.658  -0.137  49.603  1.00  0.00     0.176 HD
ENDBRANCH  25  27
ENDBRANCH  19  25
ENDBRANCH  14  19
ENDBRANCH   7   8
ENDBRANCH   5   7
BRANCH   6  30
HETATM   30  N12 UNL     1     -37.696  -0.493  47.938  1.00  0.00    -0.262 N 
ATOM     31  H12 UNL     1     -37.303   0.439  48.076  1.00  0.00     0.190 HD
BRANCH  30  32
HETATM   32  C13 UNL     1     -38.605  -0.829  48.959  1.00  0.00     0.207 C 
HETATM   33  N13 UNL     1     -38.326  -0.962  50.216  1.00  0.00    -0.345 N 
HETATM   34  C14 UNL     1     -39.495  -1.316  50.993  1.00  0.00     0.259 C 
ATOM     35  H13 UNL     1     -37.394  -0.833  50.611  1.00  0.00     0.164 HD
HETATM   36  N14 UNL     1     -40.503  -1.706  49.992  1.00  0.00    -0.119 NA
HETATM   37  N15 UNL     1     -40.026  -1.030  48.865  1.00  0.00    -0.272 N 
ATOM     38  H15 UNL     1     -40.605  -0.721  48.085  1.00  0.00     0.185 HD
ENDBRANCH  30  32
ENDBRANCH   6  30
BRANCH   1  39
HETATM   39  C4  UNL     1     -37.901   0.308  44.824  1.00  0.00     0.274 C 
HETATM   40  N1  UNL     1     -38.546   0.140  43.558  1.00  0.00    -0.324 N 
ATOM     41  H1  UNL     1     -38.614  -0.784  43.129  1.00  0.00     0.165 HD
HETATM   42  O2  UNL     1     -37.868   1.468  45.264  1.00  0.00    -0.266 OA
BRANCH  40  43
HETATM   43  C2  UNL     1     -39.099   1.294  42.900  1.00  0.00     0.126 C 
HETATM   44  C1  UNL     1     -37.972   2.005  42.215  1.00  0.00     0.070 C 
HETATM   45  C3  UNL     1     -40.117   0.870  41.853  1.00  0.00     0.070 C 
BRANCH  43  46
HETATM   46  O1  UNL     1     -39.770   2.105  43.811  1.00  0.00    -0.372 OA
ATOM     47  H1  UNL     1     -40.351   1.614  44.379  1.00  0.00     0.212 HD
ENDBRANCH  43  46
ENDBRANCH  40  43
ENDBRANCH   1  39
TORSDOF 11
ENDMDL
MODEL 2
REMARK VINA RESULT: -6.885917283      3.477      6.413
REMARK  11 active torsions:
REMARK  status: ('A' for Active; 'I' for Inactive)
REMARK    1  A    between atoms: C2_2  and  O1_4 
REMARK    2  A    between atoms: C2_2  and  N1_6 
REMARK       I    between atoms: N1_6  and  C4_8 
REMARK    3  A    between atoms: C4_8  and  C5_10 
REMARK    4  A    between atoms: C7_14  and  C8_15 
REMARK    5  A    between atoms: C8_15  and  N3_16 
REMARK       I    between atoms: N3_16  and  C9_18 
REMARK       I    between atoms: C9_18  and  N4_20 
REMARK    6  A    between atoms: C11_22  and  C12_23 
REMARK    7  A    between atoms: C12_23  and  N7_29 
REMARK    8  A    between atoms: N5_24  and  N6_26 
REMARK    9  A    between atoms: N7_29  and  N8_31 
REMARK   10  A    between atoms: N11_38  and  N12_39 
REMARK   11  A    between atoms: N12_39  and  C13_41 
ROOT
HETATM    1  C5  UNL     1     -39.571  -0.691  44.519  1.00  0.00     0.141 A 
HETATM    2  C6  UNL     1     -40.698  -1.543  44.639  1.00  0.00     0.127 A 
HETATM    3  N2  UNL     1     -40.666  -2.058  45.848  1.00  0.00    -0.350 N 
ATOM      4  H2  UNL     1     -41.343  -2.712  46.240  1.00  0.00     0.166 HD
HETATM    5  C7  UNL     1     -39.605  -1.581  46.464  1.00  0.00     0.122 A 
HETATM    6  N11 UNL     1     -38.886  -0.715  45.671  1.00  0.00    -0.233 N 
ENDROOT
BRANCH   5   7
HETATM    7  C8  UNL     1     -39.231  -1.933  47.854  1.00  0.00     0.203 C 
BRANCH   7   8
HETATM    8  N3  UNL     1     -39.580  -0.834  48.738  1.00  0.00    -0.334 N 
HETATM    9  C9  UNL     1     -39.172  -0.856  50.091  1.00  0.00     0.342 C 
HETATM   10  O3  UNL     1     -38.506  -1.835  50.520  1.00  0.00    -0.245 OA
HETATM   11  N4  UNL     1     -39.526   0.228  50.933  1.00  0.00    -0.200 N 
HETATM   12  C10 UNL     1     -39.196   0.319  52.233  1.00  0.00     0.158 A 
HETATM   13  N10 UNL     1     -40.213   1.314  50.634  1.00  0.00    -0.232 N 
HETATM   14  C11 UNL     1     -39.705   1.502  52.729  1.00  0.00     0.113 A 
HETATM   15  N9  UNL     1     -40.328   2.095  51.712  1.00  0.00    -0.281 N 
ATOM     16  H9  UNL     1     -40.812   2.992  51.751  1.00  0.00     0.188 HD
ATOM     17  H10 UNL     1     -40.599   1.527  49.714  1.00  0.00     0.209 HD
ATOM     18  H3  UNL     1     -40.120  -0.046  48.381  1.00  0.00     0.164 HD
BRANCH  14  19
HETATM   19  C12 UNL     1     -39.543   1.938  54.108  1.00  0.00     0.164 C 
HETATM   20  N5  UNL     1     -40.465   1.659  54.974  1.00  0.00    -0.289 N 
ATOM     21  H5  UNL     1     -41.292   1.139  54.682  1.00  0.00     0.188 HD
BRANCH  20  22
HETATM   22  N6  UNL     1     -40.338   2.062  56.299  1.00  0.00    -0.344 N 
ATOM     23  H62 UNL     1     -39.913   2.968  56.497  1.00  0.00     0.176 HD
ATOM     24  H61 UNL     1     -40.663   1.463  57.058  1.00  0.00     0.176 HD
ENDBRANCH  20  22
BRANCH  19  25
HETATM   25  N7  UNL     1     -38.380   2.659  54.475  1.00  0.00    -0.289 N 
ATOM     26  H7  UNL     1     -37.625   2.155  54.939  1.00  0.00     0.188 HD
BRANCH  25  27
HETATM   27  N8  UNL     1     -38.219   4.006  54.237  1.00  0.00    -0.344 N 
ATOM     28  H82 UNL     1     -39.064   4.569  54.140  1.00  0.00     0.176 HD
ATOM     29  H81 UNL     1     -37.306   4.455  54.155  1.00  0.00     0.176 HD
ENDBRANCH  25  27
ENDBRANCH  19  25
ENDBRANCH  14  19
ENDBRANCH   7   8
ENDBRANCH   5   7
BRANCH   6  30
HETATM   30  N12 UNL     1     -37.809  -0.046  46.114  1.00  0.00    -0.262 N 
ATOM     31  H12 UNL     1     -37.981   0.959  46.158  1.00  0.00     0.190 HD
BRANCH  30  32
HETATM   32  C13 UNL     1     -36.505  -0.369  46.534  1.00  0.00     0.207 C 
HETATM   33  N13 UNL     1     -35.596  -0.951  45.820  1.00  0.00    -0.345 N 
HETATM   34  C14 UNL     1     -34.366  -1.135  46.561  1.00  0.00     0.259 C 
ATOM     35  H13 UNL     1     -35.730  -1.244  44.853  1.00  0.00     0.164 HD
HETATM   36  N14 UNL     1     -34.733  -0.872  47.964  1.00  0.00    -0.119 NA
HETATM   37  N15 UNL     1     -35.869  -0.076  47.790  1.00  0.00    -0.272 N 
ATOM     38  H15 UNL     1     -36.200   0.616  48.461  1.00  0.00     0.185 HD
ENDBRANCH  30  32
ENDBRANCH   6  30
BRANCH   1  39
HETATM   39  C4  UNL     1     -39.311  -0.049  43.263  1.00  0.00     0.274 C 
HETATM   40  N1  UNL     1     -40.358   0.591  42.527  1.00  0.00    -0.324 N 
ATOM     41  H1  UNL     1     -41.313   0.600  42.885  1.00  0.00     0.165 HD
HETATM   42  O2  UNL     1     -38.183  -0.009  42.746  1.00  0.00    -0.266 OA
BRANCH  40  43
HETATM   43  C2  UNL     1     -40.041   1.221  41.272  1.00  0.00     0.126 C 
HETATM   44  C1  UNL     1     -39.649   0.140  40.311  1.00  0.00     0.070 C 
HETATM   45  C3  UNL     1     -41.259   1.946  40.721  1.00  0.00     0.070 C 
BRANCH  43  46
HETATM   46  O1  UNL     1     -39.043   2.176  41.439  1.00  0.00    -0.372 OA
ATOM     47  H1  UNL     1     -38.678   2.174  42.316  1.00  0.00     0.212 HD
ENDBRANCH  43  46
ENDBRANCH  40  43
ENDBRANCH   1  39
TORSDOF 11
ENDMDL
MODEL 3
REMARK VINA RESULT: -6.817774353      5.413      6.990
REMARK  11 active torsions:
REMARK  status: ('A' for Active; 'I' for Inactive)
REMARK    1  A    between atoms: C2_2  and  O1_4 
REMARK    2  A    between atoms: C2_2  and  N1_6 
REMARK       I    between atoms: N1_6  and  C4_8 
REMARK    3  A    between atoms: C4_8  and  C5_10 
REMARK    4  A    between atoms: C7_14  and  C8_15 
REMARK    5  A    between atoms: C8_15  and  N3_16 
REMARK       I    between atoms: N3_16  and  C9_18 
REMARK       I    between atoms: C9_18  and  N4_20 
REMARK    6  A    between atoms: C11_22  and  C12_23 
REMARK    7  A    between atoms: C12_23  and  N7_29 
REMARK    8  A    between atoms: N5_24  and  N6_26 
REMARK    9  A    between atoms: N7_29  and  N8_31 
REMARK   10  A    between atoms: N11_38  and  N12_39 
REMARK   11  A    between atoms: N12_39  and  C13_41 
ROOT
HETATM    1  C5  UNL     1     -40.917  -1.238  44.581  1.00  0.00     0.141 A 
HETATM    2  C6  UNL     1     -41.817  -2.206  45.095  1.00  0.00     0.127 A 
HETATM    3  N2  UNL     1     -41.365  -2.566  46.276  1.00  0.00    -0.350 N 
ATOM      4  H2  UNL     1     -41.793  -3.250  46.900  1.00  0.00     0.166 HD
HETATM    5  C7  UNL     1     -40.261  -1.889  46.511  1.00  0.00     0.122 A 
HETATM    6  N11 UNL     1     -39.940  -1.039  45.476  1.00  0.00    -0.233 N 
ENDROOT
BRANCH   5   7
HETATM    7  C8  UNL     1     -39.459  -2.023  47.750  1.00  0.00     0.203 C 
BRANCH   7   8
HETATM    8  N3  UNL     1     -39.702  -0.874  48.606  1.00  0.00    -0.334 N 
HETATM    9  C9  UNL     1     -39.459  -0.962  49.995  1.00  0.00     0.342 C 
HETATM   10  O3  UNL     1     -39.033  -2.043  50.481  1.00  0.00    -0.245 OA
HETATM   11  N4  UNL     1     -39.704   0.173  50.809  1.00  0.00    -0.200 N 
HETATM   12  C10 UNL     1     -39.512   0.210  52.138  1.00  0.00     0.158 A 
HETATM   13  N10 UNL     1     -40.146   1.363  50.451  1.00  0.00    -0.232 N 
HETATM   14  C11 UNL     1     -39.851   1.468  52.592  1.00  0.00     0.113 A 
HETATM   15  N9  UNL     1     -40.239   2.158  51.521  1.00  0.00    -0.281 N 
ATOM     16  H9  UNL     1     -40.555   3.128  51.519  1.00  0.00     0.188 HD
ATOM     17  H10 UNL     1     -40.382   1.637  49.497  1.00  0.00     0.209 HD
ATOM     18  H3  UNL     1     -40.047  -0.003  48.203  1.00  0.00     0.164 HD
BRANCH  14  19
HETATM   19  C12 UNL     1     -39.769   1.875  53.987  1.00  0.00     0.164 C 
HETATM   20  N5  UNL     1     -40.743   1.586  54.791  1.00  0.00    -0.289 N 
ATOM     21  H5  UNL     1     -41.554   1.078  54.439  1.00  0.00     0.188 HD
BRANCH  20  22
HETATM   22  N6  UNL     1     -40.693   1.961  56.129  1.00  0.00    -0.344 N 
ATOM     23  H62 UNL     1     -40.652   1.232  56.841  1.00  0.00     0.176 HD
ATOM     24  H61 UNL     1     -40.697   2.946  56.393  1.00  0.00     0.176 HD
ENDBRANCH  20  22
BRANCH  19  25
HETATM   25  N7  UNL     1     -38.626   2.580  54.437  1.00  0.00    -0.289 N 
ATOM     26  H7  UNL     1     -37.955   2.088  55.028  1.00  0.00     0.188 HD
BRANCH  25  27
HETATM   27  N8  UNL     1     -38.374   3.896  54.118  1.00  0.00    -0.344 N 
ATOM     28  H82 UNL     1     -38.045   4.094  53.173  1.00  0.00     0.176 HD
ATOM     29  H81 UNL     1     -38.501   4.666  54.776  1.00  0.00     0.176 HD
ENDBRANCH  25  27
ENDBRANCH  19  25
ENDBRANCH  14  19
ENDBRANCH   7   8
ENDBRANCH   5   7
BRANCH   6  30
HETATM   30  N12 UNL     1     -38.900  -0.190  45.528  1.00  0.00    -0.262 N 
ATOM     31  H12 UNL     1     -38.556  -0.072  46.482  1.00  0.00     0.190 HD
BRANCH  30  32
HETATM   32  C13 UNL     1     -38.160   0.578  44.610  1.00  0.00     0.207 C 
HETATM   33  N13 UNL     1     -38.647   1.334  43.680  1.00  0.00    -0.345 N 
HETATM   34  C14 UNL     1     -37.606   1.983  42.912  1.00  0.00     0.259 C 
ATOM     35  H13 UNL     1     -39.645   1.458  43.509  1.00  0.00     0.164 HD
HETATM   36  N14 UNL     1     -36.370   1.274  43.286  1.00  0.00    -0.119 NA
HETATM   37  N15 UNL     1     -36.735   0.757  44.534  1.00  0.00    -0.272 N 
ATOM     38  H15 UNL     1     -36.081   0.539  45.285  1.00  0.00     0.185 HD
ENDBRANCH  30  32
ENDBRANCH   6  30
BRANCH   1  39
HETATM   39  C4  UNL     1     -41.126  -0.721  43.260  1.00  0.00     0.274 C 
HETATM   40  N1  UNL     1     -40.771  -1.482  42.102  1.00  0.00    -0.324 N 
ATOM     41  H1  UNL     1     -40.359  -2.411  42.197  1.00  0.00     0.165 HD
HETATM   42  O2  UNL     1     -41.619   0.398  43.043  1.00  0.00    -0.266 OA
BRANCH  40  43
HETATM   43  C2  UNL     1     -41.003  -0.915  40.799  1.00  0.00     0.126 C 
HETATM   44  C1  UNL     1     -40.422  -1.856  39.788  1.00  0.00     0.070 C 
HETATM   45  C3  UNL     1     -42.495  -0.779  40.539  1.00  0.00     0.070 C 
BRANCH  43  46
HETATM   46  O1  UNL     1     -40.459   0.363  40.715  1.00  0.00    -0.372 OA
ATOM     47  H1  UNL     1     -40.073   0.541  39.866  1.00  0.00     0.212 HD
ENDBRANCH  43  46
ENDBRANCH  40  43
ENDBRANCH   1  39
TORSDOF 11
ENDMDL
MODEL 4
REMARK VINA RESULT: -6.806848395      2.096      2.822
REMARK  11 active torsions:
REMARK  status: ('A' for Active; 'I' for Inactive)
REMARK    1  A    between atoms: C2_2  and  O1_4 
REMARK    2  A    between atoms: C2_2  and  N1_6 
REMARK       I    between atoms: N1_6  and  C4_8 
REMARK    3  A    between atoms: C4_8  and  C5_10 
REMARK    4  A    between atoms: C7_14  and  C8_15 
REMARK    5  A    between atoms: C8_15  and  N3_16 
REMARK       I    between atoms: N3_16  and  C9_18 
REMARK       I    between atoms: C9_18  and  N4_20 
REMARK    6  A    between atoms: C11_22  and  C12_23 
REMARK    7  A    between atoms: C12_23  and  N7_29 
REMARK    8  A    between atoms: N5_24  and  N6_26 
REMARK    9  A    between atoms: N7_29  and  N8_31 
REMARK   10  A    between atoms: N11_38  and  N12_39 
REMARK   11  A    between atoms: N12_39  and  C13_41 
ROOT
HETATM    1  C5  UNL     1     -38.350   0.145  44.575  1.00  0.00     0.141 A 
HETATM    2  C6  UNL     1     -37.001   0.389  44.211  1.00  0.00     0.127 A 
HETATM    3  N2  UNL     1     -36.247  -0.086  45.179  1.00  0.00    -0.350 N 
ATOM      4  H2  UNL     1     -35.228  -0.063  45.212  1.00  0.00     0.166 HD
HETATM    5  C7  UNL     1     -37.041  -0.597  46.097  1.00  0.00     0.122 A 
HETATM    6  N11 UNL     1     -38.371  -0.478  45.762  1.00  0.00    -0.233 N 
ENDROOT
BRANCH   5   7
HETATM    7  C8  UNL     1     -36.556  -1.232  47.345  1.00  0.00     0.203 C 
BRANCH   7   8
HETATM    8  N3  UNL     1     -35.615  -0.341  48.002  1.00  0.00    -0.334 N 
HETATM    9  C9  UNL     1     -34.331  -0.808  48.363  1.00  0.00     0.342 C 
HETATM   10  O3  UNL     1     -34.014  -2.001  48.111  1.00  0.00    -0.245 OA
HETATM   11  N4  UNL     1     -33.431   0.081  49.004  1.00  0.00    -0.200 N 
HETATM   12  C10 UNL     1     -32.188  -0.248  49.393  1.00  0.00     0.158 A 
HETATM   13  N10 UNL     1     -33.615   1.346  49.331  1.00  0.00    -0.232 N 
HETATM   14  C11 UNL     1     -31.607   0.861  49.976  1.00  0.00     0.113 A 
HETATM   15  N9  UNL     1     -32.518   1.830  49.921  1.00  0.00    -0.281 N 
ATOM     16  H9  UNL     1     -32.398   2.781  50.269  1.00  0.00     0.188 HD
ATOM     17  H10 UNL     1     -34.470   1.876  49.160  1.00  0.00     0.209 HD
ATOM     18  H3  UNL     1     -35.881   0.623  48.202  1.00  0.00     0.164 HD
BRANCH  14  19
HETATM   19  C12 UNL     1     -30.257   0.877  50.517  1.00  0.00     0.164 C 
HETATM   20  N5  UNL     1     -29.473  -0.132  50.299  1.00  0.00    -0.289 N 
ATOM     21  H5  UNL     1     -29.810  -0.923  49.752  1.00  0.00     0.188 HD
BRANCH  20  22
HETATM   22  N6  UNL     1     -28.177  -0.145  50.803  1.00  0.00    -0.344 N 
ATOM     23  H62 UNL     1     -27.399  -0.245  50.151  1.00  0.00     0.176 HD
ATOM     24  H61 UNL     1     -28.008  -0.055  51.805  1.00  0.00     0.176 HD
ENDBRANCH  20  22
BRANCH  19  25
HETATM   25  N7  UNL     1     -29.826   1.995  51.273  1.00  0.00    -0.289 N 
ATOM     26  H7  UNL     1     -29.463   1.834  52.212  1.00  0.00     0.188 HD
BRANCH  25  27
HETATM   27  N8  UNL     1     -29.873   3.289  50.803  1.00  0.00    -0.344 N 
ATOM     28  H82 UNL     1     -30.782   3.648  50.511  1.00  0.00     0.176 HD
ATOM     29  H81 UNL     1     -29.051   3.890  50.736  1.00  0.00     0.176 HD
ENDBRANCH  25  27
ENDBRANCH  19  25
ENDBRANCH  14  19
ENDBRANCH   7   8
ENDBRANCH   5   7
BRANCH   6  30
HETATM   30  N12 UNL     1     -39.359  -0.998  46.509  1.00  0.00    -0.262 N 
ATOM     31  H12 UNL     1     -39.332  -0.647  47.467  1.00  0.00     0.190 HD
BRANCH  30  32
HETATM   32  C13 UNL     1     -40.421  -1.901  46.316  1.00  0.00     0.207 C 
HETATM   33  N13 UNL     1     -41.512  -1.667  45.660  1.00  0.00    -0.345 N 
HETATM   34  C14 UNL     1     -42.395  -2.814  45.657  1.00  0.00     0.259 C 
ATOM     35  H13 UNL     1     -41.723  -0.781  45.200  1.00  0.00     0.164 HD
HETATM   36  N14 UNL     1     -41.844  -3.712  46.686  1.00  0.00    -0.119 NA
HETATM   37  N15 UNL     1     -40.515  -3.276  46.726  1.00  0.00    -0.272 N 
ATOM     38  H15 UNL     1     -39.724  -3.854  47.007  1.00  0.00     0.185 HD
ENDBRANCH  30  32
ENDBRANCH   6  30
BRANCH   1  39
HETATM   39  C4  UNL     1     -39.400   0.632  43.730  1.00  0.00     0.274 C 
HETATM   40  N1  UNL     1     -39.155   0.969  42.361  1.00  0.00    -0.324 N 
ATOM     41  H1  UNL     1     -38.222   0.868  41.961  1.00  0.00     0.165 HD
HETATM   42  O2  UNL     1     -40.567   0.789  44.125  1.00  0.00    -0.266 OA
BRANCH  40  43
HETATM   43  C2  UNL     1     -40.247   1.453  41.557  1.00  0.00     0.126 C 
HETATM   44  C1  UNL     1     -39.696   1.789  40.205  1.00  0.00     0.070 C 
HETATM   45  C3  UNL     1     -41.306   0.373  41.398  1.00  0.00     0.070 C 
BRANCH  43  46
HETATM   46  O1  UNL     1     -40.865   2.539  42.169  1.00  0.00    -0.372 OA
ATOM     47  H1  UNL     1     -41.806   2.542  42.044  1.00  0.00     0.212 HD
ENDBRANCH  43  46
ENDBRANCH  40  43
ENDBRANCH   1  39
TORSDOF 11
ENDMDL
MODEL 5
REMARK VINA RESULT: -6.801359620      3.183      6.419
REMARK  11 active torsions:
REMARK  status: ('A' for Active; 'I' for Inactive)
REMARK    1  A    between atoms: C2_2  and  O1_4 
REMARK    2  A    between atoms: C2_2  and  N1_6 
REMARK       I    between atoms: N1_6  and  C4_8 
REMARK    3  A    between atoms: C4_8  and  C5_10 
REMARK    4  A    between atoms: C7_14  and  C8_15 
REMARK    5  A    between atoms: C8_15  and  N3_16 
REMARK       I    between atoms: N3_16  and  C9_18 
REMARK       I    between atoms: C9_18  and  N4_20 
REMARK    6  A    between atoms: C11_22  and  C12_23 
REMARK    7  A    between atoms: C12_23  and  N7_29 
REMARK    8  A    between atoms: N5_24  and  N6_26 
REMARK    9  A    between atoms: N7_29  and  N8_31 
REMARK   10  A    between atoms: N11_38  and  N12_39 
REMARK   11  A    between atoms: N12_39  and  C13_41 
ROOT
HETATM    1  C5  UNL     1     -38.228  -1.508  46.179  1.00  0.00     0.141 A 
HETATM    2  C6  UNL     1     -39.338  -2.381  46.053  1.00  0.00     0.127 A 
HETATM    3  N2  UNL     1     -39.476  -3.001  47.205  1.00  0.00    -0.350 N 
ATOM      4  H2  UNL     1     -40.188  -3.695  47.431  1.00  0.00     0.166 HD
HETATM    5  C7  UNL     1     -38.533  -2.566  48.014  1.00  0.00     0.122 A 
HETATM    6  N11 UNL     1     -37.725  -1.625  47.416  1.00  0.00    -0.233 N 
ENDROOT
BRANCH   5   7
HETATM    7  C8  UNL     1     -38.364  -3.035  49.410  1.00  0.00     0.203 C 
BRANCH   7   8
HETATM    8  N3  UNL     1     -39.088  -2.148  50.304  1.00  0.00    -0.334 N 
HETATM    9  C9  UNL     1     -38.382  -1.240  51.125  1.00  0.00     0.342 C 
HETATM   10  O3  UNL     1     -37.124  -1.208  51.072  1.00  0.00    -0.245 OA
HETATM   11  N4  UNL     1     -39.112  -0.385  51.990  1.00  0.00    -0.200 N 
HETATM   12  C10 UNL     1     -38.554   0.516  52.814  1.00  0.00     0.158 A 
HETATM   13  N10 UNL     1     -40.419  -0.301  52.155  1.00  0.00    -0.232 N 
HETATM   14  C11 UNL     1     -39.563   1.164  53.499  1.00  0.00     0.113 A 
HETATM   15  N9  UNL     1     -40.705   0.634  53.067  1.00  0.00    -0.281 N 
ATOM     16  H9  UNL     1     -41.640   0.897  53.378  1.00  0.00     0.188 HD
ATOM     17  H10 UNL     1     -41.109  -0.867  51.661  1.00  0.00     0.209 HD
ATOM     18  H3  UNL     1     -40.107  -2.182  50.340  1.00  0.00     0.164 HD
BRANCH  14  19
HETATM   19  C12 UNL     1     -39.331   2.210  54.483  1.00  0.00     0.164 C 
HETATM   20  N5  UNL     1     -38.666   3.268  54.140  1.00  0.00    -0.289 N 
ATOM     21  H5  UNL     1     -38.313   3.356  53.188  1.00  0.00     0.188 HD
BRANCH  20  22
HETATM   22  N6  UNL     1     -38.430   4.285  55.058  1.00  0.00    -0.344 N 
ATOM     23  H62 UNL     1     -39.004   5.127  55.015  1.00  0.00     0.176 HD
ATOM     24  H61 UNL     1     -37.697   4.192  55.761  1.00  0.00     0.176 HD
ENDBRANCH  20  22
BRANCH  19  25
HETATM   25  N7  UNL     1     -39.838   2.052  55.796  1.00  0.00    -0.289 N 
ATOM     26  H7  UNL     1     -39.175   1.912  56.558  1.00  0.00     0.188 HD
BRANCH  25  27
HETATM   27  N8  UNL     1     -41.183   2.078  56.096  1.00  0.00    -0.344 N 
ATOM     28  H82 UNL     1     -41.748   1.289  55.782  1.00  0.00     0.176 HD
ATOM     29  H81 UNL     1     -41.628   2.840  56.609  1.00  0.00     0.176 HD
ENDBRANCH  25  27
ENDBRANCH  19  25
ENDBRANCH  14  19
ENDBRANCH   7   8
ENDBRANCH   5   7
BRANCH   6  30
HETATM   30  N12 UNL     1     -36.745  -0.984  48.075  1.00  0.00    -0.262 N 
ATOM     31  H12 UNL     1     -37.111  -0.433  48.852  1.00  0.00     0.190 HD
BRANCH  30  32
HETATM   32  C13 UNL     1     -35.346  -0.874  47.972  1.00  0.00     0.207 C 
HETATM   33  N13 UNL     1     -34.532  -0.565  48.930  1.00  0.00    -0.345 N 
HETATM   34  C14 UNL     1     -33.156  -0.539  48.480  1.00  0.00     0.259 C 
ATOM     35  H13 UNL     1     -34.825  -0.365  49.886  1.00  0.00     0.164 HD
HETATM   36  N14 UNL     1     -33.244  -0.562  47.010  1.00  0.00    -0.119 NA
HETATM   37  N15 UNL     1     -34.506  -1.138  46.834  1.00  0.00    -0.272 N 
ATOM     38  H15 UNL     1     -34.792  -1.671  46.013  1.00  0.00     0.185 HD
ENDBRANCH  30  32
ENDBRANCH   6  30
BRANCH   1  39
HETATM   39  C4  UNL     1     -37.798  -0.754  45.038  1.00  0.00     0.274 C 
HETATM   40  N1  UNL     1     -38.577   0.334  44.532  1.00  0.00    -0.324 N 
ATOM     41  H1  UNL     1     -39.457   0.593  44.978  1.00  0.00     0.165 HD
HETATM   42  O2  UNL     1     -36.743  -0.994  44.429  1.00  0.00    -0.266 OA
BRANCH  40  43
HETATM   43  C2  UNL     1     -38.098   1.057  43.383  1.00  0.00     0.126 C 
HETATM   44  C1  UNL     1     -38.336   0.199  42.178  1.00  0.00     0.070 C 
HETATM   45  C3  UNL     1     -38.870   2.357  43.216  1.00  0.00     0.070 C 
BRANCH  43  46
HETATM   46  O1  UNL     1     -36.758   1.400  43.541  1.00  0.00    -0.372 OA
ATOM     47  H1  UNL     1     -36.453   1.280  44.433  1.00  0.00     0.212 HD
ENDBRANCH  43  46
ENDBRANCH  40  43
ENDBRANCH   1  39
TORSDOF 11
ENDMDL
