MODEL 1
REMARK VINA RESULT: -5.466943884      0.000      0.000
REMARK  1 active torsions:
REMARK  status: ('A' for Active; 'I' for Inactive)
REMARK    1  A    between atoms: O1_2  and  C2_3 
ROOT
HETATM    1  C2  UNL     1      84.956 -53.620 -25.066  1.00  0.00     0.262 C 
HETATM    2  C3  UNL     1      85.923 -54.023 -26.109  1.00  0.00     0.072 C 
HETATM    3  C4  UNL     1      87.004 -53.053 -26.426  1.00  0.00     0.005 C 
HETATM    4  C5  UNL     1      86.639 -52.024 -27.467  1.00  0.00     0.002 C 
HETATM    5  C6  UNL     1      85.338 -51.338 -27.219  1.00  0.00     0.030 C 
HETATM    6  C7  UNL     1      85.099 -51.295 -25.734  1.00  0.00     0.276 C 
HETATM    7  N1  UNL     1      84.327 -52.359 -25.226  1.00  0.00     0.123 N 
HETATM    8  C8  UNL     1      84.254 -52.284 -23.775  1.00  0.00     0.281 C 
HETATM    9  C9  UNL     1      85.492 -53.165 -23.743  1.00  0.00     0.102 C 
ENDROOT
BRANCH   1  10
HETATM   10  O1  UNL     1      83.983 -54.599 -24.869  1.00  0.00    -0.357 OA
HETATM   11  C1  UNL     1      84.212 -55.782 -25.498  1.00  0.00     0.204 C 
ENDBRANCH   1  10
TORSDOF 1
ENDMDL
MODEL 2
REMARK VINA RESULT: -5.406173607      1.583      3.552
REMARK  1 active torsions:
REMARK  status: ('A' for Active; 'I' for Inactive)
REMARK    1  A    between atoms: O1_2  and  C2_3 
ROOT
HETATM    1  C2  UNL     1      85.464 -53.510 -25.331  1.00  0.00     0.262 C 
HETATM    2  C3  UNL     1      85.393 -54.792 -26.063  1.00  0.00     0.072 C 
HETATM    3  C4  UNL     1      84.137 -55.575 -25.915  1.00  0.00     0.005 C 
HETATM    4  C5  UNL     1      84.111 -56.502 -24.724  1.00  0.00     0.002 C 
HETATM    5  C6  UNL     1      84.514 -55.858 -23.441  1.00  0.00     0.030 C 
HETATM    6  C7  UNL     1      84.147 -54.400 -23.503  1.00  0.00     0.276 C 
HETATM    7  N1  UNL     1      85.178 -53.546 -23.943  1.00  0.00     0.123 N 
HETATM    8  C8  UNL     1      84.685 -52.184 -24.076  1.00  0.00     0.281 C 
HETATM    9  C9  UNL     1      84.351 -52.527 -25.518  1.00  0.00     0.102 C 
ENDROOT
BRANCH   1  10
HETATM   10  O1  UNL     1      86.691 -52.878 -25.533  1.00  0.00    -0.357 OA
HETATM   11  C1  UNL     1      87.258 -53.081 -26.751  1.00  0.00     0.204 C 
ENDBRANCH   1  10
TORSDOF 1
ENDMDL
MODEL 3
REMARK VINA RESULT: -4.764595393      1.681      3.745
REMARK  1 active torsions:
REMARK  status: ('A' for Active; 'I' for Inactive)
REMARK    1  A    between atoms: O1_2  and  C2_3 
ROOT
HETATM    1  C2  UNL     1      85.628 -52.759 -25.895  1.00  0.00     0.262 C 
HETATM    2  C3  UNL     1      84.856 -52.789 -24.634  1.00  0.00     0.072 C 
HETATM    3  C4  UNL     1      85.069 -53.966 -23.750  1.00  0.00     0.005 C 
HETATM    4  C5  UNL     1      84.193 -55.154 -24.064  1.00  0.00     0.002 C 
HETATM    5  C6  UNL     1      84.181 -55.541 -25.504  1.00  0.00     0.030 C 
HETATM    6  C7  UNL     1      85.507 -55.169 -26.108  1.00  0.00     0.276 C 
HETATM    7  N1  UNL     1      85.544 -53.903 -26.727  1.00  0.00     0.123 N 
HETATM    8  C8  UNL     1      86.894 -53.597 -27.173  1.00  0.00     0.281 C 
HETATM    9  C9  UNL     1      87.112 -52.943 -25.819  1.00  0.00     0.102 C 
ENDROOT
BRANCH   1  10
HETATM   10  O1  UNL     1      85.331 -51.620 -26.644  1.00  0.00    -0.357 OA
HETATM   11  C1  UNL     1      84.220 -50.940 -26.257  1.00  0.00     0.204 C 
ENDBRANCH   1  10
TORSDOF 1
ENDMDL
MODEL 4
REMARK VINA RESULT: -4.694189145      1.560      3.694
REMARK  1 active torsions:
REMARK  status: ('A' for Active; 'I' for Inactive)
REMARK    1  A    between atoms: O1_2  and  C2_3 
ROOT
HETATM    1  C2  UNL     1      84.768 -53.124 -24.352  1.00  0.00     0.262 C 
HETATM    2  C3  UNL     1      84.169 -54.039 -23.357  1.00  0.00     0.072 C 
HETATM    3  C4  UNL     1      84.711 -55.423 -23.314  1.00  0.00     0.005 C 
HETATM    4  C5  UNL     1      84.054 -56.385 -24.274  1.00  0.00     0.002 C 
HETATM    5  C6  UNL     1      83.950 -55.876 -25.672  1.00  0.00     0.030 C 
HETATM    6  C7  UNL     1      85.098 -54.938 -25.924  1.00  0.00     0.276 C 
HETATM    7  N1  UNL     1      84.814 -53.577 -25.695  1.00  0.00     0.123 N 
HETATM    8  C8  UNL     1      86.016 -52.774 -25.855  1.00  0.00     0.281 C 
HETATM    9  C9  UNL     1      86.258 -52.976 -24.369  1.00  0.00     0.102 C 
ENDROOT
BRANCH   1  10
HETATM   10  O1  UNL     1      84.168 -51.865 -24.310  1.00  0.00    -0.357 OA
HETATM   11  C1  UNL     1      83.958 -51.362 -23.065  1.00  0.00     0.204 C 
ENDBRANCH   1  10
TORSDOF 1
ENDMDL
MODEL 5
REMARK VINA RESULT: -4.601997900      1.712      3.892
REMARK  1 active torsions:
REMARK  status: ('A' for Active; 'I' for Inactive)
REMARK    1  A    between atoms: O1_2  and  C2_3 
ROOT
HETATM    1  C2  UNL     1      84.717 -52.532 -25.286  1.00  0.00     0.262 C 
HETATM    2  C3  UNL     1      84.283 -51.667 -24.168  1.00  0.00     0.072 C 
HETATM    3  C4  UNL     1      84.693 -52.087 -22.802  1.00  0.00     0.005 C 
HETATM    4  C5  UNL     1      83.750 -53.057 -22.133  1.00  0.00     0.002 C 
HETATM    5  C6  UNL     1      83.374 -54.225 -22.980  1.00  0.00     0.030 C 
HETATM    6  C7  UNL     1      84.513 -54.521 -23.917  1.00  0.00     0.276 C 
HETATM    7  N1  UNL     1      84.412 -53.913 -25.185  1.00  0.00     0.123 N 
HETATM    8  C8  UNL     1      85.613 -54.168 -25.965  1.00  0.00     0.281 C 
HETATM    9  C9  UNL     1      86.170 -52.878 -25.389  1.00  0.00     0.102 C 
ENDROOT
BRANCH   1  10
HETATM   10  O1  UNL     1      84.258 -52.047 -26.511  1.00  0.00    -0.357 OA
HETATM   11  C1  UNL     1      83.949 -50.724 -26.535  1.00  0.00     0.204 C 
ENDBRANCH   1  10
TORSDOF 1
ENDMDL
