MODEL 1
REMARK VINA RESULT: -4.718257965      0.000      0.000
REMARK  2 active torsions:
REMARK  status: ('A' for Active; 'I' for Inactive)
REMARK    1  A    between atoms: O1_1  and  N1_3 
REMARK    2  A    between atoms: N1_3  and  N2_5 
ROOT
HETATM    1  N2  UNL     1      83.484 -52.426 -22.358  1.00  0.00    -0.265 N 
HETATM    2  C1  UNL     1      84.262 -51.484 -23.254  1.00  0.00     0.161 A 
HETATM    3  C2  UNL     1      83.953 -51.718 -24.682  1.00  0.00     0.037 C 
HETATM    4  C3  UNL     1      84.898 -52.643 -25.393  1.00  0.00     0.016 C 
HETATM    5  C4  UNL     1      84.188 -53.908 -25.758  1.00  0.00     0.008 C 
HETATM    6  C5  UNL     1      84.358 -55.034 -24.822  1.00  0.00     0.031 C 
HETATM    7  C6  UNL     1      84.880 -54.729 -23.470  1.00  0.00     0.275 C 
HETATM    8  N3  UNL     1      85.540 -53.499 -23.292  1.00  0.00     0.115 N 
HETATM    9  C7  UNL     1      86.084 -52.903 -24.485  1.00  0.00     0.280 C 
HETATM   10  C8  UNL     1      84.898 -52.522 -22.498  1.00  0.00     0.365 A 
ENDROOT
BRANCH   1  11
HETATM   11  N1  UNL     1      82.167 -52.656 -21.963  1.00  0.00    -0.210 N 
ATOM     12  H1  UNL     1      81.547 -51.856 -21.837  1.00  0.00     0.215 HD
BRANCH  11  13
HETATM   13  O1  UNL     1      81.715 -53.807 -21.757  1.00  0.00    -0.275 OA
ATOM     14  H1  UNL     1      80.802 -54.030 -21.893  1.00  0.00     0.246 HD
ENDBRANCH  11  13
ENDBRANCH   1  11
TORSDOF 2
ENDMDL
MODEL 2
REMARK VINA RESULT: -4.489185430      9.659     10.760
REMARK  2 active torsions:
REMARK  status: ('A' for Active; 'I' for Inactive)
REMARK    1  A    between atoms: O1_1  and  N1_3 
REMARK    2  A    between atoms: N1_3  and  N2_5 
ROOT
HETATM    1  N2  UNL     1      93.002 -49.412 -29.783  1.00  0.00    -0.265 N 
HETATM    2  C1  UNL     1      92.779 -48.411 -28.667  1.00  0.00     0.161 A 
HETATM    3  C2  UNL     1      91.601 -48.772 -27.846  1.00  0.00     0.037 C 
HETATM    4  C3  UNL     1      90.318 -48.106 -28.250  1.00  0.00     0.016 C 
HETATM    5  C4  UNL     1      89.369 -49.126 -28.795  1.00  0.00     0.008 C 
HETATM    6  C5  UNL     1      89.343 -49.261 -30.263  1.00  0.00     0.031 C 
HETATM    7  C6  UNL     1      90.471 -48.677 -31.025  1.00  0.00     0.275 C 
HETATM    8  N3  UNL     1      91.265 -47.715 -30.374  1.00  0.00     0.115 N 
HETATM    9  C7  UNL     1      90.639 -47.032 -29.271  1.00  0.00     0.280 C 
HETATM   10  C8  UNL     1      92.591 -48.075 -30.047  1.00  0.00     0.365 A 
ENDROOT
BRANCH   1  11
HETATM   11  N1  UNL     1      93.384 -50.743 -29.943  1.00  0.00    -0.210 N 
ATOM     12  H1  UNL     1      94.375 -50.977 -29.887  1.00  0.00     0.215 HD
BRANCH  11  13
HETATM   13  O1  UNL     1      92.559 -51.663 -30.152  1.00  0.00    -0.275 OA
ATOM     14  H1  UNL     1      91.863 -51.590 -30.794  1.00  0.00     0.246 HD
ENDBRANCH  11  13
ENDBRANCH   1  11
TORSDOF 2
ENDMDL
MODEL 3
REMARK VINA RESULT: -4.313876319      9.984     10.882
REMARK  2 active torsions:
REMARK  status: ('A' for Active; 'I' for Inactive)
REMARK    1  A    between atoms: O1_1  and  N1_3 
REMARK    2  A    between atoms: N1_3  and  N2_5 
ROOT
HETATM    1  N2  UNL     1      92.946 -48.926 -29.339  1.00  0.00    -0.265 N 
HETATM    2  C1  UNL     1      92.201 -48.325 -28.164  1.00  0.00     0.161 A 
HETATM    3  C2  UNL     1      90.943 -49.055 -27.891  1.00  0.00     0.037 C 
HETATM    4  C3  UNL     1      89.719 -48.475 -28.538  1.00  0.00     0.016 C 
HETATM    5  C4  UNL     1      89.210 -49.411 -29.588  1.00  0.00     0.008 C 
HETATM    6  C5  UNL     1      89.638 -49.123 -30.969  1.00  0.00     0.031 C 
HETATM    7  C6  UNL     1      90.784 -48.204 -31.154  1.00  0.00     0.275 C 
HETATM    8  N3  UNL     1      91.130 -47.372 -30.072  1.00  0.00     0.115 N 
HETATM    9  C7  UNL     1      90.082 -47.121 -29.117  1.00  0.00     0.280 C 
HETATM   10  C8  UNL     1      92.351 -47.635 -29.411  1.00  0.00     0.365 A 
ENDROOT
BRANCH   1  11
HETATM   11  N1  UNL     1      93.635 -50.094 -29.662  1.00  0.00    -0.210 N 
ATOM     12  H1  UNL     1      93.100 -50.926 -29.907  1.00  0.00     0.215 HD
BRANCH  11  13
HETATM   13  O1  UNL     1      94.887 -50.161 -29.664  1.00  0.00    -0.275 OA
ATOM     14  H1  UNL     1      95.430 -49.636 -29.088  1.00  0.00     0.246 HD
ENDBRANCH  11  13
ENDBRANCH   1  11
TORSDOF 2
ENDMDL
MODEL 4
REMARK VINA RESULT: -4.265827916     10.229     11.284
REMARK  2 active torsions:
REMARK  status: ('A' for Active; 'I' for Inactive)
REMARK    1  A    between atoms: O1_1  and  N1_3 
REMARK    2  A    between atoms: N1_3  and  N2_5 
ROOT
HETATM    1  N2  UNL     1      93.707 -49.039 -29.285  1.00  0.00    -0.265 N 
HETATM    2  C1  UNL     1      93.579 -48.284 -27.977  1.00  0.00     0.161 A 
HETATM    3  C2  UNL     1      92.295 -48.580 -27.305  1.00  0.00     0.037 C 
HETATM    4  C3  UNL     1      91.189 -47.607 -27.592  1.00  0.00     0.016 C 
HETATM    5  C4  UNL     1      90.118 -48.278 -28.392  1.00  0.00     0.008 C 
HETATM    6  C5  UNL     1      90.185 -48.080 -29.850  1.00  0.00     0.031 C 
HETATM    7  C6  UNL     1      91.457 -47.574 -30.416  1.00  0.00     0.275 C 
HETATM    8  N3  UNL     1      92.357 -46.950 -29.532  1.00  0.00     0.115 N 
HETATM    9  C7  UNL     1      91.779 -46.418 -28.325  1.00  0.00     0.280 C 
HETATM   10  C8  UNL     1      93.566 -47.623 -29.249  1.00  0.00     0.365 A 
ENDROOT
BRANCH   1  11
HETATM   11  N1  UNL     1      93.854 -50.351 -29.733  1.00  0.00    -0.210 N 
ATOM     12  H1  UNL     1      94.795 -50.726 -29.849  1.00  0.00     0.215 HD
BRANCH  11  13
HETATM   13  O1  UNL     1      92.875 -51.088 -29.999  1.00  0.00    -0.275 OA
ATOM     14  H1  UNL     1      92.933 -51.818 -30.605  1.00  0.00     0.246 HD
ENDBRANCH  11  13
ENDBRANCH   1  11
TORSDOF 2
ENDMDL
MODEL 5
REMARK VINA RESULT: -4.233679726      9.268     10.308
REMARK  2 active torsions:
REMARK  status: ('A' for Active; 'I' for Inactive)
REMARK    1  A    between atoms: O1_1  and  N1_3 
REMARK    2  A    between atoms: N1_3  and  N2_5 
ROOT
HETATM    1  N2  UNL     1      91.229 -47.293 -27.854  1.00  0.00    -0.265 N 
HETATM    2  C1  UNL     1      89.874 -47.567 -28.472  1.00  0.00     0.161 A 
HETATM    3  C2  UNL     1      89.652 -49.017 -28.667  1.00  0.00     0.037 C 
HETATM    4  C3  UNL     1      90.009 -49.536 -30.029  1.00  0.00     0.016 C 
HETATM    5  C4  UNL     1      91.192 -50.446 -29.930  1.00  0.00     0.008 C 
HETATM    6  C5  UNL     1      92.501 -49.831 -30.216  1.00  0.00     0.031 C 
HETATM    7  C6  UNL     1      92.580 -48.352 -30.208  1.00  0.00     0.275 C 
HETATM    8  N3  UNL     1      91.374 -47.637 -30.325  1.00  0.00     0.115 N 
HETATM    9  C7  UNL     1      90.282 -48.351 -30.935  1.00  0.00     0.280 C 
HETATM   10  C8  UNL     1      90.928 -46.918 -29.194  1.00  0.00     0.365 A 
ENDROOT
BRANCH   1  11
HETATM   11  N1  UNL     1      91.893 -47.487 -26.643  1.00  0.00    -0.210 N 
ATOM     12  H1  UNL     1      91.716 -46.836 -25.878  1.00  0.00     0.215 HD
BRANCH  11  13
HETATM   13  O1  UNL     1      92.700 -48.429 -26.458  1.00  0.00    -0.275 OA
ATOM     14  H1  UNL     1      93.409 -48.380 -25.829  1.00  0.00     0.246 HD
ENDBRANCH  11  13
ENDBRANCH   1  11
TORSDOF 2
ENDMDL
