MODEL 1
REMARK VINA RESULT: -7.756680990      0.000      0.000
REMARK  6 active torsions:
REMARK  status: ('A' for Active; 'I' for Inactive)
REMARK    1  A    between atoms: N3_8  and  C5_10 
REMARK    2  A    between atoms: C5_10  and  C6_11 
REMARK    3  A    between atoms: C6_11  and  C7_12 
REMARK    4  A    between atoms: C7_12  and  N4_13 
REMARK    5  A    between atoms: N4_13  and  C8_16 
REMARK    6  A    between atoms: C8_16  and  C9_17 
ROOT
HETATM    1  C5  UNL     1      56.836  44.933  35.202  1.00  0.00     0.123 C 
ENDROOT
BRANCH   1   2
HETATM    2  N3  UNL     1      55.591  44.688  35.839  1.00  0.00    -0.376 N 
HETATM    3  C4  UNL     1      54.594  45.494  35.971  1.00  0.00     0.102 A 
HETATM    4  N2  UNL     1      54.590  46.753  35.500  1.00  0.00    -0.352 N 
HETATM    5  C13 UNL     1      53.463  45.009  36.649  1.00  0.00     0.074 A 
HETATM    6  C3  UNL     1      53.493  47.497  35.699  1.00  0.00     0.091 A 
ATOM      7  H2  UNL     1      55.397  47.130  35.005  1.00  0.00     0.166 HD
HETATM    8  C2  UNL     1      52.369  47.061  36.353  1.00  0.00     0.043 A 
HETATM    9  C1  UNL     1      52.341  45.774  36.851  1.00  0.00     0.051 A 
HETATM   10  N1  UNL     1      51.201  45.272  37.538  1.00  0.00    -0.102 NA
ATOM     11  H3  UNL     1      55.470  43.758  36.242  1.00  0.00     0.161 HD
ENDBRANCH   1   2
BRANCH   1  12
HETATM   12  C6  UNL     1      57.832  43.906  35.738  1.00  0.00     0.047 C 
BRANCH  12  13
HETATM   13  C7  UNL     1      57.639  43.609  37.188  1.00  0.00     0.234 C 
BRANCH  13  14
HETATM   14  N4  UNL     1      57.995  42.220  37.406  1.00  0.00    -0.069 N 
ATOM     15  H42 UNL     1      59.007  42.106  37.469  1.00  0.00     0.277 HD
ATOM     16  H41 UNL     1      57.738  41.918  38.346  1.00  0.00     0.277 HD
BRANCH  14  17
HETATM   17  C8  UNL     1      57.438  41.349  36.412  1.00  0.00     0.296 C 
BRANCH  17  18
HETATM   18  C9  UNL     1      58.475  40.307  36.094  1.00  0.00     0.078 A 
HETATM   19  C10 UNL     1      59.316  40.348  35.017  1.00  0.00     0.036 A 
HETATM   20  C11 UNL     1      60.109  39.230  35.073  1.00  0.00     0.027 A 
HETATM   21  C12 UNL     1      59.714  38.541  36.199  1.00  0.00     0.142 A 
HETATM   22  O1  UNL     1      58.748  39.227  36.758  1.00  0.00    -0.325 OA
ENDBRANCH  17  18
ENDBRANCH  14  17
ENDBRANCH  13  14
ENDBRANCH  12  13
ENDBRANCH   1  12
TORSDOF 6
ENDMDL
MODEL 2
REMARK VINA RESULT: -7.425060531      1.247      1.523
REMARK  6 active torsions:
REMARK  status: ('A' for Active; 'I' for Inactive)
REMARK    1  A    between atoms: N3_8  and  C5_10 
REMARK    2  A    between atoms: C5_10  and  C6_11 
REMARK    3  A    between atoms: C6_11  and  C7_12 
REMARK    4  A    between atoms: C7_12  and  N4_13 
REMARK    5  A    between atoms: N4_13  and  C8_16 
REMARK    6  A    between atoms: C8_16  and  C9_17 
ROOT
HETATM    1  C5  UNL     1      56.559  45.826  36.418  1.00  0.00     0.123 C 
ENDROOT
BRANCH   1   2
HETATM    2  N3  UNL     1      55.372  46.062  35.676  1.00  0.00    -0.376 N 
HETATM    3  C4  UNL     1      54.153  45.858  36.042  1.00  0.00     0.102 A 
HETATM    4  N2  UNL     1      53.812  45.365  37.244  1.00  0.00    -0.352 N 
HETATM    5  C13 UNL     1      53.145  46.174  35.116  1.00  0.00     0.074 A 
HETATM    6  C3  UNL     1      52.509  45.197  37.510  1.00  0.00     0.091 A 
ATOM      7  H2  UNL     1      54.523  45.127  37.935  1.00  0.00     0.166 HD
HETATM    8  C2  UNL     1      51.495  45.494  36.636  1.00  0.00     0.043 A 
HETATM    9  C1  UNL     1      51.811  46.001  35.391  1.00  0.00     0.051 A 
HETATM   10  N1  UNL     1      50.799  46.326  34.447  1.00  0.00    -0.102 NA
ATOM     11  H3  UNL     1      55.500  46.439  34.737  1.00  0.00     0.161 HD
ENDBRANCH   1   2
BRANCH   1  12
HETATM   12  C6  UNL     1      57.068  44.436  36.037  1.00  0.00     0.047 C 
BRANCH  12  13
HETATM   13  C7  UNL     1      57.368  43.581  37.223  1.00  0.00     0.234 C 
BRANCH  13  14
HETATM   14  N4  UNL     1      58.234  42.504  36.784  1.00  0.00    -0.069 N 
ATOM     15  H42 UNL     1      58.836  42.805  36.018  1.00  0.00     0.277 HD
ATOM     16  H41 UNL     1      58.948  42.298  37.483  1.00  0.00     0.277 HD
BRANCH  14  17
HETATM   17  C8  UNL     1      57.501  41.321  36.431  1.00  0.00     0.296 C 
BRANCH  17  18
HETATM   18  C9  UNL     1      58.505  40.257  36.081  1.00  0.00     0.078 A 
HETATM   19  C10 UNL     1      59.358  40.311  35.014  1.00  0.00     0.036 A 
HETATM   20  C11 UNL     1      60.111  39.165  35.034  1.00  0.00     0.027 A 
HETATM   21  C12 UNL     1      59.681  38.446  36.128  1.00  0.00     0.142 A 
HETATM   22  O1  UNL     1      58.734  39.143  36.705  1.00  0.00    -0.325 OA
ENDBRANCH  17  18
ENDBRANCH  14  17
ENDBRANCH  13  14
ENDBRANCH  12  13
ENDBRANCH   1  12
TORSDOF 6
ENDMDL
MODEL 3
REMARK VINA RESULT: -7.411090314      1.388      2.088
REMARK  6 active torsions:
REMARK  status: ('A' for Active; 'I' for Inactive)
REMARK    1  A    between atoms: N3_8  and  C5_10 
REMARK    2  A    between atoms: C5_10  and  C6_11 
REMARK    3  A    between atoms: C6_11  and  C7_12 
REMARK    4  A    between atoms: C7_12  and  N4_13 
REMARK    5  A    between atoms: N4_13  and  C8_16 
REMARK    6  A    between atoms: C8_16  and  C9_17 
ROOT
HETATM    1  C5  UNL     1      56.340  45.476  38.769  1.00  0.00     0.123 C 
ENDROOT
BRANCH   1   2
HETATM    2  N3  UNL     1      56.081  45.629  37.381  1.00  0.00    -0.376 N 
HETATM    3  C4  UNL     1      55.012  46.076  36.817  1.00  0.00     0.102 A 
HETATM    4  N2  UNL     1      53.928  46.483  37.499  1.00  0.00    -0.352 N 
HETATM    5  C13 UNL     1      55.003  46.130  35.414  1.00  0.00     0.074 A 
HETATM    6  C3  UNL     1      52.875  46.929  36.801  1.00  0.00     0.091 A 
ATOM      7  H2  UNL     1      53.908  46.454  38.518  1.00  0.00     0.166 HD
HETATM    8  C2  UNL     1      52.826  46.999  35.432  1.00  0.00     0.043 A 
HETATM    9  C1  UNL     1      53.922  46.587  34.701  1.00  0.00     0.051 A 
HETATM   10  N1  UNL     1      53.924  46.638  33.280  1.00  0.00    -0.102 NA
ATOM     11  H3  UNL     1      56.835  45.351  36.752  1.00  0.00     0.161 HD
ENDBRANCH   1   2
BRANCH   1  12
HETATM   12  C6  UNL     1      57.542  44.543  38.909  1.00  0.00     0.047 C 
BRANCH  12  13
HETATM   13  C7  UNL     1      58.004  43.990  37.601  1.00  0.00     0.234 C 
BRANCH  13  14
HETATM   14  N4  UNL     1      58.045  42.545  37.722  1.00  0.00    -0.069 N 
ATOM     15  H42 UNL     1      59.001  42.213  37.851  1.00  0.00     0.277 HD
ATOM     16  H41 UNL     1      57.644  42.239  38.609  1.00  0.00     0.277 HD
BRANCH  14  17
HETATM   17  C8  UNL     1      57.414  41.885  36.615  1.00  0.00     0.296 C 
BRANCH  17  18
HETATM   18  C9  UNL     1      58.308  40.747  36.201  1.00  0.00     0.078 A 
HETATM   19  C10 UNL     1      59.131  40.761  35.110  1.00  0.00     0.036 A 
HETATM   20  C11 UNL     1      59.777  39.551  35.070  1.00  0.00     0.027 A 
HETATM   21  C12 UNL     1      59.315  38.837  36.154  1.00  0.00     0.142 A 
HETATM   22  O1  UNL     1      58.451  39.596  36.782  1.00  0.00    -0.325 OA
ENDBRANCH  17  18
ENDBRANCH  14  17
ENDBRANCH  13  14
ENDBRANCH  12  13
ENDBRANCH   1  12
TORSDOF 6
ENDMDL
MODEL 4
REMARK VINA RESULT: -7.346590374      0.937      1.179
REMARK  6 active torsions:
REMARK  status: ('A' for Active; 'I' for Inactive)
REMARK    1  A    between atoms: N3_8  and  C5_10 
REMARK    2  A    between atoms: C5_10  and  C6_11 
REMARK    3  A    between atoms: C6_11  and  C7_12 
REMARK    4  A    between atoms: C7_12  and  N4_13 
REMARK    5  A    between atoms: N4_13  and  C8_16 
REMARK    6  A    between atoms: C8_16  and  C9_17 
ROOT
HETATM    1  C5  UNL     1      56.737  45.034  36.923  1.00  0.00     0.123 C 
ENDROOT
BRANCH   1   2
HETATM    2  N3  UNL     1      55.361  44.811  37.194  1.00  0.00    -0.376 N 
HETATM    3  C4  UNL     1      54.359  45.559  36.882  1.00  0.00     0.102 A 
HETATM    4  N2  UNL     1      54.478  46.722  36.219  1.00  0.00    -0.352 N 
HETATM    5  C13 UNL     1      53.083  45.114  37.266  1.00  0.00     0.074 A 
HETATM    6  C3  UNL     1      53.362  47.412  35.951  1.00  0.00     0.091 A 
ATOM      7  H2  UNL     1      55.392  47.068  35.929  1.00  0.00     0.166 HD
HETATM    8  C2  UNL     1      52.099  47.013  36.307  1.00  0.00     0.043 A 
HETATM    9  C1  UNL     1      51.941  45.823  36.990  1.00  0.00     0.051 A 
HETATM   10  N1  UNL     1      50.654  45.362  37.384  1.00  0.00    -0.102 NA
ATOM     11  H3  UNL     1      55.138  43.952  37.698  1.00  0.00     0.161 HD
ENDBRANCH   1   2
BRANCH   1  12
HETATM   12  C6  UNL     1      57.054  44.361  35.588  1.00  0.00     0.047 C 
BRANCH  12  13
HETATM   13  C7  UNL     1      58.299  43.538  35.634  1.00  0.00     0.234 C 
BRANCH  13  14
HETATM   14  N4  UNL     1      58.165  42.594  36.727  1.00  0.00    -0.069 N 
ATOM     15  H42 UNL     1      59.073  42.376  37.137  1.00  0.00     0.277 HD
ATOM     16  H41 UNL     1      57.720  43.029  37.535  1.00  0.00     0.277 HD
BRANCH  14  17
HETATM   17  C8  UNL     1      57.474  41.399  36.337  1.00  0.00     0.296 C 
BRANCH  17  18
HETATM   18  C9  UNL     1      58.514  40.387  35.938  1.00  0.00     0.078 A 
HETATM   19  C10 UNL     1      58.747  39.210  36.593  1.00  0.00     0.036 A 
HETATM   20  C11 UNL     1      59.763  38.568  35.932  1.00  0.00     0.027 A 
HETATM   21  C12 UNL     1      60.115  39.392  34.884  1.00  0.00     0.142 A 
HETATM   22  O1  UNL     1      59.342  40.448  34.942  1.00  0.00    -0.325 OA
ENDBRANCH  17  18
ENDBRANCH  14  17
ENDBRANCH  13  14
ENDBRANCH  12  13
ENDBRANCH   1  12
TORSDOF 6
ENDMDL
MODEL 5
REMARK VINA RESULT: -7.222094474      1.238      1.461
REMARK  6 active torsions:
REMARK  status: ('A' for Active; 'I' for Inactive)
REMARK    1  A    between atoms: N3_8  and  C5_10 
REMARK    2  A    between atoms: C5_10  and  C6_11 
REMARK    3  A    between atoms: C6_11  and  C7_12 
REMARK    4  A    between atoms: C7_12  and  N4_13 
REMARK    5  A    between atoms: N4_13  and  C8_16 
REMARK    6  A    between atoms: C8_16  and  C9_17 
ROOT
HETATM    1  C5  UNL     1      56.477  45.830  38.594  1.00  0.00     0.123 C 
ENDROOT
BRANCH   1   2
HETATM    2  N3  UNL     1      55.175  45.309  38.367  1.00  0.00    -0.376 N 
HETATM    3  C4  UNL     1      54.216  45.838  37.688  1.00  0.00     0.102 A 
HETATM    4  N2  UNL     1      54.314  47.024  37.064  1.00  0.00    -0.352 N 
HETATM    5  C13 UNL     1      53.012  45.119  37.612  1.00  0.00     0.074 A 
HETATM    6  C3  UNL     1      53.247  47.471  36.387  1.00  0.00     0.091 A 
ATOM      7  H2  UNL     1      55.176  47.568  37.103  1.00  0.00     0.166 HD
HETATM    8  C2  UNL     1      52.055  46.800  36.288  1.00  0.00     0.043 A 
HETATM    9  C1  UNL     1      51.920  45.579  36.919  1.00  0.00     0.051 A 
HETATM   10  N1  UNL     1      50.706  44.841  36.848  1.00  0.00    -0.102 NA
ATOM     11  H3  UNL     1      54.975  44.405  38.794  1.00  0.00     0.161 HD
ENDBRANCH   1   2
BRANCH   1  12
HETATM   12  C6  UNL     1      57.444  44.647  38.611  1.00  0.00     0.047 C 
BRANCH  12  13
HETATM   13  C7  UNL     1      57.557  43.968  37.287  1.00  0.00     0.234 C 
BRANCH  13  14
HETATM   14  N4  UNL     1      58.020  42.614  37.522  1.00  0.00    -0.069 N 
ATOM     15  H42 UNL     1      59.026  42.537  37.369  1.00  0.00     0.277 HD
ATOM     16  H41 UNL     1      57.987  42.381  38.514  1.00  0.00     0.277 HD
BRANCH  14  17
HETATM   17  C8  UNL     1      57.303  41.647  36.740  1.00  0.00     0.296 C 
BRANCH  17  18
HETATM   18  C9  UNL     1      58.293  40.604  36.297  1.00  0.00     0.078 A 
HETATM   19  C10 UNL     1      59.002  40.650  35.130  1.00  0.00     0.036 A 
HETATM   20  C11 UNL     1      59.792  39.529  35.086  1.00  0.00     0.027 A 
HETATM   21  C12 UNL     1      59.529  38.834  36.246  1.00  0.00     0.142 A 
HETATM   22  O1  UNL     1      58.637  39.519  36.918  1.00  0.00    -0.325 OA
ENDBRANCH  17  18
ENDBRANCH  14  17
ENDBRANCH  13  14
ENDBRANCH  12  13
ENDBRANCH   1  12
TORSDOF 6
ENDMDL
